MODEL 1
REMARK VINA RESULT:    -5.407      0.000      0.000
REMARK INTER + INTRA:         -24.549
REMARK INTER:                 -16.155
REMARK INTRA:                  -8.394
REMARK UNBOUND:                -8.394
REMARK SMILES C=C1C(=O)N[C@H](C)C(=O)N[C@@H](CC(C)C)C(=O)N[C@@H](C(=O)O)[C@H](C)C(=O)N[C@@H](CCCN=C(N)N)C(=O)N[C@@H](/C=C/C(C)=C/[C@H](C)[C@H](Cc2ccccc2)OC)[C@H](C)C(=O)N[C@@H](C(=O)O)CCC(=O)N1C
REMARK SMILES IDX 39 1 38 2 37 3 36 4 28 6 27 7 25 8 26 9 23 11 24 12 19 13
REMARK SMILES IDX 18 14 16 15 17 16 11 18 10 19 8 20 9 21 12 24 13 25 14 26
REMARK SMILES IDX 15 27 20 28 21 29 22 30 29 32 30 33 31 34 32 35 33 36 34 37
REMARK SMILES IDX 35 38 57 43 58 44 59 45 60 46 61 47 62 49 66 50 67 51 68 52
REMARK SMILES IDX 69 53 70 54 71 55 2 56 1 57 3 58 4 59 5 60 6 62 7 63 63 65
REMARK SMILES IDX 64 66 65 67 40 69 41 70 42 71 44 72 43 73 45 74 46 75 47 76
REMARK SMILES IDX 55 77 56 78 48 79 49 80 50 81 54 82 51 83 53 84 52 85
REMARK H PARENT 38 5 27 10 18 17 10 22 22 31 34 39 34 40 35 41 35 42 61 48
REMARK H PARENT 5 61 65 68
REMARK Flexibility Score:  369.900
ROOT
ATOM      1  C   UNL     1      16.341   2.512  -1.013  1.00  0.00     0.117 C 
ENDROOT
BRANCH   1   2
ATOM      2  N   UNL     1      16.393   3.347   0.187  1.00  0.00    -0.347 N 
ATOM      3  O   UNL     1      14.189   3.989   0.217  1.00  0.00    -0.273 OA
ATOM      4  C   UNL     1      15.288   3.947   0.760  1.00  0.00     0.243 C 
ATOM      5  H   UNL     1      17.270   3.465   0.670  1.00  0.00     0.164 HD
BRANCH   4   6
ATOM      6  C   UNL     1      15.601   4.705   2.075  1.00  0.00     0.171 C 
BRANCH   6   7
ATOM      7  N   UNL     1      16.022   6.085   1.784  1.00  0.00    -0.344 N 
ATOM      8  C   UNL     1      17.307   6.355   1.367  1.00  0.00     0.226 C 
ATOM      9  O   UNL     1      18.157   5.482   1.239  1.00  0.00    -0.275 OA
ATOM     10  H   UNL     1      15.368   6.841   1.943  1.00  0.00     0.164 HD
BRANCH   8  11
ATOM     11  C   UNL     1      17.570   7.818   1.056  1.00  0.00     0.109 C 
ATOM     12  C   UNL     1      19.066   8.051   0.848  1.00  0.00     0.021 C 
BRANCH  11  13
ATOM     13  C   UNL     1      16.674   8.272  -0.114  1.00  0.00     0.204 C 
BRANCH  13  14
ATOM     14  N   UNL     1      15.342   8.684   0.339  1.00  0.00    -0.340 N 
ATOM     15  C   UNL     1      14.179   8.222  -0.239  1.00  0.00     0.243 C 
ATOM     16  O   UNL     1      14.176   7.382  -1.138  1.00  0.00    -0.273 OA
ATOM     17  H   UNL     1      15.276   9.485   0.972  1.00  0.00     0.164 HD
BRANCH  15  18
ATOM     18  C   UNL     1      12.907   8.950   0.262  1.00  0.00     0.171 C 
BRANCH  18  19
ATOM     19  N   UNL     1      12.932  10.287  -0.326  1.00  0.00    -0.343 N 
ATOM     20  C   UNL     1      12.626  11.414   0.413  1.00  0.00     0.242 CG0
ATOM     21  O   UNL     1      12.191  11.333   1.559  1.00  0.00    -0.273 OA
ATOM     22  H   UNL     1      13.174  10.396  -1.304  1.00  0.00     0.164 HD
ATOM     23  G   UNL     1      12.782  12.742  -0.356  1.00  0.00     0.000 G0
ENDBRANCH  18  19
BRANCH  18  24
ATOM     24  C   UNL     1      11.646   8.179  -0.146  1.00  0.00     0.038 C 
BRANCH  24  25
ATOM     25  C   UNL     1      10.491   8.246   0.875  1.00  0.00    -0.015 C 
ATOM     26  C   UNL     1      10.156   6.878   1.471  1.00  0.00     0.007 C 
ATOM     27  C   UNL     1       9.246   8.836   0.207  1.00  0.00     0.007 C 
ENDBRANCH  24  25
ENDBRANCH  18  24
ENDBRANCH  15  18
ENDBRANCH  13  14
BRANCH  13  28
ATOM     28  C   UNL     1      17.265   9.440  -0.909  1.00  0.00     0.327 C 
ATOM     29  O   UNL     1      17.348  10.600  -0.535  1.00  0.00    -0.250 OA
BRANCH  28  30
ATOM     30  O   UNL     1      17.605   9.104  -2.170  1.00  0.00    -0.480 OA
ATOM     31  H   UNL     1      18.582   9.179  -2.184  1.00  0.00     0.296 HD
ENDBRANCH  28  30
ENDBRANCH  13  28
ENDBRANCH  11  13
ENDBRANCH   8  11
ENDBRANCH   6   7
BRANCH   6  32
ATOM     32  C   UNL     1      14.360   4.689   2.974  1.00  0.00     0.037 C 
BRANCH  32  33
ATOM     33  C   UNL     1      13.540   5.981   2.852  1.00  0.00     0.026 C 
BRANCH  33  34
ATOM     34  C   UNL     1      13.731   6.910   4.052  1.00  0.00     0.146 C 
BRANCH  34  35
ATOM     35  N   UNL     1      14.513   8.065   3.631  1.00  0.00    -0.254 NA
ATOM     36  C   UNL     1      13.956   9.219   3.638  1.00  0.00     0.185 C 
ATOM     37  N   UNL     1      14.668  10.291   3.257  1.00  0.00    -0.370 N 
ATOM     38  N   UNL     1      12.699   9.549   3.986  1.00  0.00    -0.370 N 
ATOM     39  H   UNL     1      15.630  10.125   2.989  1.00  0.00     0.159 HD
ATOM     40  H   UNL     1      14.364  11.239   3.398  1.00  0.00     0.159 HD
ATOM     41  H   UNL     1      12.337  10.472   3.815  1.00  0.00     0.159 HD
ATOM     42  H   UNL     1      12.046   8.839   4.278  1.00  0.00     0.159 HD
ENDBRANCH  34  35
ENDBRANCH  33  34
ENDBRANCH  32  33
ENDBRANCH   6  32
ENDBRANCH   4   6
ENDBRANCH   1   2
BRANCH   1  43
ATOM     43  C   UNL     1      17.385   1.368  -0.866  1.00  0.00     0.102 C 
ATOM     44  C   UNL     1      17.699   0.651  -2.190  1.00  0.00     0.020 C 
BRANCH  43  45
ATOM     45  C   UNL     1      17.007   0.422   0.278  1.00  0.00     0.225 C 
ATOM     46  O   UNL     1      17.816   0.017   1.108  1.00  0.00    -0.275 OA
ATOM     47  N   UNL     1      15.707  -0.029   0.268  1.00  0.00    -0.342 N 
ATOM     48  H   UNL     1      15.024   0.426  -0.321  1.00  0.00     0.164 HD
BRANCH  47  49
ATOM     49  C   UNL     1      15.195  -0.911   1.321  1.00  0.00     0.192 C 
BRANCH  49  50
ATOM     50  C   UNL     1      14.053  -1.766   0.765  1.00  0.00     0.047 C 
BRANCH  50  51
ATOM     51  C   UNL     1      14.421  -3.254   0.696  1.00  0.00     0.103 C 
BRANCH  51  52
ATOM     52  C   UNL     1      14.186  -3.839  -0.695  1.00  0.00     0.226 C 
ATOM     53  O   UNL     1      13.147  -3.574  -1.301  1.00  0.00    -0.275 OA
BRANCH  52  54
ATOM     54  N   UNL     1      15.235  -4.604  -1.239  1.00  0.00    -0.311 N 
ATOM     55  C   UNL     1      14.962  -5.837  -1.989  1.00  0.00     0.153 C 
BRANCH  54  56
ATOM     56  C   UNL     1      16.577  -4.216  -1.091  1.00  0.00     0.102 C 
ATOM     57  C   UNL     1      17.082  -3.033  -1.478  1.00  0.00     0.043 C 
BRANCH  56  58
ATOM     58  C   UNL     1      17.577  -5.126  -0.417  1.00  0.00     0.268 C 
ATOM     59  O   UNL     1      17.439  -5.543   0.725  1.00  0.00    -0.268 OA
ATOM     60  N   UNL     1      18.619  -5.486  -1.238  1.00  0.00    -0.339 N 
ATOM     61  H   UNL     1      18.666  -5.088  -2.168  1.00  0.00     0.164 HD
BRANCH  60  62
ATOM     62  C   UNL     1      19.667  -6.411  -0.807  1.00  0.00     0.168 CG0
ATOM     63  C   UNL     1      20.490  -6.897  -1.994  1.00  0.00     0.041 C 
ATOM     64  G   UNL     1      19.031  -7.601  -0.060  1.00  0.00     0.000 G0
ENDBRANCH  60  62
ENDBRANCH  56  58
ENDBRANCH  54  56
ENDBRANCH  52  54
ENDBRANCH  51  52
ENDBRANCH  50  51
ENDBRANCH  49  50
BRANCH  49  65
ATOM     65  C   UNL     1      14.689  -0.112   2.533  1.00  0.00     0.326 C 
ATOM     66  O   UNL     1      14.624   1.107   2.604  1.00  0.00    -0.250 OA
BRANCH  65  67
ATOM     67  O   UNL     1      14.351  -0.865   3.603  1.00  0.00    -0.480 OA
ATOM     68  H   UNL     1      13.373  -0.923   3.546  1.00  0.00     0.296 HD
ENDBRANCH  65  67
ENDBRANCH  49  65
ENDBRANCH  47  49
ENDBRANCH  43  45
ENDBRANCH   1  43
BRANCH   1  69
ATOM     69  C   UNL     1      16.453   3.460  -2.194  1.00  0.00    -0.001 C 
ATOM     70  C   UNL     1      16.844   4.746  -2.174  1.00  0.00     0.001 C 
BRANCH  70  71
ATOM     71  C   UNL     1      16.969   5.645  -3.324  1.00  0.00    -0.055 C 
ATOM     72  C   UNL     1      15.831   6.097  -3.894  1.00  0.00    -0.018 C 
ATOM     73  C   UNL     1      18.356   6.008  -3.784  1.00  0.00     0.044 C 
BRANCH  72  74
ATOM     74  C   UNL     1      15.655   7.032  -5.082  1.00  0.00     0.038 C 
ATOM     75  C   UNL     1      14.933   8.284  -4.570  1.00  0.00     0.015 C 
BRANCH  74  76
ATOM     76  C   UNL     1      14.911   6.266  -6.215  1.00  0.00     0.128 C 
BRANCH  76  77
ATOM     77  O   UNL     1      14.137   7.186  -7.003  1.00  0.00    -0.381 OA
ATOM     78  C   UNL     1      14.068   6.842  -8.380  1.00  0.00     0.195 C 
ENDBRANCH  76  77
BRANCH  76  79
ATOM     79  C   UNL     1      15.832   5.366  -7.077  1.00  0.00     0.068 C 
BRANCH  79  80
ATOM     80  C   UNL     1      16.285   4.051  -6.491  1.00  0.00    -0.045 A 
ATOM     81  C   UNL     1      17.638   3.689  -6.491  1.00  0.00     0.004 A 
ATOM     82  C   UNL     1      15.347   3.153  -5.959  1.00  0.00     0.004 A 
ATOM     83  C   UNL     1      18.048   2.464  -5.959  1.00  0.00     0.000 A 
ATOM     84  C   UNL     1      15.758   1.928  -5.429  1.00  0.00     0.000 A 
ATOM     85  C   UNL     1      17.108   1.585  -5.427  1.00  0.00     0.000 A 
ENDBRANCH  79  80
ENDBRANCH  76  79
ENDBRANCH  74  76
ENDBRANCH  72  74
ENDBRANCH  70  71
ENDBRANCH   1  69
TORSDOF 17
ENDMDL
MODEL 2
REMARK VINA RESULT:    -5.321      2.167      3.550
REMARK INTER + INTRA:         -24.291
REMARK INTER:                 -16.188
REMARK INTRA:                  -8.103
REMARK UNBOUND:                -8.394
REMARK SMILES C=C1C(=O)N[C@H](C)C(=O)N[C@@H](CC(C)C)C(=O)N[C@@H](C(=O)O)[C@H](C)C(=O)N[C@@H](CCCN=C(N)N)C(=O)N[C@@H](/C=C/C(C)=C/[C@H](C)[C@H](Cc2ccccc2)OC)[C@H](C)C(=O)N[C@@H](C(=O)O)CCC(=O)N1C
REMARK SMILES IDX 39 1 38 2 37 3 36 4 28 6 27 7 25 8 26 9 23 11 24 12 19 13
REMARK SMILES IDX 18 14 16 15 17 16 11 18 10 19 8 20 9 21 12 24 13 25 14 26
REMARK SMILES IDX 15 27 20 28 21 29 22 30 29 32 30 33 31 34 32 35 33 36 34 37
REMARK SMILES IDX 35 38 57 43 58 44 59 45 60 46 61 47 62 49 66 50 67 51 68 52
REMARK SMILES IDX 69 53 70 54 71 55 2 56 1 57 3 58 4 59 5 60 6 62 7 63 63 65
REMARK SMILES IDX 64 66 65 67 40 69 41 70 42 71 44 72 43 73 45 74 46 75 47 76
REMARK SMILES IDX 55 77 56 78 48 79 49 80 50 81 54 82 51 83 53 84 52 85
REMARK H PARENT 38 5 27 10 18 17 10 22 22 31 34 39 34 40 35 41 35 42 61 48
REMARK H PARENT 5 61 65 68
REMARK Flexibility Score:  369.900
ROOT
ATOM      1  C   UNL     1      15.959   2.411  -1.915  1.00  0.00     0.117 C 
ENDROOT
BRANCH   1   2
ATOM      2  N   UNL     1      15.355   3.421  -1.045  1.00  0.00    -0.347 N 
ATOM      3  O   UNL     1      17.293   4.441  -0.357  1.00  0.00    -0.273 OA
ATOM      4  C   UNL     1      16.067   4.417  -0.406  1.00  0.00     0.243 C 
ATOM      5  H   UNL     1      14.353   3.440  -0.931  1.00  0.00     0.164 HD
BRANCH   4   6
ATOM      6  C   UNL     1      15.178   5.410   0.385  1.00  0.00     0.171 C 
BRANCH   6   7
ATOM      7  N   UNL     1      14.942   6.630  -0.403  1.00  0.00    -0.344 N 
ATOM      8  C   UNL     1      15.526   7.824  -0.041  1.00  0.00     0.226 C 
ATOM      9  O   UNL     1      16.239   7.937   0.949  1.00  0.00    -0.275 OA
ATOM     10  H   UNL     1      14.305   6.590  -1.189  1.00  0.00     0.164 HD
BRANCH   8  11
ATOM     11  C   UNL     1      15.230   8.976  -0.985  1.00  0.00     0.109 C 
ATOM     12  C   UNL     1      14.242   8.532  -2.063  1.00  0.00     0.021 C 
BRANCH  11  13
ATOM     13  C   UNL     1      14.794  10.215  -0.176  1.00  0.00     0.204 C 
BRANCH  13  14
ATOM     14  N   UNL     1      13.578   9.964   0.604  1.00  0.00    -0.340 N 
ATOM     15  C   UNL     1      12.438  10.729   0.479  1.00  0.00     0.243 C 
ATOM     16  O   UNL     1      12.341  11.639  -0.341  1.00  0.00    -0.273 OA
ATOM     17  H   UNL     1      13.642   9.327   1.402  1.00  0.00     0.164 HD
BRANCH  15  18
ATOM     18  C   UNL     1      11.361  10.412   1.545  1.00  0.00     0.171 C 
BRANCH  18  19
ATOM     19  N   UNL     1      11.433  11.478   2.543  1.00  0.00    -0.343 N 
ATOM     20  C   UNL     1      12.384  11.475   3.545  1.00  0.00     0.242 CG0
ATOM     21  O   UNL     1      13.126  10.512   3.726  1.00  0.00    -0.273 OA
ATOM     22  H   UNL     1      10.766  12.240   2.505  1.00  0.00     0.164 HD
ATOM     23  G   UNL     1      12.354  12.721   4.454  1.00  0.00     0.000 G0
ENDBRANCH  18  19
BRANCH  18  24
ATOM     24  C   UNL     1       9.970  10.336   0.904  1.00  0.00     0.038 C 
BRANCH  24  25
ATOM     25  C   UNL     1       9.414   8.905   0.740  1.00  0.00    -0.015 C 
ATOM     26  C   UNL     1       9.444   8.112   2.047  1.00  0.00     0.007 C 
ATOM     27  C   UNL     1      10.215   8.161  -0.332  1.00  0.00     0.007 C 
ENDBRANCH  24  25
ENDBRANCH  18  24
ENDBRANCH  15  18
ENDBRANCH  13  14
BRANCH  13  28
ATOM     28  C   UNL     1      15.867  10.705   0.801  1.00  0.00     0.327 C 
ATOM     29  O   UNL     1      16.974  11.129   0.506  1.00  0.00    -0.250 OA
BRANCH  28  30
ATOM     30  O   UNL     1      15.528  10.523   2.094  1.00  0.00    -0.480 OA
ATOM     31  H   UNL     1      15.935  11.283   2.559  1.00  0.00     0.296 HD
ENDBRANCH  28  30
ENDBRANCH  13  28
ENDBRANCH  11  13
ENDBRANCH   8  11
ENDBRANCH   6   7
BRANCH   6  32
ATOM     32  C   UNL     1      13.855   4.725   0.743  1.00  0.00     0.037 C 
BRANCH  32  33
ATOM     33  C   UNL     1      12.694   5.724   0.843  1.00  0.00     0.026 C 
BRANCH  33  34
ATOM     34  C   UNL     1      12.409   6.149   2.284  1.00  0.00     0.146 C 
BRANCH  34  35
ATOM     35  N   UNL     1      13.226   7.313   2.600  1.00  0.00    -0.254 NA
ATOM     36  C   UNL     1      14.176   7.184   3.450  1.00  0.00     0.185 C 
ATOM     37  N   UNL     1      14.938   8.248   3.746  1.00  0.00    -0.370 N 
ATOM     38  N   UNL     1      14.555   6.089   4.133  1.00  0.00    -0.370 N 
ATOM     39  H   UNL     1      14.720   9.110   3.262  1.00  0.00     0.159 HD
ATOM     40  H   UNL     1      15.799   8.189   4.261  1.00  0.00     0.159 HD
ATOM     41  H   UNL     1      15.230   6.148   4.878  1.00  0.00     0.159 HD
ATOM     42  H   UNL     1      14.060   5.218   4.022  1.00  0.00     0.159 HD
ENDBRANCH  34  35
ENDBRANCH  33  34
ENDBRANCH  32  33
ENDBRANCH   6  32
ENDBRANCH   4   6
ENDBRANCH   1   2
BRANCH   1  43
ATOM     43  C   UNL     1      16.989   1.593  -1.083  1.00  0.00     0.102 C 
ATOM     44  C   UNL     1      17.936   0.743  -1.947  1.00  0.00     0.020 C 
BRANCH  43  45
ATOM     45  C   UNL     1      16.295   0.809   0.034  1.00  0.00     0.225 C 
ATOM     46  O   UNL     1      15.793   1.345   1.018  1.00  0.00    -0.275 OA
ATOM     47  N   UNL     1      16.347  -0.561  -0.082  1.00  0.00    -0.342 N 
ATOM     48  H   UNL     1      16.624  -0.978  -0.960  1.00  0.00     0.164 HD
BRANCH  47  49
ATOM     49  C   UNL     1      15.695  -1.439   0.894  1.00  0.00     0.192 C 
BRANCH  49  50
ATOM     50  C   UNL     1      16.562  -2.678   1.130  1.00  0.00     0.047 C 
BRANCH  50  51
ATOM     51  C   UNL     1      17.846  -2.660   0.289  1.00  0.00     0.103 C 
BRANCH  51  52
ATOM     52  C   UNL     1      17.747  -3.579  -0.927  1.00  0.00     0.226 C 
ATOM     53  O   UNL     1      16.872  -3.382  -1.771  1.00  0.00    -0.275 OA
BRANCH  52  54
ATOM     54  N   UNL     1      18.738  -4.572  -1.044  1.00  0.00    -0.311 N 
ATOM     55  C   UNL     1      20.048  -4.268  -1.634  1.00  0.00     0.153 C 
BRANCH  54  56
ATOM     56  C   UNL     1      18.515  -5.885  -0.597  1.00  0.00     0.102 C 
ATOM     57  C   UNL     1      18.592  -6.285   0.683  1.00  0.00     0.043 C 
BRANCH  56  58
ATOM     58  C   UNL     1      18.111  -6.974  -1.562  1.00  0.00     0.268 C 
ATOM     59  O   UNL     1      17.312  -6.799  -2.473  1.00  0.00    -0.268 OA
ATOM     60  N   UNL     1      18.780  -8.157  -1.354  1.00  0.00    -0.339 N 
ATOM     61  H   UNL     1      19.418  -8.223  -0.570  1.00  0.00     0.164 HD
BRANCH  60  62
ATOM     62  C   UNL     1      18.586  -9.323  -2.214  1.00  0.00     0.168 CG0
ATOM     63  C   UNL     1      19.113 -10.588  -1.547  1.00  0.00     0.041 C 
ATOM     64  G   UNL     1      19.287  -9.088  -3.568  1.00  0.00     0.000 G0
ENDBRANCH  60  62
ENDBRANCH  56  58
ENDBRANCH  54  56
ENDBRANCH  52  54
ENDBRANCH  51  52
ENDBRANCH  50  51
ENDBRANCH  49  50
BRANCH  49  65
ATOM     65  C   UNL     1      14.300  -1.876   0.421  1.00  0.00     0.326 C 
ATOM     66  O   UNL     1      13.241  -1.384   0.781  1.00  0.00    -0.250 OA
BRANCH  65  67
ATOM     67  O   UNL     1      14.296  -2.932  -0.422  1.00  0.00    -0.480 OA
ATOM     68  H   UNL     1      14.229  -3.706   0.177  1.00  0.00     0.296 HD
ENDBRANCH  65  67
ENDBRANCH  49  65
ENDBRANCH  47  49
ENDBRANCH  43  45
ENDBRANCH   1  43
BRANCH   1  69
ATOM     69  C   UNL     1      16.436   3.148  -3.153  1.00  0.00    -0.001 C 
ATOM     70  C   UNL     1      15.748   3.372  -4.286  1.00  0.00     0.001 C 
BRANCH  70  71
ATOM     71  C   UNL     1      16.212   4.104  -5.467  1.00  0.00    -0.055 C 
ATOM     72  C   UNL     1      17.505   4.489  -5.499  1.00  0.00    -0.018 C 
ATOM     73  C   UNL     1      15.216   4.368  -6.566  1.00  0.00     0.044 C 
BRANCH  72  74
ATOM     74  C   UNL     1      18.257   5.250  -6.581  1.00  0.00     0.038 C 
ATOM     75  C   UNL     1      19.120   4.230  -7.335  1.00  0.00     0.015 C 
BRANCH  74  76
ATOM     76  C   UNL     1      19.051   6.413  -5.917  1.00  0.00     0.128 C 
BRANCH  76  77
ATOM     77  O   UNL     1      20.151   6.801  -6.758  1.00  0.00    -0.381 OA
ATOM     78  C   UNL     1      20.523   8.165  -6.618  1.00  0.00     0.195 C 
ENDBRANCH  76  77
BRANCH  76  79
ATOM     79  C   UNL     1      18.170   7.614  -5.491  1.00  0.00     0.068 C 
BRANCH  79  80
ATOM     80  C   UNL     1      16.834   7.788  -6.172  1.00  0.00    -0.045 A 
ATOM     81  C   UNL     1      15.645   7.823  -5.432  1.00  0.00     0.004 A 
ATOM     82  C   UNL     1      16.761   7.888  -7.570  1.00  0.00     0.004 A 
ATOM     83  C   UNL     1      14.412   7.970  -6.071  1.00  0.00     0.000 A 
ATOM     84  C   UNL     1      15.527   8.034  -8.208  1.00  0.00     0.000 A 
ATOM     85  C   UNL     1      14.354   8.076  -7.459  1.00  0.00     0.000 A 
ENDBRANCH  79  80
ENDBRANCH  76  79
ENDBRANCH  74  76
ENDBRANCH  72  74
ENDBRANCH  70  71
ENDBRANCH   1  69
TORSDOF 17
ENDMDL
MODEL 3
REMARK VINA RESULT:    -5.315      3.594      5.685
REMARK INTER + INTRA:         -24.275
REMARK INTER:                 -18.659
REMARK INTRA:                  -5.616
REMARK UNBOUND:                -8.394
REMARK SMILES C=C1C(=O)N[C@H](C)C(=O)N[C@@H](CC(C)C)C(=O)N[C@@H](C(=O)O)[C@H](C)C(=O)N[C@@H](CCCN=C(N)N)C(=O)N[C@@H](/C=C/C(C)=C/[C@H](C)[C@H](Cc2ccccc2)OC)[C@H](C)C(=O)N[C@@H](C(=O)O)CCC(=O)N1C
REMARK SMILES IDX 39 1 38 2 37 3 36 4 28 6 27 7 25 8 26 9 23 11 24 12 19 13
REMARK SMILES IDX 18 14 16 15 17 16 11 18 10 19 8 20 9 21 12 24 13 25 14 26
REMARK SMILES IDX 15 27 20 28 21 29 22 30 29 32 30 33 31 34 32 35 33 36 34 37
REMARK SMILES IDX 35 38 57 43 58 44 59 45 60 46 61 47 62 49 66 50 67 51 68 52
REMARK SMILES IDX 69 53 70 54 71 55 2 56 1 57 3 58 4 59 5 60 6 62 7 63 63 65
REMARK SMILES IDX 64 66 65 67 40 69 41 70 42 71 44 72 43 73 45 74 46 75 47 76
REMARK SMILES IDX 55 77 56 78 48 79 49 80 50 81 54 82 51 83 53 84 52 85
REMARK H PARENT 38 5 27 10 18 17 10 22 22 31 34 39 34 40 35 41 35 42 61 48
REMARK H PARENT 5 61 65 68
REMARK Flexibility Score:  369.900
ROOT
ATOM      1  C   UNL     1      13.950   3.108   0.689  1.00  0.00     0.117 C 
ENDROOT
BRANCH   1   2
ATOM      2  N   UNL     1      13.683   4.544   0.594  1.00  0.00    -0.347 N 
ATOM      3  O   UNL     1      11.391   4.439   0.630  1.00  0.00    -0.273 OA
ATOM      4  C   UNL     1      12.422   5.102   0.665  1.00  0.00     0.243 C 
ATOM      5  H   UNL     1      14.457   5.187   0.522  1.00  0.00     0.164 HD
BRANCH   4   6
ATOM      6  C   UNL     1      12.423   6.652   0.625  1.00  0.00     0.171 C 
BRANCH   6   7
ATOM      7  N   UNL     1      11.500   7.193   1.635  1.00  0.00    -0.344 N 
ATOM      8  C   UNL     1      10.283   7.721   1.263  1.00  0.00     0.226 C 
ATOM      9  O   UNL     1       9.922   7.788   0.094  1.00  0.00    -0.275 OA
ATOM     10  H   UNL     1      11.791   7.217   2.604  1.00  0.00     0.164 HD
BRANCH   8  11
ATOM     11  C   UNL     1       9.422   8.188   2.424  1.00  0.00     0.109 C 
ATOM     12  C   UNL     1      10.287   8.890   3.471  1.00  0.00     0.021 C 
BRANCH  11  13
ATOM     13  C   UNL     1       8.239   9.023   1.894  1.00  0.00     0.204 C 
BRANCH  13  14
ATOM     14  N   UNL     1       7.134   9.086   2.855  1.00  0.00    -0.340 N 
ATOM     15  C   UNL     1       5.877   8.590   2.583  1.00  0.00     0.243 C 
ATOM     16  O   UNL     1       5.610   8.004   1.536  1.00  0.00    -0.273 OA
ATOM     17  H   UNL     1       7.244   9.689   3.675  1.00  0.00     0.164 HD
BRANCH  15  18
ATOM     18  C   UNL     1       4.823   8.954   3.658  1.00  0.00     0.171 C 
BRANCH  18  19
ATOM     19  N   UNL     1       5.519   9.734   4.680  1.00  0.00    -0.343 N 
ATOM     20  C   UNL     1       5.341   9.491   6.028  1.00  0.00     0.242 CG0
ATOM     21  O   UNL     1       4.493   8.700   6.433  1.00  0.00    -0.273 OA
ATOM     22  H   UNL     1       6.146  10.478   4.396  1.00  0.00     0.164 HD
ATOM     23  G   UNL     1       6.219  10.361   6.952  1.00  0.00     0.000 G0
ENDBRANCH  18  19
BRANCH  18  24
ATOM     24  C   UNL     1       3.667   9.747   3.036  1.00  0.00     0.038 C 
BRANCH  24  25
ATOM     25  C   UNL     1       2.378   8.931   2.802  1.00  0.00    -0.015 C 
ATOM     26  C   UNL     1       1.375   9.663   1.911  1.00  0.00     0.007 C 
ATOM     27  C   UNL     1       1.727   8.600   4.148  1.00  0.00     0.007 C 
ENDBRANCH  24  25
ENDBRANCH  18  24
ENDBRANCH  15  18
ENDBRANCH  13  14
BRANCH  13  28
ATOM     28  C   UNL     1       8.625  10.465   1.550  1.00  0.00     0.327 C 
ATOM     29  O   UNL     1       9.360  10.820   0.641  1.00  0.00    -0.250 OA
BRANCH  28  30
ATOM     30  O   UNL     1       8.159  11.363   2.442  1.00  0.00    -0.480 OA
ATOM     31  H   UNL     1       7.283  11.622   2.088  1.00  0.00     0.296 HD
ENDBRANCH  28  30
ENDBRANCH  13  28
ENDBRANCH  11  13
ENDBRANCH   8  11
ENDBRANCH   6   7
BRANCH   6  32
ATOM     32  C   UNL     1      13.850   7.160   0.860  1.00  0.00     0.037 C 
BRANCH  32  33
ATOM     33  C   UNL     1      14.451   7.801  -0.399  1.00  0.00     0.026 C 
BRANCH  33  34
ATOM     34  C   UNL     1      14.056   9.271  -0.552  1.00  0.00     0.146 C 
BRANCH  34  35
ATOM     35  N   UNL     1      13.506   9.744   0.711  1.00  0.00    -0.254 NA
ATOM     36  C   UNL     1      12.751  10.778   0.703  1.00  0.00     0.185 C 
ATOM     37  N   UNL     1      12.235  11.220   1.860  1.00  0.00    -0.370 N 
ATOM     38  N   UNL     1      12.369  11.537  -0.339  1.00  0.00    -0.370 N 
ATOM     39  H   UNL     1      12.468  10.693   2.692  1.00  0.00     0.159 HD
ATOM     40  H   UNL     1      11.504  11.908   1.917  1.00  0.00     0.159 HD
ATOM     41  H   UNL     1      11.885  12.409  -0.199  1.00  0.00     0.159 HD
ATOM     42  H   UNL     1      12.695  11.331  -1.270  1.00  0.00     0.159 HD
ENDBRANCH  34  35
ENDBRANCH  33  34
ENDBRANCH  32  33
ENDBRANCH   6  32
ENDBRANCH   4   6
ENDBRANCH   1   2
BRANCH   1  43
ATOM     43  C   UNL     1      14.493   2.799   2.114  1.00  0.00     0.102 C 
ATOM     44  C   UNL     1      15.373   3.921   2.691  1.00  0.00     0.020 C 
BRANCH  43  45
ATOM     45  C   UNL     1      15.142   1.412   2.166  1.00  0.00     0.225 C 
ATOM     46  O   UNL     1      16.339   1.239   2.378  1.00  0.00    -0.275 OA
ATOM     47  N   UNL     1      14.310   0.358   1.865  1.00  0.00    -0.342 N 
ATOM     48  H   UNL     1      13.310   0.499   1.845  1.00  0.00     0.164 HD
BRANCH  47  49
ATOM     49  C   UNL     1      14.784  -1.029   1.911  1.00  0.00     0.192 C 
BRANCH  49  50
ATOM     50  C   UNL     1      14.774  -1.623   0.500  1.00  0.00     0.047 C 
BRANCH  50  51
ATOM     51  C   UNL     1      16.162  -2.110   0.063  1.00  0.00     0.103 C 
BRANCH  51  52
ATOM     52  C   UNL     1      16.249  -3.634   0.025  1.00  0.00     0.226 C 
ATOM     53  O   UNL     1      16.488  -4.257   1.061  1.00  0.00    -0.275 OA
BRANCH  52  54
ATOM     54  N   UNL     1      15.969  -4.248  -1.210  1.00  0.00    -0.311 N 
ATOM     55  C   UNL     1      16.874  -4.089  -2.356  1.00  0.00     0.153 C 
BRANCH  54  56
ATOM     56  C   UNL     1      14.821  -5.036  -1.392  1.00  0.00     0.102 C 
ATOM     57  C   UNL     1      13.575  -4.557  -1.544  1.00  0.00     0.043 C 
BRANCH  56  58
ATOM     58  C   UNL     1      14.919  -6.541  -1.477  1.00  0.00     0.268 C 
ATOM     59  O   UNL     1      14.461  -7.191  -2.407  1.00  0.00    -0.268 OA
ATOM     60  N   UNL     1      15.631  -7.095  -0.440  1.00  0.00    -0.339 N 
ATOM     61  H   UNL     1      15.969  -6.489   0.298  1.00  0.00     0.164 HD
BRANCH  60  62
ATOM     62  C   UNL     1      15.901  -8.530  -0.359  1.00  0.00     0.168 CG0
ATOM     63  C   UNL     1      17.335  -8.841  -0.772  1.00  0.00     0.041 C 
ATOM     64  G   UNL     1      14.899  -9.295  -1.248  1.00  0.00     0.000 G0
ENDBRANCH  60  62
ENDBRANCH  56  58
ENDBRANCH  54  56
ENDBRANCH  52  54
ENDBRANCH  51  52
ENDBRANCH  50  51
ENDBRANCH  49  50
BRANCH  49  65
ATOM     65  C   UNL     1      13.914  -1.896   2.834  1.00  0.00     0.326 C 
ATOM     66  O   UNL     1      13.865  -3.117   2.824  1.00  0.00    -0.250 OA
BRANCH  65  67
ATOM     67  O   UNL     1      13.112  -1.200   3.670  1.00  0.00    -0.480 OA
ATOM     68  H   UNL     1      12.674  -0.547   3.082  1.00  0.00     0.296 HD
ENDBRANCH  65  67
ENDBRANCH  49  65
ENDBRANCH  47  49
ENDBRANCH  43  45
ENDBRANCH   1  43
BRANCH   1  69
ATOM     69  C   UNL     1      14.805   2.755  -0.514  1.00  0.00    -0.001 C 
ATOM     70  C   UNL     1      15.999   3.274  -0.849  1.00  0.00     0.001 C 
BRANCH  70  71
ATOM     71  C   UNL     1      16.825   2.910  -2.002  1.00  0.00    -0.055 C 
ATOM     72  C   UNL     1      17.146   3.886  -2.877  1.00  0.00    -0.018 C 
ATOM     73  C   UNL     1      17.265   1.474  -2.125  1.00  0.00     0.044 C 
BRANCH  72  74
ATOM     74  C   UNL     1      17.982   3.804  -4.147  1.00  0.00     0.038 C 
ATOM     75  C   UNL     1      19.164   4.765  -3.973  1.00  0.00     0.015 C 
BRANCH  74  76
ATOM     76  C   UNL     1      17.066   4.109  -5.369  1.00  0.00     0.128 C 
BRANCH  76  77
ATOM     77  O   UNL     1      16.856   2.911  -6.135  1.00  0.00    -0.381 OA
ATOM     78  C   UNL     1      15.868   2.049  -5.588  1.00  0.00     0.195 C 
ENDBRANCH  76  77
BRANCH  76  79
ATOM     79  C   UNL     1      15.742   4.825  -5.001  1.00  0.00     0.068 C 
BRANCH  79  80
ATOM     80  C   UNL     1      15.209   5.863  -5.959  1.00  0.00    -0.045 A 
ATOM     81  C   UNL     1      15.124   7.211  -5.588  1.00  0.00     0.004 A 
ATOM     82  C   UNL     1      14.762   5.485  -7.234  1.00  0.00     0.004 A 
ATOM     83  C   UNL     1      14.617   8.163  -6.475  1.00  0.00     0.000 A 
ATOM     84  C   UNL     1      14.254   6.437  -8.120  1.00  0.00     0.000 A 
ATOM     85  C   UNL     1      14.183   7.776  -7.741  1.00  0.00     0.000 A 
ENDBRANCH  79  80
ENDBRANCH  76  79
ENDBRANCH  74  76
ENDBRANCH  72  74
ENDBRANCH  70  71
ENDBRANCH   1  69
TORSDOF 17
ENDMDL
MODEL 4
REMARK VINA RESULT:    -5.176      3.214      5.344
REMARK INTER + INTRA:         -23.859
REMARK INTER:                 -18.201
REMARK INTRA:                  -5.657
REMARK UNBOUND:                -8.394
REMARK SMILES C=C1C(=O)N[C@H](C)C(=O)N[C@@H](CC(C)C)C(=O)N[C@@H](C(=O)O)[C@H](C)C(=O)N[C@@H](CCCN=C(N)N)C(=O)N[C@@H](/C=C/C(C)=C/[C@H](C)[C@H](Cc2ccccc2)OC)[C@H](C)C(=O)N[C@@H](C(=O)O)CCC(=O)N1C
REMARK SMILES IDX 39 1 38 2 37 3 36 4 28 6 27 7 25 8 26 9 23 11 24 12 19 13
REMARK SMILES IDX 18 14 16 15 17 16 11 18 10 19 8 20 9 21 12 24 13 25 14 26
REMARK SMILES IDX 15 27 20 28 21 29 22 30 29 32 30 33 31 34 32 35 33 36 34 37
REMARK SMILES IDX 35 38 57 43 58 44 59 45 60 46 61 47 62 49 66 50 67 51 68 52
REMARK SMILES IDX 69 53 70 54 71 55 2 56 1 57 3 58 4 59 5 60 6 62 7 63 63 65
REMARK SMILES IDX 64 66 65 67 40 69 41 70 42 71 44 72 43 73 45 74 46 75 47 76
REMARK SMILES IDX 55 77 56 78 48 79 49 80 50 81 54 82 51 83 53 84 52 85
REMARK H PARENT 38 5 27 10 18 17 10 22 22 31 34 39 34 40 35 41 35 42 61 48
REMARK H PARENT 5 61 65 68
REMARK Flexibility Score:  369.900
ROOT
ATOM      1  C   UNL     1      14.215   2.992   0.523  1.00  0.00     0.117 C 
ENDROOT
BRANCH   1   2
ATOM      2  N   UNL     1      14.248   4.455   0.493  1.00  0.00    -0.347 N 
ATOM      3  O   UNL     1      11.982   4.817   0.412  1.00  0.00    -0.273 OA
ATOM      4  C   UNL     1      13.122   5.255   0.532  1.00  0.00     0.243 C 
ATOM      5  H   UNL     1      15.138   4.929   0.493  1.00  0.00     0.164 HD
BRANCH   4   6
ATOM      6  C   UNL     1      13.436   6.772   0.576  1.00  0.00     0.171 C 
BRANCH   6   7
ATOM      7  N   UNL     1      12.405   7.489   1.343  1.00  0.00    -0.344 N 
ATOM      8  C   UNL     1      12.004   8.753   0.969  1.00  0.00     0.226 C 
ATOM      9  O   UNL     1      12.490   9.344   0.013  1.00  0.00    -0.275 OA
ATOM     10  H   UNL     1      12.028   7.060   2.179  1.00  0.00     0.164 HD
BRANCH   8  11
ATOM     11  C   UNL     1      10.895   9.336   1.827  1.00  0.00     0.109 C 
ATOM     12  C   UNL     1      10.899  10.861   1.726  1.00  0.00     0.021 C 
BRANCH  11  13
ATOM     13  C   UNL     1       9.553   8.666   1.470  1.00  0.00     0.204 C 
BRANCH  13  14
ATOM     14  N   UNL     1       8.890   8.097   2.647  1.00  0.00    -0.340 N 
ATOM     15  C   UNL     1       9.090   6.799   3.064  1.00  0.00     0.243 C 
ATOM     16  O   UNL     1       9.888   6.043   2.512  1.00  0.00    -0.273 OA
ATOM     17  H   UNL     1       8.108   8.616   3.057  1.00  0.00     0.164 HD
BRANCH  15  18
ATOM     18  C   UNL     1       8.132   6.358   4.198  1.00  0.00     0.171 C 
BRANCH  18  19
ATOM     19  N   UNL     1       6.783   6.730   3.774  1.00  0.00    -0.343 N 
ATOM     20  C   UNL     1       5.963   7.517   4.559  1.00  0.00     0.242 CG0
ATOM     21  O   UNL     1       6.277   7.831   5.705  1.00  0.00    -0.273 OA
ATOM     22  H   UNL     1       6.433   6.397   2.882  1.00  0.00     0.164 HD
ATOM     23  G   UNL     1       4.608   7.869   3.911  1.00  0.00     0.000 G0
ENDBRANCH  18  19
BRANCH  18  24
ATOM     24  C   UNL     1       8.247   4.850   4.449  1.00  0.00     0.038 C 
BRANCH  24  25
ATOM     25  C   UNL     1       7.984   4.417   5.907  1.00  0.00    -0.015 C 
ATOM     26  C   UNL     1       8.834   5.196   6.910  1.00  0.00     0.007 C 
ATOM     27  C   UNL     1       8.256   2.918   6.055  1.00  0.00     0.007 C 
ENDBRANCH  24  25
ENDBRANCH  18  24
ENDBRANCH  15  18
ENDBRANCH  13  14
BRANCH  13  28
ATOM     28  C   UNL     1       8.557   9.624   0.808  1.00  0.00     0.327 C 
ATOM     29  O   UNL     1       8.607  10.037  -0.341  1.00  0.00    -0.250 OA
BRANCH  28  30
ATOM     30  O   UNL     1       7.629  10.097   1.664  1.00  0.00    -0.480 OA
ATOM     31  H   UNL     1       6.887  10.373   1.086  1.00  0.00     0.296 HD
ENDBRANCH  28  30
ENDBRANCH  13  28
ENDBRANCH  11  13
ENDBRANCH   8  11
ENDBRANCH   6   7
BRANCH   6  32
ATOM     32  C   UNL     1      14.823   6.980   1.195  1.00  0.00     0.037 C 
BRANCH  32  33
ATOM     33  C   UNL     1      15.756   7.776   0.271  1.00  0.00     0.026 C 
BRANCH  33  34
ATOM     34  C   UNL     1      15.738   7.256  -1.167  1.00  0.00     0.146 C 
BRANCH  34  35
ATOM     35  N   UNL     1      15.287   8.326  -2.047  1.00  0.00    -0.254 NA
ATOM     36  C   UNL     1      16.146   8.903  -2.802  1.00  0.00     0.185 C 
ATOM     37  N   UNL     1      15.742   9.886  -3.621  1.00  0.00    -0.370 N 
ATOM     38  N   UNL     1      17.466   8.667  -2.914  1.00  0.00    -0.370 N 
ATOM     39  H   UNL     1      14.756  10.116  -3.602  1.00  0.00     0.159 HD
ATOM     40  H   UNL     1      16.310  10.264  -4.359  1.00  0.00     0.159 HD
ATOM     41  H   UNL     1      18.062   9.283  -3.443  1.00  0.00     0.159 HD
ATOM     42  H   UNL     1      17.911   7.964  -2.345  1.00  0.00     0.159 HD
ENDBRANCH  34  35
ENDBRANCH  33  34
ENDBRANCH  32  33
ENDBRANCH   6  32
ENDBRANCH   4   6
ENDBRANCH   1   2
BRANCH   1  43
ATOM     43  C   UNL     1      14.630   2.517   1.945  1.00  0.00     0.102 C 
ATOM     44  C   UNL     1      15.564   3.501   2.671  1.00  0.00     0.020 C 
BRANCH  43  45
ATOM     45  C   UNL     1      15.149   1.076   1.914  1.00  0.00     0.225 C 
ATOM     46  O   UNL     1      16.343   0.792   1.950  1.00  0.00    -0.275 OA
ATOM     47  N   UNL     1      14.189   0.104   1.747  1.00  0.00    -0.342 N 
ATOM     48  H   UNL     1      13.214   0.338   1.871  1.00  0.00     0.164 HD
BRANCH  47  49
ATOM     49  C   UNL     1      14.535  -1.320   1.734  1.00  0.00     0.192 C 
BRANCH  49  50
ATOM     50  C   UNL     1      13.782  -2.022   0.601  1.00  0.00     0.047 C 
BRANCH  50  51
ATOM     51  C   UNL     1      14.728  -2.754  -0.361  1.00  0.00     0.103 C 
BRANCH  51  52
ATOM     52  C   UNL     1      14.514  -4.266  -0.336  1.00  0.00     0.226 C 
ATOM     53  O   UNL     1      14.658  -4.886   0.719  1.00  0.00    -0.275 OA
BRANCH  52  54
ATOM     54  N   UNL     1      14.081  -4.857  -1.538  1.00  0.00    -0.311 N 
ATOM     55  C   UNL     1      12.742  -4.582  -2.076  1.00  0.00     0.153 C 
BRANCH  54  56
ATOM     56  C   UNL     1      14.911  -5.724  -2.269  1.00  0.00     0.102 C 
ATOM     57  C   UNL     1      15.803  -5.335  -3.194  1.00  0.00     0.043 C 
BRANCH  56  58
ATOM     58  C   UNL     1      14.886  -7.213  -2.019  1.00  0.00     0.268 C 
ATOM     59  O   UNL     1      13.896  -7.809  -1.617  1.00  0.00    -0.268 OA
ATOM     60  N   UNL     1      16.065  -7.836  -2.353  1.00  0.00    -0.339 N 
ATOM     61  H   UNL     1      16.843  -7.270  -2.669  1.00  0.00     0.164 HD
BRANCH  60  62
ATOM     62  C   UNL     1      16.237  -9.285  -2.249  1.00  0.00     0.168 CG0
ATOM     63  C   UNL     1      16.884  -9.665  -0.923  1.00  0.00     0.041 C 
ATOM     64  G   UNL     1      17.084  -9.791  -3.435  1.00  0.00     0.000 G0
ENDBRANCH  60  62
ENDBRANCH  56  58
ENDBRANCH  54  56
ENDBRANCH  52  54
ENDBRANCH  51  52
ENDBRANCH  50  51
ENDBRANCH  49  50
BRANCH  49  65
ATOM     65  C   UNL     1      14.193  -1.999   3.070  1.00  0.00     0.326 C 
ATOM     66  O   UNL     1      14.244  -1.468   4.170  1.00  0.00    -0.250 OA
BRANCH  65  67
ATOM     67  O   UNL     1      13.866  -3.306   2.971  1.00  0.00    -0.480 OA
ATOM     68  H   UNL     1      13.502  -3.386   2.063  1.00  0.00     0.296 HD
ENDBRANCH  65  67
ENDBRANCH  49  65
ENDBRANCH  47  49
ENDBRANCH  43  45
ENDBRANCH   1  43
BRANCH   1  69
ATOM     69  C   UNL     1      15.025   2.525  -0.672  1.00  0.00    -0.001 C 
ATOM     70  C   UNL     1      16.027   3.179  -1.286  1.00  0.00     0.001 C 
BRANCH  70  71
ATOM     71  C   UNL     1      16.816   2.708  -2.426  1.00  0.00    -0.055 C 
ATOM     72  C   UNL     1      17.118   3.601  -3.392  1.00  0.00    -0.018 C 
ATOM     73  C   UNL     1      17.243   1.263  -2.436  1.00  0.00     0.044 C 
BRANCH  72  74
ATOM     74  C   UNL     1      17.915   3.402  -4.673  1.00  0.00     0.038 C 
ATOM     75  C   UNL     1      19.389   3.654  -4.333  1.00  0.00     0.015 C 
BRANCH  74  76
ATOM     76  C   UNL     1      17.331   4.332  -5.776  1.00  0.00     0.128 C 
BRANCH  76  77
ATOM     77  O   UNL     1      17.943   4.036  -7.043  1.00  0.00    -0.381 OA
ATOM     78  C   UNL     1      18.676   5.124  -7.590  1.00  0.00     0.195 C 
ENDBRANCH  76  77
BRANCH  76  79
ATOM     79  C   UNL     1      15.783   4.332  -5.845  1.00  0.00     0.068 C 
BRANCH  79  80
ATOM     80  C   UNL     1      15.100   5.553  -6.412  1.00  0.00    -0.045 A 
ATOM     81  C   UNL     1      14.537   5.535  -7.694  1.00  0.00     0.004 A 
ATOM     82  C   UNL     1      15.044   6.741  -5.668  1.00  0.00     0.004 A 
ATOM     83  C   UNL     1      13.919   6.673  -8.217  1.00  0.00     0.000 A 
ATOM     84  C   UNL     1      14.427   7.879  -6.192  1.00  0.00     0.000 A 
ATOM     85  C   UNL     1      13.863   7.844  -7.465  1.00  0.00     0.000 A 
ENDBRANCH  79  80
ENDBRANCH  76  79
ENDBRANCH  74  76
ENDBRANCH  72  74
ENDBRANCH  70  71
ENDBRANCH   1  69
TORSDOF 17
ENDMDL
MODEL 5
REMARK VINA RESULT:    -5.105      3.451      6.238
REMARK INTER + INTRA:         -23.645
REMARK INTER:                 -17.214
REMARK INTRA:                  -6.432
REMARK UNBOUND:                -8.394
REMARK SMILES C=C1C(=O)N[C@H](C)C(=O)N[C@@H](CC(C)C)C(=O)N[C@@H](C(=O)O)[C@H](C)C(=O)N[C@@H](CCCN=C(N)N)C(=O)N[C@@H](/C=C/C(C)=C/[C@H](C)[C@H](Cc2ccccc2)OC)[C@H](C)C(=O)N[C@@H](C(=O)O)CCC(=O)N1C
REMARK SMILES IDX 39 1 38 2 37 3 36 4 28 6 27 7 25 8 26 9 23 11 24 12 19 13
REMARK SMILES IDX 18 14 16 15 17 16 11 18 10 19 8 20 9 21 12 24 13 25 14 26
REMARK SMILES IDX 15 27 20 28 21 29 22 30 29 32 30 33 31 34 32 35 33 36 34 37
REMARK SMILES IDX 35 38 57 43 58 44 59 45 60 46 61 47 62 49 66 50 67 51 68 52
REMARK SMILES IDX 69 53 70 54 71 55 2 56 1 57 3 58 4 59 5 60 6 62 7 63 63 65
REMARK SMILES IDX 64 66 65 67 40 69 41 70 42 71 44 72 43 73 45 74 46 75 47 76
REMARK SMILES IDX 55 77 56 78 48 79 49 80 50 81 54 82 51 83 53 84 52 85
REMARK H PARENT 38 5 27 10 18 17 10 22 22 31 34 39 34 40 35 41 35 42 61 48
REMARK H PARENT 5 61 65 68
REMARK Flexibility Score:  369.900
ROOT
ATOM      1  C   UNL     1      17.935  -1.242  -3.313  1.00  0.00     0.117 C 
ENDROOT
BRANCH   1   2
ATOM      2  N   UNL     1      17.289  -0.986  -2.025  1.00  0.00    -0.347 N 
ATOM      3  O   UNL     1      18.825   0.506  -1.196  1.00  0.00    -0.273 OA
ATOM      4  C   UNL     1      17.740  -0.060  -1.104  1.00  0.00     0.243 C 
ATOM      5  H   UNL     1      16.434  -1.469  -1.796  1.00  0.00     0.164 HD
BRANCH   4   6
ATOM      6  C   UNL     1      16.826   0.078   0.140  1.00  0.00     0.171 C 
BRANCH   6   7
ATOM      7  N   UNL     1      15.797   1.104  -0.089  1.00  0.00    -0.344 N 
ATOM      8  C   UNL     1      15.963   2.386   0.390  1.00  0.00     0.226 C 
ATOM      9  O   UNL     1      16.946   2.726   1.038  1.00  0.00    -0.275 OA
ATOM     10  H   UNL     1      14.941   0.844  -0.562  1.00  0.00     0.164 HD
BRANCH   8  11
ATOM     11  C   UNL     1      14.840   3.341   0.025  1.00  0.00     0.109 C 
ATOM     12  C   UNL     1      13.490   2.736   0.409  1.00  0.00     0.021 C 
BRANCH  11  13
ATOM     13  C   UNL     1      15.123   4.732   0.626  1.00  0.00     0.204 C 
BRANCH  13  14
ATOM     14  N   UNL     1      14.776   5.814  -0.300  1.00  0.00    -0.340 N 
ATOM     15  C   UNL     1      15.317   7.079  -0.210  1.00  0.00     0.243 C 
ATOM     16  O   UNL     1      16.176   7.372   0.620  1.00  0.00    -0.273 OA
ATOM     17  H   UNL     1      13.965   5.683  -0.910  1.00  0.00     0.164 HD
BRANCH  15  18
ATOM     18  C   UNL     1      14.650   8.106  -1.158  1.00  0.00     0.171 C 
BRANCH  18  19
ATOM     19  N   UNL     1      13.634   8.803  -0.372  1.00  0.00    -0.343 N 
ATOM     20  C   UNL     1      12.383   8.259  -0.151  1.00  0.00     0.242 CG0
ATOM     21  O   UNL     1      12.021   7.228  -0.714  1.00  0.00    -0.273 OA
ATOM     22  H   UNL     1      13.846   9.714   0.019  1.00  0.00     0.164 HD
ATOM     23  G   UNL     1      11.474   9.103   0.766  1.00  0.00     0.000 G0
ENDBRANCH  18  19
BRANCH  18  24
ATOM     24  C   UNL     1      15.693   9.080  -1.719  1.00  0.00     0.038 C 
BRANCH  24  25
ATOM     25  C   UNL     1      15.760   9.134  -3.260  1.00  0.00    -0.015 C 
ATOM     26  C   UNL     1      14.995   7.987  -3.920  1.00  0.00     0.007 C 
ATOM     27  C   UNL     1      17.222   9.107  -3.713  1.00  0.00     0.007 C 
ENDBRANCH  24  25
ENDBRANCH  18  24
ENDBRANCH  15  18
ENDBRANCH  13  14
BRANCH  13  28
ATOM     28  C   UNL     1      14.363   4.991   1.931  1.00  0.00     0.327 C 
ATOM     29  O   UNL     1      13.312   5.603   2.046  1.00  0.00    -0.250 OA
BRANCH  28  30
ATOM     30  O   UNL     1      15.031   4.569   3.024  1.00  0.00    -0.480 OA
ATOM     31  H   UNL     1      14.378   4.023   3.510  1.00  0.00     0.296 HD
ENDBRANCH  28  30
ENDBRANCH  13  28
ENDBRANCH  11  13
ENDBRANCH   8  11
ENDBRANCH   6   7
BRANCH   6  32
ATOM     32  C   UNL     1      16.186  -1.280   0.447  1.00  0.00     0.037 C 
BRANCH  32  33
ATOM     33  C   UNL     1      14.736  -1.141   0.931  1.00  0.00     0.026 C 
BRANCH  33  34
ATOM     34  C   UNL     1      14.628  -1.107   2.456  1.00  0.00     0.146 C 
BRANCH  34  35
ATOM     35  N   UNL     1      14.653   0.281   2.897  1.00  0.00    -0.254 NA
ATOM     36  C   UNL     1      15.653   0.688   3.588  1.00  0.00     0.185 C 
ATOM     37  N   UNL     1      15.688   1.966   3.996  1.00  0.00    -0.370 N 
ATOM     38  N   UNL     1      16.735   0.001   3.993  1.00  0.00    -0.370 N 
ATOM     39  H   UNL     1      14.911   2.552   3.721  1.00  0.00     0.159 HD
ATOM     40  H   UNL     1      16.506   2.403   4.385  1.00  0.00     0.159 HD
ATOM     41  H   UNL     1      17.387   0.396   4.651  1.00  0.00     0.159 HD
ATOM     42  H   UNL     1      16.834  -0.978   3.771  1.00  0.00     0.159 HD
ENDBRANCH  34  35
ENDBRANCH  33  34
ENDBRANCH  32  33
ENDBRANCH   6  32
ENDBRANCH   4   6
ENDBRANCH   1   2
BRANCH   1  43
ATOM     43  C   UNL     1      19.299  -1.943  -3.052  1.00  0.00     0.102 C 
ATOM     44  C   UNL     1      20.478  -1.280  -3.785  1.00  0.00     0.020 C 
BRANCH  43  45
ATOM     45  C   UNL     1      19.194  -3.454  -3.284  1.00  0.00     0.225 C 
ATOM     46  O   UNL     1      20.102  -4.122  -3.770  1.00  0.00    -0.275 OA
ATOM     47  N   UNL     1      17.970  -4.013  -2.998  1.00  0.00    -0.342 N 
ATOM     48  H   UNL     1      17.292  -3.488  -2.463  1.00  0.00     0.164 HD
BRANCH  47  49
ATOM     49  C   UNL     1      17.734  -5.453  -3.138  1.00  0.00     0.192 C 
BRANCH  49  50
ATOM     50  C   UNL     1      16.239  -5.712  -3.345  1.00  0.00     0.047 C 
BRANCH  50  51
ATOM     51  C   UNL     1      15.921  -6.172  -4.774  1.00  0.00     0.103 C 
BRANCH  51  52
ATOM     52  C   UNL     1      14.442  -6.007  -5.114  1.00  0.00     0.226 C 
ATOM     53  O   UNL     1      13.861  -4.961  -4.818  1.00  0.00    -0.275 OA
BRANCH  52  54
ATOM     54  N   UNL     1      13.841  -7.060  -5.829  1.00  0.00    -0.311 N 
ATOM     55  C   UNL     1      13.273  -8.221  -5.131  1.00  0.00     0.153 C 
BRANCH  54  56
ATOM     56  C   UNL     1      13.757  -7.038  -7.231  1.00  0.00     0.102 C 
ATOM     57  C   UNL     1      12.811  -6.394  -7.934  1.00  0.00     0.043 C 
BRANCH  56  58
ATOM     58  C   UNL     1      14.796  -7.731  -8.081  1.00  0.00     0.268 C 
ATOM     59  O   UNL     1      14.607  -8.814  -8.619  1.00  0.00    -0.268 OA
ATOM     60  N   UNL     1      15.944  -6.993  -8.240  1.00  0.00    -0.339 N 
ATOM     61  H   UNL     1      16.026  -6.109  -7.752  1.00  0.00     0.164 HD
BRANCH  60  62
ATOM     62  C   UNL     1      17.054  -7.448  -9.075  1.00  0.00     0.168 CG0
ATOM     63  C   UNL     1      16.962  -6.858 -10.477  1.00  0.00     0.041 C 
ATOM     64  G   UNL     1      17.060  -8.990  -9.132  1.00  0.00     0.000 G0
ENDBRANCH  60  62
ENDBRANCH  56  58
ENDBRANCH  54  56
ENDBRANCH  52  54
ENDBRANCH  51  52
ENDBRANCH  50  51
ENDBRANCH  49  50
BRANCH  49  65
ATOM     65  C   UNL     1      18.218  -6.229  -1.903  1.00  0.00     0.326 C 
ATOM     66  O   UNL     1      17.527  -6.544  -0.945  1.00  0.00    -0.250 OA
BRANCH  65  67
ATOM     67  O   UNL     1      19.539  -6.515  -1.899  1.00  0.00    -0.480 OA
ATOM     68  H   UNL     1      19.909  -5.907  -2.574  1.00  0.00     0.296 HD
ENDBRANCH  65  67
ENDBRANCH  49  65
ENDBRANCH  47  49
ENDBRANCH  43  45
ENDBRANCH   1  43
BRANCH   1  69
ATOM     69  C   UNL     1      17.920   0.077  -4.064  1.00  0.00    -0.001 C 
ATOM     70  C   UNL     1      16.873   0.656  -4.678  1.00  0.00     0.001 C 
BRANCH  70  71
ATOM     71  C   UNL     1      16.866   1.940  -5.382  1.00  0.00    -0.055 C 
ATOM     72  C   UNL     1      18.051   2.433  -5.800  1.00  0.00    -0.018 C 
ATOM     73  C   UNL     1      15.537   2.616  -5.596  1.00  0.00     0.044 C 
BRANCH  72  74
ATOM     74  C   UNL     1      18.346   3.725  -6.549  1.00  0.00     0.038 C 
ATOM     75  C   UNL     1      19.759   3.598  -7.131  1.00  0.00     0.015 C 
BRANCH  74  76
ATOM     76  C   UNL     1      18.145   4.925  -5.577  1.00  0.00     0.128 C 
BRANCH  76  77
ATOM     77  O   UNL     1      19.163   4.910  -4.562  1.00  0.00    -0.381 OA
ATOM     78  C   UNL     1      19.628   6.203  -4.201  1.00  0.00     0.195 C 
ENDBRANCH  76  77
BRANCH  76  79
ATOM     79  C   UNL     1      18.026   6.297  -6.287  1.00  0.00     0.068 C 
BRANCH  79  80
ATOM     80  C   UNL     1      16.704   6.652  -6.923  1.00  0.00    -0.045 A 
ATOM     81  C   UNL     1      15.593   5.806  -6.799  1.00  0.00     0.004 A 
ATOM     82  C   UNL     1      16.574   7.828  -7.676  1.00  0.00     0.004 A 
ATOM     83  C   UNL     1      14.377   6.135  -7.402  1.00  0.00     0.000 A 
ATOM     84  C   UNL     1      15.358   8.156  -8.279  1.00  0.00     0.000 A 
ATOM     85  C   UNL     1      14.260   7.310  -8.141  1.00  0.00     0.000 A 
ENDBRANCH  79  80
ENDBRANCH  76  79
ENDBRANCH  74  76
ENDBRANCH  72  74
ENDBRANCH  70  71
ENDBRANCH   1  69
TORSDOF 17
ENDMDL
MODEL 6
REMARK VINA RESULT:    -5.025      3.441      6.864
REMARK INTER + INTRA:         -23.407
REMARK INTER:                 -16.729
REMARK INTRA:                  -6.678
REMARK UNBOUND:                -8.394
REMARK SMILES C=C1C(=O)N[C@H](C)C(=O)N[C@@H](CC(C)C)C(=O)N[C@@H](C(=O)O)[C@H](C)C(=O)N[C@@H](CCCN=C(N)N)C(=O)N[C@@H](/C=C/C(C)=C/[C@H](C)[C@H](Cc2ccccc2)OC)[C@H](C)C(=O)N[C@@H](C(=O)O)CCC(=O)N1C
REMARK SMILES IDX 39 1 38 2 37 3 36 4 28 6 27 7 25 8 26 9 23 11 24 12 19 13
REMARK SMILES IDX 18 14 16 15 17 16 11 18 10 19 8 20 9 21 12 24 13 25 14 26
REMARK SMILES IDX 15 27 20 28 21 29 22 30 29 32 30 33 31 34 32 35 33 36 34 37
REMARK SMILES IDX 35 38 57 43 58 44 59 45 60 46 61 47 62 49 66 50 67 51 68 52
REMARK SMILES IDX 69 53 70 54 71 55 2 56 1 57 3 58 4 59 5 60 6 62 7 63 63 65
REMARK SMILES IDX 64 66 65 67 40 69 41 70 42 71 44 72 43 73 45 74 46 75 47 76
REMARK SMILES IDX 55 77 56 78 48 79 49 80 50 81 54 82 51 83 53 84 52 85
REMARK H PARENT 38 5 27 10 18 17 10 22 22 31 34 39 34 40 35 41 35 42 61 48
REMARK H PARENT 5 61 65 68
REMARK Flexibility Score:  369.900
ROOT
ATOM      1  C   UNL     1      18.017  -1.146  -3.283  1.00  0.00     0.117 C 
ENDROOT
BRANCH   1   2
ATOM      2  N   UNL     1      17.530  -0.899  -1.926  1.00  0.00    -0.347 N 
ATOM      3  O   UNL     1      19.145   0.599  -1.282  1.00  0.00    -0.273 OA
ATOM      4  C   UNL     1      18.083   0.026  -1.062  1.00  0.00     0.243 C 
ATOM      5  H   UNL     1      16.711  -1.389  -1.597  1.00  0.00     0.164 HD
BRANCH   4   6
ATOM      6  C   UNL     1      17.326   0.153   0.284  1.00  0.00     0.171 C 
BRANCH   6   7
ATOM      7  N   UNL     1      16.122   0.984   0.120  1.00  0.00    -0.344 N 
ATOM      8  C   UNL     1      16.209   2.359   0.141  1.00  0.00     0.226 C 
ATOM      9  O   UNL     1      17.267   2.951   0.316  1.00  0.00    -0.275 OA
ATOM     10  H   UNL     1      15.220   0.531   0.041  1.00  0.00     0.164 HD
BRANCH   8  11
ATOM     11  C   UNL     1      14.890   3.073  -0.096  1.00  0.00     0.109 C 
ATOM     12  C   UNL     1      13.728   2.207   0.392  1.00  0.00     0.021 C 
BRANCH  11  13
ATOM     13  C   UNL     1      14.945   4.487   0.516  1.00  0.00     0.204 C 
BRANCH  13  14
ATOM     14  N   UNL     1      15.389   5.492  -0.455  1.00  0.00    -0.340 N 
ATOM     15  C   UNL     1      16.455   6.335  -0.226  1.00  0.00     0.243 C 
ATOM     16  O   UNL     1      17.148   6.262   0.788  1.00  0.00    -0.273 OA
ATOM     17  H   UNL     1      14.771   5.705  -1.242  1.00  0.00     0.164 HD
BRANCH  15  18
ATOM     18  C   UNL     1      16.608   7.444  -1.295  1.00  0.00     0.171 C 
BRANCH  18  19
ATOM     19  N   UNL     1      18.026   7.795  -1.335  1.00  0.00    -0.343 N 
ATOM     20  C   UNL     1      18.450   9.104  -1.454  1.00  0.00     0.242 CG0
ATOM     21  O   UNL     1      17.659  10.020  -1.665  1.00  0.00    -0.273 OA
ATOM     22  H   UNL     1      18.722   7.059  -1.281  1.00  0.00     0.164 HD
ATOM     23  G   UNL     1      19.981   9.285  -1.399  1.00  0.00     0.000 G0
ENDBRANCH  18  19
BRANCH  18  24
ATOM     24  C   UNL     1      16.111   6.953  -2.660  1.00  0.00     0.038 C 
BRANCH  24  25
ATOM     25  C   UNL     1      14.999   7.817  -3.291  1.00  0.00    -0.015 C 
ATOM     26  C   UNL     1      15.546   8.839  -4.288  1.00  0.00     0.007 C 
ATOM     27  C   UNL     1      14.221   8.539  -2.188  1.00  0.00     0.007 C 
ENDBRANCH  24  25
ENDBRANCH  18  24
ENDBRANCH  15  18
ENDBRANCH  13  14
BRANCH  13  28
ATOM     28  C   UNL     1      13.597   4.958   1.071  1.00  0.00     0.327 C 
ATOM     29  O   UNL     1      12.643   5.351   0.416  1.00  0.00    -0.250 OA
BRANCH  28  30
ATOM     30  O   UNL     1      13.572   5.019   2.418  1.00  0.00    -0.480 OA
ATOM     31  H   UNL     1      12.691   5.394   2.626  1.00  0.00     0.296 HD
ENDBRANCH  28  30
ENDBRANCH  13  28
ENDBRANCH  11  13
ENDBRANCH   8  11
ENDBRANCH   6   7
BRANCH   6  32
ATOM     32  C   UNL     1      16.960  -1.246   0.790  1.00  0.00     0.037 C 
BRANCH  32  33
ATOM     33  C   UNL     1      16.038  -1.196   2.017  1.00  0.00     0.026 C 
BRANCH  33  34
ATOM     34  C   UNL     1      14.996  -2.316   2.012  1.00  0.00     0.146 C 
BRANCH  34  35
ATOM     35  N   UNL     1      14.352  -2.352   0.706  1.00  0.00    -0.254 NA
ATOM     36  C   UNL     1      14.226  -3.482   0.115  1.00  0.00     0.185 C 
ATOM     37  N   UNL     1      13.629  -3.528  -1.087  1.00  0.00    -0.370 N 
ATOM     38  N   UNL     1      14.616  -4.700   0.528  1.00  0.00    -0.370 N 
ATOM     39  H   UNL     1      13.297  -2.649  -1.463  1.00  0.00     0.159 HD
ATOM     40  H   UNL     1      13.338  -4.381  -1.531  1.00  0.00     0.159 HD
ATOM     41  H   UNL     1      14.585  -5.495  -0.089  1.00  0.00     0.159 HD
ATOM     42  H   UNL     1      15.093  -4.814   1.409  1.00  0.00     0.159 HD
ENDBRANCH  34  35
ENDBRANCH  33  34
ENDBRANCH  32  33
ENDBRANCH   6  32
ENDBRANCH   4   6
ENDBRANCH   1   2
BRANCH   1  43
ATOM     43  C   UNL     1      19.392  -1.868  -3.193  1.00  0.00     0.102 C 
ATOM     44  C   UNL     1      20.462  -1.264  -4.117  1.00  0.00     0.020 C 
BRANCH  43  45
ATOM     45  C   UNL     1      19.229  -3.384  -3.339  1.00  0.00     0.225 C 
ATOM     46  O   UNL     1      20.023  -4.088  -3.956  1.00  0.00    -0.275 OA
ATOM     47  N   UNL     1      18.072  -3.909  -2.809  1.00  0.00    -0.342 N 
ATOM     48  H   UNL     1      17.512  -3.351  -2.180  1.00  0.00     0.164 HD
BRANCH  47  49
ATOM     49  C   UNL     1      17.798  -5.349  -2.844  1.00  0.00     0.192 C 
BRANCH  49  50
ATOM     50  C   UNL     1      16.286  -5.586  -2.801  1.00  0.00     0.047 C 
BRANCH  50  51
ATOM     51  C   UNL     1      15.727  -6.021  -4.162  1.00  0.00     0.103 C 
BRANCH  51  52
ATOM     52  C   UNL     1      14.207  -6.174  -4.134  1.00  0.00     0.226 C 
ATOM     53  O   UNL     1      13.525  -5.371  -3.495  1.00  0.00    -0.275 OA
BRANCH  52  54
ATOM     54  N   UNL     1      13.667  -7.206  -4.924  1.00  0.00    -0.311 N 
ATOM     55  C   UNL     1      12.996  -8.358  -4.307  1.00  0.00     0.153 C 
BRANCH  54  56
ATOM     56  C   UNL     1      13.743  -7.172  -6.326  1.00  0.00     0.102 C 
ATOM     57  C   UNL     1      13.489  -6.092  -7.083  1.00  0.00     0.043 C 
BRANCH  56  58
ATOM     58  C   UNL     1      14.178  -8.389  -7.109  1.00  0.00     0.268 C 
ATOM     59  O   UNL     1      15.139  -9.078  -6.795  1.00  0.00    -0.268 OA
ATOM     60  N   UNL     1      13.348  -8.677  -8.165  1.00  0.00    -0.339 N 
ATOM     61  H   UNL     1      12.578  -8.050  -8.365  1.00  0.00     0.164 HD
BRANCH  60  62
ATOM     62  C   UNL     1      13.549  -9.848  -9.017  1.00  0.00     0.168 CG0
ATOM     63  C   UNL     1      12.247 -10.268  -9.687  1.00  0.00     0.041 C 
ATOM     64  G   UNL     1      14.128 -11.005  -8.177  1.00  0.00     0.000 G0
ENDBRANCH  60  62
ENDBRANCH  56  58
ENDBRANCH  54  56
ENDBRANCH  52  54
ENDBRANCH  51  52
ENDBRANCH  50  51
ENDBRANCH  49  50
BRANCH  49  65
ATOM     65  C   UNL     1      18.462  -6.080  -1.667  1.00  0.00     0.326 C 
ATOM     66  O   UNL     1      17.962  -6.254  -0.565  1.00  0.00    -0.250 OA
BRANCH  65  67
ATOM     67  O   UNL     1      19.725  -6.499  -1.903  1.00  0.00    -0.480 OA
ATOM     68  H   UNL     1      20.051  -5.876  -2.588  1.00  0.00     0.296 HD
ENDBRANCH  65  67
ENDBRANCH  49  65
ENDBRANCH  47  49
ENDBRANCH  43  45
ENDBRANCH   1  43
BRANCH   1  69
ATOM     69  C   UNL     1      17.932   0.182  -4.012  1.00  0.00    -0.001 C 
ATOM     70  C   UNL     1      16.898   0.657  -4.730  1.00  0.00     0.001 C 
BRANCH  70  71
ATOM     71  C   UNL     1      16.820   1.950  -5.411  1.00  0.00    -0.055 C 
ATOM     72  C   UNL     1      17.974   2.506  -5.837  1.00  0.00    -0.018 C 
ATOM     73  C   UNL     1      15.458   2.566  -5.596  1.00  0.00     0.044 C 
BRANCH  72  74
ATOM     74  C   UNL     1      18.197   3.822  -6.567  1.00  0.00     0.038 C 
ATOM     75  C   UNL     1      19.574   3.741  -7.237  1.00  0.00     0.015 C 
BRANCH  74  76
ATOM     76  C   UNL     1      18.033   4.992  -5.553  1.00  0.00     0.128 C 
BRANCH  76  77
ATOM     77  O   UNL     1      19.066   4.926  -4.556  1.00  0.00    -0.381 OA
ATOM     78  C   UNL     1      19.635   6.189  -4.238  1.00  0.00     0.195 C 
ENDBRANCH  76  77
BRANCH  76  79
ATOM     79  C   UNL     1      17.927   6.389  -6.215  1.00  0.00     0.068 C 
BRANCH  79  80
ATOM     80  C   UNL     1      16.632   6.750  -6.902  1.00  0.00    -0.045 A 
ATOM     81  C   UNL     1      15.468   6.000  -6.688  1.00  0.00     0.004 A 
ATOM     82  C   UNL     1      16.583   7.832  -7.794  1.00  0.00     0.004 A 
ATOM     83  C   UNL     1      14.278   6.332  -7.338  1.00  0.00     0.000 A 
ATOM     84  C   UNL     1      15.392   8.162  -8.445  1.00  0.00     0.000 A 
ATOM     85  C   UNL     1      14.240   7.414  -8.215  1.00  0.00     0.000 A 
ENDBRANCH  79  80
ENDBRANCH  76  79
ENDBRANCH  74  76
ENDBRANCH  72  74
ENDBRANCH  70  71
ENDBRANCH   1  69
TORSDOF 17
ENDMDL
MODEL 7
REMARK VINA RESULT:    -4.938     10.749     16.233
REMARK INTER + INTRA:         -23.146
REMARK INTER:                 -14.890
REMARK INTRA:                  -8.256
REMARK UNBOUND:                -8.394
REMARK SMILES C=C1C(=O)N[C@H](C)C(=O)N[C@@H](CC(C)C)C(=O)N[C@@H](C(=O)O)[C@H](C)C(=O)N[C@@H](CCCN=C(N)N)C(=O)N[C@@H](/C=C/C(C)=C/[C@H](C)[C@H](Cc2ccccc2)OC)[C@H](C)C(=O)N[C@@H](C(=O)O)CCC(=O)N1C
REMARK SMILES IDX 39 1 38 2 37 3 36 4 28 6 27 7 25 8 26 9 23 11 24 12 19 13
REMARK SMILES IDX 18 14 16 15 17 16 11 18 10 19 8 20 9 21 12 24 13 25 14 26
REMARK SMILES IDX 15 27 20 28 21 29 22 30 29 32 30 33 31 34 32 35 33 36 34 37
REMARK SMILES IDX 35 38 57 43 58 44 59 45 60 46 61 47 62 49 66 50 67 51 68 52
REMARK SMILES IDX 69 53 70 54 71 55 2 56 1 57 3 58 4 59 5 60 6 62 7 63 63 65
REMARK SMILES IDX 64 66 65 67 40 69 41 70 42 71 44 72 43 73 45 74 46 75 47 76
REMARK SMILES IDX 55 77 56 78 48 79 49 80 50 81 54 82 51 83 53 84 52 85
REMARK H PARENT 38 5 27 10 18 17 10 22 22 31 34 39 34 40 35 41 35 42 61 48
REMARK H PARENT 5 61 65 68
REMARK Flexibility Score:  369.900
ROOT
ATOM      1  C   UNL     1      14.398  -6.941  -8.246  1.00  0.00     0.117 C 
ENDROOT
BRANCH   1   2
ATOM      2  N   UNL     1      14.528  -7.328  -6.841  1.00  0.00    -0.347 N 
ATOM      3  O   UNL     1      13.866  -5.338  -5.906  1.00  0.00    -0.273 OA
ATOM      4  C   UNL     1      14.162  -6.522  -5.780  1.00  0.00     0.243 C 
ATOM      5  H   UNL     1      14.855  -8.254  -6.611  1.00  0.00     0.164 HD
BRANCH   4   6
ATOM      6  C   UNL     1      14.320  -7.203  -4.397  1.00  0.00     0.171 C 
BRANCH   6   7
ATOM      7  N   UNL     1      15.735  -7.506  -4.131  1.00  0.00    -0.344 N 
ATOM      8  C   UNL     1      16.120  -8.766  -3.726  1.00  0.00     0.226 C 
ATOM      9  O   UNL     1      15.319  -9.675  -3.548  1.00  0.00    -0.275 OA
ATOM     10  H   UNL     1      16.418  -6.762  -4.202  1.00  0.00     0.164 HD
BRANCH   8  11
ATOM     11  C   UNL     1      17.618  -8.934  -3.546  1.00  0.00     0.109 C 
ATOM     12  C   UNL     1      18.364  -7.799  -4.249  1.00  0.00     0.021 C 
BRANCH  11  13
ATOM     13  C   UNL     1      17.948  -9.097  -2.049  1.00  0.00     0.204 C 
BRANCH  13  14
ATOM     14  N   UNL     1      16.997  -8.381  -1.193  1.00  0.00    -0.340 N 
ATOM     15  C   UNL     1      17.365  -7.326  -0.386  1.00  0.00     0.243 C 
ATOM     16  O   UNL     1      18.507  -6.871  -0.372  1.00  0.00    -0.273 OA
ATOM     17  H   UNL     1      16.076  -8.800  -1.043  1.00  0.00     0.164 HD
BRANCH  15  18
ATOM     18  C   UNL     1      16.244  -6.865   0.578  1.00  0.00     0.171 C 
BRANCH  18  19
ATOM     19  N   UNL     1      16.605  -7.356   1.906  1.00  0.00    -0.343 N 
ATOM     20  C   UNL     1      16.424  -8.677   2.269  1.00  0.00     0.242 CG0
ATOM     21  O   UNL     1      15.829  -9.468   1.541  1.00  0.00    -0.273 OA
ATOM     22  H   UNL     1      16.995  -6.713   2.586  1.00  0.00     0.164 HD
ATOM     23  G   UNL     1      16.937  -9.026   3.681  1.00  0.00     0.000 G0
ENDBRANCH  18  19
BRANCH  18  24
ATOM     24  C   UNL     1      16.110  -5.337   0.561  1.00  0.00     0.038 C 
BRANCH  24  25
ATOM     25  C   UNL     1      15.513  -4.757  -0.739  1.00  0.00    -0.015 C 
ATOM     26  C   UNL     1      16.518  -3.904  -1.514  1.00  0.00     0.007 C 
ATOM     27  C   UNL     1      14.274  -3.921  -0.408  1.00  0.00     0.007 C 
ENDBRANCH  24  25
ENDBRANCH  18  24
ENDBRANCH  15  18
ENDBRANCH  13  14
BRANCH  13  28
ATOM     28  C   UNL     1      17.961 -10.558  -1.589  1.00  0.00     0.327 C 
ATOM     29  O   UNL     1      18.257 -10.963  -0.475  1.00  0.00    -0.250 OA
BRANCH  28  30
ATOM     30  O   UNL     1      17.717 -11.429  -2.589  1.00  0.00    -0.480 OA
ATOM     31  H   UNL     1      18.480 -12.043  -2.567  1.00  0.00     0.296 HD
ENDBRANCH  28  30
ENDBRANCH  13  28
ENDBRANCH  11  13
ENDBRANCH   8  11
ENDBRANCH   6   7
BRANCH   6  32
ATOM     32  C   UNL     1      13.744  -6.283  -3.314  1.00  0.00     0.037 C 
BRANCH  32  33
ATOM     33  C   UNL     1      12.453  -6.845  -2.703  1.00  0.00     0.026 C 
BRANCH  33  34
ATOM     34  C   UNL     1      12.618  -7.220  -1.230  1.00  0.00     0.146 C 
BRANCH  34  35
ATOM     35  N   UNL     1      13.632  -8.260  -1.120  1.00  0.00    -0.254 NA
ATOM     36  C   UNL     1      13.261  -9.450  -0.825  1.00  0.00     0.185 C 
ATOM     37  N   UNL     1      14.186 -10.417  -0.727  1.00  0.00    -0.370 N 
ATOM     38  N   UNL     1      12.022  -9.914  -0.586  1.00  0.00    -0.370 N 
ATOM     39  H   UNL     1      15.145 -10.148  -0.904  1.00  0.00     0.159 HD
ATOM     40  H   UNL     1      13.963 -11.396  -0.673  1.00  0.00     0.159 HD
ATOM     41  H   UNL     1      11.874 -10.843  -0.227  1.00  0.00     0.159 HD
ATOM     42  H   UNL     1      11.228  -9.293  -0.610  1.00  0.00     0.159 HD
ENDBRANCH  34  35
ENDBRANCH  33  34
ENDBRANCH  32  33
ENDBRANCH   6  32
ENDBRANCH   4   6
ENDBRANCH   1   2
BRANCH   1  43
ATOM     43  C   UNL     1      13.140  -7.640  -8.838  1.00  0.00     0.102 C 
ATOM     44  C   UNL     1      12.939  -9.076  -8.325  1.00  0.00     0.020 C 
BRANCH  43  45
ATOM     45  C   UNL     1      13.109  -7.515 -10.364  1.00  0.00     0.225 C 
ATOM     46  O   UNL     1      13.333  -6.463 -10.956  1.00  0.00    -0.275 OA
ATOM     47  N   UNL     1      12.716  -8.646 -11.043  1.00  0.00    -0.342 N 
ATOM     48  H   UNL     1      12.684  -9.533 -10.560  1.00  0.00     0.164 HD
BRANCH  47  49
ATOM     49  C   UNL     1      12.674  -8.685 -12.508  1.00  0.00     0.192 C 
BRANCH  49  50
ATOM     50  C   UNL     1      11.371  -9.344 -12.968  1.00  0.00     0.047 C 
BRANCH  50  51
ATOM     51  C   UNL     1      10.204  -8.349 -13.026  1.00  0.00     0.103 C 
BRANCH  51  52
ATOM     52  C   UNL     1       9.158  -8.629 -11.950  1.00  0.00     0.226 C 
ATOM     53  O   UNL     1       9.493  -8.651 -10.764  1.00  0.00    -0.275 OA
BRANCH  52  54
ATOM     54  N   UNL     1       7.829  -8.774 -12.390  1.00  0.00    -0.311 N 
ATOM     55  C   UNL     1       7.377 -10.014 -13.036  1.00  0.00     0.153 C 
BRANCH  54  56
ATOM     56  C   UNL     1       6.886  -7.746 -12.225  1.00  0.00     0.102 C 
ATOM     57  C   UNL     1       6.967  -6.531 -12.791  1.00  0.00     0.043 C 
BRANCH  56  58
ATOM     58  C   UNL     1       5.641  -7.962 -11.398  1.00  0.00     0.268 C 
ATOM     59  O   UNL     1       5.664  -8.158 -10.190  1.00  0.00    -0.268 OA
ATOM     60  N   UNL     1       4.481  -7.851 -12.128  1.00  0.00    -0.339 N 
ATOM     61  H   UNL     1       4.548  -7.698 -13.127  1.00  0.00     0.164 HD
BRANCH  60  62
ATOM     62  C   UNL     1       3.160  -7.962 -11.512  1.00  0.00     0.168 CG0
ATOM     63  C   UNL     1       2.621  -9.383 -11.627  1.00  0.00     0.041 C 
ATOM     64  G   UNL     1       2.195  -6.957 -12.175  1.00  0.00     0.000 G0
ENDBRANCH  60  62
ENDBRANCH  56  58
ENDBRANCH  54  56
ENDBRANCH  52  54
ENDBRANCH  51  52
ENDBRANCH  50  51
ENDBRANCH  49  50
BRANCH  49  65
ATOM     65  C   UNL     1      13.869  -9.457 -13.089  1.00  0.00     0.326 C 
ATOM     66  O   UNL     1      15.022  -9.387 -12.691  1.00  0.00    -0.250 OA
BRANCH  65  67
ATOM     67  O   UNL     1      13.576 -10.222 -14.164  1.00  0.00    -0.480 OA
ATOM     68  H   UNL     1      14.235  -9.940 -14.835  1.00  0.00     0.296 HD
ENDBRANCH  65  67
ENDBRANCH  49  65
ENDBRANCH  47  49
ENDBRANCH  43  45
ENDBRANCH   1  43
BRANCH   1  69
ATOM     69  C   UNL     1      15.750  -7.202  -8.884  1.00  0.00    -0.001 C 
ATOM     70  C   UNL     1      16.951  -7.213  -8.279  1.00  0.00     0.001 C 
BRANCH  70  71
ATOM     71  C   UNL     1      18.247  -7.487  -8.901  1.00  0.00    -0.055 C 
ATOM     72  C   UNL     1      18.452  -7.028 -10.154  1.00  0.00    -0.018 C 
ATOM     73  C   UNL     1      19.264  -8.256  -8.097  1.00  0.00     0.044 C 
BRANCH  72  74
ATOM     74  C   UNL     1      19.684  -7.158 -11.038  1.00  0.00     0.038 C 
ATOM     75  C   UNL     1      20.119  -5.737 -11.419  1.00  0.00     0.015 C 
BRANCH  74  76
ATOM     76  C   UNL     1      19.340  -8.080 -12.244  1.00  0.00     0.128 C 
BRANCH  76  77
ATOM     77  O   UNL     1      19.674  -7.421 -13.477  1.00  0.00    -0.381 OA
ATOM     78  C   UNL     1      19.336  -8.172 -14.636  1.00  0.00     0.195 C 
ENDBRANCH  76  77
BRANCH  76  79
ATOM     79  C   UNL     1      19.946  -9.503 -12.141  1.00  0.00     0.068 C 
BRANCH  79  80
ATOM     80  C   UNL     1      19.392 -10.433 -11.090  1.00  0.00    -0.045 A 
ATOM     81  C   UNL     1      20.242 -11.216 -10.298  1.00  0.00     0.004 A 
ATOM     82  C   UNL     1      18.005 -10.550 -10.909  1.00  0.00     0.004 A 
ATOM     83  C   UNL     1      19.720 -12.085  -9.337  1.00  0.00     0.000 A 
ATOM     84  C   UNL     1      17.484 -11.420  -9.949  1.00  0.00     0.000 A 
ATOM     85  C   UNL     1      18.342 -12.186  -9.162  1.00  0.00     0.000 A 
ENDBRANCH  79  80
ENDBRANCH  76  79
ENDBRANCH  74  76
ENDBRANCH  72  74
ENDBRANCH  70  71
ENDBRANCH   1  69
TORSDOF 17
ENDMDL
MODEL 8
REMARK VINA RESULT:    -4.928     13.350     17.306
REMARK INTER + INTRA:         -23.116
REMARK INTER:                 -14.301
REMARK INTRA:                  -8.815
REMARK UNBOUND:                -8.394
REMARK SMILES C=C1C(=O)N[C@H](C)C(=O)N[C@@H](CC(C)C)C(=O)N[C@@H](C(=O)O)[C@H](C)C(=O)N[C@@H](CCCN=C(N)N)C(=O)N[C@@H](/C=C/C(C)=C/[C@H](C)[C@H](Cc2ccccc2)OC)[C@H](C)C(=O)N[C@@H](C(=O)O)CCC(=O)N1C
REMARK SMILES IDX 39 1 38 2 37 3 36 4 28 6 27 7 25 8 26 9 23 11 24 12 19 13
REMARK SMILES IDX 18 14 16 15 17 16 11 18 10 19 8 20 9 21 12 24 13 25 14 26
REMARK SMILES IDX 15 27 20 28 21 29 22 30 29 32 30 33 31 34 32 35 33 36 34 37
REMARK SMILES IDX 35 38 57 43 58 44 59 45 60 46 61 47 62 49 66 50 67 51 68 52
REMARK SMILES IDX 69 53 70 54 71 55 2 56 1 57 3 58 4 59 5 60 6 62 7 63 63 65
REMARK SMILES IDX 64 66 65 67 40 69 41 70 42 71 44 72 43 73 45 74 46 75 47 76
REMARK SMILES IDX 55 77 56 78 48 79 49 80 50 81 54 82 51 83 53 84 52 85
REMARK H PARENT 38 5 27 10 18 17 10 22 22 31 34 39 34 40 35 41 35 42 61 48
REMARK H PARENT 5 61 65 68
REMARK Flexibility Score:  369.900
ROOT
ATOM      1  C   UNL     1      16.108  -7.460  -4.883  1.00  0.00     0.117 C 
ENDROOT
BRANCH   1   2
ATOM      2  N   UNL     1      16.019  -8.698  -4.109  1.00  0.00    -0.347 N 
ATOM      3  O   UNL     1      17.516  -8.144  -2.459  1.00  0.00    -0.273 OA
ATOM      4  C   UNL     1      16.664  -8.906  -2.905  1.00  0.00     0.243 C 
ATOM      5  H   UNL     1      15.417  -9.441  -4.432  1.00  0.00     0.164 HD
BRANCH   4   6
ATOM      6  C   UNL     1      16.334 -10.270  -2.248  1.00  0.00     0.171 C 
BRANCH   6   7
ATOM      7  N   UNL     1      16.362 -10.155  -0.782  1.00  0.00    -0.344 N 
ATOM      8  C   UNL     1      17.485 -10.516  -0.069  1.00  0.00     0.226 C 
ATOM      9  O   UNL     1      18.491 -10.965  -0.606  1.00  0.00    -0.275 OA
ATOM     10  H   UNL     1      15.526  -9.852  -0.297  1.00  0.00     0.164 HD
BRANCH   8  11
ATOM     11  C   UNL     1      17.376 -10.288   1.428  1.00  0.00     0.109 C 
ATOM     12  C   UNL     1      18.063  -8.977   1.811  1.00  0.00     0.021 C 
BRANCH  11  13
ATOM     13  C   UNL     1      15.903 -10.401   1.867  1.00  0.00     0.204 C 
BRANCH  13  14
ATOM     14  N   UNL     1      15.559 -11.759   2.300  1.00  0.00    -0.340 N 
ATOM     15  C   UNL     1      14.651 -12.550   1.630  1.00  0.00     0.243 C 
ATOM     16  O   UNL     1      14.110 -12.195   0.584  1.00  0.00    -0.273 OA
ATOM     17  H   UNL     1      15.853 -12.054   3.235  1.00  0.00     0.164 HD
BRANCH  15  18
ATOM     18  C   UNL     1      14.294 -13.855   2.384  1.00  0.00     0.171 C 
BRANCH  18  19
ATOM     19  N   UNL     1      13.216 -13.520   3.312  1.00  0.00    -0.343 N 
ATOM     20  C   UNL     1      13.467 -12.955   4.547  1.00  0.00     0.242 CG0
ATOM     21  O   UNL     1      14.612 -12.830   4.977  1.00  0.00    -0.273 OA
ATOM     22  H   UNL     1      12.255 -13.711   3.049  1.00  0.00     0.164 HD
ATOM     23  G   UNL     1      12.201 -12.599   5.354  1.00  0.00     0.000 G0
ENDBRANCH  18  19
BRANCH  18  24
ATOM     24  C   UNL     1      13.867 -14.950   1.398  1.00  0.00     0.038 C 
BRANCH  24  25
ATOM     25  C   UNL     1      14.097 -16.392   1.897  1.00  0.00    -0.015 C 
ATOM     26  C   UNL     1      14.919 -17.227   0.915  1.00  0.00     0.007 C 
ATOM     27  C   UNL     1      12.749 -17.071   2.149  1.00  0.00     0.007 C 
ENDBRANCH  24  25
ENDBRANCH  18  24
ENDBRANCH  15  18
ENDBRANCH  13  14
BRANCH  13  28
ATOM     28  C   UNL     1      15.541  -9.453   3.015  1.00  0.00     0.327 C 
ATOM     29  O   UNL     1      15.201  -8.285   2.908  1.00  0.00    -0.250 OA
BRANCH  28  30
ATOM     30  O   UNL     1      15.742  -9.996   4.233  1.00  0.00    -0.480 OA
ATOM     31  H   UNL     1      14.882 -10.407   4.459  1.00  0.00     0.296 HD
ENDBRANCH  28  30
ENDBRANCH  13  28
ENDBRANCH  11  13
ENDBRANCH   8  11
ENDBRANCH   6   7
BRANCH   6  32
ATOM     32  C   UNL     1      14.960 -10.744  -2.735  1.00  0.00     0.037 C 
BRANCH  32  33
ATOM     33  C   UNL     1      14.985 -12.203  -3.211  1.00  0.00     0.026 C 
BRANCH  33  34
ATOM     34  C   UNL     1      16.198 -12.511  -4.089  1.00  0.00     0.146 C 
BRANCH  34  35
ATOM     35  N   UNL     1      16.117 -11.708  -5.302  1.00  0.00    -0.254 NA
ATOM     36  C   UNL     1      15.956 -12.305  -6.424  1.00  0.00     0.185 C 
ATOM     37  N   UNL     1      15.874 -11.575  -7.547  1.00  0.00    -0.370 N 
ATOM     38  N   UNL     1      15.849 -13.622  -6.672  1.00  0.00    -0.370 N 
ATOM     39  H   UNL     1      15.936 -10.570  -7.441  1.00  0.00     0.159 HD
ATOM     40  H   UNL     1      15.578 -11.947  -8.432  1.00  0.00     0.159 HD
ATOM     41  H   UNL     1      15.865 -13.977  -7.614  1.00  0.00     0.159 HD
ATOM     42  H   UNL     1      15.908 -14.292  -5.921  1.00  0.00     0.159 HD
ENDBRANCH  34  35
ENDBRANCH  33  34
ENDBRANCH  32  33
ENDBRANCH   6  32
ENDBRANCH   4   6
ENDBRANCH   1   2
BRANCH   1  43
ATOM     43  C   UNL     1      14.676  -7.058  -5.340  1.00  0.00     0.102 C 
ATOM     44  C   UNL     1      13.666  -6.975  -4.184  1.00  0.00     0.020 C 
BRANCH  43  45
ATOM     45  C   UNL     1      14.209  -7.926  -6.512  1.00  0.00     0.225 C 
ATOM     46  O   UNL     1      14.289  -9.151  -6.514  1.00  0.00    -0.275 OA
ATOM     47  N   UNL     1      13.771  -7.238  -7.621  1.00  0.00    -0.342 N 
ATOM     48  H   UNL     1      13.569  -6.251  -7.550  1.00  0.00     0.164 HD
BRANCH  47  49
ATOM     49  C   UNL     1      13.261  -7.937  -8.804  1.00  0.00     0.192 C 
BRANCH  49  50
ATOM     50  C   UNL     1      13.685  -7.186 -10.069  1.00  0.00     0.047 C 
BRANCH  50  51
ATOM     51  C   UNL     1      15.065  -7.629 -10.573  1.00  0.00     0.103 C 
BRANCH  51  52
ATOM     52  C   UNL     1      15.323  -9.112 -10.312  1.00  0.00     0.226 C 
ATOM     53  O   UNL     1      16.041  -9.449  -9.369  1.00  0.00    -0.275 OA
BRANCH  52  54
ATOM     54  N   UNL     1      14.643 -10.022 -11.142  1.00  0.00    -0.311 N 
ATOM     55  C   UNL     1      13.979 -11.206 -10.582  1.00  0.00     0.153 C 
BRANCH  54  56
ATOM     56  C   UNL     1      14.569  -9.831 -12.532  1.00  0.00     0.102 C 
ATOM     57  C   UNL     1      15.610  -9.917 -13.376  1.00  0.00     0.043 C 
BRANCH  56  58
ATOM     58  C   UNL     1      13.247  -9.547 -13.206  1.00  0.00     0.268 C 
ATOM     59  O   UNL     1      12.363  -8.876 -12.691  1.00  0.00    -0.268 OA
ATOM     60  N   UNL     1      13.167 -10.064 -14.477  1.00  0.00    -0.339 N 
ATOM     61  H   UNL     1      13.939 -10.618 -14.827  1.00  0.00     0.164 HD
BRANCH  60  62
ATOM     62  C   UNL     1      11.999  -9.853 -15.331  1.00  0.00     0.168 CG0
ATOM     63  C   UNL     1      11.178 -11.130 -15.460  1.00  0.00     0.041 C 
ATOM     64  G   UNL     1      12.456  -9.355 -16.718  1.00  0.00     0.000 G0
ENDBRANCH  60  62
ENDBRANCH  56  58
ENDBRANCH  54  56
ENDBRANCH  52  54
ENDBRANCH  51  52
ENDBRANCH  50  51
ENDBRANCH  49  50
BRANCH  49  65
ATOM     65  C   UNL     1      11.729  -8.058  -8.774  1.00  0.00     0.326 C 
ATOM     66  O   UNL     1      11.030  -7.981  -7.774  1.00  0.00    -0.250 OA
BRANCH  65  67
ATOM     67  O   UNL     1      11.161  -8.327  -9.970  1.00  0.00    -0.480 OA
ATOM     68  H   UNL     1      11.506  -9.218 -10.196  1.00  0.00     0.296 HD
ENDBRANCH  65  67
ENDBRANCH  49  65
ENDBRANCH  47  49
ENDBRANCH  43  45
ENDBRANCH   1  43
BRANCH   1  69
ATOM     69  C   UNL     1      17.175  -7.694  -5.937  1.00  0.00    -0.001 C 
ATOM     70  C   UNL     1      17.492  -6.894  -6.971  1.00  0.00     0.001 C 
BRANCH  70  71
ATOM     71  C   UNL     1      18.539  -7.120  -7.969  1.00  0.00    -0.055 C 
ATOM     72  C   UNL     1      18.249  -6.838  -9.257  1.00  0.00    -0.018 C 
ATOM     73  C   UNL     1      19.867  -7.644  -7.488  1.00  0.00     0.044 C 
BRANCH  72  74
ATOM     74  C   UNL     1      19.128  -6.969 -10.493  1.00  0.00     0.038 C 
ATOM     75  C   UNL     1      18.896  -5.718 -11.348  1.00  0.00     0.015 C 
BRANCH  74  76
ATOM     76  C   UNL     1      18.798  -8.315 -11.202  1.00  0.00     0.128 C 
BRANCH  76  77
ATOM     77  O   UNL     1      18.604  -8.094 -12.609  1.00  0.00    -0.381 OA
ATOM     78  C   UNL     1      19.635  -8.641 -13.421  1.00  0.00     0.195 C 
ENDBRANCH  76  77
BRANCH  76  79
ATOM     79  C   UNL     1      19.814  -9.448 -10.908  1.00  0.00     0.068 C 
BRANCH  79  80
ATOM     80  C   UNL     1      19.275 -10.775 -10.433  1.00  0.00    -0.045 A 
ATOM     81  C   UNL     1      19.846 -11.436  -9.338  1.00  0.00     0.004 A 
ATOM     82  C   UNL     1      18.205 -11.385 -11.105  1.00  0.00     0.004 A 
ATOM     83  C   UNL     1      19.351 -12.671  -8.914  1.00  0.00     0.000 A 
ATOM     84  C   UNL     1      17.711 -12.620 -10.681  1.00  0.00     0.000 A 
ATOM     85  C   UNL     1      18.282 -13.262  -9.584  1.00  0.00     0.000 A 
ENDBRANCH  79  80
ENDBRANCH  76  79
ENDBRANCH  74  76
ENDBRANCH  72  74
ENDBRANCH  70  71
ENDBRANCH   1  69
TORSDOF 17
ENDMDL
MODEL 9
REMARK VINA RESULT:    -4.904      9.781     15.764
REMARK INTER + INTRA:         -23.045
REMARK INTER:                 -13.536
REMARK INTRA:                  -9.509
REMARK UNBOUND:                -8.394
REMARK SMILES C=C1C(=O)N[C@H](C)C(=O)N[C@@H](CC(C)C)C(=O)N[C@@H](C(=O)O)[C@H](C)C(=O)N[C@@H](CCCN=C(N)N)C(=O)N[C@@H](/C=C/C(C)=C/[C@H](C)[C@H](Cc2ccccc2)OC)[C@H](C)C(=O)N[C@@H](C(=O)O)CCC(=O)N1C
REMARK SMILES IDX 39 1 38 2 37 3 36 4 28 6 27 7 25 8 26 9 23 11 24 12 19 13
REMARK SMILES IDX 18 14 16 15 17 16 11 18 10 19 8 20 9 21 12 24 13 25 14 26
REMARK SMILES IDX 15 27 20 28 21 29 22 30 29 32 30 33 31 34 32 35 33 36 34 37
REMARK SMILES IDX 35 38 57 43 58 44 59 45 60 46 61 47 62 49 66 50 67 51 68 52
REMARK SMILES IDX 69 53 70 54 71 55 2 56 1 57 3 58 4 59 5 60 6 62 7 63 63 65
REMARK SMILES IDX 64 66 65 67 40 69 41 70 42 71 44 72 43 73 45 74 46 75 47 76
REMARK SMILES IDX 55 77 56 78 48 79 49 80 50 81 54 82 51 83 53 84 52 85
REMARK H PARENT 38 5 27 10 18 17 10 22 22 31 34 39 34 40 35 41 35 42 61 48
REMARK H PARENT 5 61 65 68
REMARK Flexibility Score:  369.900
ROOT
ATOM      1  C   UNL     1      14.358  -6.807  -7.677  1.00  0.00     0.117 C 
ENDROOT
BRANCH   1   2
ATOM      2  N   UNL     1      14.553  -7.126  -6.262  1.00  0.00    -0.347 N 
ATOM      3  O   UNL     1      13.868  -5.116  -5.390  1.00  0.00    -0.273 OA
ATOM      4  C   UNL     1      14.204  -6.284  -5.224  1.00  0.00     0.243 C 
ATOM      5  H   UNL     1      14.917  -8.031  -6.005  1.00  0.00     0.164 HD
BRANCH   4   6
ATOM      6  C   UNL     1      14.434  -6.897  -3.819  1.00  0.00     0.171 C 
BRANCH   6   7
ATOM      7  N   UNL     1      15.859  -7.204  -3.619  1.00  0.00    -0.344 N 
ATOM      8  C   UNL     1      16.286  -8.507  -3.487  1.00  0.00     0.226 C 
ATOM      9  O   UNL     1      15.516  -9.459  -3.505  1.00  0.00    -0.275 OA
ATOM     10  H   UNL     1      16.518  -6.440  -3.531  1.00  0.00     0.164 HD
BRANCH   8  11
ATOM     11  C   UNL     1      17.790  -8.661  -3.342  1.00  0.00     0.109 C 
ATOM     12  C   UNL     1      18.493  -7.367  -3.752  1.00  0.00     0.021 C 
BRANCH  11  13
ATOM     13  C   UNL     1      18.129  -9.161  -1.923  1.00  0.00     0.204 C 
BRANCH  13  14
ATOM     14  N   UNL     1      16.966  -9.119  -1.031  1.00  0.00    -0.340 N 
ATOM     15  C   UNL     1      16.995  -8.517   0.209  1.00  0.00     0.243 C 
ATOM     16  O   UNL     1      17.984  -7.919   0.629  1.00  0.00    -0.273 OA
ATOM     17  H   UNL     1      16.169  -9.722  -1.252  1.00  0.00     0.164 HD
BRANCH  15  18
ATOM     18  C   UNL     1      15.724  -8.778   1.053  1.00  0.00     0.171 C 
BRANCH  18  19
ATOM     19  N   UNL     1      15.905  -8.063   2.315  1.00  0.00    -0.343 N 
ATOM     20  C   UNL     1      16.160  -8.727   3.499  1.00  0.00     0.242 CG0
ATOM     21  O   UNL     1      16.113  -9.953   3.572  1.00  0.00    -0.273 OA
ATOM     22  H   UNL     1      15.837  -7.051   2.327  1.00  0.00     0.164 HD
ATOM     23  G   UNL     1      16.400  -7.802   4.709  1.00  0.00     0.000 G0
ENDBRANCH  18  19
BRANCH  18  24
ATOM     24  C   UNL     1      14.472  -8.296   0.309  1.00  0.00     0.038 C 
BRANCH  24  25
ATOM     25  C   UNL     1      13.447  -9.405  -0.011  1.00  0.00    -0.015 C 
ATOM     26  C   UNL     1      12.646  -9.112  -1.281  1.00  0.00     0.007 C 
ATOM     27  C   UNL     1      12.491  -9.579   1.172  1.00  0.00     0.007 C 
ENDBRANCH  24  25
ENDBRANCH  18  24
ENDBRANCH  15  18
ENDBRANCH  13  14
BRANCH  13  28
ATOM     28  C   UNL     1      18.666 -10.596  -1.901  1.00  0.00     0.327 C 
ATOM     29  O   UNL     1      19.727 -10.963  -1.420  1.00  0.00    -0.250 OA
BRANCH  28  30
ATOM     30  O   UNL     1      17.892 -11.460  -2.589  1.00  0.00    -0.480 OA
ATOM     31  H   UNL     1      17.946 -11.147  -3.516  1.00  0.00     0.296 HD
ENDBRANCH  28  30
ENDBRANCH  13  28
ENDBRANCH  11  13
ENDBRANCH   8  11
ENDBRANCH   6   7
BRANCH   6  32
ATOM     32  C   UNL     1      13.930  -5.918  -2.754  1.00  0.00     0.037 C 
BRANCH  32  33
ATOM     33  C   UNL     1      15.070  -5.096  -2.137  1.00  0.00     0.026 C 
BRANCH  33  34
ATOM     34  C   UNL     1      14.781  -4.689  -0.691  1.00  0.00     0.146 C 
BRANCH  34  35
ATOM     35  N   UNL     1      13.992  -3.465  -0.696  1.00  0.00    -0.254 NA
ATOM     36  C   UNL     1      13.839  -2.828   0.405  1.00  0.00     0.185 C 
ATOM     37  N   UNL     1      13.117  -1.697   0.411  1.00  0.00    -0.370 N 
ATOM     38  N   UNL     1      14.313  -3.128   1.627  1.00  0.00    -0.370 N 
ATOM     39  H   UNL     1      12.734  -1.398  -0.477  1.00  0.00     0.159 HD
ATOM     40  H   UNL     1      13.096  -1.055   1.185  1.00  0.00     0.159 HD
ATOM     41  H   UNL     1      14.007  -2.623   2.443  1.00  0.00     0.159 HD
ATOM     42  H   UNL     1      14.860  -3.962   1.775  1.00  0.00     0.159 HD
ENDBRANCH  34  35
ENDBRANCH  33  34
ENDBRANCH  32  33
ENDBRANCH   6  32
ENDBRANCH   4   6
ENDBRANCH   1   2
BRANCH   1  43
ATOM     43  C   UNL     1      13.234  -7.723  -8.241  1.00  0.00     0.102 C 
ATOM     44  C   UNL     1      11.900  -7.588  -7.489  1.00  0.00     0.020 C 
BRANCH  43  45
ATOM     45  C   UNL     1      13.723  -9.167  -8.387  1.00  0.00     0.225 C 
ATOM     46  O   UNL     1      14.103  -9.846  -7.437  1.00  0.00    -0.275 OA
ATOM     47  N   UNL     1      13.800  -9.639  -9.677  1.00  0.00    -0.342 N 
ATOM     48  H   UNL     1      13.346  -9.131 -10.424  1.00  0.00     0.164 HD
BRANCH  47  49
ATOM     49  C   UNL     1      14.217 -11.014  -9.966  1.00  0.00     0.192 C 
BRANCH  49  50
ATOM     50  C   UNL     1      15.628 -11.010 -10.559  1.00  0.00     0.047 C 
BRANCH  50  51
ATOM     51  C   UNL     1      15.965  -9.683 -11.253  1.00  0.00     0.103 C 
BRANCH  51  52
ATOM     52  C   UNL     1      15.256  -9.543 -12.598  1.00  0.00     0.226 C 
ATOM     53  O   UNL     1      14.312  -8.759 -12.712  1.00  0.00    -0.275 OA
BRANCH  52  54
ATOM     54  N   UNL     1      15.790 -10.284 -13.668  1.00  0.00    -0.311 N 
ATOM     55  C   UNL     1      17.003  -9.838 -14.366  1.00  0.00     0.153 C 
BRANCH  54  56
ATOM     56  C   UNL     1      15.190 -11.477 -14.105  1.00  0.00     0.102 C 
ATOM     57  C   UNL     1      15.678 -12.709 -13.883  1.00  0.00     0.043 C 
BRANCH  56  58
ATOM     58  C   UNL     1      13.874 -11.457 -14.846  1.00  0.00     0.268 C 
ATOM     59  O   UNL     1      13.647 -10.709 -15.787  1.00  0.00    -0.268 OA
ATOM     60  N   UNL     1      12.986 -12.406 -14.397  1.00  0.00    -0.339 N 
ATOM     61  H   UNL     1      13.247 -12.980 -13.605  1.00  0.00     0.164 HD
BRANCH  60  62
ATOM     62  C   UNL     1      11.676 -12.601 -15.016  1.00  0.00     0.168 CG0
ATOM     63  C   UNL     1      10.575 -11.963 -14.178  1.00  0.00     0.041 C 
ATOM     64  G   UNL     1      11.413 -14.110 -15.205  1.00  0.00     0.000 G0
ENDBRANCH  60  62
ENDBRANCH  56  58
ENDBRANCH  54  56
ENDBRANCH  52  54
ENDBRANCH  51  52
ENDBRANCH  50  51
ENDBRANCH  49  50
BRANCH  49  65
ATOM     65  C   UNL     1      13.255 -11.704 -10.946  1.00  0.00     0.326 C 
ATOM     66  O   UNL     1      13.278 -12.887 -11.251  1.00  0.00    -0.250 OA
BRANCH  65  67
ATOM     67  O   UNL     1      12.362 -10.877 -11.535  1.00  0.00    -0.480 OA
ATOM     68  H   UNL     1      11.656 -11.484 -11.847  1.00  0.00     0.296 HD
ENDBRANCH  65  67
ENDBRANCH  49  65
ENDBRANCH  47  49
ENDBRANCH  43  45
ENDBRANCH   1  43
BRANCH   1  69
ATOM     69  C   UNL     1      15.734  -6.856  -8.315  1.00  0.00    -0.001 C 
ATOM     70  C   UNL     1      16.902  -7.152  -7.718  1.00  0.00     0.001 C 
BRANCH  70  71
ATOM     71  C   UNL     1      18.222  -7.217  -8.350  1.00  0.00    -0.055 C 
ATOM     72  C   UNL     1      18.279  -7.117  -9.694  1.00  0.00    -0.018 C 
ATOM     73  C   UNL     1      19.422  -7.383  -7.454  1.00  0.00     0.044 C 
BRANCH  72  74
ATOM     74  C   UNL     1      19.494  -7.148 -10.611  1.00  0.00     0.038 C 
ATOM     75  C   UNL     1      19.843  -5.694 -10.949  1.00  0.00     0.015 C 
BRANCH  74  76
ATOM     76  C   UNL     1      19.169  -8.045 -11.843  1.00  0.00     0.128 C 
BRANCH  76  77
ATOM     77  O   UNL     1      19.178  -7.253 -13.042  1.00  0.00    -0.381 OA
ATOM     78  C   UNL     1      20.073  -7.733 -14.037  1.00  0.00     0.195 C 
ENDBRANCH  76  77
BRANCH  76  79
ATOM     79  C   UNL     1      20.058  -9.309 -11.952  1.00  0.00     0.068 C 
BRANCH  79  80
ATOM     80  C   UNL     1      19.583 -10.569 -11.268  1.00  0.00    -0.045 A 
ATOM     81  C   UNL     1      19.562 -10.667  -9.871  1.00  0.00     0.004 A 
ATOM     82  C   UNL     1      19.181 -11.677 -12.028  1.00  0.00     0.004 A 
ATOM     83  C   UNL     1      19.135 -11.840  -9.246  1.00  0.00     0.000 A 
ATOM     84  C   UNL     1      18.754 -12.851 -11.402  1.00  0.00     0.000 A 
ATOM     85  C   UNL     1      18.730 -12.931 -10.011  1.00  0.00     0.000 A 
ENDBRANCH  79  80
ENDBRANCH  76  79
ENDBRANCH  74  76
ENDBRANCH  72  74
ENDBRANCH  70  71
ENDBRANCH   1  69
TORSDOF 17
ENDMDL
MODEL 10
REMARK VINA RESULT:    -4.889     11.317     16.783
REMARK INTER + INTRA:         -23.001
REMARK INTER:                 -15.346
REMARK INTRA:                  -7.655
REMARK UNBOUND:                -8.394
REMARK SMILES C=C1C(=O)N[C@H](C)C(=O)N[C@@H](CC(C)C)C(=O)N[C@@H](C(=O)O)[C@H](C)C(=O)N[C@@H](CCCN=C(N)N)C(=O)N[C@@H](/C=C/C(C)=C/[C@H](C)[C@H](Cc2ccccc2)OC)[C@H](C)C(=O)N[C@@H](C(=O)O)CCC(=O)N1C
REMARK SMILES IDX 39 1 38 2 37 3 36 4 28 6 27 7 25 8 26 9 23 11 24 12 19 13
REMARK SMILES IDX 18 14 16 15 17 16 11 18 10 19 8 20 9 21 12 24 13 25 14 26
REMARK SMILES IDX 15 27 20 28 21 29 22 30 29 32 30 33 31 34 32 35 33 36 34 37
REMARK SMILES IDX 35 38 57 43 58 44 59 45 60 46 61 47 62 49 66 50 67 51 68 52
REMARK SMILES IDX 69 53 70 54 71 55 2 56 1 57 3 58 4 59 5 60 6 62 7 63 63 65
REMARK SMILES IDX 64 66 65 67 40 69 41 70 42 71 44 72 43 73 45 74 46 75 47 76
REMARK SMILES IDX 55 77 56 78 48 79 49 80 50 81 54 82 51 83 53 84 52 85
REMARK H PARENT 38 5 27 10 18 17 10 22 22 31 34 39 34 40 35 41 35 42 61 48
REMARK H PARENT 5 61 65 68
REMARK Flexibility Score:  369.900
ROOT
ATOM      1  C   UNL     1      14.331  -6.970  -8.529  1.00  0.00     0.117 C 
ENDROOT
BRANCH   1   2
ATOM      2  N   UNL     1      14.351  -7.348  -7.116  1.00  0.00    -0.347 N 
ATOM      3  O   UNL     1      13.769  -5.308  -6.238  1.00  0.00    -0.273 OA
ATOM      4  C   UNL     1      13.978  -6.507  -6.085  1.00  0.00     0.243 C 
ATOM      5  H   UNL     1      14.602  -8.291  -6.860  1.00  0.00     0.164 HD
BRANCH   4   6
ATOM      6  C   UNL     1      14.008  -7.181  -4.689  1.00  0.00     0.171 C 
BRANCH   6   7
ATOM      7  N   UNL     1      15.369  -7.638  -4.368  1.00  0.00    -0.344 N 
ATOM      8  C   UNL     1      15.638  -8.978  -4.194  1.00  0.00     0.226 C 
ATOM      9  O   UNL     1      14.771  -9.841  -4.275  1.00  0.00    -0.275 OA
ATOM     10  H   UNL     1      16.097  -6.949  -4.227  1.00  0.00     0.164 HD
BRANCH   8  11
ATOM     11  C   UNL     1      17.098  -9.293  -3.921  1.00  0.00     0.109 C 
ATOM     12  C   UNL     1      17.993  -8.224  -4.548  1.00  0.00     0.021 C 
BRANCH  11  13
ATOM     13  C   UNL     1      17.310  -9.513  -2.410  1.00  0.00     0.204 C 
BRANCH  13  14
ATOM     14  N   UNL     1      16.071  -9.901  -1.730  1.00  0.00    -0.340 N 
ATOM     15  C   UNL     1      15.686  -9.370  -0.517  1.00  0.00     0.243 C 
ATOM     16  O   UNL     1      16.326  -8.487   0.051  1.00  0.00    -0.273 OA
ATOM     17  H   UNL     1      15.576 -10.730  -2.068  1.00  0.00     0.164 HD
BRANCH  15  18
ATOM     18  C   UNL     1      14.457 -10.078   0.105  1.00  0.00     0.171 C 
BRANCH  18  19
ATOM     19  N   UNL     1      14.840 -10.467   1.461  1.00  0.00    -0.343 N 
ATOM     20  C   UNL     1      14.958 -11.792   1.833  1.00  0.00     0.242 CG0
ATOM     21  O   UNL     1      14.617 -12.704   1.082  1.00  0.00    -0.273 OA
ATOM     22  H   UNL     1      15.020  -9.748   2.152  1.00  0.00     0.164 HD
ATOM     23  G   UNL     1      15.448 -12.006   3.280  1.00  0.00     0.000 G0
ENDBRANCH  18  19
BRANCH  18  24
ATOM     24  C   UNL     1      13.240  -9.145   0.111  1.00  0.00     0.038 C 
BRANCH  24  25
ATOM     25  C   UNL     1      12.583  -8.933  -1.270  1.00  0.00    -0.015 C 
ATOM     26  C   UNL     1      11.344  -8.041  -1.198  1.00  0.00     0.007 C 
ATOM     27  C   UNL     1      12.209 -10.289  -1.875  1.00  0.00     0.007 C 
ENDBRANCH  24  25
ENDBRANCH  18  24
ENDBRANCH  15  18
ENDBRANCH  13  14
BRANCH  13  28
ATOM     28  C   UNL     1      18.356 -10.588  -2.098  1.00  0.00     0.327 C 
ATOM     29  O   UNL     1      19.437 -10.410  -1.558  1.00  0.00    -0.250 OA
BRANCH  28  30
ATOM     30  O   UNL     1      18.030 -11.801  -2.589  1.00  0.00    -0.480 OA
ATOM     31  H   UNL     1      17.937 -11.653  -3.553  1.00  0.00     0.296 HD
ENDBRANCH  28  30
ENDBRANCH  13  28
ENDBRANCH  11  13
ENDBRANCH   8  11
ENDBRANCH   6   7
BRANCH   6  32
ATOM     32  C   UNL     1      13.502  -6.185  -3.639  1.00  0.00     0.037 C 
BRANCH  32  33
ATOM     33  C   UNL     1      14.497  -6.006  -2.484  1.00  0.00     0.026 C 
BRANCH  33  34
ATOM     34  C   UNL     1      14.029  -4.968  -1.464  1.00  0.00     0.146 C 
BRANCH  34  35
ATOM     35  N   UNL     1      13.867  -5.619  -0.171  1.00  0.00    -0.254 NA
ATOM     36  C   UNL     1      14.883  -5.704   0.605  1.00  0.00     0.185 C 
ATOM     37  N   UNL     1      14.744  -6.298   1.801  1.00  0.00    -0.370 N 
ATOM     38  N   UNL     1      16.139  -5.267   0.404  1.00  0.00    -0.370 N 
ATOM     39  H   UNL     1      13.822  -6.645   2.031  1.00  0.00     0.159 HD
ATOM     40  H   UNL     1      15.436  -6.250   2.529  1.00  0.00     0.159 HD
ATOM     41  H   UNL     1      16.884  -5.517   1.033  1.00  0.00     0.159 HD
ATOM     42  H   UNL     1      16.392  -4.814  -0.461  1.00  0.00     0.159 HD
ENDBRANCH  34  35
ENDBRANCH  33  34
ENDBRANCH  32  33
ENDBRANCH   6  32
ENDBRANCH   4   6
ENDBRANCH   1   2
BRANCH   1  43
ATOM     43  C   UNL     1      13.120  -7.668  -9.211  1.00  0.00     0.102 C 
ATOM     44  C   UNL     1      12.919  -9.125  -8.759  1.00  0.00     0.020 C 
BRANCH  43  45
ATOM     45  C   UNL     1      13.167  -7.491 -10.732  1.00  0.00     0.225 C 
ATOM     46  O   UNL     1      13.492  -6.438 -11.275  1.00  0.00    -0.275 OA
ATOM     47  N   UNL     1      12.728  -8.567 -11.468  1.00  0.00    -0.342 N 
ATOM     48  H   UNL     1      12.612  -9.465 -11.020  1.00  0.00     0.164 HD
BRANCH  47  49
ATOM     49  C   UNL     1      12.751  -8.553 -12.934  1.00  0.00     0.192 C 
BRANCH  49  50
ATOM     50  C   UNL     1      11.413  -8.031 -13.464  1.00  0.00     0.047 C 
BRANCH  50  51
ATOM     51  C   UNL     1      10.249  -8.339 -12.511  1.00  0.00     0.103 C 
BRANCH  51  52
ATOM     52  C   UNL     1       9.170  -9.189 -13.180  1.00  0.00     0.226 C 
ATOM     53  O   UNL     1       9.492 -10.041 -14.009  1.00  0.00    -0.275 OA
BRANCH  52  54
ATOM     54  N   UNL     1       7.850  -8.987 -12.737  1.00  0.00    -0.311 N 
ATOM     55  C   UNL     1       7.272  -9.823 -11.676  1.00  0.00     0.153 C 
BRANCH  54  56
ATOM     56  C   UNL     1       7.039  -7.979 -13.285  1.00  0.00     0.102 C 
ATOM     57  C   UNL     1       6.867  -6.757 -12.755  1.00  0.00     0.043 C 
BRANCH  56  58
ATOM     58  C   UNL     1       6.309  -8.196 -14.590  1.00  0.00     0.268 C 
ATOM     59  O   UNL     1       6.440  -9.205 -15.271  1.00  0.00    -0.268 OA
ATOM     60  N   UNL     1       5.437  -7.179 -14.897  1.00  0.00    -0.339 N 
ATOM     61  H   UNL     1       5.395  -6.373 -14.286  1.00  0.00     0.164 HD
BRANCH  60  62
ATOM     62  C   UNL     1       4.584  -7.217 -16.084  1.00  0.00     0.168 CG0
ATOM     63  C   UNL     1       3.282  -6.462 -15.845  1.00  0.00     0.041 C 
ATOM     64  G   UNL     1       4.302  -8.683 -16.472  1.00  0.00     0.000 G0
ENDBRANCH  60  62
ENDBRANCH  56  58
ENDBRANCH  54  56
ENDBRANCH  52  54
ENDBRANCH  51  52
ENDBRANCH  50  51
ENDBRANCH  49  50
BRANCH  49  65
ATOM     65  C   UNL     1      13.015  -9.953 -13.510  1.00  0.00     0.326 C 
ATOM     66  O   UNL     1      13.788 -10.213 -14.420  1.00  0.00    -0.250 OA
BRANCH  65  67
ATOM     67  O   UNL     1      12.263 -10.937 -12.968  1.00  0.00    -0.480 OA
ATOM     68  H   UNL     1      11.589 -10.452 -12.445  1.00  0.00     0.296 HD
ENDBRANCH  65  67
ENDBRANCH  49  65
ENDBRANCH  47  49
ENDBRANCH  43  45
ENDBRANCH   1  43
BRANCH   1  69
ATOM     69  C   UNL     1      15.727  -7.239  -9.060  1.00  0.00    -0.001 C 
ATOM     70  C   UNL     1      16.882  -7.218  -8.370  1.00  0.00     0.001 C 
BRANCH  70  71
ATOM     71  C   UNL     1      18.221  -7.501  -8.889  1.00  0.00    -0.055 C 
ATOM     72  C   UNL     1      18.539  -7.012 -10.106  1.00  0.00    -0.018 C 
ATOM     73  C   UNL     1      19.153  -8.311  -8.025  1.00  0.00     0.044 C 
BRANCH  72  74
ATOM     74  C   UNL     1      19.840  -7.142 -10.887  1.00  0.00     0.038 C 
ATOM     75  C   UNL     1      20.374  -5.723 -11.116  1.00  0.00     0.015 C 
BRANCH  74  76
ATOM     76  C   UNL     1      19.564  -7.954 -12.187  1.00  0.00     0.128 C 
BRANCH  76  77
ATOM     77  O   UNL     1      20.061  -7.236 -13.329  1.00  0.00    -0.381 OA
ATOM     78  C   UNL     1      19.571  -7.726 -14.569  1.00  0.00     0.195 C 
ENDBRANCH  76  77
BRANCH  76  79
ATOM     79  C   UNL     1      20.069  -9.418 -12.133  1.00  0.00     0.068 C 
BRANCH  79  80
ATOM     80  C   UNL     1      19.438 -10.347 -11.124  1.00  0.00    -0.045 A 
ATOM     81  C   UNL     1      20.227 -11.120 -10.262  1.00  0.00     0.004 A 
ATOM     82  C   UNL     1      18.042 -10.470 -11.052  1.00  0.00     0.004 A 
ATOM     83  C   UNL     1      19.636 -11.987  -9.341  1.00  0.00     0.000 A 
ATOM     84  C   UNL     1      17.452 -11.338 -10.131  1.00  0.00     0.000 A 
ATOM     85  C   UNL     1      18.249 -12.095  -9.275  1.00  0.00     0.000 A 
ENDBRANCH  79  80
ENDBRANCH  76  79
ENDBRANCH  74  76
ENDBRANCH  72  74
ENDBRANCH  70  71
ENDBRANCH   1  69
TORSDOF 17
ENDMDL
MODEL 11
REMARK VINA RESULT:    -4.880      5.119      8.893
REMARK INTER + INTRA:         -22.974
REMARK INTER:                 -16.135
REMARK INTRA:                  -6.839
REMARK UNBOUND:                -8.394
REMARK SMILES C=C1C(=O)N[C@H](C)C(=O)N[C@@H](CC(C)C)C(=O)N[C@@H](C(=O)O)[C@H](C)C(=O)N[C@@H](CCCN=C(N)N)C(=O)N[C@@H](/C=C/C(C)=C/[C@H](C)[C@H](Cc2ccccc2)OC)[C@H](C)C(=O)N[C@@H](C(=O)O)CCC(=O)N1C
REMARK SMILES IDX 39 1 38 2 37 3 36 4 28 6 27 7 25 8 26 9 23 11 24 12 19 13
REMARK SMILES IDX 18 14 16 15 17 16 11 18 10 19 8 20 9 21 12 24 13 25 14 26
REMARK SMILES IDX 15 27 20 28 21 29 22 30 29 32 30 33 31 34 32 35 33 36 34 37
REMARK SMILES IDX 35 38 57 43 58 44 59 45 60 46 61 47 62 49 66 50 67 51 68 52
REMARK SMILES IDX 69 53 70 54 71 55 2 56 1 57 3 58 4 59 5 60 6 62 7 63 63 65
REMARK SMILES IDX 64 66 65 67 40 69 41 70 42 71 44 72 43 73 45 74 46 75 47 76
REMARK SMILES IDX 55 77 56 78 48 79 49 80 50 81 54 82 51 83 53 84 52 85
REMARK H PARENT 38 5 27 10 18 17 10 22 22 31 34 39 34 40 35 41 35 42 61 48
REMARK H PARENT 5 61 65 68
REMARK Flexibility Score:  369.900
ROOT
ATOM      1  C   UNL     1      17.493  -2.496  -1.967  1.00  0.00     0.117 C 
ENDROOT
BRANCH   1   2
ATOM      2  N   UNL     1      17.590  -1.947  -0.615  1.00  0.00    -0.347 N 
ATOM      3  O   UNL     1      19.829  -1.442  -0.641  1.00  0.00    -0.273 OA
ATOM      4  C   UNL     1      18.735  -1.378  -0.091  1.00  0.00     0.243 C 
ATOM      5  H   UNL     1      16.769  -1.929  -0.029  1.00  0.00     0.164 HD
BRANCH   4   6
ATOM      6  C   UNL     1      18.546  -0.794   1.332  1.00  0.00     0.171 C 
BRANCH   6   7
ATOM      7  N   UNL     1      17.115  -0.644   1.641  1.00  0.00    -0.344 N 
ATOM      8  C   UNL     1      16.532   0.604   1.683  1.00  0.00     0.226 C 
ATOM      9  O   UNL     1      17.165   1.635   1.492  1.00  0.00    -0.275 OA
ATOM     10  H   UNL     1      16.573  -1.468   1.871  1.00  0.00     0.164 HD
BRANCH   8  11
ATOM     11  C   UNL     1      15.039   0.588   1.960  1.00  0.00     0.109 C 
ATOM     12  C   UNL     1      14.281   1.233   0.800  1.00  0.00     0.021 C 
BRANCH  11  13
ATOM     13  C   UNL     1      14.589  -0.845   2.311  1.00  0.00     0.204 C 
BRANCH  13  14
ATOM     14  N   UNL     1      13.649  -0.868   3.436  1.00  0.00    -0.340 N 
ATOM     15  C   UNL     1      13.897  -1.554   4.605  1.00  0.00     0.243 C 
ATOM     16  O   UNL     1      14.955  -2.147   4.810  1.00  0.00    -0.273 OA
ATOM     17  H   UNL     1      12.697  -0.527   3.273  1.00  0.00     0.164 HD
BRANCH  15  18
ATOM     18  C   UNL     1      12.680  -1.608   5.561  1.00  0.00     0.171 C 
BRANCH  18  19
ATOM     19  N   UNL     1      12.971  -0.691   6.661  1.00  0.00    -0.343 N 
ATOM     20  C   UNL     1      13.340  -1.146   7.912  1.00  0.00     0.242 CG0
ATOM     21  O   UNL     1      13.312  -2.341   8.195  1.00  0.00    -0.273 OA
ATOM     22  H   UNL     1      12.895   0.309   6.508  1.00  0.00     0.164 HD
ATOM     23  G   UNL     1      13.683  -0.030   8.920  1.00  0.00     0.000 G0
ENDBRANCH  18  19
BRANCH  18  24
ATOM     24  C   UNL     1      11.395  -1.213   4.824  1.00  0.00     0.038 C 
BRANCH  24  25
ATOM     25  C   UNL     1      10.161  -1.031   5.733  1.00  0.00    -0.015 C 
ATOM     26  C   UNL     1       9.742  -2.332   6.418  1.00  0.00     0.007 C 
ATOM     27  C   UNL     1       8.992  -0.482   4.911  1.00  0.00     0.007 C 
ENDBRANCH  24  25
ENDBRANCH  18  24
ENDBRANCH  15  18
ENDBRANCH  13  14
BRANCH  13  28
ATOM     28  C   UNL     1      13.915  -1.569   1.141  1.00  0.00     0.327 C 
ATOM     29  O   UNL     1      14.462  -1.958   0.120  1.00  0.00    -0.250 OA
BRANCH  28  30
ATOM     30  O   UNL     1      12.576  -1.654   1.273  1.00  0.00    -0.480 OA
ATOM     31  H   UNL     1      12.270  -2.001   0.409  1.00  0.00     0.296 HD
ENDBRANCH  28  30
ENDBRANCH  13  28
ENDBRANCH  11  13
ENDBRANCH   8  11
ENDBRANCH   6   7
BRANCH   6  32
ATOM     32  C   UNL     1      19.232  -1.714   2.348  1.00  0.00     0.037 C 
BRANCH  32  33
ATOM     33  C   UNL     1      18.256  -2.225   3.418  1.00  0.00     0.026 C 
BRANCH  33  34
ATOM     34  C   UNL     1      18.002  -3.729   3.307  1.00  0.00     0.146 C 
BRANCH  34  35
ATOM     35  N   UNL     1      17.291  -3.995   2.063  1.00  0.00    -0.254 NA
ATOM     36  C   UNL     1      16.081  -4.409   2.124  1.00  0.00     0.185 C 
ATOM     37  N   UNL     1      15.415  -4.652   0.984  1.00  0.00    -0.370 N 
ATOM     38  N   UNL     1      15.325  -4.653   3.209  1.00  0.00    -0.370 N 
ATOM     39  H   UNL     1      15.915  -4.482   0.121  1.00  0.00     0.159 HD
ATOM     40  H   UNL     1      14.423  -4.809   0.943  1.00  0.00     0.159 HD
ATOM     41  H   UNL     1      14.431  -5.110   3.129  1.00  0.00     0.159 HD
ATOM     42  H   UNL     1      15.702  -4.528   4.136  1.00  0.00     0.159 HD
ENDBRANCH  34  35
ENDBRANCH  33  34
ENDBRANCH  32  33
ENDBRANCH   6  32
ENDBRANCH   4   6
ENDBRANCH   1   2
BRANCH   1  43
ATOM     43  C   UNL     1      18.313  -3.817  -2.025  1.00  0.00     0.102 C 
ATOM     44  C   UNL     1      19.213  -3.925  -3.268  1.00  0.00     0.020 C 
BRANCH  43  45
ATOM     45  C   UNL     1      17.411  -5.035  -1.804  1.00  0.00     0.225 C 
ATOM     46  O   UNL     1      17.588  -5.846  -0.900  1.00  0.00    -0.275 OA
ATOM     47  N   UNL     1      16.428  -5.224  -2.749  1.00  0.00    -0.342 N 
ATOM     48  H   UNL     1      16.200  -4.476  -3.390  1.00  0.00     0.164 HD
BRANCH  47  49
ATOM     49  C   UNL     1      15.468  -6.327  -2.646  1.00  0.00     0.192 C 
BRANCH  49  50
ATOM     50  C   UNL     1      15.290  -6.983  -4.018  1.00  0.00     0.047 C 
BRANCH  50  51
ATOM     51  C   UNL     1      15.290  -5.956  -5.158  1.00  0.00     0.103 C 
BRANCH  51  52
ATOM     52  C   UNL     1      14.544  -6.466  -6.389  1.00  0.00     0.226 C 
ATOM     53  O   UNL     1      13.492  -5.923  -6.733  1.00  0.00    -0.275 OA
BRANCH  52  54
ATOM     54  N   UNL     1      15.163  -7.502  -7.113  1.00  0.00    -0.311 N 
ATOM     55  C   UNL     1      14.811  -8.908  -6.871  1.00  0.00     0.153 C 
BRANCH  54  56
ATOM     56  C   UNL     1      16.131  -7.233  -8.094  1.00  0.00     0.102 C 
ATOM     57  C   UNL     1      17.445  -7.083  -7.856  1.00  0.00     0.043 C 
BRANCH  56  58
ATOM     58  C   UNL     1      15.751  -7.135  -9.553  1.00  0.00     0.268 C 
ATOM     59  O   UNL     1      16.548  -7.302 -10.466  1.00  0.00    -0.268 OA
ATOM     60  N   UNL     1      14.410  -6.906  -9.747  1.00  0.00    -0.339 N 
ATOM     61  H   UNL     1      13.817  -6.768  -8.937  1.00  0.00     0.164 HD
BRANCH  60  62
ATOM     62  C   UNL     1      13.816  -6.838 -11.082  1.00  0.00     0.168 CG0
ATOM     63  C   UNL     1      13.075  -8.126 -11.417  1.00  0.00     0.041 C 
ATOM     64  G   UNL     1      14.918  -6.554 -12.123  1.00  0.00     0.000 G0
ENDBRANCH  60  62
ENDBRANCH  56  58
ENDBRANCH  54  56
ENDBRANCH  52  54
ENDBRANCH  51  52
ENDBRANCH  50  51
ENDBRANCH  49  50
BRANCH  49  65
ATOM     65  C   UNL     1      14.103  -5.844  -2.131  1.00  0.00     0.326 C 
ATOM     66  O   UNL     1      13.881  -4.758  -1.617  1.00  0.00    -0.250 OA
BRANCH  65  67
ATOM     67  O   UNL     1      13.110  -6.755  -2.227  1.00  0.00    -0.480 OA
ATOM     68  H   UNL     1      12.458  -6.325  -2.822  1.00  0.00     0.296 HD
ENDBRANCH  65  67
ENDBRANCH  49  65
ENDBRANCH  47  49
ENDBRANCH  43  45
ENDBRANCH   1  43
BRANCH   1  69
ATOM     69  C   UNL     1      17.857  -1.365  -2.911  1.00  0.00    -0.001 C 
ATOM     70  C   UNL     1      17.242  -0.176  -3.037  1.00  0.00     0.001 C 
BRANCH  70  71
ATOM     71  C   UNL     1      17.616   0.917  -3.937  1.00  0.00    -0.055 C 
ATOM     72  C   UNL     1      17.100   2.139  -3.688  1.00  0.00    -0.018 C 
ATOM     73  C   UNL     1      18.556   0.602  -5.072  1.00  0.00     0.044 C 
BRANCH  72  74
ATOM     74  C   UNL     1      17.311   3.445  -4.441  1.00  0.00     0.038 C 
ATOM     75  C   UNL     1      18.686   3.987  -4.032  1.00  0.00     0.015 C 
BRANCH  74  76
ATOM     76  C   UNL     1      16.117   4.397  -4.137  1.00  0.00     0.128 C 
BRANCH  76  77
ATOM     77  O   UNL     1      15.782   4.333  -2.740  1.00  0.00    -0.381 OA
ATOM     78  C   UNL     1      16.127   5.507  -2.016  1.00  0.00     0.195 C 
ENDBRANCH  76  77
BRANCH  76  79
ATOM     79  C   UNL     1      16.326   5.848  -4.638  1.00  0.00     0.068 C 
BRANCH  79  80
ATOM     80  C   UNL     1      15.447   6.341  -5.762  1.00  0.00    -0.045 A 
ATOM     81  C   UNL     1      15.044   5.482  -6.793  1.00  0.00     0.004 A 
ATOM     82  C   UNL     1      15.042   7.684  -5.806  1.00  0.00     0.004 A 
ATOM     83  C   UNL     1      14.243   5.950  -7.837  1.00  0.00     0.000 A 
ATOM     84  C   UNL     1      14.242   8.151  -6.852  1.00  0.00     0.000 A 
ATOM     85  C   UNL     1      13.841   7.283  -7.865  1.00  0.00     0.000 A 
ENDBRANCH  79  80
ENDBRANCH  76  79
ENDBRANCH  74  76
ENDBRANCH  72  74
ENDBRANCH  70  71
ENDBRANCH   1  69
TORSDOF 17
ENDMDL
MODEL 12
REMARK VINA RESULT:    -4.873     11.057     16.816
REMARK INTER + INTRA:         -22.952
REMARK INTER:                 -16.217
REMARK INTRA:                  -6.735
REMARK UNBOUND:                -8.394
REMARK SMILES C=C1C(=O)N[C@H](C)C(=O)N[C@@H](CC(C)C)C(=O)N[C@@H](C(=O)O)[C@H](C)C(=O)N[C@@H](CCCN=C(N)N)C(=O)N[C@@H](/C=C/C(C)=C/[C@H](C)[C@H](Cc2ccccc2)OC)[C@H](C)C(=O)N[C@@H](C(=O)O)CCC(=O)N1C
REMARK SMILES IDX 39 1 38 2 37 3 36 4 28 6 27 7 25 8 26 9 23 11 24 12 19 13
REMARK SMILES IDX 18 14 16 15 17 16 11 18 10 19 8 20 9 21 12 24 13 25 14 26
REMARK SMILES IDX 15 27 20 28 21 29 22 30 29 32 30 33 31 34 32 35 33 36 34 37
REMARK SMILES IDX 35 38 57 43 58 44 59 45 60 46 61 47 62 49 66 50 67 51 68 52
REMARK SMILES IDX 69 53 70 54 71 55 2 56 1 57 3 58 4 59 5 60 6 62 7 63 63 65
REMARK SMILES IDX 64 66 65 67 40 69 41 70 42 71 44 72 43 73 45 74 46 75 47 76
REMARK SMILES IDX 55 77 56 78 48 79 49 80 50 81 54 82 51 83 53 84 52 85
REMARK H PARENT 38 5 27 10 18 17 10 22 22 31 34 39 34 40 35 41 35 42 61 48
REMARK H PARENT 5 61 65 68
REMARK Flexibility Score:  369.900
ROOT
ATOM      1  C   UNL     1      14.306  -7.041  -8.441  1.00  0.00     0.117 C 
ENDROOT
BRANCH   1   2
ATOM      2  N   UNL     1      14.334  -7.567  -7.076  1.00  0.00    -0.347 N 
ATOM      3  O   UNL     1      13.855  -5.609  -5.976  1.00  0.00    -0.273 OA
ATOM      4  C   UNL     1      14.014  -6.825  -5.955  1.00  0.00     0.243 C 
ATOM      5  H   UNL     1      14.548  -8.541  -6.926  1.00  0.00     0.164 HD
BRANCH   4   6
ATOM      6  C   UNL     1      14.038  -7.644  -4.639  1.00  0.00     0.171 C 
BRANCH   6   7
ATOM      7  N   UNL     1      13.699  -6.785  -3.493  1.00  0.00    -0.344 N 
ATOM      8  C   UNL     1      14.687  -6.139  -2.782  1.00  0.00     0.226 C 
ATOM      9  O   UNL     1      15.877  -6.260  -3.046  1.00  0.00    -0.275 OA
ATOM     10  H   UNL     1      12.731  -6.713  -3.203  1.00  0.00     0.164 HD
BRANCH   8  11
ATOM     11  C   UNL     1      14.173  -5.248  -1.665  1.00  0.00     0.109 C 
ATOM     12  C   UNL     1      12.744  -4.796  -1.967  1.00  0.00     0.021 C 
BRANCH  11  13
ATOM     13  C   UNL     1      14.355  -5.957  -0.307  1.00  0.00     0.204 C 
BRANCH  13  14
ATOM     14  N   UNL     1      15.339  -7.041  -0.379  1.00  0.00    -0.340 N 
ATOM     15  C   UNL     1      15.264  -8.172   0.405  1.00  0.00     0.243 C 
ATOM     16  O   UNL     1      14.330  -8.380   1.177  1.00  0.00    -0.273 OA
ATOM     17  H   UNL     1      16.212  -6.865  -0.883  1.00  0.00     0.164 HD
BRANCH  15  18
ATOM     18  C   UNL     1      16.517  -9.076   0.307  1.00  0.00     0.171 C 
BRANCH  18  19
ATOM     19  N   UNL     1      16.143 -10.373   0.869  1.00  0.00    -0.343 N 
ATOM     20  C   UNL     1      16.863 -10.959   1.892  1.00  0.00     0.242 CG0
ATOM     21  O   UNL     1      17.926 -10.483   2.286  1.00  0.00    -0.273 OA
ATOM     22  H   UNL     1      15.337 -10.862   0.498  1.00  0.00     0.164 HD
ATOM     23  G   UNL     1      16.272 -12.287   2.408  1.00  0.00     0.000 G0
ENDBRANCH  18  19
BRANCH  18  24
ATOM     24  C   UNL     1      16.979  -9.207  -1.149  1.00  0.00     0.038 C 
BRANCH  24  25
ATOM     25  C   UNL     1      18.509  -9.186  -1.345  1.00  0.00    -0.015 C 
ATOM     26  C   UNL     1      19.117 -10.588  -1.364  1.00  0.00     0.007 C 
ATOM     27  C   UNL     1      19.159  -8.358  -0.232  1.00  0.00     0.007 C 
ENDBRANCH  24  25
ENDBRANCH  18  24
ENDBRANCH  15  18
ENDBRANCH  13  14
BRANCH  13  28
ATOM     28  C   UNL     1      14.802  -5.011   0.812  1.00  0.00     0.327 C 
ATOM     29  O   UNL     1      15.649  -4.135   0.723  1.00  0.00    -0.250 OA
BRANCH  28  30
ATOM     30  O   UNL     1      14.243  -5.302   2.004  1.00  0.00    -0.480 OA
ATOM     31  H   UNL     1      13.653  -4.541   2.186  1.00  0.00     0.296 HD
ENDBRANCH  28  30
ENDBRANCH  13  28
ENDBRANCH  11  13
ENDBRANCH   8  11
ENDBRANCH   6   7
BRANCH   6  32
ATOM     32  C   UNL     1      13.055  -8.814  -4.756  1.00  0.00     0.037 C 
BRANCH  32  33
ATOM     33  C   UNL     1      12.248  -9.023  -3.467  1.00  0.00     0.026 C 
BRANCH  33  34
ATOM     34  C   UNL     1      12.659 -10.292  -2.719  1.00  0.00     0.146 C 
BRANCH  34  35
ATOM     35  N   UNL     1      13.937 -10.753  -3.242  1.00  0.00    -0.254 NA
ATOM     36  C   UNL     1      14.578 -11.653  -2.594  1.00  0.00     0.185 C 
ATOM     37  N   UNL     1      15.755 -12.088  -3.070  1.00  0.00    -0.370 N 
ATOM     38  N   UNL     1      14.242 -12.268  -1.447  1.00  0.00    -0.370 N 
ATOM     39  H   UNL     1      16.072 -11.679  -3.939  1.00  0.00     0.159 HD
ATOM     40  H   UNL     1      16.228 -12.904  -2.721  1.00  0.00     0.159 HD
ATOM     41  H   UNL     1      14.896 -12.859  -0.961  1.00  0.00     0.159 HD
ATOM     42  H   UNL     1      13.388 -12.027  -0.967  1.00  0.00     0.159 HD
ENDBRANCH  34  35
ENDBRANCH  33  34
ENDBRANCH  32  33
ENDBRANCH   6  32
ENDBRANCH   4   6
ENDBRANCH   1   2
BRANCH   1  43
ATOM     43  C   UNL     1      13.042  -7.594  -9.160  1.00  0.00     0.102 C 
ATOM     44  C   UNL     1      12.714  -9.049  -8.787  1.00  0.00     0.020 C 
BRANCH  43  45
ATOM     45  C   UNL     1      13.111  -7.339 -10.669  1.00  0.00     0.225 C 
ATOM     46  O   UNL     1      13.502  -6.281 -11.153  1.00  0.00    -0.275 OA
ATOM     47  N   UNL     1      12.614  -8.347 -11.463  1.00  0.00    -0.342 N 
ATOM     48  H   UNL     1      12.441  -9.259 -11.064  1.00  0.00     0.164 HD
BRANCH  47  49
ATOM     49  C   UNL     1      12.648  -8.257 -12.926  1.00  0.00     0.192 C 
BRANCH  49  50
ATOM     50  C   UNL     1      11.240  -7.973 -13.457  1.00  0.00     0.047 C 
BRANCH  50  51
ATOM     51  C   UNL     1      10.148  -8.425 -12.478  1.00  0.00     0.103 C 
BRANCH  51  52
ATOM     52  C   UNL     1       8.964  -9.068 -13.198  1.00  0.00     0.226 C 
ATOM     53  O   UNL     1       9.166  -9.824 -14.150  1.00  0.00    -0.275 OA
BRANCH  52  54
ATOM     54  N   UNL     1       7.688  -8.806 -12.664  1.00  0.00    -0.311 N 
ATOM     55  C   UNL     1       7.053  -9.744 -11.728  1.00  0.00     0.153 C 
BRANCH  54  56
ATOM     56  C   UNL     1       6.979  -7.641 -12.999  1.00  0.00     0.102 C 
ATOM     57  C   UNL     1       6.873  -6.554 -12.217  1.00  0.00     0.043 C 
BRANCH  56  58
ATOM     58  C   UNL     1       6.296  -7.508 -14.339  1.00  0.00     0.268 C 
ATOM     59  O   UNL     1       5.784  -6.467 -14.730  1.00  0.00    -0.268 OA
ATOM     60  N   UNL     1       6.366  -8.652 -15.098  1.00  0.00    -0.339 N 
ATOM     61  H   UNL     1       6.799  -9.476 -14.697  1.00  0.00     0.164 HD
BRANCH  60  62
ATOM     62  C   UNL     1       5.824  -8.723 -16.454  1.00  0.00     0.168 CG0
ATOM     63  C   UNL     1       4.404  -9.276 -16.447  1.00  0.00     0.041 C 
ATOM     64  G   UNL     1       6.745  -9.592 -17.334  1.00  0.00     0.000 G0
ENDBRANCH  60  62
ENDBRANCH  56  58
ENDBRANCH  54  56
ENDBRANCH  52  54
ENDBRANCH  51  52
ENDBRANCH  50  51
ENDBRANCH  49  50
BRANCH  49  65
ATOM     65  C   UNL     1      13.181  -9.550 -13.561  1.00  0.00     0.326 C 
ATOM     66  O   UNL     1      12.535 -10.317 -14.260  1.00  0.00    -0.250 OA
BRANCH  65  67
ATOM     67  O   UNL     1      14.460  -9.849 -13.244  1.00  0.00    -0.480 OA
ATOM     68  H   UNL     1      14.580 -10.757 -13.597  1.00  0.00     0.296 HD
ENDBRANCH  65  67
ENDBRANCH  49  65
ENDBRANCH  47  49
ENDBRANCH  43  45
ENDBRANCH   1  43
BRANCH   1  69
ATOM     69  C   UNL     1      15.673  -7.330  -9.035  1.00  0.00    -0.001 C 
ATOM     70  C   UNL     1      16.868  -7.213  -8.429  1.00  0.00     0.001 C 
BRANCH  70  71
ATOM     71  C   UNL     1      18.180  -7.516  -9.006  1.00  0.00    -0.055 C 
ATOM     72  C   UNL     1      18.439  -7.060 -10.249  1.00  0.00    -0.018 C 
ATOM     73  C   UNL     1      19.149  -8.308  -8.168  1.00  0.00     0.044 C 
BRANCH  72  74
ATOM     74  C   UNL     1      19.699  -7.216 -11.089  1.00  0.00     0.038 C 
ATOM     75  C   UNL     1      20.178  -5.806 -11.454  1.00  0.00     0.015 C 
BRANCH  74  76
ATOM     76  C   UNL     1      19.378  -8.132 -12.307  1.00  0.00     0.128 C 
BRANCH  76  77
ATOM     77  O   UNL     1      19.750  -7.472 -13.529  1.00  0.00    -0.381 OA
ATOM     78  C   UNL     1      19.106  -7.998 -14.681  1.00  0.00     0.195 C 
ENDBRANCH  76  77
BRANCH  76  79
ATOM     79  C   UNL     1      19.967  -9.561 -12.194  1.00  0.00     0.068 C 
BRANCH  79  80
ATOM     80  C   UNL     1      19.401 -10.477 -11.136  1.00  0.00    -0.045 A 
ATOM     81  C   UNL     1      20.243 -11.229 -10.306  1.00  0.00     0.004 A 
ATOM     82  C   UNL     1      18.012 -10.612 -10.987  1.00  0.00     0.004 A 
ATOM     83  C   UNL     1      19.710 -12.085  -9.340  1.00  0.00     0.000 A 
ATOM     84  C   UNL     1      17.481 -11.469 -10.021  1.00  0.00     0.000 A 
ATOM     85  C   UNL     1      18.330 -12.204  -9.197  1.00  0.00     0.000 A 
ENDBRANCH  79  80
ENDBRANCH  76  79
ENDBRANCH  74  76
ENDBRANCH  72  74
ENDBRANCH  70  71
ENDBRANCH   1  69
TORSDOF 17
ENDMDL
MODEL 13
REMARK VINA RESULT:    -4.867     11.667     16.455
REMARK INTER + INTRA:         -22.936
REMARK INTER:                 -14.994
REMARK INTRA:                  -7.942
REMARK UNBOUND:                -8.394
REMARK SMILES C=C1C(=O)N[C@H](C)C(=O)N[C@@H](CC(C)C)C(=O)N[C@@H](C(=O)O)[C@H](C)C(=O)N[C@@H](CCCN=C(N)N)C(=O)N[C@@H](/C=C/C(C)=C/[C@H](C)[C@H](Cc2ccccc2)OC)[C@H](C)C(=O)N[C@@H](C(=O)O)CCC(=O)N1C
REMARK SMILES IDX 39 1 38 2 37 3 36 4 28 6 27 7 25 8 26 9 23 11 24 12 19 13
REMARK SMILES IDX 18 14 16 15 17 16 11 18 10 19 8 20 9 21 12 24 13 25 14 26
REMARK SMILES IDX 15 27 20 28 21 29 22 30 29 32 30 33 31 34 32 35 33 36 34 37
REMARK SMILES IDX 35 38 57 43 58 44 59 45 60 46 61 47 62 49 66 50 67 51 68 52
REMARK SMILES IDX 69 53 70 54 71 55 2 56 1 57 3 58 4 59 5 60 6 62 7 63 63 65
REMARK SMILES IDX 64 66 65 67 40 69 41 70 42 71 44 72 43 73 45 74 46 75 47 76
REMARK SMILES IDX 55 77 56 78 48 79 49 80 50 81 54 82 51 83 53 84 52 85
REMARK H PARENT 38 5 27 10 18 17 10 22 22 31 34 39 34 40 35 41 35 42 61 48
REMARK H PARENT 5 61 65 68
REMARK Flexibility Score:  369.900
ROOT
ATOM      1  C   UNL     1      15.368  -6.288  -5.574  1.00  0.00     0.117 C 
ENDROOT
BRANCH   1   2
ATOM      2  N   UNL     1      14.551  -7.062  -6.510  1.00  0.00    -0.347 N 
ATOM      3  O   UNL     1      13.251  -5.338  -7.289  1.00  0.00    -0.273 OA
ATOM      4  C   UNL     1      13.617  -6.506  -7.363  1.00  0.00     0.243 C 
ATOM      5  H   UNL     1      14.698  -8.056  -6.589  1.00  0.00     0.164 HD
BRANCH   4   6
ATOM      6  C   UNL     1      12.951  -7.534  -8.313  1.00  0.00     0.171 C 
BRANCH   6   7
ATOM      7  N   UNL     1      11.673  -8.001  -7.751  1.00  0.00    -0.344 N 
ATOM      8  C   UNL     1      11.265  -9.306  -7.923  1.00  0.00     0.226 C 
ATOM      9  O   UNL     1      11.920 -10.124  -8.558  1.00  0.00    -0.275 OA
ATOM     10  H   UNL     1      11.073  -7.337  -7.278  1.00  0.00     0.164 HD
BRANCH   8  11
ATOM     11  C   UNL     1       9.953  -9.646  -7.239  1.00  0.00     0.109 C 
ATOM     12  C   UNL     1       9.409  -8.420  -6.505  1.00  0.00     0.021 C 
BRANCH  11  13
ATOM     13  C   UNL     1       8.982 -10.276  -8.257  1.00  0.00     0.204 C 
BRANCH  13  14
ATOM     14  N   UNL     1       9.337  -9.939  -9.639  1.00  0.00    -0.340 N 
ATOM     15  C   UNL     1       8.701  -8.947 -10.355  1.00  0.00     0.243 C 
ATOM     16  O   UNL     1       7.830  -8.233  -9.863  1.00  0.00    -0.273 OA
ATOM     17  H   UNL     1       9.940 -10.587 -10.152  1.00  0.00     0.164 HD
BRANCH  15  18
ATOM     18  C   UNL     1       9.099  -8.912 -11.851  1.00  0.00     0.171 C 
BRANCH  18  19
ATOM     19  N   UNL     1       8.344  -7.819 -12.460  1.00  0.00    -0.343 N 
ATOM     20  C   UNL     1       7.422  -8.041 -13.464  1.00  0.00     0.242 CG0
ATOM     21  O   UNL     1       7.290  -9.146 -13.984  1.00  0.00    -0.273 OA
ATOM     22  H   UNL     1       8.502  -6.869 -12.143  1.00  0.00     0.164 HD
ATOM     23  G   UNL     1       6.667  -6.777 -13.926  1.00  0.00     0.000 G0
ENDBRANCH  18  19
BRANCH  18  24
ATOM     24  C   UNL     1      10.611  -8.704 -12.005  1.00  0.00     0.038 C 
BRANCH  24  25
ATOM     25  C   UNL     1      11.100  -8.585 -13.463  1.00  0.00    -0.015 C 
ATOM     26  C   UNL     1      11.862  -9.826 -13.929  1.00  0.00     0.007 C 
ATOM     27  C   UNL     1      11.992  -7.349 -13.608  1.00  0.00     0.007 C 
ENDBRANCH  24  25
ENDBRANCH  18  24
ENDBRANCH  15  18
ENDBRANCH  13  14
BRANCH  13  28
ATOM     28  C   UNL     1       8.917 -11.803  -8.165  1.00  0.00     0.327 C 
ATOM     29  O   UNL     1       7.993 -12.461  -7.712  1.00  0.00    -0.250 OA
BRANCH  28  30
ATOM     30  O   UNL     1      10.065 -12.405  -8.537  1.00  0.00    -0.480 OA
ATOM     31  H   UNL     1      10.440 -12.748  -7.700  1.00  0.00     0.296 HD
ENDBRANCH  28  30
ENDBRANCH  13  28
ENDBRANCH  11  13
ENDBRANCH   8  11
ENDBRANCH   6   7
BRANCH   6  32
ATOM     32  C   UNL     1      12.742  -6.887  -9.687  1.00  0.00     0.037 C 
BRANCH  32  33
ATOM     33  C   UNL     1      14.012  -6.932 -10.548  1.00  0.00     0.026 C 
BRANCH  33  34
ATOM     34  C   UNL     1      14.473  -8.362 -10.835  1.00  0.00     0.146 C 
BRANCH  34  35
ATOM     35  N   UNL     1      15.922  -8.424 -10.701  1.00  0.00    -0.254 NA
ATOM     36  C   UNL     1      16.420  -9.020  -9.682  1.00  0.00     0.185 C 
ATOM     37  N   UNL     1      17.754  -9.088  -9.551  1.00  0.00    -0.370 N 
ATOM     38  N   UNL     1      15.784  -9.626  -8.664  1.00  0.00    -0.370 N 
ATOM     39  H   UNL     1      18.304  -8.662 -10.286  1.00  0.00     0.159 HD
ATOM     40  H   UNL     1      18.218  -9.679  -8.884  1.00  0.00     0.159 HD
ATOM     41  H   UNL     1      16.285  -9.938  -7.849  1.00  0.00     0.159 HD
ATOM     42  H   UNL     1      14.777  -9.638  -8.623  1.00  0.00     0.159 HD
ENDBRANCH  34  35
ENDBRANCH  33  34
ENDBRANCH  32  33
ENDBRANCH   6  32
ENDBRANCH   4   6
ENDBRANCH   1   2
BRANCH   1  43
ATOM     43  C   UNL     1      16.749  -6.990  -5.425  1.00  0.00     0.102 C 
ATOM     44  C   UNL     1      17.640  -6.858  -6.672  1.00  0.00     0.020 C 
BRANCH  43  45
ATOM     45  C   UNL     1      16.584  -8.429  -4.929  1.00  0.00     0.225 C 
ATOM     46  O   UNL     1      16.104  -9.326  -5.617  1.00  0.00    -0.275 OA
ATOM     47  N   UNL     1      16.923  -8.645  -3.612  1.00  0.00    -0.342 N 
ATOM     48  H   UNL     1      17.451  -7.945  -3.111  1.00  0.00     0.164 HD
BRANCH  47  49
ATOM     49  C   UNL     1      16.849  -9.980  -3.011  1.00  0.00     0.192 C 
BRANCH  49  50
ATOM     50  C   UNL     1      15.739 -10.009  -1.957  1.00  0.00     0.047 C 
BRANCH  50  51
ATOM     51  C   UNL     1      15.368  -8.604  -1.464  1.00  0.00     0.103 C 
BRANCH  51  52
ATOM     52  C   UNL     1      16.321  -8.108  -0.378  1.00  0.00     0.226 C 
ATOM     53  O   UNL     1      17.115  -7.200  -0.632  1.00  0.00    -0.275 OA
BRANCH  52  54
ATOM     54  N   UNL     1      16.173  -8.684   0.897  1.00  0.00    -0.311 N 
ATOM     55  C   UNL     1      14.880  -8.659   1.594  1.00  0.00     0.153 C 
BRANCH  54  56
ATOM     56  C   UNL     1      17.250  -9.309   1.547  1.00  0.00     0.102 C 
ATOM     57  C   UNL     1      17.619 -10.588   1.368  1.00  0.00     0.043 C 
BRANCH  56  58
ATOM     58  C   UNL     1      18.133  -8.539   2.500  1.00  0.00     0.268 C 
ATOM     59  O   UNL     1      18.838  -9.076   3.344  1.00  0.00    -0.268 OA
ATOM     60  N   UNL     1      18.114  -7.182   2.278  1.00  0.00    -0.339 N 
ATOM     61  H   UNL     1      17.494  -6.814   1.565  1.00  0.00     0.164 HD
BRANCH  60  62
ATOM     62  C   UNL     1      18.943  -6.255   3.046  1.00  0.00     0.168 CG0
ATOM     63  C   UNL     1      19.692  -5.299   2.125  1.00  0.00     0.041 C 
ATOM     64  G   UNL     1      19.929  -7.050   3.926  1.00  0.00     0.000 G0
ENDBRANCH  60  62
ENDBRANCH  56  58
ENDBRANCH  54  56
ENDBRANCH  52  54
ENDBRANCH  51  52
ENDBRANCH  50  51
ENDBRANCH  49  50
BRANCH  49  65
ATOM     65  C   UNL     1      18.181 -10.381  -2.358  1.00  0.00     0.326 C 
ATOM     66  O   UNL     1      19.063  -9.609  -2.011  1.00  0.00    -0.250 OA
BRANCH  65  67
ATOM     67  O   UNL     1      18.368 -11.713  -2.229  1.00  0.00    -0.480 OA
ATOM     68  H   UNL     1      19.308 -11.790  -1.959  1.00  0.00     0.296 HD
ENDBRANCH  65  67
ENDBRANCH  49  65
ENDBRANCH  47  49
ENDBRANCH  43  45
ENDBRANCH   1  43
BRANCH   1  69
ATOM     69  C   UNL     1      14.513  -6.081  -4.337  1.00  0.00    -0.001 C 
ATOM     70  C   UNL     1      13.414  -6.767  -3.979  1.00  0.00     0.001 C 
BRANCH  70  71
ATOM     71  C   UNL     1      12.610  -6.572  -2.771  1.00  0.00    -0.055 C 
ATOM     72  C   UNL     1      11.746  -7.551  -2.427  1.00  0.00    -0.018 C 
ATOM     73  C   UNL     1      12.808  -5.297  -1.994  1.00  0.00     0.044 C 
BRANCH  72  74
ATOM     74  C   UNL     1      10.797  -7.624  -1.240  1.00  0.00     0.038 C 
ATOM     75  C   UNL     1      11.384  -8.639  -0.253  1.00  0.00     0.015 C 
BRANCH  74  76
ATOM     76  C   UNL     1       9.370  -7.968  -1.760  1.00  0.00     0.128 C 
BRANCH  76  77
ATOM     77  O   UNL     1       9.459  -8.662  -3.016  1.00  0.00    -0.381 OA
ATOM     78  C   UNL     1       8.672  -9.843  -3.074  1.00  0.00     0.195 C 
ENDBRANCH  76  77
BRANCH  76  79
ATOM     79  C   UNL     1       8.486  -8.711  -0.727  1.00  0.00     0.068 C 
BRANCH  79  80
ATOM     80  C   UNL     1       7.366  -7.941  -0.071  1.00  0.00    -0.045 A 
ATOM     81  C   UNL     1       7.633  -6.837   0.750  1.00  0.00     0.004 A 
ATOM     82  C   UNL     1       6.033  -8.339  -0.253  1.00  0.00     0.004 A 
ATOM     83  C   UNL     1       6.592  -6.138   1.365  1.00  0.00     0.000 A 
ATOM     84  C   UNL     1       4.992  -7.639   0.363  1.00  0.00     0.000 A 
ATOM     85  C   UNL     1       5.272  -6.539   1.170  1.00  0.00     0.000 A 
ENDBRANCH  79  80
ENDBRANCH  76  79
ENDBRANCH  74  76
ENDBRANCH  72  74
ENDBRANCH  70  71
ENDBRANCH   1  69
TORSDOF 17
ENDMDL
MODEL 14
REMARK VINA RESULT:    -4.861     13.327     17.358
REMARK INTER + INTRA:         -22.918
REMARK INTER:                 -15.595
REMARK INTRA:                  -7.323
REMARK UNBOUND:                -8.394
REMARK SMILES C=C1C(=O)N[C@H](C)C(=O)N[C@@H](CC(C)C)C(=O)N[C@@H](C(=O)O)[C@H](C)C(=O)N[C@@H](CCCN=C(N)N)C(=O)N[C@@H](/C=C/C(C)=C/[C@H](C)[C@H](Cc2ccccc2)OC)[C@H](C)C(=O)N[C@@H](C(=O)O)CCC(=O)N1C
REMARK SMILES IDX 39 1 38 2 37 3 36 4 28 6 27 7 25 8 26 9 23 11 24 12 19 13
REMARK SMILES IDX 18 14 16 15 17 16 11 18 10 19 8 20 9 21 12 24 13 25 14 26
REMARK SMILES IDX 15 27 20 28 21 29 22 30 29 32 30 33 31 34 32 35 33 36 34 37
REMARK SMILES IDX 35 38 57 43 58 44 59 45 60 46 61 47 62 49 66 50 67 51 68 52
REMARK SMILES IDX 69 53 70 54 71 55 2 56 1 57 3 58 4 59 5 60 6 62 7 63 63 65
REMARK SMILES IDX 64 66 65 67 40 69 41 70 42 71 44 72 43 73 45 74 46 75 47 76
REMARK SMILES IDX 55 77 56 78 48 79 49 80 50 81 54 82 51 83 53 84 52 85
REMARK H PARENT 38 5 27 10 18 17 10 22 22 31 34 39 34 40 35 41 35 42 61 48
REMARK H PARENT 5 61 65 68
REMARK Flexibility Score:  369.900
ROOT
ATOM      1  C   UNL     1      13.896  -6.838  -8.140  1.00  0.00     0.117 C 
ENDROOT
BRANCH   1   2
ATOM      2  N   UNL     1      13.583  -7.761  -7.049  1.00  0.00    -0.347 N 
ATOM      3  O   UNL     1      13.858  -6.292  -5.307  1.00  0.00    -0.273 OA
ATOM      4  C   UNL     1      13.500  -7.390  -5.721  1.00  0.00     0.243 C 
ATOM      5  H   UNL     1      13.364  -8.723  -7.263  1.00  0.00     0.164 HD
BRANCH   4   6
ATOM      6  C   UNL     1      13.068  -8.541  -4.778  1.00  0.00     0.171 C 
BRANCH   6   7
ATOM      7  N   UNL     1      11.601  -8.606  -4.683  1.00  0.00    -0.344 N 
ATOM      8  C   UNL     1      10.962  -8.344  -3.491  1.00  0.00     0.226 C 
ATOM      9  O   UNL     1      11.568  -8.072  -2.462  1.00  0.00    -0.275 OA
ATOM     10  H   UNL     1      11.069  -8.894  -5.495  1.00  0.00     0.164 HD
BRANCH   8  11
ATOM     11  C   UNL     1       9.446  -8.398  -3.570  1.00  0.00     0.109 C 
ATOM     12  C   UNL     1       9.006  -8.822  -4.971  1.00  0.00     0.021 C 
BRANCH  11  13
ATOM     13  C   UNL     1       8.895  -9.273  -2.425  1.00  0.00     0.204 C 
BRANCH  13  14
ATOM     14  N   UNL     1       8.522  -8.476  -1.253  1.00  0.00    -0.340 N 
ATOM     15  C   UNL     1       8.590  -8.962   0.035  1.00  0.00     0.243 C 
ATOM     16  O   UNL     1       9.027 -10.081   0.296  1.00  0.00    -0.273 OA
ATOM     17  H   UNL     1       8.012  -7.602  -1.408  1.00  0.00     0.164 HD
BRANCH  15  18
ATOM     18  C   UNL     1       7.951  -8.021   1.086  1.00  0.00     0.171 C 
BRANCH  18  19
ATOM     19  N   UNL     1       9.019  -7.634   2.006  1.00  0.00    -0.343 N 
ATOM     20  C   UNL     1       9.012  -8.018   3.333  1.00  0.00     0.242 CG0
ATOM     21  O   UNL     1       8.045  -8.588   3.833  1.00  0.00    -0.273 OA
ATOM     22  H   UNL     1       9.785  -7.064   1.666  1.00  0.00     0.164 HD
ATOM     23  G   UNL     1      10.260  -7.583   4.128  1.00  0.00     0.000 G0
ENDBRANCH  18  19
BRANCH  18  24
ATOM     24  C   UNL     1       7.323  -6.798   0.407  1.00  0.00     0.038 C 
BRANCH  24  25
ATOM     25  C   UNL     1       5.843  -6.549   0.767  1.00  0.00    -0.015 C 
ATOM     26  C   UNL     1       5.615  -6.466   2.277  1.00  0.00     0.007 C 
ATOM     27  C   UNL     1       4.975  -7.662   0.175  1.00  0.00     0.007 C 
ENDBRANCH  24  25
ENDBRANCH  18  24
ENDBRANCH  15  18
ENDBRANCH  13  14
BRANCH  13  28
ATOM     28  C   UNL     1       7.665 -10.091  -2.829  1.00  0.00     0.327 C 
ATOM     29  O   UNL     1       6.517  -9.680  -2.903  1.00  0.00    -0.250 OA
BRANCH  28  30
ATOM     30  O   UNL     1       7.933 -11.401  -2.999  1.00  0.00    -0.480 OA
ATOM     31  H   UNL     1       8.098 -11.491  -3.961  1.00  0.00     0.296 HD
ENDBRANCH  28  30
ENDBRANCH  13  28
ENDBRANCH  11  13
ENDBRANCH   8  11
ENDBRANCH   6   7
BRANCH   6  32
ATOM     32  C   UNL     1      13.642  -9.863  -5.301  1.00  0.00     0.037 C 
BRANCH  32  33
ATOM     33  C   UNL     1      12.549 -10.911  -5.550  1.00  0.00     0.026 C 
BRANCH  33  34
ATOM     34  C   UNL     1      12.277 -11.132  -7.039  1.00  0.00     0.146 C 
BRANCH  34  35
ATOM     35  N   UNL     1      13.440 -10.693  -7.798  1.00  0.00    -0.254 NA
ATOM     36  C   UNL     1      13.443 -10.860  -9.068  1.00  0.00     0.185 C 
ATOM     37  N   UNL     1      14.507 -10.455  -9.778  1.00  0.00    -0.370 N 
ATOM     38  N   UNL     1      12.496 -11.408  -9.850  1.00  0.00    -0.370 N 
ATOM     39  H   UNL     1      15.261 -10.021  -9.260  1.00  0.00     0.159 HD
ATOM     40  H   UNL     1      14.515 -10.391 -10.782  1.00  0.00     0.159 HD
ATOM     41  H   UNL     1      12.675 -11.611 -10.820  1.00  0.00     0.159 HD
ATOM     42  H   UNL     1      11.646 -11.772  -9.448  1.00  0.00     0.159 HD
ENDBRANCH  34  35
ENDBRANCH  33  34
ENDBRANCH  32  33
ENDBRANCH   6  32
ENDBRANCH   4   6
ENDBRANCH   1   2
BRANCH   1  43
ATOM     43  C   UNL     1      12.672  -6.771  -9.098  1.00  0.00     0.102 C 
ATOM     44  C   UNL     1      11.523  -7.708  -8.690  1.00  0.00     0.020 C 
BRANCH  43  45
ATOM     45  C   UNL     1      13.108  -6.922 -10.559  1.00  0.00     0.225 C 
ATOM     46  O   UNL     1      13.861  -6.132 -11.120  1.00  0.00    -0.275 OA
ATOM     47  N   UNL     1      12.523  -7.961 -11.247  1.00  0.00    -0.342 N 
ATOM     48  H   UNL     1      12.031  -8.683 -10.739  1.00  0.00     0.164 HD
BRANCH  47  49
ATOM     49  C   UNL     1      12.871  -8.249 -12.641  1.00  0.00     0.192 C 
BRANCH  49  50
ATOM     50  C   UNL     1      11.598  -8.303 -13.489  1.00  0.00     0.047 C 
BRANCH  50  51
ATOM     51  C   UNL     1      10.326  -8.290 -12.630  1.00  0.00     0.103 C 
BRANCH  51  52
ATOM     52  C   UNL     1       9.189  -9.078 -13.277  1.00  0.00     0.226 C 
ATOM     53  O   UNL     1       9.433  -9.849 -14.208  1.00  0.00    -0.275 OA
BRANCH  52  54
ATOM     54  N   UNL     1       7.913  -8.924 -12.703  1.00  0.00    -0.311 N 
ATOM     55  C   UNL     1       7.416  -9.875 -11.700  1.00  0.00     0.153 C 
BRANCH  54  56
ATOM     56  C   UNL     1       7.073  -7.857 -13.062  1.00  0.00     0.102 C 
ATOM     57  C   UNL     1       6.849  -6.768 -12.307  1.00  0.00     0.043 C 
BRANCH  56  58
ATOM     58  C   UNL     1       6.368  -7.840 -14.398  1.00  0.00     0.268 C 
ATOM     59  O   UNL     1       5.849  -6.837 -14.868  1.00  0.00    -0.268 OA
ATOM     60  N   UNL     1       6.429  -9.046 -15.055  1.00  0.00    -0.339 N 
ATOM     61  H   UNL     1       6.868  -9.832 -14.592  1.00  0.00     0.164 HD
BRANCH  60  62
ATOM     62  C   UNL     1       5.865  -9.233 -16.392  1.00  0.00     0.168 CG0
ATOM     63  C   UNL     1       6.711 -10.199 -17.212  1.00  0.00     0.041 C 
ATOM     64  G   UNL     1       5.753  -7.868 -17.101  1.00  0.00     0.000 G0
ENDBRANCH  60  62
ENDBRANCH  56  58
ENDBRANCH  54  56
ENDBRANCH  52  54
ENDBRANCH  51  52
ENDBRANCH  50  51
ENDBRANCH  49  50
BRANCH  49  65
ATOM     65  C   UNL     1      13.628  -9.580 -12.773  1.00  0.00     0.326 C 
ATOM     66  O   UNL     1      13.118 -10.691 -12.764  1.00  0.00    -0.250 OA
BRANCH  65  67
ATOM     67  O   UNL     1      14.972  -9.460 -12.848  1.00  0.00    -0.480 OA
ATOM     68  H   UNL     1      15.117  -8.489 -12.864  1.00  0.00     0.296 HD
ENDBRANCH  65  67
ENDBRANCH  49  65
ENDBRANCH  47  49
ENDBRANCH  43  45
ENDBRANCH   1  43
BRANCH   1  69
ATOM     69  C   UNL     1      15.239  -7.276  -8.695  1.00  0.00    -0.001 C 
ATOM     70  C   UNL     1      16.448  -7.116  -8.130  1.00  0.00     0.001 C 
BRANCH  70  71
ATOM     71  C   UNL     1      17.736  -7.562  -8.666  1.00  0.00    -0.055 C 
ATOM     72  C   UNL     1      18.117  -7.080  -9.867  1.00  0.00    -0.018 C 
ATOM     73  C   UNL     1      18.548  -8.522  -7.835  1.00  0.00     0.044 C 
BRANCH  72  74
ATOM     74  C   UNL     1      19.386  -7.360 -10.659  1.00  0.00     0.038 C 
ATOM     75  C   UNL     1      19.888  -6.017 -11.202  1.00  0.00     0.015 C 
BRANCH  74  76
ATOM     76  C   UNL     1      19.071  -8.428 -11.749  1.00  0.00     0.128 C 
BRANCH  76  77
ATOM     77  O   UNL     1      19.171  -7.838 -13.056  1.00  0.00    -0.381 OA
ATOM     78  C   UNL     1      18.675  -8.670 -14.097  1.00  0.00     0.195 C 
ENDBRANCH  76  77
BRANCH  76  79
ATOM     79  C   UNL     1      19.900  -9.730 -11.613  1.00  0.00     0.068 C 
BRANCH  79  80
ATOM     80  C   UNL     1      19.375 -10.810 -10.698  1.00  0.00    -0.045 A 
ATOM     81  C   UNL     1      18.016 -11.150 -10.688  1.00  0.00     0.004 A 
ATOM     82  C   UNL     1      20.242 -11.473  -9.817  1.00  0.00     0.004 A 
ATOM     83  C   UNL     1      17.536 -12.140  -9.828  1.00  0.00     0.000 A 
ATOM     84  C   UNL     1      19.761 -12.463  -8.957  1.00  0.00     0.000 A 
ATOM     85  C   UNL     1      18.409 -12.797  -8.964  1.00  0.00     0.000 A 
ENDBRANCH  79  80
ENDBRANCH  76  79
ENDBRANCH  74  76
ENDBRANCH  72  74
ENDBRANCH  70  71
ENDBRANCH   1  69
TORSDOF 17
ENDMDL
MODEL 15
REMARK VINA RESULT:    -4.840      7.870     16.708
REMARK INTER + INTRA:         -22.855
REMARK INTER:                 -13.349
REMARK INTRA:                  -9.506
REMARK UNBOUND:                -8.394
REMARK SMILES C=C1C(=O)N[C@H](C)C(=O)N[C@@H](CC(C)C)C(=O)N[C@@H](C(=O)O)[C@H](C)C(=O)N[C@@H](CCCN=C(N)N)C(=O)N[C@@H](/C=C/C(C)=C/[C@H](C)[C@H](Cc2ccccc2)OC)[C@H](C)C(=O)N[C@@H](C(=O)O)CCC(=O)N1C
REMARK SMILES IDX 39 1 38 2 37 3 36 4 28 6 27 7 25 8 26 9 23 11 24 12 19 13
REMARK SMILES IDX 18 14 16 15 17 16 11 18 10 19 8 20 9 21 12 24 13 25 14 26
REMARK SMILES IDX 15 27 20 28 21 29 22 30 29 32 30 33 31 34 32 35 33 36 34 37
REMARK SMILES IDX 35 38 57 43 58 44 59 45 60 46 61 47 62 49 66 50 67 51 68 52
REMARK SMILES IDX 69 53 70 54 71 55 2 56 1 57 3 58 4 59 5 60 6 62 7 63 63 65
REMARK SMILES IDX 64 66 65 67 40 69 41 70 42 71 44 72 43 73 45 74 46 75 47 76
REMARK SMILES IDX 55 77 56 78 48 79 49 80 50 81 54 82 51 83 53 84 52 85
REMARK H PARENT 38 5 27 10 18 17 10 22 22 31 34 39 34 40 35 41 35 42 61 48
REMARK H PARENT 5 61 65 68
REMARK Flexibility Score:  369.900
ROOT
ATOM      1  C   UNL     1      17.124  -6.666  -5.194  1.00  0.00     0.117 C 
ENDROOT
BRANCH   1   2
ATOM      2  N   UNL     1      16.919  -7.974  -4.571  1.00  0.00    -0.347 N 
ATOM      3  O   UNL     1      18.839  -8.028  -3.315  1.00  0.00    -0.273 OA
ATOM      4  C   UNL     1      17.751  -8.512  -3.609  1.00  0.00     0.243 C 
ATOM      5  H   UNL     1      16.099  -8.512  -4.809  1.00  0.00     0.164 HD
BRANCH   4   6
ATOM      6  C   UNL     1      17.261  -9.872  -3.050  1.00  0.00     0.171 C 
BRANCH   6   7
ATOM      7  N   UNL     1      16.492 -10.600  -4.072  1.00  0.00    -0.344 N 
ATOM      8  C   UNL     1      15.509 -11.494  -3.706  1.00  0.00     0.226 C 
ATOM      9  O   UNL     1      15.245 -11.743  -2.536  1.00  0.00    -0.275 OA
ATOM     10  H   UNL     1      16.727 -10.471  -5.048  1.00  0.00     0.164 HD
BRANCH   8  11
ATOM     11  C   UNL     1      14.769 -12.122  -4.874  1.00  0.00     0.109 C 
ATOM     12  C   UNL     1      13.272 -11.834  -4.765  1.00  0.00     0.021 C 
BRANCH  11  13
ATOM     13  C   UNL     1      15.419 -11.682  -6.201  1.00  0.00     0.204 C 
BRANCH  13  14
ATOM     14  N   UNL     1      15.470 -12.772  -7.180  1.00  0.00    -0.340 N 
ATOM     15  C   UNL     1      16.412 -13.777  -7.131  1.00  0.00     0.243 C 
ATOM     16  O   UNL     1      17.240 -13.864  -6.226  1.00  0.00    -0.273 OA
ATOM     17  H   UNL     1      14.914 -12.678  -8.034  1.00  0.00     0.164 HD
BRANCH  15  18
ATOM     18  C   UNL     1      16.401 -14.695  -8.378  1.00  0.00     0.171 C 
BRANCH  18  19
ATOM     19  N   UNL     1      15.542 -15.832  -8.054  1.00  0.00    -0.343 N 
ATOM     20  C   UNL     1      15.888 -17.127  -8.391  1.00  0.00     0.242 CG0
ATOM     21  O   UNL     1      16.866 -17.369  -9.094  1.00  0.00    -0.273 OA
ATOM     22  H   UNL     1      14.664 -15.671  -7.574  1.00  0.00     0.164 HD
ATOM     23  G   UNL     1      14.895 -18.200  -7.898  1.00  0.00     0.000 G0
ENDBRANCH  18  19
BRANCH  18  24
ATOM     24  C   UNL     1      15.887 -13.934  -9.607  1.00  0.00     0.038 C 
BRANCH  24  25
ATOM     25  C   UNL     1      16.472 -14.412 -10.952  1.00  0.00    -0.015 C 
ATOM     26  C   UNL     1      18.001 -14.377 -10.972  1.00  0.00     0.007 C 
ATOM     27  C   UNL     1      15.922 -13.547 -12.089  1.00  0.00     0.007 C 
ENDBRANCH  24  25
ENDBRANCH  18  24
ENDBRANCH  15  18
ENDBRANCH  13  14
BRANCH  13  28
ATOM     28  C   UNL     1      14.695 -10.508  -6.867  1.00  0.00     0.327 C 
ATOM     29  O   UNL     1      14.099 -10.537  -7.934  1.00  0.00    -0.250 OA
BRANCH  28  30
ATOM     30  O   UNL     1      14.864  -9.341  -6.212  1.00  0.00    -0.480 OA
ATOM     31  H   UNL     1      15.833  -9.273  -6.088  1.00  0.00     0.296 HD
ENDBRANCH  28  30
ENDBRANCH  13  28
ENDBRANCH  11  13
ENDBRANCH   8  11
ENDBRANCH   6   7
BRANCH   6  32
ATOM     32  C   UNL     1      18.472 -10.692  -2.590  1.00  0.00     0.037 C 
BRANCH  32  33
ATOM     33  C   UNL     1      18.699 -10.588  -1.075  1.00  0.00     0.026 C 
BRANCH  33  34
ATOM     34  C   UNL     1      17.494  -9.996  -0.342  1.00  0.00     0.146 C 
BRANCH  34  35
ATOM     35  N   UNL     1      17.972  -9.198   0.779  1.00  0.00    -0.254 NA
ATOM     36  C   UNL     1      17.991  -9.727   1.946  1.00  0.00     0.185 C 
ATOM     37  N   UNL     1      18.435  -9.003   2.985  1.00  0.00    -0.370 N 
ATOM     38  N   UNL     1      17.618 -10.965   2.318  1.00  0.00    -0.370 N 
ATOM     39  H   UNL     1      18.745  -8.061   2.783  1.00  0.00     0.159 HD
ATOM     40  H   UNL     1      18.643  -9.395   3.887  1.00  0.00     0.159 HD
ATOM     41  H   UNL     1      17.549 -11.217   3.291  1.00  0.00     0.159 HD
ATOM     42  H   UNL     1      17.249 -11.614   1.642  1.00  0.00     0.159 HD
ENDBRANCH  34  35
ENDBRANCH  33  34
ENDBRANCH  32  33
ENDBRANCH   6  32
ENDBRANCH   4   6
ENDBRANCH   1   2
BRANCH   1  43
ATOM     43  C   UNL     1      16.354  -5.597  -4.365  1.00  0.00     0.102 C 
ATOM     44  C   UNL     1      17.254  -4.806  -3.400  1.00  0.00     0.020 C 
BRANCH  43  45
ATOM     45  C   UNL     1      15.115  -6.204  -3.701  1.00  0.00     0.225 C 
ATOM     46  O   UNL     1      14.233  -6.782  -4.329  1.00  0.00    -0.275 OA
ATOM     47  N   UNL     1      14.997  -5.979  -2.348  1.00  0.00    -0.342 N 
ATOM     48  H   UNL     1      15.794  -5.641  -1.826  1.00  0.00     0.164 HD
BRANCH  47  49
ATOM     49  C   UNL     1      13.881  -6.531  -1.574  1.00  0.00     0.192 C 
BRANCH  49  50
ATOM     50  C   UNL     1      13.573  -5.611  -0.390  1.00  0.00     0.047 C 
BRANCH  50  51
ATOM     51  C   UNL     1      14.705  -4.611  -0.119  1.00  0.00     0.103 C 
BRANCH  51  52
ATOM     52  C   UNL     1      14.239  -3.164  -0.264  1.00  0.00     0.226 C 
ATOM     53  O   UNL     1      13.116  -2.926  -0.714  1.00  0.00    -0.275 OA
BRANCH  52  54
ATOM     54  N   UNL     1      15.118  -2.172   0.209  1.00  0.00    -0.311 N 
ATOM     55  C   UNL     1      16.463  -2.019  -0.362  1.00  0.00     0.153 C 
BRANCH  54  56
ATOM     56  C   UNL     1      14.743  -1.290   1.236  1.00  0.00     0.102 C 
ATOM     57  C   UNL     1      14.382  -0.009   1.056  1.00  0.00     0.043 C 
BRANCH  56  58
ATOM     58  C   UNL     1      14.674  -1.756   2.671  1.00  0.00     0.268 C 
ATOM     59  O   UNL     1      15.662  -2.073   3.321  1.00  0.00    -0.268 OA
ATOM     60  N   UNL     1      13.401  -1.725   3.189  1.00  0.00    -0.339 N 
ATOM     61  H   UNL     1      12.635  -1.461   2.582  1.00  0.00     0.164 HD
BRANCH  60  62
ATOM     62  C   UNL     1      13.117  -2.076   4.580  1.00  0.00     0.168 CG0
ATOM     63  C   UNL     1      11.995  -1.214   5.144  1.00  0.00     0.041 C 
ATOM     64  G   UNL     1      14.399  -1.924   5.424  1.00  0.00     0.000 G0
ENDBRANCH  60  62
ENDBRANCH  56  58
ENDBRANCH  54  56
ENDBRANCH  52  54
ENDBRANCH  51  52
ENDBRANCH  50  51
ENDBRANCH  49  50
BRANCH  49  65
ATOM     65  C   UNL     1      14.195  -7.942  -1.054  1.00  0.00     0.326 C 
ATOM     66  O   UNL     1      14.597  -8.213   0.068  1.00  0.00    -0.250 OA
BRANCH  65  67
ATOM     67  O   UNL     1      14.049  -8.925  -1.969  1.00  0.00    -0.480 OA
ATOM     68  H   UNL     1      14.388  -8.522  -2.798  1.00  0.00     0.296 HD
ENDBRANCH  65  67
ENDBRANCH  49  65
ENDBRANCH  47  49
ENDBRANCH  43  45
ENDBRANCH   1  43
BRANCH   1  69
ATOM     69  C   UNL     1      16.786  -6.837  -6.663  1.00  0.00    -0.001 C 
ATOM     70  C   UNL     1      17.645  -6.980  -7.688  1.00  0.00     0.001 C 
BRANCH  70  71
ATOM     71  C   UNL     1      17.306  -7.166  -9.100  1.00  0.00    -0.055 C 
ATOM     72  C   UNL     1      16.016  -7.422  -9.408  1.00  0.00    -0.018 C 
ATOM     73  C   UNL     1      18.417  -7.052 -10.110  1.00  0.00     0.044 C 
BRANCH  72  74
ATOM     74  C   UNL     1      15.379  -7.654 -10.770  1.00  0.00     0.038 C 
ATOM     75  C   UNL     1      14.081  -6.838 -10.808  1.00  0.00     0.015 C 
BRANCH  74  76
ATOM     76  C   UNL     1      15.194  -9.185 -10.983  1.00  0.00     0.128 C 
BRANCH  76  77
ATOM     77  O   UNL     1      13.899  -9.449 -11.549  1.00  0.00    -0.381 OA
ATOM     78  C   UNL     1      13.461 -10.790 -11.372  1.00  0.00     0.195 C 
ENDBRANCH  76  77
BRANCH  76  79
ATOM     79  C   UNL     1      16.344  -9.854 -11.777  1.00  0.00     0.068 C 
BRANCH  79  80
ATOM     80  C   UNL     1      17.517 -10.400 -10.999  1.00  0.00    -0.045 A 
ATOM     81  C   UNL     1      17.385 -10.759  -9.651  1.00  0.00     0.004 A 
ATOM     82  C   UNL     1      18.772 -10.531 -11.612  1.00  0.00     0.004 A 
ATOM     83  C   UNL     1      18.478 -11.250  -8.935  1.00  0.00     0.000 A 
ATOM     84  C   UNL     1      19.865 -11.021 -10.894  1.00  0.00     0.000 A 
ATOM     85  C   UNL     1      19.718 -11.382  -9.556  1.00  0.00     0.000 A 
ENDBRANCH  79  80
ENDBRANCH  76  79
ENDBRANCH  74  76
ENDBRANCH  72  74
ENDBRANCH  70  71
ENDBRANCH   1  69
TORSDOF 17
ENDMDL
MODEL 16
REMARK VINA RESULT:    -4.822      2.238      4.048
REMARK INTER + INTRA:         -22.801
REMARK INTER:                 -15.832
REMARK INTRA:                  -6.969
REMARK UNBOUND:                -8.394
REMARK SMILES C=C1C(=O)N[C@H](C)C(=O)N[C@@H](CC(C)C)C(=O)N[C@@H](C(=O)O)[C@H](C)C(=O)N[C@@H](CCCN=C(N)N)C(=O)N[C@@H](/C=C/C(C)=C/[C@H](C)[C@H](Cc2ccccc2)OC)[C@H](C)C(=O)N[C@@H](C(=O)O)CCC(=O)N1C
REMARK SMILES IDX 39 1 38 2 37 3 36 4 28 6 27 7 25 8 26 9 23 11 24 12 19 13
REMARK SMILES IDX 18 14 16 15 17 16 11 18 10 19 8 20 9 21 12 24 13 25 14 26
REMARK SMILES IDX 15 27 20 28 21 29 22 30 29 32 30 33 31 34 32 35 33 36 34 37
REMARK SMILES IDX 35 38 57 43 58 44 59 45 60 46 61 47 62 49 66 50 67 51 68 52
REMARK SMILES IDX 69 53 70 54 71 55 2 56 1 57 3 58 4 59 5 60 6 62 7 63 63 65
REMARK SMILES IDX 64 66 65 67 40 69 41 70 42 71 44 72 43 73 45 74 46 75 47 76
REMARK SMILES IDX 55 77 56 78 48 79 49 80 50 81 54 82 51 83 53 84 52 85
REMARK H PARENT 38 5 27 10 18 17 10 22 22 31 34 39 34 40 35 41 35 42 61 48
REMARK H PARENT 5 61 65 68
REMARK Flexibility Score:  369.900
ROOT
ATOM      1  C   UNL     1      16.794   1.457  -2.813  1.00  0.00     0.117 C 
ENDROOT
BRANCH   1   2
ATOM      2  N   UNL     1      16.558   2.303  -1.643  1.00  0.00    -0.347 N 
ATOM      3  O   UNL     1      18.512   3.505  -1.725  1.00  0.00    -0.273 OA
ATOM      4  C   UNL     1      17.397   3.325  -1.246  1.00  0.00     0.243 C 
ATOM      5  H   UNL     1      15.711   2.182  -1.108  1.00  0.00     0.164 HD
BRANCH   4   6
ATOM      6  C   UNL     1      16.873   4.124  -0.025  1.00  0.00     0.171 C 
BRANCH   6   7
ATOM      7  N   UNL     1      17.165   5.557  -0.184  1.00  0.00    -0.344 N 
ATOM      8  C   UNL     1      17.864   6.244   0.785  1.00  0.00     0.226 C 
ATOM      9  O   UNL     1      18.251   5.714   1.819  1.00  0.00    -0.275 OA
ATOM     10  H   UNL     1      16.803   6.045  -0.994  1.00  0.00     0.164 HD
BRANCH   8  11
ATOM     11  C   UNL     1      18.133   7.700   0.449  1.00  0.00     0.109 C 
ATOM     12  C   UNL     1      19.614   7.902   0.130  1.00  0.00     0.021 C 
BRANCH  11  13
ATOM     13  C   UNL     1      17.162   8.169  -0.654  1.00  0.00     0.204 C 
BRANCH  13  14
ATOM     14  N   UNL     1      15.841   8.509  -0.118  1.00  0.00    -0.340 N 
ATOM     15  C   UNL     1      14.677   7.924  -0.569  1.00  0.00     0.243 C 
ATOM     16  O   UNL     1      14.672   7.028  -1.412  1.00  0.00    -0.273 OA
ATOM     17  H   UNL     1      15.761   9.344   0.468  1.00  0.00     0.164 HD
BRANCH  15  18
ATOM     18  C   UNL     1      13.394   8.586  -0.009  1.00  0.00     0.171 C 
BRANCH  18  19
ATOM     19  N   UNL     1      13.538  10.024  -0.224  1.00  0.00    -0.343 N 
ATOM     20  C   UNL     1      13.957  10.873   0.783  1.00  0.00     0.242 CG0
ATOM     21  O   UNL     1      14.099  10.480   1.938  1.00  0.00    -0.273 OA
ATOM     22  H   UNL     1      13.320  10.416  -1.133  1.00  0.00     0.164 HD
ATOM     23  G   UNL     1      14.125  12.344   0.347  1.00  0.00     0.000 G0
ENDBRANCH  18  19
BRANCH  18  24
ATOM     24  C   UNL     1      12.149   8.034  -0.713  1.00  0.00     0.038 C 
BRANCH  24  25
ATOM     25  C   UNL     1      11.095   7.418   0.231  1.00  0.00    -0.015 C 
ATOM     26  C   UNL     1      10.054   8.439   0.692  1.00  0.00     0.007 C 
ATOM     27  C   UNL     1      11.790   6.805   1.449  1.00  0.00     0.007 C 
ENDBRANCH  24  25
ENDBRANCH  18  24
ENDBRANCH  15  18
ENDBRANCH  13  14
BRANCH  13  28
ATOM     28  C   UNL     1      17.669   9.392  -1.424  1.00  0.00     0.327 C 
ATOM     29  O   UNL     1      18.230   9.382  -2.509  1.00  0.00    -0.250 OA
BRANCH  28  30
ATOM     30  O   UNL     1      17.546  10.542  -0.730  1.00  0.00    -0.480 OA
ATOM     31  H   UNL     1      17.255  11.197  -1.397  1.00  0.00     0.296 HD
ENDBRANCH  28  30
ENDBRANCH  13  28
ENDBRANCH  11  13
ENDBRANCH   8  11
ENDBRANCH   6   7
BRANCH   6  32
ATOM     32  C   UNL     1      15.366   3.886   0.122  1.00  0.00     0.037 C 
BRANCH  32  33
ATOM     33  C   UNL     1      14.844   4.311   1.502  1.00  0.00     0.026 C 
BRANCH  33  34
ATOM     34  C   UNL     1      14.953   3.191   2.538  1.00  0.00     0.146 C 
BRANCH  34  35
ATOM     35  N   UNL     1      16.162   3.395   3.325  1.00  0.00    -0.254 NA
ATOM     36  C   UNL     1      17.111   2.541   3.223  1.00  0.00     0.185 C 
ATOM     37  N   UNL     1      18.232   2.722   3.940  1.00  0.00    -0.370 N 
ATOM     38  N   UNL     1      17.171   1.429   2.470  1.00  0.00    -0.370 N 
ATOM     39  H   UNL     1      18.268   3.546   4.526  1.00  0.00     0.159 HD
ATOM     40  H   UNL     1      19.079   2.202   3.787  1.00  0.00     0.159 HD
ATOM     41  H   UNL     1      17.917   0.763   2.582  1.00  0.00     0.159 HD
ATOM     42  H   UNL     1      16.390   1.160   1.891  1.00  0.00     0.159 HD
ENDBRANCH  34  35
ENDBRANCH  33  34
ENDBRANCH  32  33
ENDBRANCH   6  32
ENDBRANCH   4   6
ENDBRANCH   1   2
BRANCH   1  43
ATOM     43  C   UNL     1      17.850   0.377  -2.439  1.00  0.00     0.102 C 
ATOM     44  C   UNL     1      18.057  -0.682  -3.534  1.00  0.00     0.020 C 
BRANCH  43  45
ATOM     45  C   UNL     1      17.568  -0.210  -1.052  1.00  0.00     0.225 C 
ATOM     46  O   UNL     1      18.150   0.160  -0.036  1.00  0.00    -0.275 OA
ATOM     47  N   UNL     1      16.678  -1.258  -1.022  1.00  0.00    -0.342 N 
ATOM     48  H   UNL     1      16.101  -1.447  -1.830  1.00  0.00     0.164 HD
BRANCH  47  49
ATOM     49  C   UNL     1      16.285  -1.895   0.239  1.00  0.00     0.192 C 
BRANCH  49  50
ATOM     50  C   UNL     1      16.106  -3.399   0.021  1.00  0.00     0.047 C 
BRANCH  50  51
ATOM     51  C   UNL     1      16.245  -3.795  -1.455  1.00  0.00     0.103 C 
BRANCH  51  52
ATOM     52  C   UNL     1      15.882  -5.259  -1.693  1.00  0.00     0.226 C 
ATOM     53  O   UNL     1      16.362  -6.132  -0.968  1.00  0.00    -0.275 OA
BRANCH  52  54
ATOM     54  N   UNL     1      14.939  -5.515  -2.706  1.00  0.00    -0.311 N 
ATOM     55  C   UNL     1      15.359  -5.697  -4.102  1.00  0.00     0.153 C 
BRANCH  54  56
ATOM     56  C   UNL     1      13.567  -5.611  -2.421  1.00  0.00     0.102 C 
ATOM     57  C   UNL     1      12.749  -4.565  -2.217  1.00  0.00     0.043 C 
BRANCH  56  58
ATOM     58  C   UNL     1      12.879  -6.955  -2.368  1.00  0.00     0.268 C 
ATOM     59  O   UNL     1      12.304  -7.451  -3.328  1.00  0.00    -0.268 OA
ATOM     60  N   UNL     1      13.021  -7.587  -1.156  1.00  0.00    -0.339 N 
ATOM     61  H   UNL     1      13.503  -7.103  -0.408  1.00  0.00     0.164 HD
BRANCH  60  62
ATOM     62  C   UNL     1      12.487  -8.925  -0.908  1.00  0.00     0.168 CG0
ATOM     63  C   UNL     1      11.552  -8.926   0.295  1.00  0.00     0.041 C 
ATOM     64  G   UNL     1      13.650  -9.916  -0.696  1.00  0.00     0.000 G0
ENDBRANCH  60  62
ENDBRANCH  56  58
ENDBRANCH  54  56
ENDBRANCH  52  54
ENDBRANCH  51  52
ENDBRANCH  50  51
ENDBRANCH  49  50
BRANCH  49  65
ATOM     65  C   UNL     1      14.980  -1.301   0.791  1.00  0.00     0.326 C 
ATOM     66  O   UNL     1      14.901  -0.378   1.589  1.00  0.00    -0.250 OA
BRANCH  65  67
ATOM     67  O   UNL     1      13.856  -1.923   0.371  1.00  0.00    -0.480 OA
ATOM     68  H   UNL     1      14.151  -2.843   0.201  1.00  0.00     0.296 HD
ENDBRANCH  65  67
ENDBRANCH  49  65
ENDBRANCH  47  49
ENDBRANCH  43  45
ENDBRANCH   1  43
BRANCH   1  69
ATOM     69  C   UNL     1      17.087   2.400  -3.966  1.00  0.00    -0.001 C 
ATOM     70  C   UNL     1      16.198   3.091  -4.702  1.00  0.00     0.001 C 
BRANCH  70  71
ATOM     71  C   UNL     1      16.494   4.015  -5.799  1.00  0.00    -0.055 C 
ATOM     72  C   UNL     1      17.764   4.454  -5.924  1.00  0.00    -0.018 C 
ATOM     73  C   UNL     1      15.362   4.404  -6.714  1.00  0.00     0.044 C 
BRANCH  72  74
ATOM     74  C   UNL     1      18.357   5.404  -6.955  1.00  0.00     0.038 C 
ATOM     75  C   UNL     1      19.299   4.580  -7.841  1.00  0.00     0.015 C 
BRANCH  74  76
ATOM     76  C   UNL     1      19.035   6.592  -6.210  1.00  0.00     0.128 C 
BRANCH  76  77
ATOM     77  O   UNL     1      20.094   7.136  -7.015  1.00  0.00    -0.381 OA
ATOM     78  C   UNL     1      20.534   8.419  -6.589  1.00  0.00     0.195 C 
ENDBRANCH  76  77
BRANCH  76  79
ATOM     79  C   UNL     1      18.042   7.673  -5.715  1.00  0.00     0.068 C 
BRANCH  79  80
ATOM     80  C   UNL     1      16.711   7.786  -6.419  1.00  0.00    -0.045 A 
ATOM     81  C   UNL     1      16.641   7.955  -7.808  1.00  0.00     0.004 A 
ATOM     82  C   UNL     1      15.517   7.751  -5.683  1.00  0.00     0.004 A 
ATOM     83  C   UNL     1      15.406   8.073  -8.449  1.00  0.00     0.000 A 
ATOM     84  C   UNL     1      14.282   7.870  -6.325  1.00  0.00     0.000 A 
ATOM     85  C   UNL     1      14.227   8.029  -7.708  1.00  0.00     0.000 A 
ENDBRANCH  79  80
ENDBRANCH  76  79
ENDBRANCH  74  76
ENDBRANCH  72  74
ENDBRANCH  70  71
ENDBRANCH   1  69
TORSDOF 17
ENDMDL
MODEL 17
REMARK VINA RESULT:    -4.811     11.637     16.174
REMARK INTER + INTRA:         -22.768
REMARK INTER:                 -15.557
REMARK INTRA:                  -7.211
REMARK UNBOUND:                -8.394
REMARK SMILES C=C1C(=O)N[C@H](C)C(=O)N[C@@H](CC(C)C)C(=O)N[C@@H](C(=O)O)[C@H](C)C(=O)N[C@@H](CCCN=C(N)N)C(=O)N[C@@H](/C=C/C(C)=C/[C@H](C)[C@H](Cc2ccccc2)OC)[C@H](C)C(=O)N[C@@H](C(=O)O)CCC(=O)N1C
REMARK SMILES IDX 39 1 38 2 37 3 36 4 28 6 27 7 25 8 26 9 23 11 24 12 19 13
REMARK SMILES IDX 18 14 16 15 17 16 11 18 10 19 8 20 9 21 12 24 13 25 14 26
REMARK SMILES IDX 15 27 20 28 21 29 22 30 29 32 30 33 31 34 32 35 33 36 34 37
REMARK SMILES IDX 35 38 57 43 58 44 59 45 60 46 61 47 62 49 66 50 67 51 68 52
REMARK SMILES IDX 69 53 70 54 71 55 2 56 1 57 3 58 4 59 5 60 6 62 7 63 63 65
REMARK SMILES IDX 64 66 65 67 40 69 41 70 42 71 44 72 43 73 45 74 46 75 47 76
REMARK SMILES IDX 55 77 56 78 48 79 49 80 50 81 54 82 51 83 53 84 52 85
REMARK H PARENT 38 5 27 10 18 17 10 22 22 31 34 39 34 40 35 41 35 42 61 48
REMARK H PARENT 5 61 65 68
REMARK Flexibility Score:  369.900
ROOT
ATOM      1  C   UNL     1      14.476  -6.767  -7.655  1.00  0.00     0.117 C 
ENDROOT
BRANCH   1   2
ATOM      2  N   UNL     1      14.683  -6.950  -6.218  1.00  0.00    -0.347 N 
ATOM      3  O   UNL     1      13.790  -4.955  -5.516  1.00  0.00    -0.273 OA
ATOM      4  C   UNL     1      14.238  -6.067  -5.254  1.00  0.00     0.243 C 
ATOM      5  H   UNL     1      15.132  -7.791  -5.887  1.00  0.00     0.164 HD
BRANCH   4   6
ATOM      6  C   UNL     1      14.510  -6.539  -3.803  1.00  0.00     0.171 C 
BRANCH   6   7
ATOM      7  N   UNL     1      15.884  -7.051  -3.677  1.00  0.00    -0.344 N 
ATOM      8  C   UNL     1      16.138  -8.404  -3.739  1.00  0.00     0.226 C 
ATOM      9  O   UNL     1      15.250  -9.237  -3.875  1.00  0.00    -0.275 OA
ATOM     10  H   UNL     1      16.636  -6.398  -3.496  1.00  0.00     0.164 HD
BRANCH   8  11
ATOM     11  C   UNL     1      17.609  -8.769  -3.648  1.00  0.00     0.109 C 
ATOM     12  C   UNL     1      18.474  -7.559  -4.001  1.00  0.00     0.021 C 
BRANCH  11  13
ATOM     13  C   UNL     1      17.906  -9.400  -2.273  1.00  0.00     0.204 C 
BRANCH  13  14
ATOM     14  N   UNL     1      16.826  -9.160  -1.311  1.00  0.00    -0.340 N 
ATOM     15  C   UNL     1      17.030  -9.130   0.051  1.00  0.00     0.243 C 
ATOM     16  O   UNL     1      18.146  -9.242   0.555  1.00  0.00    -0.273 OA
ATOM     17  H   UNL     1      15.861  -9.211  -1.650  1.00  0.00     0.164 HD
BRANCH  15  18
ATOM     18  C   UNL     1      15.718  -9.072   0.872  1.00  0.00     0.171 C 
BRANCH  18  19
ATOM     19  N   UNL     1      15.961  -8.156   1.985  1.00  0.00    -0.343 N 
ATOM     20  C   UNL     1      16.215  -8.615   3.264  1.00  0.00     0.242 CG0
ATOM     21  O   UNL     1      16.116  -9.805   3.551  1.00  0.00    -0.273 OA
ATOM     22  H   UNL     1      15.938  -7.156   1.821  1.00  0.00     0.164 HD
ATOM     23  G   UNL     1      16.525  -7.504   4.288  1.00  0.00     0.000 G0
ENDBRANCH  18  19
BRANCH  18  24
ATOM     24  C   UNL     1      14.552  -8.595  -0.003  1.00  0.00     0.038 C 
BRANCH  24  25
ATOM     25  C   UNL     1      13.289  -9.478   0.068  1.00  0.00    -0.015 C 
ATOM     26  C   UNL     1      13.349 -10.494   1.208  1.00  0.00     0.007 C 
ATOM     27  C   UNL     1      13.097 -10.209  -1.264  1.00  0.00     0.007 C 
ENDBRANCH  24  25
ENDBRANCH  18  24
ENDBRANCH  15  18
ENDBRANCH  13  14
BRANCH  13  28
ATOM     28  C   UNL     1      18.129 -10.914  -2.338  1.00  0.00     0.327 C 
ATOM     29  O   UNL     1      17.450 -11.718  -2.958  1.00  0.00    -0.250 OA
BRANCH  28  30
ATOM     30  O   UNL     1      19.118 -11.338  -1.526  1.00  0.00    -0.480 OA
ATOM     31  H   UNL     1      19.528 -12.082  -2.014  1.00  0.00     0.296 HD
ENDBRANCH  28  30
ENDBRANCH  13  28
ENDBRANCH  11  13
ENDBRANCH   8  11
ENDBRANCH   6   7
BRANCH   6  32
ATOM     32  C   UNL     1      14.271  -5.371  -2.840  1.00  0.00     0.037 C 
BRANCH  32  33
ATOM     33  C   UNL     1      12.889  -5.440  -2.176  1.00  0.00     0.026 C 
BRANCH  33  34
ATOM     34  C   UNL     1      12.216  -6.800  -2.366  1.00  0.00     0.146 C 
BRANCH  34  35
ATOM     35  N   UNL     1      11.077  -6.891  -1.463  1.00  0.00    -0.254 NA
ATOM     36  C   UNL     1      10.037  -7.531  -1.849  1.00  0.00     0.185 C 
ATOM     37  N   UNL     1       8.983  -7.625  -1.023  1.00  0.00    -0.370 N 
ATOM     38  N   UNL     1       9.817  -8.161  -3.017  1.00  0.00    -0.370 N 
ATOM     39  H   UNL     1       9.076  -7.184  -0.117  1.00  0.00     0.159 HD
ATOM     40  H   UNL     1       8.209  -8.248  -1.178  1.00  0.00     0.159 HD
ATOM     41  H   UNL     1       8.904  -8.510  -3.257  1.00  0.00     0.159 HD
ATOM     42  H   UNL     1      10.519  -8.158  -3.741  1.00  0.00     0.159 HD
ENDBRANCH  34  35
ENDBRANCH  33  34
ENDBRANCH  32  33
ENDBRANCH   6  32
ENDBRANCH   4   6
ENDBRANCH   1   2
BRANCH   1  43
ATOM     43  C   UNL     1      13.187  -7.532  -8.072  1.00  0.00     0.102 C 
ATOM     44  C   UNL     1      13.178  -9.004  -7.626  1.00  0.00     0.020 C 
BRANCH  43  45
ATOM     45  C   UNL     1      12.885  -7.331  -9.560  1.00  0.00     0.225 C 
ATOM     46  O   UNL     1      13.081  -6.271 -10.147  1.00  0.00    -0.275 OA
ATOM     47  N   UNL     1      12.285  -8.397 -10.191  1.00  0.00    -0.342 N 
ATOM     48  H   UNL     1      12.271  -9.301  -9.742  1.00  0.00     0.164 HD
BRANCH  47  49
ATOM     49  C   UNL     1      11.971  -8.361 -11.623  1.00  0.00     0.192 C 
BRANCH  49  50
ATOM     50  C   UNL     1      10.497  -8.716 -11.835  1.00  0.00     0.047 C 
BRANCH  50  51
ATOM     51  C   UNL     1       9.719  -8.784 -10.514  1.00  0.00     0.103 C 
BRANCH  51  52
ATOM     52  C   UNL     1       8.514  -9.718 -10.606  1.00  0.00     0.226 C 
ATOM     53  O   UNL     1       8.596 -10.758 -11.262  1.00  0.00    -0.275 OA
BRANCH  52  54
ATOM     54  N   UNL     1       7.381  -9.355  -9.854  1.00  0.00    -0.311 N 
ATOM     55  C   UNL     1       6.723 -10.321  -8.964  1.00  0.00     0.153 C 
BRANCH  54  56
ATOM     56  C   UNL     1       6.842  -8.059  -9.921  1.00  0.00     0.102 C 
ATOM     57  C   UNL     1       6.743  -7.214  -8.882  1.00  0.00     0.043 C 
BRANCH  56  58
ATOM     58  C   UNL     1       6.357  -7.488 -11.233  1.00  0.00     0.268 C 
ATOM     59  O   UNL     1       6.952  -6.609 -11.841  1.00  0.00    -0.268 OA
ATOM     60  N   UNL     1       5.220  -8.103 -11.702  1.00  0.00    -0.339 N 
ATOM     61  H   UNL     1       4.782  -8.817 -11.133  1.00  0.00     0.164 HD
BRANCH  60  62
ATOM     62  C   UNL     1       4.616  -7.747 -12.986  1.00  0.00     0.168 CG0
ATOM     63  C   UNL     1       3.108  -7.963 -12.959  1.00  0.00     0.041 C 
ATOM     64  G   UNL     1       5.267  -8.579 -14.111  1.00  0.00     0.000 G0
ENDBRANCH  60  62
ENDBRANCH  56  58
ENDBRANCH  54  56
ENDBRANCH  52  54
ENDBRANCH  51  52
ENDBRANCH  50  51
ENDBRANCH  49  50
BRANCH  49  65
ATOM     65  C   UNL     1      12.850  -9.337 -12.421  1.00  0.00     0.326 C 
ATOM     66  O   UNL     1      12.677  -9.658 -13.588  1.00  0.00    -0.250 OA
BRANCH  65  67
ATOM     67  O   UNL     1      13.851  -9.903 -11.711  1.00  0.00    -0.480 OA
ATOM     68  H   UNL     1      14.310  -9.136 -11.305  1.00  0.00     0.296 HD
ENDBRANCH  65  67
ENDBRANCH  49  65
ENDBRANCH  47  49
ENDBRANCH  43  45
ENDBRANCH   1  43
BRANCH   1  69
ATOM     69  C   UNL     1      15.791  -7.127  -8.322  1.00  0.00    -0.001 C 
ATOM     70  C   UNL     1      17.025  -7.039  -7.796  1.00  0.00     0.001 C 
BRANCH  70  71
ATOM     71  C   UNL     1      18.286  -7.411  -8.442  1.00  0.00    -0.055 C 
ATOM     72  C   UNL     1      18.543  -6.891  -9.660  1.00  0.00    -0.018 C 
ATOM     73  C   UNL     1      19.209  -8.340  -7.698  1.00  0.00     0.044 C 
BRANCH  72  74
ATOM     74  C   UNL     1      19.756  -7.094 -10.557  1.00  0.00     0.038 C 
ATOM     75  C   UNL     1      20.236  -5.703 -10.991  1.00  0.00     0.015 C 
BRANCH  74  76
ATOM     76  C   UNL     1      19.361  -8.043 -11.727  1.00  0.00     0.128 C 
BRANCH  76  77
ATOM     77  O   UNL     1      19.627  -7.405 -12.988  1.00  0.00    -0.381 OA
ATOM     78  C   UNL     1      19.187  -8.156 -14.111  1.00  0.00     0.195 C 
ENDBRANCH  76  77
BRANCH  76  79
ATOM     79  C   UNL     1      19.985  -9.458 -11.628  1.00  0.00     0.068 C 
BRANCH  79  80
ATOM     80  C   UNL     1      19.328 -10.457 -10.707  1.00  0.00    -0.045 A 
ATOM     81  C   UNL     1      17.940 -10.460 -10.517  1.00  0.00     0.004 A 
ATOM     82  C   UNL     1      20.107 -11.387 -10.002  1.00  0.00     0.004 A 
ATOM     83  C   UNL     1      17.341 -11.379  -9.653  1.00  0.00     0.000 A 
ATOM     84  C   UNL     1      19.507 -12.305  -9.137  1.00  0.00     0.000 A 
ATOM     85  C   UNL     1      18.125 -12.302  -8.964  1.00  0.00     0.000 A 
ENDBRANCH  79  80
ENDBRANCH  76  79
ENDBRANCH  74  76
ENDBRANCH  72  74
ENDBRANCH  70  71
ENDBRANCH   1  69
TORSDOF 17
ENDMDL
MODEL 18
REMARK VINA RESULT:    -4.799     12.217     16.084
REMARK INTER + INTRA:         -22.732
REMARK INTER:                 -14.194
REMARK INTRA:                  -8.538
REMARK UNBOUND:                -8.394
REMARK SMILES C=C1C(=O)N[C@H](C)C(=O)N[C@@H](CC(C)C)C(=O)N[C@@H](C(=O)O)[C@H](C)C(=O)N[C@@H](CCCN=C(N)N)C(=O)N[C@@H](/C=C/C(C)=C/[C@H](C)[C@H](Cc2ccccc2)OC)[C@H](C)C(=O)N[C@@H](C(=O)O)CCC(=O)N1C
REMARK SMILES IDX 39 1 38 2 37 3 36 4 28 6 27 7 25 8 26 9 23 11 24 12 19 13
REMARK SMILES IDX 18 14 16 15 17 16 11 18 10 19 8 20 9 21 12 24 13 25 14 26
REMARK SMILES IDX 15 27 20 28 21 29 22 30 29 32 30 33 31 34 32 35 33 36 34 37
REMARK SMILES IDX 35 38 57 43 58 44 59 45 60 46 61 47 62 49 66 50 67 51 68 52
REMARK SMILES IDX 69 53 70 54 71 55 2 56 1 57 3 58 4 59 5 60 6 62 7 63 63 65
REMARK SMILES IDX 64 66 65 67 40 69 41 70 42 71 44 72 43 73 45 74 46 75 47 76
REMARK SMILES IDX 55 77 56 78 48 79 49 80 50 81 54 82 51 83 53 84 52 85
REMARK H PARENT 38 5 27 10 18 17 10 22 22 31 34 39 34 40 35 41 35 42 61 48
REMARK H PARENT 5 61 65 68
REMARK Flexibility Score:  369.900
ROOT
ATOM      1  C   UNL     1      16.276  -6.763  -5.109  1.00  0.00     0.117 C 
ENDROOT
BRANCH   1   2
ATOM      2  N   UNL     1      16.223  -8.006  -4.339  1.00  0.00    -0.347 N 
ATOM      3  O   UNL     1      17.434  -7.299  -2.521  1.00  0.00    -0.273 OA
ATOM      4  C   UNL     1      16.730  -8.146  -3.061  1.00  0.00     0.243 C 
ATOM      5  H   UNL     1      15.749  -8.808  -4.725  1.00  0.00     0.164 HD
BRANCH   4   6
ATOM      6  C   UNL     1      16.468  -9.539  -2.436  1.00  0.00     0.171 C 
BRANCH   6   7
ATOM      7  N   UNL     1      16.604  -9.480  -0.971  1.00  0.00    -0.344 N 
ATOM      8  C   UNL     1      17.572 -10.217  -0.325  1.00  0.00     0.226 C 
ATOM      9  O   UNL     1      18.340 -10.963  -0.920  1.00  0.00    -0.275 OA
ATOM     10  H   UNL     1      15.944  -8.926  -0.439  1.00  0.00     0.164 HD
BRANCH   8  11
ATOM     11  C   UNL     1      17.619 -10.006   1.178  1.00  0.00     0.109 C 
ATOM     12  C   UNL     1      18.401  -8.733   1.506  1.00  0.00     0.021 C 
BRANCH  11  13
ATOM     13  C   UNL     1      16.192 -10.057   1.757  1.00  0.00     0.204 C 
BRANCH  13  14
ATOM     14  N   UNL     1      15.837 -11.398   2.233  1.00  0.00    -0.340 N 
ATOM     15  C   UNL     1      14.553 -11.750   2.588  1.00  0.00     0.243 C 
ATOM     16  O   UNL     1      13.601 -10.981   2.473  1.00  0.00    -0.273 OA
ATOM     17  H   UNL     1      16.597 -12.032   2.494  1.00  0.00     0.164 HD
BRANCH  15  18
ATOM     18  C   UNL     1      14.456 -13.145   3.254  1.00  0.00     0.171 C 
BRANCH  18  19
ATOM     19  N   UNL     1      13.326 -13.090   4.178  1.00  0.00    -0.343 N 
ATOM     20  C   UNL     1      13.505 -13.060   5.548  1.00  0.00     0.242 CG0
ATOM     21  O   UNL     1      14.614 -13.212   6.055  1.00  0.00    -0.273 OA
ATOM     22  H   UNL     1      12.381 -13.079   3.810  1.00  0.00     0.164 HD
ATOM     23  G   UNL     1      12.200 -12.922   6.358  1.00  0.00     0.000 G0
ENDBRANCH  18  19
BRANCH  18  24
ATOM     24  C   UNL     1      14.264 -14.238   2.196  1.00  0.00     0.038 C 
BRANCH  24  25
ATOM     25  C   UNL     1      13.042 -14.036   1.274  1.00  0.00    -0.015 C 
ATOM     26  C   UNL     1      11.919 -15.032   1.564  1.00  0.00     0.007 C 
ATOM     27  C   UNL     1      13.475 -14.158  -0.189  1.00  0.00     0.007 C 
ENDBRANCH  24  25
ENDBRANCH  18  24
ENDBRANCH  15  18
ENDBRANCH  13  14
BRANCH  13  28
ATOM     28  C   UNL     1      15.979  -9.090   2.926  1.00  0.00     0.327 C 
ATOM     29  O   UNL     1      16.465  -9.188   4.043  1.00  0.00    -0.250 OA
BRANCH  28  30
ATOM     30  O   UNL     1      15.077  -8.125   2.657  1.00  0.00    -0.480 OA
ATOM     31  H   UNL     1      15.505  -7.301   2.969  1.00  0.00     0.296 HD
ENDBRANCH  28  30
ENDBRANCH  13  28
ENDBRANCH  11  13
ENDBRANCH   8  11
ENDBRANCH   6   7
BRANCH   6  32
ATOM     32  C   UNL     1      15.067 -10.015  -2.836  1.00  0.00     0.037 C 
BRANCH  32  33
ATOM     33  C   UNL     1      14.501 -11.045  -1.849  1.00  0.00     0.026 C 
BRANCH  33  34
ATOM     34  C   UNL     1      13.327 -10.495  -1.038  1.00  0.00     0.146 C 
BRANCH  34  35
ATOM     35  N   UNL     1      13.556  -9.080  -0.781  1.00  0.00    -0.254 NA
ATOM     36  C   UNL     1      12.909  -8.516   0.171  1.00  0.00     0.185 C 
ATOM     37  N   UNL     1      13.117  -7.214   0.420  1.00  0.00    -0.370 N 
ATOM     38  N   UNL     1      12.004  -9.050   1.009  1.00  0.00    -0.370 N 
ATOM     39  H   UNL     1      13.795  -6.742  -0.164  1.00  0.00     0.159 HD
ATOM     40  H   UNL     1      12.786  -6.746   1.247  1.00  0.00     0.159 HD
ATOM     41  H   UNL     1      11.461  -8.470   1.627  1.00  0.00     0.159 HD
ATOM     42  H   UNL     1      11.738 -10.019   0.927  1.00  0.00     0.159 HD
ENDBRANCH  34  35
ENDBRANCH  33  34
ENDBRANCH  32  33
ENDBRANCH   6  32
ENDBRANCH   4   6
ENDBRANCH   1   2
BRANCH   1  43
ATOM     43  C   UNL     1      14.856  -6.472  -5.676  1.00  0.00     0.102 C 
ATOM     44  C   UNL     1      14.140  -5.311  -4.965  1.00  0.00     0.020 C 
BRANCH  43  45
ATOM     45  C   UNL     1      14.025  -7.755  -5.764  1.00  0.00     0.225 C 
ATOM     46  O   UNL     1      14.412  -8.767  -6.339  1.00  0.00    -0.275 OA
ATOM     47  N   UNL     1      12.758  -7.677  -5.232  1.00  0.00    -0.342 N 
ATOM     48  H   UNL     1      12.513  -6.899  -4.635  1.00  0.00     0.164 HD
BRANCH  47  49
ATOM     49  C   UNL     1      11.862  -8.837  -5.212  1.00  0.00     0.192 C 
BRANCH  49  50
ATOM     50  C   UNL     1      10.841  -8.718  -6.346  1.00  0.00     0.047 C 
BRANCH  50  51
ATOM     51  C   UNL     1      11.186  -9.620  -7.538  1.00  0.00     0.103 C 
BRANCH  51  52
ATOM     52  C   UNL     1      11.641  -8.816  -8.754  1.00  0.00     0.226 C 
ATOM     53  O   UNL     1      10.975  -7.849  -9.130  1.00  0.00    -0.275 OA
BRANCH  52  54
ATOM     54  N   UNL     1      12.865  -9.196  -9.335  1.00  0.00    -0.311 N 
ATOM     55  C   UNL     1      13.393 -10.556  -9.164  1.00  0.00     0.153 C 
BRANCH  54  56
ATOM     56  C   UNL     1      13.623  -8.296 -10.102  1.00  0.00     0.102 C 
ATOM     57  C   UNL     1      14.507  -7.416  -9.603  1.00  0.00     0.043 C 
BRANCH  56  58
ATOM     58  C   UNL     1      13.524  -8.286 -11.609  1.00  0.00     0.268 C 
ATOM     59  O   UNL     1      14.406  -8.714 -12.341  1.00  0.00    -0.268 OA
ATOM     60  N   UNL     1      12.318  -7.811 -12.067  1.00  0.00    -0.339 N 
ATOM     61  H   UNL     1      11.643  -7.465 -11.396  1.00  0.00     0.164 HD
BRANCH  60  62
ATOM     62  C   UNL     1      11.987  -7.773 -13.491  1.00  0.00     0.168 CG0
ATOM     63  C   UNL     1      11.325  -9.072 -13.933  1.00  0.00     0.041 C 
ATOM     64  G   UNL     1      13.264  -7.504 -14.313  1.00  0.00     0.000 G0
ENDBRANCH  60  62
ENDBRANCH  56  58
ENDBRANCH  54  56
ENDBRANCH  52  54
ENDBRANCH  51  52
ENDBRANCH  50  51
ENDBRANCH  49  50
BRANCH  49  65
ATOM     65  C   UNL     1      11.123  -8.960  -3.871  1.00  0.00     0.326 C 
ATOM     66  O   UNL     1      10.211  -9.738  -3.631  1.00  0.00    -0.250 OA
BRANCH  65  67
ATOM     67  O   UNL     1      11.513  -8.074  -2.928  1.00  0.00    -0.480 OA
ATOM     68  H   UNL     1      11.934  -7.355  -3.447  1.00  0.00     0.296 HD
ENDBRANCH  65  67
ENDBRANCH  49  65
ENDBRANCH  47  49
ENDBRANCH  43  45
ENDBRANCH   1  43
BRANCH   1  69
ATOM     69  C   UNL     1      17.435  -6.913  -6.077  1.00  0.00    -0.001 C 
ATOM     70  C   UNL     1      17.387  -6.884  -7.420  1.00  0.00     0.001 C 
BRANCH  70  71
ATOM     71  C   UNL     1      18.517  -7.008  -8.344  1.00  0.00    -0.055 C 
ATOM     72  C   UNL     1      18.273  -6.838  -9.660  1.00  0.00    -0.018 C 
ATOM     73  C   UNL     1      19.872  -7.308  -7.759  1.00  0.00     0.044 C 
BRANCH  72  74
ATOM     74  C   UNL     1      19.238  -6.905 -10.835  1.00  0.00     0.038 C 
ATOM     75  C   UNL     1      19.038  -5.627 -11.659  1.00  0.00     0.015 C 
BRANCH  74  76
ATOM     76  C   UNL     1      18.988  -8.230 -11.614  1.00  0.00     0.128 C 
BRANCH  76  77
ATOM     77  O   UNL     1      19.085  -7.994 -13.029  1.00  0.00    -0.381 OA
ATOM     78  C   UNL     1      18.395  -8.954 -13.817  1.00  0.00     0.195 C 
ENDBRANCH  76  77
BRANCH  76  79
ATOM     79  C   UNL     1      19.870  -9.414 -11.142  1.00  0.00     0.068 C 
BRANCH  79  80
ATOM     80  C   UNL     1      19.227 -10.476 -10.283  1.00  0.00    -0.045 A 
ATOM     81  C   UNL     1      17.867 -10.412  -9.953  1.00  0.00     0.004 A 
ATOM     82  C   UNL     1      19.995 -11.535  -9.775  1.00  0.00     0.004 A 
ATOM     83  C   UNL     1      17.283 -11.391  -9.146  1.00  0.00     0.000 A 
ATOM     84  C   UNL     1      19.411 -12.513  -8.968  1.00  0.00     0.000 A 
ATOM     85  C   UNL     1      18.055 -12.442  -8.655  1.00  0.00     0.000 A 
ENDBRANCH  79  80
ENDBRANCH  76  79
ENDBRANCH  74  76
ENDBRANCH  72  74
ENDBRANCH  70  71
ENDBRANCH   1  69
TORSDOF 17
ENDMDL
MODEL 19
REMARK VINA RESULT:    -4.781     11.572     16.385
REMARK INTER + INTRA:         -22.678
REMARK INTER:                 -14.255
REMARK INTRA:                  -8.423
REMARK UNBOUND:                -8.394
REMARK SMILES C=C1C(=O)N[C@H](C)C(=O)N[C@@H](CC(C)C)C(=O)N[C@@H](C(=O)O)[C@H](C)C(=O)N[C@@H](CCCN=C(N)N)C(=O)N[C@@H](/C=C/C(C)=C/[C@H](C)[C@H](Cc2ccccc2)OC)[C@H](C)C(=O)N[C@@H](C(=O)O)CCC(=O)N1C
REMARK SMILES IDX 39 1 38 2 37 3 36 4 28 6 27 7 25 8 26 9 23 11 24 12 19 13
REMARK SMILES IDX 18 14 16 15 17 16 11 18 10 19 8 20 9 21 12 24 13 25 14 26
REMARK SMILES IDX 15 27 20 28 21 29 22 30 29 32 30 33 31 34 32 35 33 36 34 37
REMARK SMILES IDX 35 38 57 43 58 44 59 45 60 46 61 47 62 49 66 50 67 51 68 52
REMARK SMILES IDX 69 53 70 54 71 55 2 56 1 57 3 58 4 59 5 60 6 62 7 63 63 65
REMARK SMILES IDX 64 66 65 67 40 69 41 70 42 71 44 72 43 73 45 74 46 75 47 76
REMARK SMILES IDX 55 77 56 78 48 79 49 80 50 81 54 82 51 83 53 84 52 85
REMARK H PARENT 38 5 27 10 18 17 10 22 22 31 34 39 34 40 35 41 35 42 61 48
REMARK H PARENT 5 61 65 68
REMARK Flexibility Score:  369.900
ROOT
ATOM      1  C   UNL     1      10.008  -9.543  -6.406  1.00  0.00     0.117 C 
ENDROOT
BRANCH   1   2
ATOM      2  N   UNL     1      10.243  -9.224  -4.997  1.00  0.00    -0.347 N 
ATOM      3  O   UNL     1       8.066  -9.346  -4.282  1.00  0.00    -0.273 OA
ATOM      4  C   UNL     1       9.261  -9.241  -4.026  1.00  0.00     0.243 C 
ATOM      5  H   UNL     1      11.182  -9.025  -4.685  1.00  0.00     0.164 HD
BRANCH   4   6
ATOM      6  C   UNL     1       9.790  -8.951  -2.599  1.00  0.00     0.171 C 
BRANCH   6   7
ATOM      7  N   UNL     1      10.711  -7.803  -2.616  1.00  0.00    -0.344 N 
ATOM      8  C   UNL     1      12.075  -7.997  -2.675  1.00  0.00     0.226 C 
ATOM      9  O   UNL     1      12.583  -9.112  -2.693  1.00  0.00    -0.275 OA
ATOM     10  H   UNL     1      10.332  -6.868  -2.534  1.00  0.00     0.164 HD
BRANCH   8  11
ATOM     11  C   UNL     1      12.887  -6.716  -2.740  1.00  0.00     0.109 C 
ATOM     12  C   UNL     1      12.060  -5.542  -2.214  1.00  0.00     0.021 C 
BRANCH  11  13
ATOM     13  C   UNL     1      14.243  -6.921  -2.036  1.00  0.00     0.204 C 
BRANCH  13  14
ATOM     14  N   UNL     1      15.200  -7.641  -2.882  1.00  0.00    -0.340 N 
ATOM     15  C   UNL     1      15.837  -8.794  -2.477  1.00  0.00     0.243 C 
ATOM     16  O   UNL     1      15.600  -9.335  -1.398  1.00  0.00    -0.273 OA
ATOM     17  H   UNL     1      15.552  -7.168  -3.718  1.00  0.00     0.164 HD
BRANCH  15  18
ATOM     18  C   UNL     1      16.952  -9.257  -3.446  1.00  0.00     0.171 C 
BRANCH  18  19
ATOM     19  N   UNL     1      18.071  -9.698  -2.615  1.00  0.00    -0.343 N 
ATOM     20  C   UNL     1      19.016  -8.811  -2.135  1.00  0.00     0.242 CG0
ATOM     21  O   UNL     1      19.035  -7.635  -2.492  1.00  0.00    -0.273 OA
ATOM     22  H   UNL     1      18.165 -10.681  -2.387  1.00  0.00     0.164 HD
ATOM     23  G   UNL     1      20.076  -9.447  -1.213  1.00  0.00     0.000 G0
ENDBRANCH  18  19
BRANCH  18  24
ATOM     24  C   UNL     1      16.447 -10.386  -4.353  1.00  0.00     0.038 C 
BRANCH  24  25
ATOM     25  C   UNL     1      15.506  -9.929  -5.487  1.00  0.00    -0.015 C 
ATOM     26  C   UNL     1      14.109 -10.538  -5.370  1.00  0.00     0.007 C 
ATOM     27  C   UNL     1      16.116 -10.298  -6.842  1.00  0.00     0.007 C 
ENDBRANCH  24  25
ENDBRANCH  18  24
ENDBRANCH  15  18
ENDBRANCH  13  14
BRANCH  13  28
ATOM     28  C   UNL     1      14.908  -5.608  -1.614  1.00  0.00     0.327 C 
ATOM     29  O   UNL     1      14.852  -5.092  -0.508  1.00  0.00    -0.250 OA
BRANCH  28  30
ATOM     30  O   UNL     1      15.504  -4.963  -2.638  1.00  0.00    -0.480 OA
ATOM     31  H   UNL     1      15.422  -5.583  -3.392  1.00  0.00     0.296 HD
ENDBRANCH  28  30
ENDBRANCH  13  28
ENDBRANCH  11  13
ENDBRANCH   8  11
ENDBRANCH   6   7
BRANCH   6  32
ATOM     32  C   UNL     1       8.603  -8.686  -1.666  1.00  0.00     0.037 C 
BRANCH  32  33
ATOM     33  C   UNL     1       8.885  -7.544  -0.680  1.00  0.00     0.026 C 
BRANCH  33  34
ATOM     34  C   UNL     1       7.675  -7.214   0.195  1.00  0.00     0.146 C 
BRANCH  34  35
ATOM     35  N   UNL     1       7.039  -8.459   0.605  1.00  0.00    -0.254 NA
ATOM     36  C   UNL     1       5.760  -8.530   0.587  1.00  0.00     0.185 C 
ATOM     37  N   UNL     1       5.163  -9.673   0.958  1.00  0.00    -0.370 N 
ATOM     38  N   UNL     1       4.866  -7.588   0.235  1.00  0.00    -0.370 N 
ATOM     39  H   UNL     1       5.771 -10.436   1.228  1.00  0.00     0.159 HD
ATOM     40  H   UNL     1       4.188  -9.866   0.808  1.00  0.00     0.159 HD
ATOM     41  H   UNL     1       3.881  -7.719   0.397  1.00  0.00     0.159 HD
ATOM     42  H   UNL     1       5.173  -6.672  -0.051  1.00  0.00     0.159 HD
ENDBRANCH  34  35
ENDBRANCH  33  34
ENDBRANCH  32  33
ENDBRANCH   6  32
ENDBRANCH   4   6
ENDBRANCH   1   2
BRANCH   1  43
ATOM     43  C   UNL     1      10.019 -11.090  -6.572  1.00  0.00     0.102 C 
ATOM     44  C   UNL     1      11.164 -11.602  -7.461  1.00  0.00     0.020 C 
BRANCH  43  45
ATOM     45  C   UNL     1       8.636 -11.609  -6.980  1.00  0.00     0.225 C 
ATOM     46  O   UNL     1       8.411 -12.788  -7.234  1.00  0.00    -0.275 OA
ATOM     47  N   UNL     1       7.666 -10.646  -7.138  1.00  0.00    -0.342 N 
ATOM     48  H   UNL     1       7.823  -9.714  -6.782  1.00  0.00     0.164 HD
BRANCH  47  49
ATOM     49  C   UNL     1       6.287 -11.000  -7.490  1.00  0.00     0.192 C 
BRANCH  49  50
ATOM     50  C   UNL     1       5.999 -10.572  -8.932  1.00  0.00     0.047 C 
BRANCH  50  51
ATOM     51  C   UNL     1       6.945  -9.462  -9.410  1.00  0.00     0.103 C 
BRANCH  51  52
ATOM     52  C   UNL     1       6.221  -8.130  -9.592  1.00  0.00     0.226 C 
ATOM     53  O   UNL     1       6.335  -7.251  -8.736  1.00  0.00    -0.275 OA
BRANCH  52  54
ATOM     54  N   UNL     1       5.511  -7.963 -10.796  1.00  0.00    -0.311 N 
ATOM     55  C   UNL     1       4.050  -8.108 -10.838  1.00  0.00     0.153 C 
BRANCH  54  56
ATOM     56  C   UNL     1       6.168  -7.646 -11.996  1.00  0.00     0.102 C 
ATOM     57  C   UNL     1       6.742  -6.463 -12.269  1.00  0.00     0.043 C 
BRANCH  56  58
ATOM     58  C   UNL     1       6.321  -8.675 -13.091  1.00  0.00     0.268 C 
ATOM     59  O   UNL     1       7.073  -9.636 -13.007  1.00  0.00    -0.268 OA
ATOM     60  N   UNL     1       5.482  -8.457 -14.158  1.00  0.00    -0.339 N 
ATOM     61  H   UNL     1       4.896  -7.630 -14.156  1.00  0.00     0.164 HD
BRANCH  60  62
ATOM     62  C   UNL     1       5.421  -9.367 -15.301  1.00  0.00     0.168 CG0
ATOM     63  C   UNL     1       5.992  -8.713 -16.553  1.00  0.00     0.041 C 
ATOM     64  G   UNL     1       3.962  -9.809 -15.532  1.00  0.00     0.000 G0
ENDBRANCH  60  62
ENDBRANCH  56  58
ENDBRANCH  54  56
ENDBRANCH  52  54
ENDBRANCH  51  52
ENDBRANCH  50  51
ENDBRANCH  49  50
BRANCH  49  65
ATOM     65  C   UNL     1       5.273 -10.331  -6.549  1.00  0.00     0.326 C 
ATOM     66  O   UNL     1       4.287  -9.699  -6.900  1.00  0.00    -0.250 OA
BRANCH  65  67
ATOM     67  O   UNL     1       5.570 -10.434  -5.235  1.00  0.00    -0.480 OA
ATOM     68  H   UNL     1       5.183  -9.620  -4.846  1.00  0.00     0.296 HD
ENDBRANCH  65  67
ENDBRANCH  49  65
ENDBRANCH  47  49
ENDBRANCH  43  45
ENDBRANCH   1  43
BRANCH   1  69
ATOM     69  C   UNL     1      11.001  -8.714  -7.200  1.00  0.00    -0.001 C 
ATOM     70  C   UNL     1      12.007  -7.962  -6.718  1.00  0.00     0.001 C 
BRANCH  70  71
ATOM     71  C   UNL     1      12.973  -7.182  -7.496  1.00  0.00    -0.055 C 
ATOM     72  C   UNL     1      13.297  -7.632  -8.726  1.00  0.00    -0.018 C 
ATOM     73  C   UNL     1      13.529  -5.930  -6.871  1.00  0.00     0.044 C 
BRANCH  72  74
ATOM     74  C   UNL     1      14.255  -7.037  -9.748  1.00  0.00     0.038 C 
ATOM     75  C   UNL     1      13.465  -6.838 -11.047  1.00  0.00     0.015 C 
BRANCH  74  76
ATOM     76  C   UNL     1      15.496  -7.969  -9.874  1.00  0.00     0.128 C 
BRANCH  76  77
ATOM     77  O   UNL     1      15.385  -8.776 -11.059  1.00  0.00    -0.381 OA
ATOM     78  C   UNL     1      16.631  -9.270 -11.531  1.00  0.00     0.195 C 
ENDBRANCH  76  77
BRANCH  76  79
ATOM     79  C   UNL     1      16.853  -7.227  -9.778  1.00  0.00     0.068 C 
BRANCH  79  80
ATOM     80  C   UNL     1      17.557  -7.211  -8.443  1.00  0.00    -0.045 A 
ATOM     81  C   UNL     1      18.900  -7.592  -8.330  1.00  0.00     0.004 A 
ATOM     82  C   UNL     1      16.863  -6.838  -7.282  1.00  0.00     0.004 A 
ATOM     83  C   UNL     1      19.540  -7.588  -7.089  1.00  0.00     0.000 A 
ATOM     84  C   UNL     1      17.504  -6.835  -6.041  1.00  0.00     0.000 A 
ATOM     85  C   UNL     1      18.842  -7.208  -5.945  1.00  0.00     0.000 A 
ENDBRANCH  79  80
ENDBRANCH  76  79
ENDBRANCH  74  76
ENDBRANCH  72  74
ENDBRANCH  70  71
ENDBRANCH   1  69
TORSDOF 17
ENDMDL
MODEL 20
REMARK VINA RESULT:    -4.781      5.952     14.751
REMARK INTER + INTRA:         -22.678
REMARK INTER:                 -14.098
REMARK INTRA:                  -8.580
REMARK UNBOUND:                -8.394
REMARK SMILES C=C1C(=O)N[C@H](C)C(=O)N[C@@H](CC(C)C)C(=O)N[C@@H](C(=O)O)[C@H](C)C(=O)N[C@@H](CCCN=C(N)N)C(=O)N[C@@H](/C=C/C(C)=C/[C@H](C)[C@H](Cc2ccccc2)OC)[C@H](C)C(=O)N[C@@H](C(=O)O)CCC(=O)N1C
REMARK SMILES IDX 39 1 38 2 37 3 36 4 28 6 27 7 25 8 26 9 23 11 24 12 19 13
REMARK SMILES IDX 18 14 16 15 17 16 11 18 10 19 8 20 9 21 12 24 13 25 14 26
REMARK SMILES IDX 15 27 20 28 21 29 22 30 29 32 30 33 31 34 32 35 33 36 34 37
REMARK SMILES IDX 35 38 57 43 58 44 59 45 60 46 61 47 62 49 66 50 67 51 68 52
REMARK SMILES IDX 69 53 70 54 71 55 2 56 1 57 3 58 4 59 5 60 6 62 7 63 63 65
REMARK SMILES IDX 64 66 65 67 40 69 41 70 42 71 44 72 43 73 45 74 46 75 47 76
REMARK SMILES IDX 55 77 56 78 48 79 49 80 50 81 54 82 51 83 53 84 52 85
REMARK H PARENT 38 5 27 10 18 17 10 22 22 31 34 39 34 40 35 41 35 42 61 48
REMARK H PARENT 5 61 65 68
REMARK Flexibility Score:  369.900
ROOT
ATOM      1  C   UNL     1      16.183  -5.057  -2.361  1.00  0.00     0.117 C 
ENDROOT
BRANCH   1   2
ATOM      2  N   UNL     1      16.964  -6.166  -1.811  1.00  0.00    -0.347 N 
ATOM      3  O   UNL     1      18.845  -4.977  -1.250  1.00  0.00    -0.273 OA
ATOM      4  C   UNL     1      18.201  -6.020  -1.214  1.00  0.00     0.243 C 
ATOM      5  H   UNL     1      16.572  -7.096  -1.814  1.00  0.00     0.164 HD
BRANCH   4   6
ATOM      6  C   UNL     1      18.775  -7.339  -0.638  1.00  0.00     0.171 C 
BRANCH   6   7
ATOM      7  N   UNL     1      17.739  -8.064   0.115  1.00  0.00    -0.344 N 
ATOM      8  C   UNL     1      17.473  -7.747   1.429  1.00  0.00     0.226 C 
ATOM      9  O   UNL     1      18.087  -6.878   2.036  1.00  0.00    -0.275 OA
ATOM     10  H   UNL     1      17.257  -8.835  -0.332  1.00  0.00     0.164 HD
BRANCH   8  11
ATOM     11  C   UNL     1      16.341  -8.547   2.049  1.00  0.00     0.109 C 
ATOM     12  C   UNL     1      15.515  -7.657   2.978  1.00  0.00     0.021 C 
BRANCH  11  13
ATOM     13  C   UNL     1      15.535  -9.254   0.942  1.00  0.00     0.204 C 
BRANCH  13  14
ATOM     14  N   UNL     1      14.724 -10.357   1.468  1.00  0.00    -0.340 N 
ATOM     15  C   UNL     1      14.490 -11.517   0.763  1.00  0.00     0.243 C 
ATOM     16  O   UNL     1      14.996 -11.735  -0.336  1.00  0.00    -0.273 OA
ATOM     17  H   UNL     1      14.155 -10.180   2.301  1.00  0.00     0.164 HD
BRANCH  15  18
ATOM     18  C   UNL     1      13.441 -12.444   1.426  1.00  0.00     0.171 C 
BRANCH  18  19
ATOM     19  N   UNL     1      13.109 -11.843   2.716  1.00  0.00    -0.343 N 
ATOM     20  C   UNL     1      13.426 -12.461   3.911  1.00  0.00     0.242 CG0
ATOM     21  O   UNL     1      13.882 -13.602   3.944  1.00  0.00    -0.273 OA
ATOM     22  H   UNL     1      12.626 -10.952   2.741  1.00  0.00     0.164 HD
ATOM     23  G   UNL     1      13.068 -11.640   5.167  1.00  0.00     0.000 G0
ENDBRANCH  18  19
BRANCH  18  24
ATOM     24  C   UNL     1      12.201 -12.583   0.534  1.00  0.00     0.038 C 
BRANCH  24  25
ATOM     25  C   UNL     1      11.387 -11.284   0.356  1.00  0.00    -0.015 C 
ATOM     26  C   UNL     1       9.879 -11.522   0.438  1.00  0.00     0.007 C 
ATOM     27  C   UNL     1      11.734 -10.640  -0.989  1.00  0.00     0.007 C 
ENDBRANCH  24  25
ENDBRANCH  18  24
ENDBRANCH  15  18
ENDBRANCH  13  14
BRANCH  13  28
ATOM     28  C   UNL     1      14.588  -8.313   0.190  1.00  0.00     0.327 C 
ATOM     29  O   UNL     1      13.534  -7.862   0.610  1.00  0.00    -0.250 OA
BRANCH  28  30
ATOM     30  O   UNL     1      14.966  -8.092  -1.085  1.00  0.00    -0.480 OA
ATOM     31  H   UNL     1      14.327  -7.426  -1.414  1.00  0.00     0.296 HD
ENDBRANCH  28  30
ENDBRANCH  13  28
ENDBRANCH  11  13
ENDBRANCH   8  11
ENDBRANCH   6   7
BRANCH   6  32
ATOM     32  C   UNL     1      19.318  -8.196  -1.786  1.00  0.00     0.037 C 
BRANCH  32  33
ATOM     33  C   UNL     1      19.502  -9.664  -1.377  1.00  0.00     0.026 C 
BRANCH  33  34
ATOM     34  C   UNL     1      18.646 -10.616  -2.214  1.00  0.00     0.146 C 
BRANCH  34  35
ATOM     35  N   UNL     1      17.334 -10.017  -2.412  1.00  0.00    -0.254 NA
ATOM     36  C   UNL     1      16.398 -10.738  -2.906  1.00  0.00     0.185 C 
ATOM     37  N   UNL     1      15.183 -10.197  -3.089  1.00  0.00    -0.370 N 
ATOM     38  N   UNL     1      16.437 -12.025  -3.293  1.00  0.00    -0.370 N 
ATOM     39  H   UNL     1      15.070  -9.231  -2.811  1.00  0.00     0.159 HD
ATOM     40  H   UNL     1      14.361 -10.735  -3.304  1.00  0.00     0.159 HD
ATOM     41  H   UNL     1      15.672 -12.442  -3.796  1.00  0.00     0.159 HD
ATOM     42  H   UNL     1      17.293 -12.554  -3.227  1.00  0.00     0.159 HD
ENDBRANCH  34  35
ENDBRANCH  33  34
ENDBRANCH  32  33
ENDBRANCH   6  32
ENDBRANCH   4   6
ENDBRANCH   1   2
BRANCH   1  43
ATOM     43  C   UNL     1      15.251  -4.506  -1.244  1.00  0.00     0.102 C 
ATOM     44  C   UNL     1      13.757  -4.579  -1.602  1.00  0.00     0.020 C 
BRANCH  43  45
ATOM     45  C   UNL     1      15.711  -3.122  -0.777  1.00  0.00     0.225 C 
ATOM     46  O   UNL     1      15.089  -2.449   0.040  1.00  0.00    -0.275 OA
ATOM     47  N   UNL     1      16.831  -2.627  -1.404  1.00  0.00    -0.342 N 
ATOM     48  H   UNL     1      17.410  -3.245  -1.954  1.00  0.00     0.164 HD
BRANCH  47  49
ATOM     49  C   UNL     1      17.406  -1.330  -1.035  1.00  0.00     0.192 C 
BRANCH  49  50
ATOM     50  C   UNL     1      18.196  -0.762  -2.216  1.00  0.00     0.047 C 
BRANCH  50  51
ATOM     51  C   UNL     1      17.607   0.559  -2.729  1.00  0.00     0.103 C 
BRANCH  51  52
ATOM     52  C   UNL     1      17.971   0.821  -4.189  1.00  0.00     0.226 C 
ATOM     53  O   UNL     1      18.386  -0.104  -4.890  1.00  0.00    -0.275 OA
BRANCH  52  54
ATOM     54  N   UNL     1      17.731   2.121  -4.672  1.00  0.00    -0.311 N 
ATOM     55  C   UNL     1      18.776   3.152  -4.618  1.00  0.00     0.153 C 
BRANCH  54  56
ATOM     56  C   UNL     1      16.491   2.480  -5.225  1.00  0.00     0.102 C 
ATOM     57  C   UNL     1      15.533   1.613  -5.590  1.00  0.00     0.043 C 
BRANCH  56  58
ATOM     58  C   UNL     1      16.117   3.931  -5.414  1.00  0.00     0.268 C 
ATOM     59  O   UNL     1      15.747   4.652  -4.497  1.00  0.00    -0.268 OA
ATOM     60  N   UNL     1      16.298   4.372  -6.703  1.00  0.00    -0.339 N 
ATOM     61  H   UNL     1      16.598   3.709  -7.408  1.00  0.00     0.164 HD
BRANCH  60  62
ATOM     62  C   UNL     1      16.057   5.761  -7.093  1.00  0.00     0.168 CG0
ATOM     63  C   UNL     1      14.597   5.976  -7.473  1.00  0.00     0.041 C 
ATOM     64  G   UNL     1      16.987   6.139  -8.264  1.00  0.00     0.000 G0
ENDBRANCH  60  62
ENDBRANCH  56  58
ENDBRANCH  54  56
ENDBRANCH  52  54
ENDBRANCH  51  52
ENDBRANCH  50  51
ENDBRANCH  49  50
BRANCH  49  65
ATOM     65  C   UNL     1      18.331  -1.448   0.187  1.00  0.00     0.326 C 
ATOM     66  O   UNL     1      19.520  -1.732   0.153  1.00  0.00    -0.250 OA
BRANCH  65  67
ATOM     67  O   UNL     1      17.719  -1.268   1.378  1.00  0.00    -0.480 OA
ATOM     68  H   UNL     1      18.231  -0.541   1.794  1.00  0.00     0.296 HD
ENDBRANCH  65  67
ENDBRANCH  49  65
ENDBRANCH  47  49
ENDBRANCH  43  45
ENDBRANCH   1  43
BRANCH   1  69
ATOM     69  C   UNL     1      15.562  -5.572  -3.647  1.00  0.00    -0.001 C 
ATOM     70  C   UNL     1      16.201  -6.073  -4.719  1.00  0.00     0.001 C 
BRANCH  70  71
ATOM     71  C   UNL     1      15.589  -6.587  -5.946  1.00  0.00    -0.055 C 
ATOM     72  C   UNL     1      14.256  -6.796  -5.943  1.00  0.00    -0.018 C 
ATOM     73  C   UNL     1      16.489  -6.838  -7.128  1.00  0.00     0.044 C 
BRANCH  72  74
ATOM     74  C   UNL     1      13.359  -7.314  -7.059  1.00  0.00     0.038 C 
ATOM     75  C   UNL     1      12.898  -6.097  -7.870  1.00  0.00     0.015 C 
BRANCH  74  76
ATOM     76  C   UNL     1      12.208  -8.152  -6.428  1.00  0.00     0.128 C 
BRANCH  76  77
ATOM     77  O   UNL     1      11.826  -9.211  -7.322  1.00  0.00    -0.381 OA
ATOM     78  C   UNL     1      10.482  -9.119  -7.775  1.00  0.00     0.195 C 
ENDBRANCH  76  77
BRANCH  76  79
ATOM     79  C   UNL     1      12.510  -8.658  -4.995  1.00  0.00     0.068 C 
BRANCH  79  80
ATOM     80  C   UNL     1      11.566  -8.252  -3.889  1.00  0.00    -0.045 A 
ATOM     81  C   UNL     1      11.993  -7.423  -2.843  1.00  0.00     0.004 A 
ATOM     82  C   UNL     1      10.245  -8.725  -3.877  1.00  0.00     0.004 A 
ATOM     83  C   UNL     1      11.117  -7.063  -1.816  1.00  0.00     0.000 A 
ATOM     84  C   UNL     1       9.371  -8.366  -2.849  1.00  0.00     0.000 A 
ATOM     85  C   UNL     1       9.806  -7.534  -1.821  1.00  0.00     0.000 A 
ENDBRANCH  79  80
ENDBRANCH  76  79
ENDBRANCH  74  76
ENDBRANCH  72  74
ENDBRANCH  70  71
ENDBRANCH   1  69
TORSDOF 17
ENDMDL
MODEL 21
REMARK VINA RESULT:    -4.765      8.457     14.971
REMARK INTER + INTRA:         -22.630
REMARK INTER:                 -15.496
REMARK INTRA:                  -7.134
REMARK UNBOUND:                -8.394
REMARK SMILES C=C1C(=O)N[C@H](C)C(=O)N[C@@H](CC(C)C)C(=O)N[C@@H](C(=O)O)[C@H](C)C(=O)N[C@@H](CCCN=C(N)N)C(=O)N[C@@H](/C=C/C(C)=C/[C@H](C)[C@H](Cc2ccccc2)OC)[C@H](C)C(=O)N[C@@H](C(=O)O)CCC(=O)N1C
REMARK SMILES IDX 39 1 38 2 37 3 36 4 28 6 27 7 25 8 26 9 23 11 24 12 19 13
REMARK SMILES IDX 18 14 16 15 17 16 11 18 10 19 8 20 9 21 12 24 13 25 14 26
REMARK SMILES IDX 15 27 20 28 21 29 22 30 29 32 30 33 31 34 32 35 33 36 34 37
REMARK SMILES IDX 35 38 57 43 58 44 59 45 60 46 61 47 62 49 66 50 67 51 68 52
REMARK SMILES IDX 69 53 70 54 71 55 2 56 1 57 3 58 4 59 5 60 6 62 7 63 63 65
REMARK SMILES IDX 64 66 65 67 40 69 41 70 42 71 44 72 43 73 45 74 46 75 47 76
REMARK SMILES IDX 55 77 56 78 48 79 49 80 50 81 54 82 51 83 53 84 52 85
REMARK H PARENT 38 5 27 10 18 17 10 22 22 31 34 39 34 40 35 41 35 42 61 48
REMARK H PARENT 5 61 65 68
REMARK Flexibility Score:  369.900
ROOT
ATOM      1  C   UNL     1      13.887  -8.263  -5.950  1.00  0.00     0.117 C 
ENDROOT
BRANCH   1   2
ATOM      2  N   UNL     1      14.518  -8.334  -4.632  1.00  0.00    -0.347 N 
ATOM      3  O   UNL     1      16.360  -9.565  -5.232  1.00  0.00    -0.273 OA
ATOM      4  C   UNL     1      15.754  -8.904  -4.395  1.00  0.00     0.243 C 
ATOM      5  H   UNL     1      14.062  -7.904  -3.841  1.00  0.00     0.164 HD
BRANCH   4   6
ATOM      6  C   UNL     1      16.231  -8.771  -2.927  1.00  0.00     0.171 C 
BRANCH   6   7
ATOM      7  N   UNL     1      15.145  -8.258  -2.077  1.00  0.00    -0.344 N 
ATOM      8  C   UNL     1      15.391  -7.284  -1.134  1.00  0.00     0.226 C 
ATOM      9  O   UNL     1      16.509  -6.821  -0.939  1.00  0.00    -0.275 OA
ATOM     10  H   UNL     1      14.222  -8.664  -2.162  1.00  0.00     0.164 HD
BRANCH   8  11
ATOM     11  C   UNL     1      14.159  -6.821  -0.377  1.00  0.00     0.109 C 
ATOM     12  C   UNL     1      14.365  -7.007   1.127  1.00  0.00     0.021 C 
BRANCH  11  13
ATOM     13  C   UNL     1      13.790  -5.388  -0.808  1.00  0.00     0.204 C 
BRANCH  13  14
ATOM     14  N   UNL     1      14.954  -4.496  -0.812  1.00  0.00    -0.340 N 
ATOM     15  C   UNL     1      14.885  -3.173  -0.431  1.00  0.00     0.243 C 
ATOM     16  O   UNL     1      13.851  -2.663  -0.002  1.00  0.00    -0.273 OA
ATOM     17  H   UNL     1      15.799  -4.811  -1.296  1.00  0.00     0.164 HD
BRANCH  15  18
ATOM     18  C   UNL     1      16.183  -2.379  -0.714  1.00  0.00     0.171 C 
BRANCH  18  19
ATOM     19  N   UNL     1      16.710  -1.962   0.584  1.00  0.00    -0.343 N 
ATOM     20  C   UNL     1      16.574  -0.666   1.044  1.00  0.00     0.242 CG0
ATOM     21  O   UNL     1      16.122   0.226   0.330  1.00  0.00    -0.273 OA
ATOM     22  H   UNL     1      17.196  -2.637   1.164  1.00  0.00     0.164 HD
ATOM     23  G   UNL     1      17.123  -0.435   2.467  1.00  0.00     0.000 G0
ENDBRANCH  18  19
BRANCH  18  24
ATOM     24  C   UNL     1      17.192  -3.245  -1.478  1.00  0.00     0.038 C 
BRANCH  24  25
ATOM     25  C   UNL     1      18.358  -2.462  -2.118  1.00  0.00    -0.015 C 
ATOM     26  C   UNL     1      17.916  -1.112  -2.685  1.00  0.00     0.007 C 
ATOM     27  C   UNL     1      18.994  -3.303  -3.228  1.00  0.00     0.007 C 
ENDBRANCH  24  25
ENDBRANCH  18  24
ENDBRANCH  15  18
ENDBRANCH  13  14
BRANCH  13  28
ATOM     28  C   UNL     1      13.163  -5.320  -2.204  1.00  0.00     0.327 C 
ATOM     29  O   UNL     1      13.645  -5.762  -3.236  1.00  0.00    -0.250 OA
BRANCH  28  30
ATOM     30  O   UNL     1      12.024  -4.598  -2.238  1.00  0.00    -0.480 OA
ATOM     31  H   UNL     1      11.426  -5.119  -2.813  1.00  0.00     0.296 HD
ENDBRANCH  28  30
ENDBRANCH  13  28
ENDBRANCH  11  13
ENDBRANCH   8  11
ENDBRANCH   6   7
BRANCH   6  32
ATOM     32  C   UNL     1      16.715 -10.138  -2.430  1.00  0.00     0.037 C 
BRANCH  32  33
ATOM     33  C   UNL     1      18.235 -10.172  -2.217  1.00  0.00     0.026 C 
BRANCH  33  34
ATOM     34  C   UNL     1      18.618 -10.582  -0.794  1.00  0.00     0.146 C 
BRANCH  34  35
ATOM     35  N   UNL     1      18.301  -9.487   0.112  1.00  0.00    -0.254 NA
ATOM     36  C   UNL     1      17.993  -9.762   1.325  1.00  0.00     0.185 C 
ATOM     37  N   UNL     1      17.704  -8.760   2.169  1.00  0.00    -0.370 N 
ATOM     38  N   UNL     1      17.910 -10.964   1.923  1.00  0.00    -0.370 N 
ATOM     39  H   UNL     1      17.755  -7.822   1.795  1.00  0.00     0.159 HD
ATOM     40  H   UNL     1      17.626  -8.878   3.165  1.00  0.00     0.159 HD
ATOM     41  H   UNL     1      17.522 -11.059   2.848  1.00  0.00     0.159 HD
ATOM     42  H   UNL     1      18.086 -11.809   1.403  1.00  0.00     0.159 HD
ENDBRANCH  34  35
ENDBRANCH  33  34
ENDBRANCH  32  33
ENDBRANCH   6  32
ENDBRANCH   4   6
ENDBRANCH   1   2
BRANCH   1  43
ATOM     43  C   UNL     1      14.509  -7.070  -6.732  1.00  0.00     0.102 C 
ATOM     44  C   UNL     1      13.494  -5.966  -7.074  1.00  0.00     0.020 C 
BRANCH  43  45
ATOM     45  C   UNL     1      15.319  -7.563  -7.935  1.00  0.00     0.225 C 
ATOM     46  O   UNL     1      16.064  -6.836  -8.586  1.00  0.00    -0.275 OA
ATOM     47  N   UNL     1      15.089  -8.867  -8.309  1.00  0.00    -0.342 N 
ATOM     48  H   UNL     1      14.597  -9.488  -7.682  1.00  0.00     0.164 HD
BRANCH  47  49
ATOM     49  C   UNL     1      15.818  -9.485  -9.421  1.00  0.00     0.192 C 
BRANCH  49  50
ATOM     50  C   UNL     1      14.863  -9.729 -10.591  1.00  0.00     0.047 C 
BRANCH  50  51
ATOM     51  C   UNL     1      14.793  -8.529 -11.545  1.00  0.00     0.103 C 
BRANCH  51  52
ATOM     52  C   UNL     1      13.539  -7.686 -11.315  1.00  0.00     0.226 C 
ATOM     53  O   UNL     1      13.651  -6.514 -10.952  1.00  0.00    -0.275 OA
BRANCH  52  54
ATOM     54  N   UNL     1      12.308  -8.299 -11.614  1.00  0.00    -0.311 N 
ATOM     55  C   UNL     1      11.387  -8.707 -10.545  1.00  0.00     0.153 C 
BRANCH  54  56
ATOM     56  C   UNL     1      11.913  -8.538 -12.941  1.00  0.00     0.102 C 
ATOM     57  C   UNL     1      11.617  -7.584 -13.838  1.00  0.00     0.043 C 
BRANCH  56  58
ATOM     58  C   UNL     1      11.833  -9.945 -13.484  1.00  0.00     0.268 C 
ATOM     59  O   UNL     1      12.773 -10.729 -13.454  1.00  0.00    -0.268 OA
ATOM     60  N   UNL     1      10.583 -10.274 -13.952  1.00  0.00    -0.339 N 
ATOM     61  H   UNL     1       9.861  -9.564 -13.952  1.00  0.00     0.164 HD
BRANCH  60  62
ATOM     62  C   UNL     1      10.269 -11.607 -14.465  1.00  0.00     0.168 CG0
ATOM     63  C   UNL     1       9.633 -12.473 -13.385  1.00  0.00     0.041 C 
ATOM     64  G   UNL     1      11.553 -12.267 -15.008  1.00  0.00     0.000 G0
ENDBRANCH  60  62
ENDBRANCH  56  58
ENDBRANCH  54  56
ENDBRANCH  52  54
ENDBRANCH  51  52
ENDBRANCH  50  51
ENDBRANCH  49  50
BRANCH  49  65
ATOM     65  C   UNL     1      16.463 -10.816  -9.004  1.00  0.00     0.326 C 
ATOM     66  O   UNL     1      15.922 -11.912  -9.046  1.00  0.00    -0.250 OA
BRANCH  65  67
ATOM     67  O   UNL     1      17.714 -10.705  -8.506  1.00  0.00    -0.480 OA
ATOM     68  H   UNL     1      17.728  -9.806  -8.113  1.00  0.00     0.296 HD
ENDBRANCH  65  67
ENDBRANCH  49  65
ENDBRANCH  47  49
ENDBRANCH  43  45
ENDBRANCH   1  43
BRANCH   1  69
ATOM     69  C   UNL     1      12.390  -8.278  -5.705  1.00  0.00    -0.001 C 
ATOM     70  C   UNL     1      11.431  -8.728  -6.534  1.00  0.00     0.001 C 
BRANCH  70  71
ATOM     71  C   UNL     1       9.989  -8.757  -6.278  1.00  0.00    -0.055 C 
ATOM     72  C   UNL     1       9.170  -8.977  -7.327  1.00  0.00    -0.018 C 
ATOM     73  C   UNL     1       9.524  -8.549  -4.860  1.00  0.00     0.044 C 
BRANCH  72  74
ATOM     74  C   UNL     1       7.650  -9.063  -7.361  1.00  0.00     0.038 C 
ATOM     75  C   UNL     1       7.256 -10.383  -6.687  1.00  0.00     0.015 C 
BRANCH  74  76
ATOM     76  C   UNL     1       7.173  -8.915  -8.836  1.00  0.00     0.128 C 
BRANCH  76  77
ATOM     77  O   UNL     1       5.741  -8.797  -8.879  1.00  0.00    -0.381 OA
ATOM     78  C   UNL     1       5.243  -7.645  -8.212  1.00  0.00     0.195 C 
ENDBRANCH  76  77
BRANCH  76  79
ATOM     79  C   UNL     1       7.892  -7.787  -9.620  1.00  0.00     0.068 C 
BRANCH  79  80
ATOM     80  C   UNL     1       7.530  -7.596 -11.073  1.00  0.00    -0.045 A 
ATOM     81  C   UNL     1       8.042  -8.445 -12.063  1.00  0.00     0.004 A 
ATOM     82  C   UNL     1       6.692  -6.539 -11.460  1.00  0.00     0.004 A 
ATOM     83  C   UNL     1       7.714  -8.252 -13.406  1.00  0.00     0.000 A 
ATOM     84  C   UNL     1       6.365  -6.346 -12.804  1.00  0.00     0.000 A 
ATOM     85  C   UNL     1       6.875  -7.203 -13.776  1.00  0.00     0.000 A 
ENDBRANCH  79  80
ENDBRANCH  76  79
ENDBRANCH  74  76
ENDBRANCH  72  74
ENDBRANCH  70  71
ENDBRANCH   1  69
TORSDOF 17
ENDMDL
MODEL 22
REMARK VINA RESULT:    -4.753     16.135     21.858
REMARK INTER + INTRA:         -22.593
REMARK INTER:                 -16.151
REMARK INTRA:                  -6.442
REMARK UNBOUND:                -8.394
REMARK SMILES C=C1C(=O)N[C@H](C)C(=O)N[C@@H](CC(C)C)C(=O)N[C@@H](C(=O)O)[C@H](C)C(=O)N[C@@H](CCCN=C(N)N)C(=O)N[C@@H](/C=C/C(C)=C/[C@H](C)[C@H](Cc2ccccc2)OC)[C@H](C)C(=O)N[C@@H](C(=O)O)CCC(=O)N1C
REMARK SMILES IDX 39 1 38 2 37 3 36 4 28 6 27 7 25 8 26 9 23 11 24 12 19 13
REMARK SMILES IDX 18 14 16 15 17 16 11 18 10 19 8 20 9 21 12 24 13 25 14 26
REMARK SMILES IDX 15 27 20 28 21 29 22 30 29 32 30 33 31 34 32 35 33 36 34 37
REMARK SMILES IDX 35 38 57 43 58 44 59 45 60 46 61 47 62 49 66 50 67 51 68 52
REMARK SMILES IDX 69 53 70 54 71 55 2 56 1 57 3 58 4 59 5 60 6 62 7 63 63 65
REMARK SMILES IDX 64 66 65 67 40 69 41 70 42 71 44 72 43 73 45 74 46 75 47 76
REMARK SMILES IDX 55 77 56 78 48 79 49 80 50 81 54 82 51 83 53 84 52 85
REMARK H PARENT 38 5 27 10 18 17 10 22 22 31 34 39 34 40 35 41 35 42 61 48
REMARK H PARENT 5 61 65 68
REMARK Flexibility Score:  369.900
ROOT
ATOM      1  C   UNL     1       2.186 -10.696  -0.997  1.00  0.00     0.117 C 
ENDROOT
BRANCH   1   2
ATOM      2  N   UNL     1       0.926 -10.356  -0.334  1.00  0.00    -0.347 N 
ATOM      3  O   UNL     1      -0.352 -10.069  -2.219  1.00  0.00    -0.273 OA
ATOM      4  C   UNL     1      -0.269 -10.159  -0.998  1.00  0.00     0.243 C 
ATOM      5  H   UNL     1       0.895 -10.307   0.673  1.00  0.00     0.164 HD
BRANCH   4   6
ATOM      6  C   UNL     1      -1.470  -9.897  -0.055  1.00  0.00     0.171 C 
BRANCH   6   7
ATOM      7  N   UNL     1      -1.709 -11.064   0.809  1.00  0.00    -0.344 N 
ATOM      8  C   UNL     1      -2.983 -11.375   1.233  1.00  0.00     0.226 C 
ATOM      9  O   UNL     1      -3.961 -10.698   0.938  1.00  0.00    -0.275 OA
ATOM     10  H   UNL     1      -0.918 -11.608   1.129  1.00  0.00     0.164 HD
BRANCH   8  11
ATOM     11  C   UNL     1      -3.072 -12.637   2.073  1.00  0.00     0.109 C 
ATOM     12  C   UNL     1      -2.309 -12.452   3.384  1.00  0.00     0.021 C 
BRANCH  11  13
ATOM     13  C   UNL     1      -4.548 -13.053   2.235  1.00  0.00     0.204 C 
BRANCH  13  14
ATOM     14  N   UNL     1      -5.320 -12.062   2.990  1.00  0.00    -0.340 N 
ATOM     15  C   UNL     1      -5.787 -12.291   4.267  1.00  0.00     0.243 C 
ATOM     16  O   UNL     1      -5.535 -13.323   4.886  1.00  0.00    -0.273 OA
ATOM     17  H   UNL     1      -5.690 -11.253   2.484  1.00  0.00     0.164 HD
BRANCH  15  18
ATOM     18  C   UNL     1      -6.748 -11.191   4.781  1.00  0.00     0.171 C 
BRANCH  18  19
ATOM     19  N   UNL     1      -6.134 -10.624   5.979  1.00  0.00    -0.343 N 
ATOM     20  C   UNL     1      -6.563 -10.963   7.248  1.00  0.00     0.242 CG0
ATOM     21  O   UNL     1      -7.565 -11.652   7.426  1.00  0.00    -0.273 OA
ATOM     22  H   UNL     1      -5.375  -9.959   5.882  1.00  0.00     0.164 HD
ATOM     23  G   UNL     1      -5.743 -10.326   8.389  1.00  0.00     0.000 G0
ENDBRANCH  18  19
BRANCH  18  24
ATOM     24  C   UNL     1      -6.973 -10.122   3.705  1.00  0.00     0.038 C 
BRANCH  24  25
ATOM     25  C   UNL     1      -8.454  -9.839   3.376  1.00  0.00    -0.015 C 
ATOM     26  C   UNL     1      -9.277  -9.510   4.622  1.00  0.00     0.007 C 
ATOM     27  C   UNL     1      -9.063 -11.048   2.661  1.00  0.00     0.007 C 
ENDBRANCH  24  25
ENDBRANCH  18  24
ENDBRANCH  15  18
ENDBRANCH  13  14
BRANCH  13  28
ATOM     28  C   UNL     1      -5.266 -13.265   0.899  1.00  0.00     0.327 C 
ATOM     29  O   UNL     1      -4.897 -13.989  -0.013  1.00  0.00    -0.250 OA
BRANCH  28  30
ATOM     30  O   UNL     1      -6.339 -12.464   0.742  1.00  0.00    -0.480 OA
ATOM     31  H   UNL     1      -5.990 -11.561   0.889  1.00  0.00     0.296 HD
ENDBRANCH  28  30
ENDBRANCH  13  28
ENDBRANCH  11  13
ENDBRANCH   8  11
ENDBRANCH   6   7
BRANCH   6  32
ATOM     32  C   UNL     1      -1.190  -8.644   0.782  1.00  0.00     0.037 C 
BRANCH  32  33
ATOM     33  C   UNL     1      -2.440  -7.772   0.956  1.00  0.00     0.026 C 
BRANCH  33  34
ATOM     34  C   UNL     1      -2.445  -6.562   0.021  1.00  0.00     0.146 C 
BRANCH  34  35
ATOM     35  N   UNL     1      -1.687  -5.484   0.643  1.00  0.00    -0.254 NA
ATOM     36  C   UNL     1      -1.884  -4.284   0.242  1.00  0.00     0.185 C 
ATOM     37  N   UNL     1      -1.195  -3.283   0.811  1.00  0.00    -0.370 N 
ATOM     38  N   UNL     1      -2.719  -3.839  -0.714  1.00  0.00    -0.370 N 
ATOM     39  H   UNL     1      -0.551  -3.537   1.550  1.00  0.00     0.159 HD
ATOM     40  H   UNL     1      -1.414  -2.311   0.678  1.00  0.00     0.159 HD
ATOM     41  H   UNL     1      -2.681  -2.885  -1.035  1.00  0.00     0.159 HD
ATOM     42  H   UNL     1      -3.288  -4.484  -1.239  1.00  0.00     0.159 HD
ENDBRANCH  34  35
ENDBRANCH  33  34
ENDBRANCH  32  33
ENDBRANCH   6  32
ENDBRANCH   4   6
ENDBRANCH   1   2
BRANCH   1  43
ATOM     43  C   UNL     1       2.208 -12.228  -1.264  1.00  0.00     0.102 C 
ATOM     44  C   UNL     1       3.157 -12.999  -0.331  1.00  0.00     0.020 C 
BRANCH  43  45
ATOM     45  C   UNL     1       2.423 -12.524  -2.752  1.00  0.00     0.225 C 
ATOM     46  O   UNL     1       3.153 -13.424  -3.158  1.00  0.00    -0.275 OA
ATOM     47  N   UNL     1       1.813 -11.651  -3.624  1.00  0.00    -0.342 N 
ATOM     48  H   UNL     1       1.102 -11.019  -3.283  1.00  0.00     0.164 HD
BRANCH  47  49
ATOM     49  C   UNL     1       1.902 -11.832  -5.076  1.00  0.00     0.192 C 
BRANCH  49  50
ATOM     50  C   UNL     1       2.600 -10.622  -5.703  1.00  0.00     0.047 C 
BRANCH  50  51
ATOM     51  C   UNL     1       4.110 -10.840  -5.864  1.00  0.00     0.103 C 
BRANCH  51  52
ATOM     52  C   UNL     1       4.902  -9.552  -5.646  1.00  0.00     0.226 C 
ATOM     53  O   UNL     1       4.492  -8.713  -4.842  1.00  0.00    -0.275 OA
BRANCH  52  54
ATOM     54  N   UNL     1       6.121  -9.440  -6.341  1.00  0.00    -0.311 N 
ATOM     55  C   UNL     1       7.396  -9.772  -5.691  1.00  0.00     0.153 C 
BRANCH  54  56
ATOM     56  C   UNL     1       6.163  -9.014  -7.679  1.00  0.00     0.102 C 
ATOM     57  C   UNL     1       5.517  -7.942  -8.165  1.00  0.00     0.043 C 
BRANCH  56  58
ATOM     58  C   UNL     1       7.013  -9.739  -8.696  1.00  0.00     0.268 C 
ATOM     59  O   UNL     1       6.810 -10.897  -9.034  1.00  0.00    -0.268 OA
ATOM     60  N   UNL     1       7.989  -8.945  -9.249  1.00  0.00    -0.339 N 
ATOM     61  H   UNL     1       8.099  -7.998  -8.906  1.00  0.00     0.164 HD
BRANCH  60  62
ATOM     62  C   UNL     1       8.884  -9.428 -10.299  1.00  0.00     0.168 CG0
ATOM     63  C   UNL     1       8.598  -8.733 -11.624  1.00  0.00     0.041 C 
ATOM     64  G   UNL     1       8.736 -10.957 -10.442  1.00  0.00     0.000 G0
ENDBRANCH  60  62
ENDBRANCH  56  58
ENDBRANCH  54  56
ENDBRANCH  52  54
ENDBRANCH  51  52
ENDBRANCH  50  51
ENDBRANCH  49  50
BRANCH  49  65
ATOM     65  C   UNL     1       0.514 -12.005  -5.711  1.00  0.00     0.326 C 
ATOM     66  O   UNL     1       0.297 -12.408  -6.845  1.00  0.00    -0.250 OA
BRANCH  65  67
ATOM     67  O   UNL     1      -0.517 -11.612  -4.930  1.00  0.00    -0.480 OA
ATOM     68  H   UNL     1      -0.077 -11.250  -4.132  1.00  0.00     0.296 HD
ENDBRANCH  65  67
ENDBRANCH  49  65
ENDBRANCH  47  49
ENDBRANCH  43  45
ENDBRANCH   1  43
BRANCH   1  69
ATOM     69  C   UNL     1       3.288 -10.082  -0.153  1.00  0.00    -0.001 C 
ATOM     70  C   UNL     1       3.255  -8.913   0.510  1.00  0.00     0.001 C 
BRANCH  70  71
ATOM     71  C   UNL     1       4.317  -8.342   1.340  1.00  0.00    -0.055 C 
ATOM     72  C   UNL     1       5.187  -7.494   0.750  1.00  0.00    -0.018 C 
ATOM     73  C   UNL     1       4.361  -8.733   2.794  1.00  0.00     0.044 C 
BRANCH  72  74
ATOM     74  C   UNL     1       6.373  -6.756   1.355  1.00  0.00     0.038 C 
ATOM     75  C   UNL     1       6.358  -5.332   0.786  1.00  0.00     0.015 C 
BRANCH  74  76
ATOM     76  C   UNL     1       7.670  -7.565   1.058  1.00  0.00     0.128 C 
BRANCH  76  77
ATOM     77  O   UNL     1       7.771  -8.680   1.960  1.00  0.00    -0.381 OA
ATOM     78  C   UNL     1       8.705  -8.480   3.012  1.00  0.00     0.195 C 
ENDBRANCH  76  77
BRANCH  76  79
ATOM     79  C   UNL     1       7.827  -7.979  -0.427  1.00  0.00     0.068 C 
BRANCH  79  80
ATOM     80  C   UNL     1       7.297  -9.329  -0.845  1.00  0.00    -0.045 A 
ATOM     81  C   UNL     1       6.504  -9.470  -1.992  1.00  0.00     0.004 A 
ATOM     82  C   UNL     1       7.569 -10.466  -0.070  1.00  0.00     0.004 A 
ATOM     83  C   UNL     1       6.006 -10.720  -2.363  1.00  0.00     0.000 A 
ATOM     84  C   UNL     1       7.070 -11.716  -0.442  1.00  0.00     0.000 A 
ATOM     85  C   UNL     1       6.290 -11.843  -1.589  1.00  0.00     0.000 A 
ENDBRANCH  79  80
ENDBRANCH  76  79
ENDBRANCH  74  76
ENDBRANCH  72  74
ENDBRANCH  70  71
ENDBRANCH   1  69
TORSDOF 17
ENDMDL
MODEL 23
REMARK VINA RESULT:    -4.751     12.377     17.065
REMARK INTER + INTRA:         -22.588
REMARK INTER:                 -14.835
REMARK INTRA:                  -7.752
REMARK UNBOUND:                -8.394
REMARK SMILES C=C1C(=O)N[C@H](C)C(=O)N[C@@H](CC(C)C)C(=O)N[C@@H](C(=O)O)[C@H](C)C(=O)N[C@@H](CCCN=C(N)N)C(=O)N[C@@H](/C=C/C(C)=C/[C@H](C)[C@H](Cc2ccccc2)OC)[C@H](C)C(=O)N[C@@H](C(=O)O)CCC(=O)N1C
REMARK SMILES IDX 39 1 38 2 37 3 36 4 28 6 27 7 25 8 26 9 23 11 24 12 19 13
REMARK SMILES IDX 18 14 16 15 17 16 11 18 10 19 8 20 9 21 12 24 13 25 14 26
REMARK SMILES IDX 15 27 20 28 21 29 22 30 29 32 30 33 31 34 32 35 33 36 34 37
REMARK SMILES IDX 35 38 57 43 58 44 59 45 60 46 61 47 62 49 66 50 67 51 68 52
REMARK SMILES IDX 69 53 70 54 71 55 2 56 1 57 3 58 4 59 5 60 6 62 7 63 63 65
REMARK SMILES IDX 64 66 65 67 40 69 41 70 42 71 44 72 43 73 45 74 46 75 47 76
REMARK SMILES IDX 55 77 56 78 48 79 49 80 50 81 54 82 51 83 53 84 52 85
REMARK H PARENT 38 5 27 10 18 17 10 22 22 31 34 39 34 40 35 41 35 42 61 48
REMARK H PARENT 5 61 65 68
REMARK Flexibility Score:  369.900
ROOT
ATOM      1  C   UNL     1      13.979  -6.723  -8.194  1.00  0.00     0.117 C 
ENDROOT
BRANCH   1   2
ATOM      2  N   UNL     1      13.761  -7.368  -6.899  1.00  0.00    -0.347 N 
ATOM      3  O   UNL     1      13.946  -5.496  -5.583  1.00  0.00    -0.273 OA
ATOM      4  C   UNL     1      13.670  -6.686  -5.701  1.00  0.00     0.243 C 
ATOM      5  H   UNL     1      13.615  -8.366  -6.861  1.00  0.00     0.164 HD
BRANCH   4   6
ATOM      6  C   UNL     1      13.348  -7.595  -4.488  1.00  0.00     0.171 C 
BRANCH   6   7
ATOM      7  N   UNL     1      13.678  -8.996  -4.794  1.00  0.00    -0.344 N 
ATOM      8  C   UNL     1      14.971  -9.364  -5.099  1.00  0.00     0.226 C 
ATOM      9  O   UNL     1      15.891  -8.557  -5.152  1.00  0.00    -0.275 OA
ATOM     10  H   UNL     1      12.932  -9.680  -4.826  1.00  0.00     0.164 HD
BRANCH   8  11
ATOM     11  C   UNL     1      15.159 -10.852  -5.337  1.00  0.00     0.109 C 
ATOM     12  C   UNL     1      15.905 -11.084  -6.650  1.00  0.00     0.021 C 
BRANCH  11  13
ATOM     13  C   UNL     1      15.810 -11.500  -4.098  1.00  0.00     0.204 C 
BRANCH  13  14
ATOM     14  N   UNL     1      16.387 -10.501  -3.192  1.00  0.00    -0.340 N 
ATOM     15  C   UNL     1      17.542 -10.722  -2.474  1.00  0.00     0.243 C 
ATOM     16  O   UNL     1      18.205 -11.751  -2.589  1.00  0.00    -0.273 OA
ATOM     17  H   UNL     1      15.811  -9.694  -2.937  1.00  0.00     0.164 HD
BRANCH  15  18
ATOM     18  C   UNL     1      17.843  -9.616  -1.433  1.00  0.00     0.171 C 
BRANCH  18  19
ATOM     19  N   UNL     1      18.569 -10.258  -0.339  1.00  0.00    -0.343 N 
ATOM     20  C   UNL     1      17.983 -10.483   0.892  1.00  0.00     0.242 CG0
ATOM     21  O   UNL     1      16.872 -10.037   1.166  1.00  0.00    -0.273 OA
ATOM     22  H   UNL     1      19.532 -10.541  -0.480  1.00  0.00     0.164 HD
ATOM     23  G   UNL     1      18.878 -11.242   1.894  1.00  0.00     0.000 G0
ENDBRANCH  18  19
BRANCH  18  24
ATOM     24  C   UNL     1      18.664  -8.485  -2.065  1.00  0.00     0.038 C 
BRANCH  24  25
ATOM     25  C   UNL     1      18.136  -7.065  -1.775  1.00  0.00    -0.015 C 
ATOM     26  C   UNL     1      16.911  -7.072  -0.860  1.00  0.00     0.007 C 
ATOM     27  C   UNL     1      17.792  -6.364  -3.092  1.00  0.00     0.007 C 
ENDBRANCH  24  25
ENDBRANCH  18  24
ENDBRANCH  15  18
ENDBRANCH  13  14
BRANCH  13  28
ATOM     28  C   UNL     1      14.833 -12.347  -3.277  1.00  0.00     0.327 C 
ATOM     29  O   UNL     1      14.992 -13.511  -2.941  1.00  0.00    -0.250 OA
BRANCH  28  30
ATOM     30  O   UNL     1      13.666 -11.718  -3.030  1.00  0.00    -0.480 OA
ATOM     31  H   UNL     1      13.537 -11.820  -2.064  1.00  0.00     0.296 HD
ENDBRANCH  28  30
ENDBRANCH  13  28
ENDBRANCH  11  13
ENDBRANCH   8  11
ENDBRANCH   6   7
BRANCH   6  32
ATOM     32  C   UNL     1      14.133  -7.103  -3.267  1.00  0.00     0.037 C 
BRANCH  32  33
ATOM     33  C   UNL     1      13.239  -6.359  -2.265  1.00  0.00     0.026 C 
BRANCH  33  34
ATOM     34  C   UNL     1      12.891  -7.213  -1.045  1.00  0.00     0.146 C 
BRANCH  34  35
ATOM     35  N   UNL     1      13.418  -8.556  -1.246  1.00  0.00    -0.254 NA
ATOM     36  C   UNL     1      13.887  -9.189  -0.236  1.00  0.00     0.185 C 
ATOM     37  N   UNL     1      14.371 -10.429  -0.409  1.00  0.00    -0.370 N 
ATOM     38  N   UNL     1      13.978  -8.788   1.045  1.00  0.00    -0.370 N 
ATOM     39  H   UNL     1      14.328 -10.806  -1.347  1.00  0.00     0.159 HD
ATOM     40  H   UNL     1      14.592 -11.050   0.350  1.00  0.00     0.159 HD
ATOM     41  H   UNL     1      14.495  -9.324   1.722  1.00  0.00     0.159 HD
ATOM     42  H   UNL     1      13.666  -7.869   1.317  1.00  0.00     0.159 HD
ENDBRANCH  34  35
ENDBRANCH  33  34
ENDBRANCH  32  33
ENDBRANCH   6  32
ENDBRANCH   4   6
ENDBRANCH   1   2
BRANCH   1  43
ATOM     43  C   UNL     1      12.723  -6.957  -9.082  1.00  0.00     0.102 C 
ATOM     44  C   UNL     1      11.769  -8.026  -8.523  1.00  0.00     0.020 C 
BRANCH  43  45
ATOM     45  C   UNL     1      13.117  -7.180 -10.545  1.00  0.00     0.225 C 
ATOM     46  O   UNL     1      13.711  -6.340 -11.215  1.00  0.00    -0.275 OA
ATOM     47  N   UNL     1      12.678  -8.358 -11.104  1.00  0.00    -0.342 N 
ATOM     48  H   UNL     1      12.330  -9.095 -10.507  1.00  0.00     0.164 HD
BRANCH  47  49
ATOM     49  C   UNL     1      13.011  -8.722 -12.485  1.00  0.00     0.192 C 
BRANCH  49  50
ATOM     50  C   UNL     1      11.747  -9.187 -13.212  1.00  0.00     0.047 C 
BRANCH  50  51
ATOM     51  C   UNL     1      10.607  -8.165 -13.110  1.00  0.00     0.103 C 
BRANCH  51  52
ATOM     52  C   UNL     1       9.235  -8.836 -13.089  1.00  0.00     0.226 C 
ATOM     53  O   UNL     1       9.003  -9.774 -13.854  1.00  0.00    -0.275 OA
BRANCH  52  54
ATOM     54  N   UNL     1       8.327  -8.375 -12.118  1.00  0.00    -0.311 N 
ATOM     55  C   UNL     1       8.613  -8.521 -10.685  1.00  0.00     0.153 C 
BRANCH  54  56
ATOM     56  C   UNL     1       7.120  -7.754 -12.481  1.00  0.00     0.102 C 
ATOM     57  C   UNL     1       6.823  -6.463 -12.260  1.00  0.00     0.043 C 
BRANCH  56  58
ATOM     58  C   UNL     1       6.045  -8.520 -13.216  1.00  0.00     0.268 C 
ATOM     59  O   UNL     1       5.163  -9.149 -12.647  1.00  0.00    -0.268 OA
ATOM     60  N   UNL     1       6.122  -8.382 -14.581  1.00  0.00    -0.339 N 
ATOM     61  H   UNL     1       6.890  -7.852 -14.975  1.00  0.00     0.164 HD
BRANCH  60  62
ATOM     62  C   UNL     1       5.142  -8.989 -15.482  1.00  0.00     0.168 CG0
ATOM     63  C   UNL     1       4.593  -7.963 -16.464  1.00  0.00     0.041 C 
ATOM     64  G   UNL     1       4.002  -9.620 -14.656  1.00  0.00     0.000 G0
ENDBRANCH  60  62
ENDBRANCH  56  58
ENDBRANCH  54  56
ENDBRANCH  52  54
ENDBRANCH  51  52
ENDBRANCH  50  51
ENDBRANCH  49  50
BRANCH  49  65
ATOM     65  C   UNL     1      14.068  -9.835 -12.538  1.00  0.00     0.326 C 
ATOM     66  O   UNL     1      13.929 -10.969 -12.103  1.00  0.00    -0.250 OA
BRANCH  65  67
ATOM     67  O   UNL     1      15.253  -9.463 -13.072  1.00  0.00    -0.480 OA
ATOM     68  H   UNL     1      15.105  -8.529 -13.335  1.00  0.00     0.296 HD
ENDBRANCH  65  67
ENDBRANCH  49  65
ENDBRANCH  47  49
ENDBRANCH  43  45
ENDBRANCH   1  43
BRANCH   1  69
ATOM     69  C   UNL     1      15.328  -7.213  -8.689  1.00  0.00    -0.001 C 
ATOM     70  C   UNL     1      16.530  -7.010  -8.120  1.00  0.00     0.001 C 
BRANCH  70  71
ATOM     71  C   UNL     1      17.823  -7.505  -8.596  1.00  0.00    -0.055 C 
ATOM     72  C   UNL     1      18.342  -6.941  -9.706  1.00  0.00    -0.018 C 
ATOM     73  C   UNL     1      18.487  -8.604  -7.807  1.00  0.00     0.044 C 
BRANCH  72  74
ATOM     74  C   UNL     1      19.651  -7.246 -10.420  1.00  0.00     0.038 C 
ATOM     75  C   UNL     1      20.457  -5.942 -10.464  1.00  0.00     0.015 C 
BRANCH  74  76
ATOM     76  C   UNL     1      19.330  -7.862 -11.813  1.00  0.00     0.128 C 
BRANCH  76  77
ATOM     77  O   UNL     1      19.831  -7.008 -12.855  1.00  0.00    -0.381 OA
ATOM     78  C   UNL     1      19.723  -7.570 -14.156  1.00  0.00     0.195 C 
ENDBRANCH  76  77
BRANCH  76  79
ATOM     79  C   UNL     1      19.790  -9.333 -11.972  1.00  0.00     0.068 C 
BRANCH  79  80
ATOM     80  C   UNL     1      19.199 -10.363 -11.040  1.00  0.00    -0.045 A 
ATOM     81  C   UNL     1      17.813 -10.553 -10.959  1.00  0.00     0.004 A 
ATOM     82  C   UNL     1      20.033 -11.132 -10.214  1.00  0.00     0.004 A 
ATOM     83  C   UNL     1      17.273 -11.497 -10.084  1.00  0.00     0.000 A 
ATOM     84  C   UNL     1      19.492 -12.076  -9.339  1.00  0.00     0.000 A 
ATOM     85  C   UNL     1      18.113 -12.260  -9.275  1.00  0.00     0.000 A 
ENDBRANCH  79  80
ENDBRANCH  76  79
ENDBRANCH  74  76
ENDBRANCH  72  74
ENDBRANCH  70  71
ENDBRANCH   1  69
TORSDOF 17
ENDMDL
MODEL 24
REMARK VINA RESULT:    -4.744      8.430     14.324
REMARK INTER + INTRA:         -22.568
REMARK INTER:                 -14.241
REMARK INTRA:                  -8.327
REMARK UNBOUND:                -8.394
REMARK SMILES C=C1C(=O)N[C@H](C)C(=O)N[C@@H](CC(C)C)C(=O)N[C@@H](C(=O)O)[C@H](C)C(=O)N[C@@H](CCCN=C(N)N)C(=O)N[C@@H](/C=C/C(C)=C/[C@H](C)[C@H](Cc2ccccc2)OC)[C@H](C)C(=O)N[C@@H](C(=O)O)CCC(=O)N1C
REMARK SMILES IDX 39 1 38 2 37 3 36 4 28 6 27 7 25 8 26 9 23 11 24 12 19 13
REMARK SMILES IDX 18 14 16 15 17 16 11 18 10 19 8 20 9 21 12 24 13 25 14 26
REMARK SMILES IDX 15 27 20 28 21 29 22 30 29 32 30 33 31 34 32 35 33 36 34 37
REMARK SMILES IDX 35 38 57 43 58 44 59 45 60 46 61 47 62 49 66 50 67 51 68 52
REMARK SMILES IDX 69 53 70 54 71 55 2 56 1 57 3 58 4 59 5 60 6 62 7 63 63 65
REMARK SMILES IDX 64 66 65 67 40 69 41 70 42 71 44 72 43 73 45 74 46 75 47 76
REMARK SMILES IDX 55 77 56 78 48 79 49 80 50 81 54 82 51 83 53 84 52 85
REMARK H PARENT 38 5 27 10 18 17 10 22 22 31 34 39 34 40 35 41 35 42 61 48
REMARK H PARENT 5 61 65 68
REMARK Flexibility Score:  369.900
ROOT
ATOM      1  C   UNL     1      15.777  -6.444  -5.970  1.00  0.00     0.117 C 
ENDROOT
BRANCH   1   2
ATOM      2  N   UNL     1      16.051  -7.406  -4.902  1.00  0.00    -0.347 N 
ATOM      3  O   UNL     1      17.697  -6.219  -3.829  1.00  0.00    -0.273 OA
ATOM      4  C   UNL     1      16.929  -7.174  -3.860  1.00  0.00     0.243 C 
ATOM      5  H   UNL     1      15.543  -8.277  -4.878  1.00  0.00     0.164 HD
BRANCH   4   6
ATOM      6  C   UNL     1      16.972  -8.319  -2.816  1.00  0.00     0.171 C 
BRANCH   6   7
ATOM      7  N   UNL     1      15.747  -8.316  -2.000  1.00  0.00    -0.344 N 
ATOM      8  C   UNL     1      15.715  -7.672  -0.782  1.00  0.00     0.226 C 
ATOM      9  O   UNL     1      16.691  -7.099  -0.313  1.00  0.00    -0.275 OA
ATOM     10  H   UNL     1      14.941  -8.837  -2.323  1.00  0.00     0.164 HD
BRANCH   8  11
ATOM     11  C   UNL     1      14.365  -7.714  -0.088  1.00  0.00     0.109 C 
ATOM     12  C   UNL     1      14.528  -8.209   1.350  1.00  0.00     0.021 C 
BRANCH  11  13
ATOM     13  C   UNL     1      13.664  -6.347  -0.227  1.00  0.00     0.204 C 
BRANCH  13  14
ATOM     14  N   UNL     1      14.612  -5.231  -0.147  1.00  0.00    -0.340 N 
ATOM     15  C   UNL     1      14.806  -4.496   1.003  1.00  0.00     0.243 C 
ATOM     16  O   UNL     1      14.242  -4.765   2.062  1.00  0.00    -0.273 OA
ATOM     17  H   UNL     1      14.995  -4.863  -1.021  1.00  0.00     0.164 HD
BRANCH  15  18
ATOM     18  C   UNL     1      15.693  -3.244   0.794  1.00  0.00     0.171 C 
BRANCH  18  19
ATOM     19  N   UNL     1      16.985  -3.539   1.410  1.00  0.00    -0.343 N 
ATOM     20  C   UNL     1      17.343  -3.015   2.637  1.00  0.00     0.242 CG0
ATOM     21  O   UNL     1      16.651  -2.173   3.205  1.00  0.00    -0.273 OA
ATOM     22  H   UNL     1      17.642  -4.139   0.925  1.00  0.00     0.164 HD
ATOM     23  G   UNL     1      18.710  -3.500   3.162  1.00  0.00     0.000 G0
ENDBRANCH  18  19
BRANCH  18  24
ATOM     24  C   UNL     1      15.842  -2.929  -0.700  1.00  0.00     0.038 C 
BRANCH  24  25
ATOM     25  C   UNL     1      17.229  -2.391  -1.110  1.00  0.00    -0.015 C 
ATOM     26  C   UNL     1      17.242  -0.871  -1.275  1.00  0.00     0.007 C 
ATOM     27  C   UNL     1      17.672  -3.054  -2.416  1.00  0.00     0.007 C 
ENDBRANCH  24  25
ENDBRANCH  18  24
ENDBRANCH  15  18
ENDBRANCH  13  14
BRANCH  13  28
ATOM     28  C   UNL     1      12.895  -6.196  -1.543  1.00  0.00     0.327 C 
ATOM     29  O   UNL     1      12.372  -5.173  -1.961  1.00  0.00    -0.250 OA
BRANCH  28  30
ATOM     30  O   UNL     1      12.727  -7.364  -2.195  1.00  0.00    -0.480 OA
ATOM     31  H   UNL     1      13.267  -7.266  -3.007  1.00  0.00     0.296 HD
ENDBRANCH  28  30
ENDBRANCH  13  28
ENDBRANCH  11  13
ENDBRANCH   8  11
ENDBRANCH   6   7
BRANCH   6  32
ATOM     32  C   UNL     1      17.143  -9.657  -3.542  1.00  0.00     0.037 C 
BRANCH  32  33
ATOM     33  C   UNL     1      17.590 -10.778  -2.593  1.00  0.00     0.026 C 
BRANCH  33  34
ATOM     34  C   UNL     1      18.426 -10.257  -1.424  1.00  0.00     0.146 C 
BRANCH  34  35
ATOM     35  N   UNL     1      18.032 -10.963  -0.213  1.00  0.00    -0.254 NA
ATOM     36  C   UNL     1      18.025 -10.323   0.897  1.00  0.00     0.185 C 
ATOM     37  N   UNL     1      17.659 -10.963   2.018  1.00  0.00    -0.370 N 
ATOM     38  N   UNL     1      18.343  -9.038   1.133  1.00  0.00    -0.370 N 
ATOM     39  H   UNL     1      17.394 -11.935   1.921  1.00  0.00     0.159 HD
ATOM     40  H   UNL     1      17.461 -10.495   2.886  1.00  0.00     0.159 HD
ATOM     41  H   UNL     1      18.432  -8.688   2.072  1.00  0.00     0.159 HD
ATOM     42  H   UNL     1      18.652  -8.440   0.382  1.00  0.00     0.159 HD
ENDBRANCH  34  35
ENDBRANCH  33  34
ENDBRANCH  32  33
ENDBRANCH   6  32
ENDBRANCH   4   6
ENDBRANCH   1   2
BRANCH   1  43
ATOM     43  C   UNL     1      14.238  -6.375  -6.191  1.00  0.00     0.102 C 
ATOM     44  C   UNL     1      13.530  -5.379  -5.256  1.00  0.00     0.020 C 
BRANCH  43  45
ATOM     45  C   UNL     1      13.618  -7.776  -6.190  1.00  0.00     0.225 C 
ATOM     46  O   UNL     1      13.917  -8.642  -7.007  1.00  0.00    -0.275 OA
ATOM     47  N   UNL     1      12.623  -7.983  -5.262  1.00  0.00    -0.342 N 
ATOM     48  H   UNL     1      12.497  -7.323  -4.508  1.00  0.00     0.164 HD
BRANCH  47  49
ATOM     49  C   UNL     1      11.965  -9.285  -5.122  1.00  0.00     0.192 C 
BRANCH  49  50
ATOM     50  C   UNL     1      10.528  -9.086  -4.633  1.00  0.00     0.047 C 
BRANCH  50  51
ATOM     51  C   UNL     1       9.653  -8.374  -5.674  1.00  0.00     0.103 C 
BRANCH  51  52
ATOM     52  C   UNL     1       9.288  -9.292  -6.840  1.00  0.00     0.226 C 
ATOM     53  O   UNL     1       8.938 -10.452  -6.617  1.00  0.00    -0.275 OA
BRANCH  52  54
ATOM     54  N   UNL     1       9.304  -8.712  -8.122  1.00  0.00    -0.311 N 
ATOM     55  C   UNL     1      10.569  -8.338  -8.768  1.00  0.00     0.153 C 
BRANCH  54  56
ATOM     56  C   UNL     1       8.115  -8.475  -8.833  1.00  0.00     0.102 C 
ATOM     57  C   UNL     1       7.131  -7.654  -8.433  1.00  0.00     0.043 C 
BRANCH  56  58
ATOM     58  C   UNL     1       7.874  -9.123 -10.177  1.00  0.00     0.268 C 
ATOM     59  O   UNL     1       8.212 -10.270 -10.437  1.00  0.00    -0.268 OA
ATOM     60  N   UNL     1       7.180  -8.317 -11.048  1.00  0.00    -0.339 N 
ATOM     61  H   UNL     1       6.946  -7.375 -10.759  1.00  0.00     0.164 HD
BRANCH  60  62
ATOM     62  C   UNL     1       6.786  -8.770 -12.381  1.00  0.00     0.168 CG0
ATOM     63  C   UNL     1       7.492  -7.963 -13.464  1.00  0.00     0.041 C 
ATOM     64  G   UNL     1       5.254  -8.663 -12.531  1.00  0.00     0.000 G0
ENDBRANCH  60  62
ENDBRANCH  56  58
ENDBRANCH  54  56
ENDBRANCH  52  54
ENDBRANCH  51  52
ENDBRANCH  50  51
ENDBRANCH  49  50
BRANCH  49  65
ATOM     65  C   UNL     1      12.715 -10.196  -4.138  1.00  0.00     0.326 C 
ATOM     66  O   UNL     1      13.631  -9.850  -3.406  1.00  0.00    -0.250 OA
BRANCH  65  67
ATOM     67  O   UNL     1      12.329 -11.491  -4.161  1.00  0.00    -0.480 OA
ATOM     68  H   UNL     1      13.164 -11.978  -4.334  1.00  0.00     0.296 HD
ENDBRANCH  65  67
ENDBRANCH  49  65
ENDBRANCH  47  49
ENDBRANCH  43  45
ENDBRANCH   1  43
BRANCH   1  69
ATOM     69  C   UNL     1      16.667  -6.838  -7.134  1.00  0.00    -0.001 C 
ATOM     70  C   UNL     1      17.983  -6.600  -7.273  1.00  0.00     0.001 C 
BRANCH  70  71
ATOM     71  C   UNL     1      18.837  -7.004  -8.392  1.00  0.00    -0.055 C 
ATOM     72  C   UNL     1      18.235  -7.492  -9.497  1.00  0.00    -0.018 C 
ATOM     73  C   UNL     1      20.326  -6.838  -8.235  1.00  0.00     0.044 C 
BRANCH  72  74
ATOM     74  C   UNL     1      18.857  -7.981 -10.797  1.00  0.00     0.038 C 
ATOM     75  C   UNL     1      19.133  -6.744 -11.660  1.00  0.00     0.015 C 
BRANCH  74  76
ATOM     76  C   UNL     1      17.906  -9.031 -11.444  1.00  0.00     0.128 C 
BRANCH  76  77
ATOM     77  O   UNL     1      18.629 -10.242 -11.722  1.00  0.00    -0.381 OA
ATOM     78  C   UNL     1      19.265 -10.802 -10.581  1.00  0.00     0.195 C 
ENDBRANCH  76  77
BRANCH  76  79
ATOM     79  C   UNL     1      16.604  -9.280 -10.641  1.00  0.00     0.068 C 
BRANCH  79  80
ATOM     80  C   UNL     1      15.344  -8.591 -11.106  1.00  0.00    -0.045 A 
ATOM     81  C   UNL     1      14.851  -7.461 -10.440  1.00  0.00     0.004 A 
ATOM     82  C   UNL     1      14.628  -9.092 -12.204  1.00  0.00     0.004 A 
ATOM     83  C   UNL     1      13.677  -6.838 -10.868  1.00  0.00     0.000 A 
ATOM     84  C   UNL     1      13.454  -8.468 -12.630  1.00  0.00     0.000 A 
ATOM     85  C   UNL     1      12.980  -7.341 -11.964  1.00  0.00     0.000 A 
ENDBRANCH  79  80
ENDBRANCH  76  79
ENDBRANCH  74  76
ENDBRANCH  72  74
ENDBRANCH  70  71
ENDBRANCH   1  69
TORSDOF 17
ENDMDL
MODEL 25
REMARK VINA RESULT:    -4.733     12.602     16.646
REMARK INTER + INTRA:         -22.534
REMARK INTER:                 -15.528
REMARK INTRA:                  -7.006
REMARK UNBOUND:                -8.394
REMARK SMILES C=C1C(=O)N[C@H](C)C(=O)N[C@@H](CC(C)C)C(=O)N[C@@H](C(=O)O)[C@H](C)C(=O)N[C@@H](CCCN=C(N)N)C(=O)N[C@@H](/C=C/C(C)=C/[C@H](C)[C@H](Cc2ccccc2)OC)[C@H](C)C(=O)N[C@@H](C(=O)O)CCC(=O)N1C
REMARK SMILES IDX 39 1 38 2 37 3 36 4 28 6 27 7 25 8 26 9 23 11 24 12 19 13
REMARK SMILES IDX 18 14 16 15 17 16 11 18 10 19 8 20 9 21 12 24 13 25 14 26
REMARK SMILES IDX 15 27 20 28 21 29 22 30 29 32 30 33 31 34 32 35 33 36 34 37
REMARK SMILES IDX 35 38 57 43 58 44 59 45 60 46 61 47 62 49 66 50 67 51 68 52
REMARK SMILES IDX 69 53 70 54 71 55 2 56 1 57 3 58 4 59 5 60 6 62 7 63 63 65
REMARK SMILES IDX 64 66 65 67 40 69 41 70 42 71 44 72 43 73 45 74 46 75 47 76
REMARK SMILES IDX 55 77 56 78 48 79 49 80 50 81 54 82 51 83 53 84 52 85
REMARK H PARENT 38 5 27 10 18 17 10 22 22 31 34 39 34 40 35 41 35 42 61 48
REMARK H PARENT 5 61 65 68
REMARK Flexibility Score:  369.900
ROOT
ATOM      1  C   UNL     1      13.928  -6.530  -7.188  1.00  0.00     0.117 C 
ENDROOT
BRANCH   1   2
ATOM      2  N   UNL     1      13.924  -7.112  -5.845  1.00  0.00    -0.347 N 
ATOM      3  O   UNL     1      13.870  -5.151  -4.654  1.00  0.00    -0.273 OA
ATOM      4  C   UNL     1      13.803  -6.375  -4.683  1.00  0.00     0.243 C 
ATOM      5  H   UNL     1      13.962  -8.115  -5.741  1.00  0.00     0.164 HD
BRANCH   4   6
ATOM      6  C   UNL     1      13.739  -7.242  -3.400  1.00  0.00     0.171 C 
BRANCH   6   7
ATOM      7  N   UNL     1      12.365  -7.716  -3.167  1.00  0.00    -0.344 N 
ATOM      8  C   UNL     1      11.493  -6.988  -2.388  1.00  0.00     0.226 C 
ATOM      9  O   UNL     1      11.814  -5.940  -1.840  1.00  0.00    -0.275 OA
ATOM     10  H   UNL     1      12.084  -8.611  -3.548  1.00  0.00     0.164 HD
BRANCH   8  11
ATOM     11  C   UNL     1      10.098  -7.581  -2.289  1.00  0.00     0.109 C 
ATOM     12  C   UNL     1       9.770  -8.369  -3.557  1.00  0.00     0.021 C 
BRANCH  11  13
ATOM     13  C   UNL     1       9.963  -8.379  -0.977  1.00  0.00     0.204 C 
BRANCH  13  14
ATOM     14  N   UNL     1      11.180  -8.312  -0.162  1.00  0.00    -0.340 N 
ATOM     15  C   UNL     1      11.671  -9.392   0.539  1.00  0.00     0.243 C 
ATOM     16  O   UNL     1      11.155 -10.506   0.482  1.00  0.00    -0.273 OA
ATOM     17  H   UNL     1      11.567  -7.388   0.048  1.00  0.00     0.164 HD
BRANCH  15  18
ATOM     18  C   UNL     1      12.841  -9.032   1.488  1.00  0.00     0.171 C 
BRANCH  18  19
ATOM     19  N   UNL     1      12.855 -10.048   2.539  1.00  0.00    -0.343 N 
ATOM     20  C   UNL     1      13.147  -9.735   3.852  1.00  0.00     0.242 CG0
ATOM     21  O   UNL     1      13.537  -8.615   4.175  1.00  0.00    -0.273 OA
ATOM     22  H   UNL     1      12.652 -11.013   2.301  1.00  0.00     0.164 HD
ATOM     23  G   UNL     1      13.035 -10.922   4.830  1.00  0.00     0.000 G0
ENDBRANCH  18  19
BRANCH  18  24
ATOM     24  C   UNL     1      14.169  -8.998   0.722  1.00  0.00     0.038 C 
BRANCH  24  25
ATOM     25  C   UNL     1      14.879 -10.364   0.601  1.00  0.00    -0.015 C 
ATOM     26  C   UNL     1      16.385 -10.263   0.841  1.00  0.00     0.007 C 
ATOM     27  C   UNL     1      14.617 -10.959  -0.785  1.00  0.00     0.007 C 
ENDBRANCH  24  25
ENDBRANCH  18  24
ENDBRANCH  15  18
ENDBRANCH  13  14
BRANCH  13  28
ATOM     28  C   UNL     1       8.802  -7.903  -0.098  1.00  0.00     0.327 C 
ATOM     29  O   UNL     1       8.209  -6.840  -0.197  1.00  0.00    -0.250 OA
BRANCH  28  30
ATOM     30  O   UNL     1       8.537  -8.739   0.927  1.00  0.00    -0.480 OA
ATOM     31  H   UNL     1       9.418  -9.065   1.206  1.00  0.00     0.296 HD
ENDBRANCH  28  30
ENDBRANCH  13  28
ENDBRANCH  11  13
ENDBRANCH   8  11
ENDBRANCH   6   7
BRANCH   6  32
ATOM     32  C   UNL     1      14.708  -8.420  -3.539  1.00  0.00     0.037 C 
BRANCH  32  33
ATOM     33  C   UNL     1      16.120  -8.071  -3.047  1.00  0.00     0.026 C 
BRANCH  33  34
ATOM     34  C   UNL     1      17.208  -8.849  -3.789  1.00  0.00     0.146 C 
BRANCH  34  35
ATOM     35  N   UNL     1      18.079  -9.486  -2.812  1.00  0.00    -0.254 NA
ATOM     36  C   UNL     1      17.940 -10.740  -2.590  1.00  0.00     0.185 C 
ATOM     37  N   UNL     1      18.741 -11.338  -1.695  1.00  0.00    -0.370 N 
ATOM     38  N   UNL     1      17.070 -11.604  -3.142  1.00  0.00    -0.370 N 
ATOM     39  H   UNL     1      19.432 -10.754  -1.242  1.00  0.00     0.159 HD
ATOM     40  H   UNL     1      18.813 -12.336  -1.592  1.00  0.00     0.159 HD
ATOM     41  H   UNL     1      16.965 -12.539  -2.782  1.00  0.00     0.159 HD
ATOM     42  H   UNL     1      16.396 -11.289  -3.821  1.00  0.00     0.159 HD
ENDBRANCH  34  35
ENDBRANCH  33  34
ENDBRANCH  32  33
ENDBRANCH   6  32
ENDBRANCH   4   6
ENDBRANCH   1   2
BRANCH   1  43
ATOM     43  C   UNL     1      12.652  -7.009  -7.939  1.00  0.00     0.102 C 
ATOM     44  C   UNL     1      12.037  -8.287  -7.346  1.00  0.00     0.020 C 
BRANCH  43  45
ATOM     45  C   UNL     1      12.897  -7.079  -9.449  1.00  0.00     0.225 C 
ATOM     46  O   UNL     1      13.116  -6.089 -10.141  1.00  0.00    -0.275 OA
ATOM     47  N   UNL     1      12.765  -8.328 -10.013  1.00  0.00    -0.342 N 
ATOM     48  H   UNL     1      12.737  -9.144  -9.419  1.00  0.00     0.164 HD
BRANCH  47  49
ATOM     49  C   UNL     1      13.005  -8.553 -11.442  1.00  0.00     0.192 C 
BRANCH  49  50
ATOM     50  C   UNL     1      11.850  -9.362 -12.036  1.00  0.00     0.047 C 
BRANCH  50  51
ATOM     51  C   UNL     1      10.570  -9.254 -11.196  1.00  0.00     0.103 C 
BRANCH  51  52
ATOM     52  C   UNL     1       9.396  -8.711 -12.007  1.00  0.00     0.226 C 
ATOM     53  O   UNL     1       9.605  -8.156 -13.087  1.00  0.00    -0.275 OA
BRANCH  52  54
ATOM     54  N   UNL     1       8.110  -8.954 -11.488  1.00  0.00    -0.311 N 
ATOM     55  C   UNL     1       7.696 -10.307 -11.097  1.00  0.00     0.153 C 
BRANCH  54  56
ATOM     56  C   UNL     1       7.180  -7.914 -11.321  1.00  0.00     0.102 C 
ATOM     57  C   UNL     1       7.177  -7.043 -10.298  1.00  0.00     0.043 C 
BRANCH  56  58
ATOM     58  C   UNL     1       6.100  -7.668 -12.347  1.00  0.00     0.268 C 
ATOM     59  O   UNL     1       4.908  -7.814 -12.113  1.00  0.00    -0.268 OA
ATOM     60  N   UNL     1       6.588  -7.201 -13.544  1.00  0.00    -0.339 N 
ATOM     61  H   UNL     1       7.591  -7.117 -13.662  1.00  0.00     0.164 HD
BRANCH  60  62
ATOM     62  C   UNL     1       5.710  -6.838 -14.656  1.00  0.00     0.168 CG0
ATOM     63  C   UNL     1       5.611  -7.974 -15.667  1.00  0.00     0.041 C 
ATOM     64  G   UNL     1       6.232  -5.552 -15.328  1.00  0.00     0.000 G0
ENDBRANCH  60  62
ENDBRANCH  56  58
ENDBRANCH  54  56
ENDBRANCH  52  54
ENDBRANCH  51  52
ENDBRANCH  50  51
ENDBRANCH  49  50
BRANCH  49  65
ATOM     65  C   UNL     1      14.327  -9.298 -11.683  1.00  0.00     0.326 C 
ATOM     66  O   UNL     1      14.504 -10.179 -12.513  1.00  0.00    -0.250 OA
BRANCH  65  67
ATOM     67  O   UNL     1      15.330  -8.954 -10.846  1.00  0.00    -0.480 OA
ATOM     68  H   UNL     1      15.841  -8.290 -11.358  1.00  0.00     0.296 HD
ENDBRANCH  65  67
ENDBRANCH  49  65
ENDBRANCH  47  49
ENDBRANCH  43  45
ENDBRANCH   1  43
BRANCH   1  69
ATOM     69  C   UNL     1      15.290  -6.843  -7.781  1.00  0.00    -0.001 C 
ATOM     70  C   UNL     1      16.477  -6.838  -7.150  1.00  0.00     0.001 C 
BRANCH  70  71
ATOM     71  C   UNL     1      17.782  -7.163  -7.729  1.00  0.00    -0.055 C 
ATOM     72  C   UNL     1      17.882  -7.193  -9.074  1.00  0.00    -0.018 C 
ATOM     73  C   UNL     1      18.923  -7.431  -6.782  1.00  0.00     0.044 C 
BRANCH  72  74
ATOM     74  C   UNL     1      19.095  -7.493  -9.944  1.00  0.00     0.038 C 
ATOM     75  C   UNL     1      19.249  -6.324 -10.924  1.00  0.00     0.015 C 
BRANCH  74  76
ATOM     76  C   UNL     1      18.900  -8.885 -10.613  1.00  0.00     0.128 C 
BRANCH  76  77
ATOM     77  O   UNL     1      19.378  -8.850 -11.968  1.00  0.00    -0.381 OA
ATOM     78  C   UNL     1      20.163  -9.979 -12.326  1.00  0.00     0.195 C 
ENDBRANCH  76  77
BRANCH  76  79
ATOM     79  C   UNL     1      19.491 -10.063  -9.799  1.00  0.00     0.068 C 
BRANCH  79  80
ATOM     80  C   UNL     1      18.534 -11.089  -9.243  1.00  0.00    -0.045 A 
ATOM     81  C   UNL     1      17.357 -10.700  -8.590  1.00  0.00     0.004 A 
ATOM     82  C   UNL     1      18.825 -12.458  -9.347  1.00  0.00     0.004 A 
ATOM     83  C   UNL     1      16.483 -11.655  -8.066  1.00  0.00     0.000 A 
ATOM     84  C   UNL     1      17.951 -13.412  -8.821  1.00  0.00     0.000 A 
ATOM     85  C   UNL     1      16.780 -13.011  -8.183  1.00  0.00     0.000 A 
ENDBRANCH  79  80
ENDBRANCH  76  79
ENDBRANCH  74  76
ENDBRANCH  72  74
ENDBRANCH  70  71
ENDBRANCH   1  69
TORSDOF 17
ENDMDL
MODEL 26
REMARK VINA RESULT:    -4.728     12.292     17.947
REMARK INTER + INTRA:         -22.520
REMARK INTER:                 -13.983
REMARK INTRA:                  -8.537
REMARK UNBOUND:                -8.394
REMARK SMILES C=C1C(=O)N[C@H](C)C(=O)N[C@@H](CC(C)C)C(=O)N[C@@H](C(=O)O)[C@H](C)C(=O)N[C@@H](CCCN=C(N)N)C(=O)N[C@@H](/C=C/C(C)=C/[C@H](C)[C@H](Cc2ccccc2)OC)[C@H](C)C(=O)N[C@@H](C(=O)O)CCC(=O)N1C
REMARK SMILES IDX 39 1 38 2 37 3 36 4 28 6 27 7 25 8 26 9 23 11 24 12 19 13
REMARK SMILES IDX 18 14 16 15 17 16 11 18 10 19 8 20 9 21 12 24 13 25 14 26
REMARK SMILES IDX 15 27 20 28 21 29 22 30 29 32 30 33 31 34 32 35 33 36 34 37
REMARK SMILES IDX 35 38 57 43 58 44 59 45 60 46 61 47 62 49 66 50 67 51 68 52
REMARK SMILES IDX 69 53 70 54 71 55 2 56 1 57 3 58 4 59 5 60 6 62 7 63 63 65
REMARK SMILES IDX 64 66 65 67 40 69 41 70 42 71 44 72 43 73 45 74 46 75 47 76
REMARK SMILES IDX 55 77 56 78 48 79 49 80 50 81 54 82 51 83 53 84 52 85
REMARK H PARENT 38 5 27 10 18 17 10 22 22 31 34 39 34 40 35 41 35 42 61 48
REMARK H PARENT 5 61 65 68
REMARK Flexibility Score:  369.900
ROOT
ATOM      1  C   UNL     1      12.945  -8.118 -11.496  1.00  0.00     0.117 C 
ENDROOT
BRANCH   1   2
ATOM      2  N   UNL     1      12.518  -8.836 -10.295  1.00  0.00    -0.347 N 
ATOM      3  O   UNL     1      11.980  -7.008  -9.014  1.00  0.00    -0.273 OA
ATOM      4  C   UNL     1      11.981  -8.223  -9.178  1.00  0.00     0.243 C 
ATOM      5  H   UNL     1      12.564  -9.843 -10.278  1.00  0.00     0.164 HD
BRANCH   4   6
ATOM      6  C   UNL     1      11.530  -9.218  -8.078  1.00  0.00     0.171 C 
BRANCH   6   7
ATOM      7  N   UNL     1      12.632 -10.127  -7.724  1.00  0.00    -0.344 N 
ATOM      8  C   UNL     1      13.813  -9.635  -7.213  1.00  0.00     0.226 C 
ATOM      9  O   UNL     1      14.014  -8.437  -7.051  1.00  0.00    -0.275 OA
ATOM     10  H   UNL     1      12.529 -11.117  -7.907  1.00  0.00     0.164 HD
BRANCH   8  11
ATOM     11  C   UNL     1      14.829 -10.702  -6.847  1.00  0.00     0.109 C 
ATOM     12  C   UNL     1      16.192 -10.359  -7.448  1.00  0.00     0.021 C 
BRANCH  11  13
ATOM     13  C   UNL     1      14.830 -10.920  -5.321  1.00  0.00     0.204 C 
BRANCH  13  14
ATOM     14  N   UNL     1      14.480  -9.698  -4.589  1.00  0.00    -0.340 N 
ATOM     15  C   UNL     1      15.414  -8.924  -3.935  1.00  0.00     0.243 C 
ATOM     16  O   UNL     1      16.618  -9.171  -3.970  1.00  0.00    -0.273 OA
ATOM     17  H   UNL     1      13.490  -9.522  -4.394  1.00  0.00     0.164 HD
BRANCH  15  18
ATOM     18  C   UNL     1      14.790  -7.808  -3.062  1.00  0.00     0.171 C 
BRANCH  18  19
ATOM     19  N   UNL     1      15.063  -8.162  -1.671  1.00  0.00    -0.343 N 
ATOM     20  C   UNL     1      14.419  -9.213  -1.046  1.00  0.00     0.242 CG0
ATOM     21  O   UNL     1      13.494  -9.813  -1.587  1.00  0.00    -0.273 OA
ATOM     22  H   UNL     1      15.738  -7.620  -1.143  1.00  0.00     0.164 HD
ATOM     23  G   UNL     1      14.895  -9.485   0.396  1.00  0.00     0.000 G0
ENDBRANCH  18  19
BRANCH  18  24
ATOM     24  C   UNL     1      15.387  -6.442  -3.422  1.00  0.00     0.038 C 
BRANCH  24  25
ATOM     25  C   UNL     1      14.346  -5.346  -3.737  1.00  0.00    -0.015 C 
ATOM     26  C   UNL     1      13.145  -5.391  -2.792  1.00  0.00     0.007 C 
ATOM     27  C   UNL     1      13.869  -5.490  -5.184  1.00  0.00     0.007 C 
ENDBRANCH  24  25
ENDBRANCH  18  24
ENDBRANCH  15  18
ENDBRANCH  13  14
BRANCH  13  28
ATOM     28  C   UNL     1      13.859 -12.015  -4.867  1.00  0.00     0.327 C 
ATOM     29  O   UNL     1      13.044 -12.594  -5.568  1.00  0.00    -0.250 OA
BRANCH  28  30
ATOM     30  O   UNL     1      13.890 -12.230  -3.536  1.00  0.00    -0.480 OA
ATOM     31  H   UNL     1      14.824 -12.462  -3.351  1.00  0.00     0.296 HD
ENDBRANCH  28  30
ENDBRANCH  13  28
ENDBRANCH  11  13
ENDBRANCH   8  11
ENDBRANCH   6   7
BRANCH   6  32
ATOM     32  C   UNL     1      11.055  -8.430  -6.852  1.00  0.00     0.037 C 
BRANCH  32  33
ATOM     33  C   UNL     1       9.524  -8.340  -6.779  1.00  0.00     0.026 C 
BRANCH  33  34
ATOM     34  C   UNL     1       8.931  -9.297  -5.745  1.00  0.00     0.146 C 
BRANCH  34  35
ATOM     35  N   UNL     1       9.863  -9.424  -4.633  1.00  0.00    -0.254 NA
ATOM     36  C   UNL     1      10.372 -10.573  -4.386  1.00  0.00     0.185 C 
ATOM     37  N   UNL     1      11.236 -10.701  -3.367  1.00  0.00    -0.370 N 
ATOM     38  N   UNL     1      10.169 -11.741  -5.021  1.00  0.00    -0.370 N 
ATOM     39  H   UNL     1      11.449  -9.861  -2.845  1.00  0.00     0.159 HD
ATOM     40  H   UNL     1      11.804 -11.517  -3.219  1.00  0.00     0.159 HD
ATOM     41  H   UNL     1      10.520 -12.606  -4.646  1.00  0.00     0.159 HD
ATOM     42  H   UNL     1       9.530 -11.797  -5.799  1.00  0.00     0.159 HD
ENDBRANCH  34  35
ENDBRANCH  33  34
ENDBRANCH  32  33
ENDBRANCH   6  32
ENDBRANCH   4   6
ENDBRANCH   1   2
BRANCH   1  43
ATOM     43  C   UNL     1      12.072  -8.594 -12.693  1.00  0.00     0.102 C 
ATOM     44  C   UNL     1      11.991  -7.569 -13.837  1.00  0.00     0.020 C 
BRANCH  43  45
ATOM     45  C   UNL     1      10.708  -9.098 -12.213  1.00  0.00     0.225 C 
ATOM     46  O   UNL     1      10.521 -10.239 -11.800  1.00  0.00    -0.275 OA
ATOM     47  N   UNL     1       9.664  -8.213 -12.359  1.00  0.00    -0.342 N 
ATOM     48  H   UNL     1       9.856  -7.240 -12.553  1.00  0.00     0.164 HD
BRANCH  47  49
ATOM     49  C   UNL     1       8.309  -8.546 -11.910  1.00  0.00     0.192 C 
BRANCH  49  50
ATOM     50  C   UNL     1       7.313  -7.538 -12.490  1.00  0.00     0.047 C 
BRANCH  50  51
ATOM     51  C   UNL     1       5.861  -8.025 -12.378  1.00  0.00     0.103 C 
BRANCH  51  52
ATOM     52  C   UNL     1       5.585  -9.220 -13.288  1.00  0.00     0.226 C 
ATOM     53  O   UNL     1       5.130 -10.260 -12.808  1.00  0.00    -0.275 OA
BRANCH  52  54
ATOM     54  N   UNL     1       5.804  -9.024 -14.664  1.00  0.00    -0.311 N 
ATOM     55  C   UNL     1       6.759  -9.860 -15.404  1.00  0.00     0.153 C 
BRANCH  54  56
ATOM     56  C   UNL     1       5.117  -8.030 -15.381  1.00  0.00     0.102 C 
ATOM     57  C   UNL     1       5.621  -6.827 -15.702  1.00  0.00     0.043 C 
BRANCH  56  58
ATOM     58  C   UNL     1       3.720  -8.275 -15.901  1.00  0.00     0.268 C 
ATOM     59  O   UNL     1       2.960  -9.102 -15.415  1.00  0.00    -0.268 OA
ATOM     60  N   UNL     1       3.370  -7.431 -16.927  1.00  0.00    -0.339 N 
ATOM     61  H   UNL     1       4.061  -6.780 -17.280  1.00  0.00     0.164 HD
BRANCH  60  62
ATOM     62  C   UNL     1       2.040  -7.455 -17.536  1.00  0.00     0.168 CG0
ATOM     63  C   UNL     1       1.107  -6.465 -16.850  1.00  0.00     0.041 C 
ATOM     64  G   UNL     1       1.466  -8.885 -17.468  1.00  0.00     0.000 G0
ENDBRANCH  60  62
ENDBRANCH  56  58
ENDBRANCH  54  56
ENDBRANCH  52  54
ENDBRANCH  51  52
ENDBRANCH  50  51
ENDBRANCH  49  50
BRANCH  49  65
ATOM     65  C   UNL     1       8.203  -8.540 -10.377  1.00  0.00     0.326 C 
ATOM     66  O   UNL     1       8.086  -7.546  -9.676  1.00  0.00    -0.250 OA
BRANCH  65  67
ATOM     67  O   UNL     1       8.308  -9.758  -9.800  1.00  0.00    -0.480 OA
ATOM     68  H   UNL     1       8.407 -10.368 -10.563  1.00  0.00     0.296 HD
ENDBRANCH  65  67
ENDBRANCH  49  65
ENDBRANCH  47  49
ENDBRANCH  43  45
ENDBRANCH   1  43
BRANCH   1  69
ATOM     69  C   UNL     1      14.452  -8.284 -11.576  1.00  0.00    -0.001 C 
ATOM     70  C   UNL     1      15.133  -9.316 -12.105  1.00  0.00     0.001 C 
BRANCH  70  71
ATOM     71  C   UNL     1      16.588  -9.455 -12.195  1.00  0.00    -0.055 C 
ATOM     72  C   UNL     1      17.286  -9.507 -11.042  1.00  0.00    -0.018 C 
ATOM     73  C   UNL     1      17.201  -9.540 -13.569  1.00  0.00     0.044 C 
BRANCH  72  74
ATOM     74  C   UNL     1      18.787  -9.649 -10.830  1.00  0.00     0.038 C 
ATOM     75  C   UNL     1      18.987 -10.503  -9.572  1.00  0.00     0.015 C 
BRANCH  74  76
ATOM     76  C   UNL     1      19.421  -8.228 -10.763  1.00  0.00     0.128 C 
BRANCH  76  77
ATOM     77  O   UNL     1      19.981  -7.880 -12.039  1.00  0.00    -0.381 OA
ATOM     78  C   UNL     1      19.494  -6.650 -12.561  1.00  0.00     0.195 C 
ENDBRANCH  76  77
BRANCH  76  79
ATOM     79  C   UNL     1      18.467  -7.140 -10.209  1.00  0.00     0.068 C 
BRANCH  79  80
ATOM     80  C   UNL     1      18.357  -6.991  -8.711  1.00  0.00    -0.045 A 
ATOM     81  C   UNL     1      19.500  -6.964  -7.902  1.00  0.00     0.004 A 
ATOM     82  C   UNL     1      17.097  -6.906  -8.100  1.00  0.00     0.004 A 
ATOM     83  C   UNL     1      19.389  -6.841  -6.515  1.00  0.00     0.000 A 
ATOM     84  C   UNL     1      16.986  -6.784  -6.713  1.00  0.00     0.000 A 
ATOM     85  C   UNL     1      18.132  -6.750  -5.921  1.00  0.00     0.000 A 
ENDBRANCH  79  80
ENDBRANCH  76  79
ENDBRANCH  74  76
ENDBRANCH  72  74
ENDBRANCH  70  71
ENDBRANCH   1  69
TORSDOF 17
ENDMDL
MODEL 27
REMARK VINA RESULT:    -4.723     11.581     16.349
REMARK INTER + INTRA:         -22.504
REMARK INTER:                 -12.985
REMARK INTRA:                  -9.519
REMARK UNBOUND:                -8.394
REMARK SMILES C=C1C(=O)N[C@H](C)C(=O)N[C@@H](CC(C)C)C(=O)N[C@@H](C(=O)O)[C@H](C)C(=O)N[C@@H](CCCN=C(N)N)C(=O)N[C@@H](/C=C/C(C)=C/[C@H](C)[C@H](Cc2ccccc2)OC)[C@H](C)C(=O)N[C@@H](C(=O)O)CCC(=O)N1C
REMARK SMILES IDX 39 1 38 2 37 3 36 4 28 6 27 7 25 8 26 9 23 11 24 12 19 13
REMARK SMILES IDX 18 14 16 15 17 16 11 18 10 19 8 20 9 21 12 24 13 25 14 26
REMARK SMILES IDX 15 27 20 28 21 29 22 30 29 32 30 33 31 34 32 35 33 36 34 37
REMARK SMILES IDX 35 38 57 43 58 44 59 45 60 46 61 47 62 49 66 50 67 51 68 52
REMARK SMILES IDX 69 53 70 54 71 55 2 56 1 57 3 58 4 59 5 60 6 62 7 63 63 65
REMARK SMILES IDX 64 66 65 67 40 69 41 70 42 71 44 72 43 73 45 74 46 75 47 76
REMARK SMILES IDX 55 77 56 78 48 79 49 80 50 81 54 82 51 83 53 84 52 85
REMARK H PARENT 38 5 27 10 18 17 10 22 22 31 34 39 34 40 35 41 35 42 61 48
REMARK H PARENT 5 61 65 68
REMARK Flexibility Score:  369.900
ROOT
ATOM      1  C   UNL     1      16.619  -7.544  -7.918  1.00  0.00     0.117 C 
ENDROOT
BRANCH   1   2
ATOM      2  N   UNL     1      15.385  -7.418  -8.694  1.00  0.00    -0.347 N 
ATOM      3  O   UNL     1      16.293  -6.463 -10.574  1.00  0.00    -0.273 OA
ATOM      4  C   UNL     1      15.335  -6.970 -10.000  1.00  0.00     0.243 C 
ATOM      5  H   UNL     1      14.512  -7.718  -8.287  1.00  0.00     0.164 HD
BRANCH   4   6
ATOM      6  C   UNL     1      13.915  -7.015 -10.620  1.00  0.00     0.171 C 
BRANCH   6   7
ATOM      7  N   UNL     1      13.610  -8.369 -11.109  1.00  0.00    -0.344 N 
ATOM      8  C   UNL     1      13.039  -8.557 -12.349  1.00  0.00     0.226 C 
ATOM      9  O   UNL     1      12.741  -7.625 -13.086  1.00  0.00    -0.275 OA
ATOM     10  H   UNL     1      13.780  -9.160 -10.500  1.00  0.00     0.164 HD
BRANCH   8  11
ATOM     11  C   UNL     1      12.836 -10.013 -12.731  1.00  0.00     0.109 C 
ATOM     12  C   UNL     1      13.385 -10.925 -11.634  1.00  0.00     0.021 C 
BRANCH  11  13
ATOM     13  C   UNL     1      11.358 -10.255 -13.097  1.00  0.00     0.204 C 
BRANCH  13  14
ATOM     14  N   UNL     1      10.466  -9.282 -12.460  1.00  0.00    -0.340 N 
ATOM     15  C   UNL     1       9.666  -9.593 -11.382  1.00  0.00     0.243 C 
ATOM     16  O   UNL     1       9.691 -10.695 -10.838  1.00  0.00    -0.273 OA
ATOM     17  H   UNL     1      10.286  -8.402 -12.951  1.00  0.00     0.164 HD
BRANCH  15  18
ATOM     18  C   UNL     1       8.661  -8.474 -11.014  1.00  0.00     0.171 C 
BRANCH  18  19
ATOM     19  N   UNL     1       7.398  -8.815 -11.665  1.00  0.00    -0.343 N 
ATOM     20  C   UNL     1       6.802  -7.975 -12.585  1.00  0.00     0.242 CG0
ATOM     21  O   UNL     1       7.235  -6.846 -12.800  1.00  0.00    -0.273 OA
ATOM     22  H   UNL     1       6.939  -9.690 -11.433  1.00  0.00     0.164 HD
ATOM     23  G   UNL     1       5.516  -8.540 -13.224  1.00  0.00     0.000 G0
ENDBRANCH  18  19
BRANCH  18  24
ATOM     24  C   UNL     1       8.499  -8.370  -9.492  1.00  0.00     0.038 C 
BRANCH  24  25
ATOM     25  C   UNL     1       7.059  -8.090  -9.015  1.00  0.00    -0.015 C 
ATOM     26  C   UNL     1       6.741  -6.595  -8.961  1.00  0.00     0.007 C 
ATOM     27  C   UNL     1       6.844  -8.713  -7.633  1.00  0.00     0.007 C 
ENDBRANCH  24  25
ENDBRANCH  18  24
ENDBRANCH  15  18
ENDBRANCH  13  14
BRANCH  13  28
ATOM     28  C   UNL     1      11.092 -10.197 -14.604  1.00  0.00     0.327 C 
ATOM     29  O   UNL     1      10.087 -10.589 -15.176  1.00  0.00    -0.250 OA
BRANCH  28  30
ATOM     30  O   UNL     1      12.154  -9.760 -15.312  1.00  0.00    -0.480 OA
ATOM     31  H   UNL     1      12.863 -10.404 -15.104  1.00  0.00     0.296 HD
ENDBRANCH  28  30
ENDBRANCH  13  28
ENDBRANCH  11  13
ENDBRANCH   8  11
ENDBRANCH   6   7
BRANCH   6  32
ATOM     32  C   UNL     1      12.892  -6.569  -9.570  1.00  0.00     0.037 C 
BRANCH  32  33
ATOM     33  C   UNL     1      12.053  -7.741  -9.043  1.00  0.00     0.026 C 
BRANCH  33  34
ATOM     34  C   UNL     1      12.090  -7.849  -7.518  1.00  0.00     0.146 C 
BRANCH  34  35
ATOM     35  N   UNL     1      10.884  -8.531  -7.067  1.00  0.00    -0.254 NA
ATOM     36  C   UNL     1      10.940  -9.789  -6.836  1.00  0.00     0.185 C 
ATOM     37  N   UNL     1       9.837 -10.426  -6.414  1.00  0.00    -0.370 N 
ATOM     38  N   UNL     1      11.988 -10.624  -6.953  1.00  0.00    -0.370 N 
ATOM     39  H   UNL     1       9.006  -9.862  -6.290  1.00  0.00     0.159 HD
ATOM     40  H   UNL     1       9.841 -11.363  -6.048  1.00  0.00     0.159 HD
ATOM     41  H   UNL     1      11.871 -11.621  -6.876  1.00  0.00     0.159 HD
ATOM     42  H   UNL     1      12.880 -10.285  -7.277  1.00  0.00     0.159 HD
ENDBRANCH  34  35
ENDBRANCH  33  34
ENDBRANCH  32  33
ENDBRANCH   6  32
ENDBRANCH   4   6
ENDBRANCH   1   2
BRANCH   1  43
ATOM     43  C   UNL     1      17.042  -9.042  -7.899  1.00  0.00     0.102 C 
ATOM     44  C   UNL     1      17.648  -9.523  -9.228  1.00  0.00     0.020 C 
BRANCH  43  45
ATOM     45  C   UNL     1      15.906  -9.927  -7.378  1.00  0.00     0.225 C 
ATOM     46  O   UNL     1      14.839 -10.068  -7.969  1.00  0.00    -0.275 OA
ATOM     47  N   UNL     1      16.116 -10.492  -6.140  1.00  0.00    -0.342 N 
ATOM     48  H   UNL     1      17.045 -10.492  -5.742  1.00  0.00     0.164 HD
BRANCH  47  49
ATOM     49  C   UNL     1      15.132 -11.391  -5.532  1.00  0.00     0.192 C 
BRANCH  49  50
ATOM     50  C   UNL     1      15.142 -11.211  -4.011  1.00  0.00     0.047 C 
BRANCH  50  51
ATOM     51  C   UNL     1      16.535 -11.433  -3.408  1.00  0.00     0.103 C 
BRANCH  51  52
ATOM     52  C   UNL     1      17.109 -10.153  -2.804  1.00  0.00     0.226 C 
ATOM     53  O   UNL     1      16.983  -9.085  -3.406  1.00  0.00    -0.275 OA
BRANCH  52  54
ATOM     54  N   UNL     1      17.693 -10.269  -1.529  1.00  0.00    -0.311 N 
ATOM     55  C   UNL     1      19.119 -10.590  -1.377  1.00  0.00     0.153 C 
BRANCH  54  56
ATOM     56  C   UNL     1      16.941 -10.077  -0.358  1.00  0.00     0.102 C 
ATOM     57  C   UNL     1      15.600 -10.018  -0.307  1.00  0.00     0.043 C 
BRANCH  56  58
ATOM     58  C   UNL     1      17.618  -9.964   0.988  1.00  0.00     0.268 C 
ATOM     59  O   UNL     1      17.848 -10.928   1.705  1.00  0.00    -0.268 OA
ATOM     60  N   UNL     1      18.005  -8.680   1.292  1.00  0.00    -0.339 N 
ATOM     61  H   UNL     1      17.767  -7.935   0.649  1.00  0.00     0.164 HD
BRANCH  60  62
ATOM     62  C   UNL     1      18.732  -8.356   2.518  1.00  0.00     0.168 CG0
ATOM     63  C   UNL     1      19.992  -7.556   2.211  1.00  0.00     0.041 C 
ATOM     64  G   UNL     1      19.080  -9.656   3.272  1.00  0.00     0.000 G0
ENDBRANCH  60  62
ENDBRANCH  56  58
ENDBRANCH  54  56
ENDBRANCH  52  54
ENDBRANCH  51  52
ENDBRANCH  50  51
ENDBRANCH  49  50
BRANCH  49  65
ATOM     65  C   UNL     1      15.420 -12.862  -5.872  1.00  0.00     0.326 C 
ATOM     66  O   UNL     1      16.281 -13.257  -6.645  1.00  0.00    -0.250 OA
BRANCH  65  67
ATOM     67  O   UNL     1      14.589 -13.750  -5.284  1.00  0.00    -0.480 OA
ATOM     68  H   UNL     1      14.603 -13.489  -4.338  1.00  0.00     0.296 HD
ENDBRANCH  65  67
ENDBRANCH  49  65
ENDBRANCH  47  49
ENDBRANCH  43  45
ENDBRANCH   1  43
BRANCH   1  69
ATOM     69  C   UNL     1      16.365  -6.837  -6.600  1.00  0.00    -0.001 C 
ATOM     70  C   UNL     1      15.183  -6.422  -6.110  1.00  0.00     0.001 C 
BRANCH  70  71
ATOM     71  C   UNL     1      14.947  -5.760  -4.825  1.00  0.00    -0.055 C 
ATOM     72  C   UNL     1      15.888  -5.896  -3.867  1.00  0.00    -0.018 C 
ATOM     73  C   UNL     1      13.676  -4.967  -4.667  1.00  0.00     0.044 C 
BRANCH  72  74
ATOM     74  C   UNL     1      15.915  -5.326  -2.456  1.00  0.00     0.038 C 
ATOM     75  C   UNL     1      17.328  -4.782  -2.214  1.00  0.00     0.015 C 
BRANCH  74  76
ATOM     76  C   UNL     1      15.462  -6.434  -1.459  1.00  0.00     0.128 C 
BRANCH  76  77
ATOM     77  O   UNL     1      16.361  -6.484  -0.339  1.00  0.00    -0.381 OA
ATOM     78  C   UNL     1      15.767  -6.086   0.889  1.00  0.00     0.195 C 
ENDBRANCH  76  77
BRANCH  76  79
ATOM     79  C   UNL     1      13.977  -6.327  -1.031  1.00  0.00     0.068 C 
BRANCH  79  80
ATOM     80  C   UNL     1      12.948  -7.058  -1.859  1.00  0.00    -0.045 A 
ATOM     81  C   UNL     1      11.600  -6.675  -1.839  1.00  0.00     0.004 A 
ATOM     82  C   UNL     1      13.324  -8.159  -2.644  1.00  0.00     0.004 A 
ATOM     83  C   UNL     1      10.652  -7.366  -2.597  1.00  0.00     0.000 A 
ATOM     84  C   UNL     1      12.375  -8.849  -3.401  1.00  0.00     0.000 A 
ATOM     85  C   UNL     1      11.040  -8.452  -3.379  1.00  0.00     0.000 A 
ENDBRANCH  79  80
ENDBRANCH  76  79
ENDBRANCH  74  76
ENDBRANCH  72  74
ENDBRANCH  70  71
ENDBRANCH   1  69
TORSDOF 17
ENDMDL
MODEL 28
REMARK VINA RESULT:    -4.703     11.952     16.800
REMARK INTER + INTRA:         -22.445
REMARK INTER:                 -14.177
REMARK INTRA:                  -8.267
REMARK UNBOUND:                -8.394
REMARK SMILES C=C1C(=O)N[C@H](C)C(=O)N[C@@H](CC(C)C)C(=O)N[C@@H](C(=O)O)[C@H](C)C(=O)N[C@@H](CCCN=C(N)N)C(=O)N[C@@H](/C=C/C(C)=C/[C@H](C)[C@H](Cc2ccccc2)OC)[C@H](C)C(=O)N[C@@H](C(=O)O)CCC(=O)N1C
REMARK SMILES IDX 39 1 38 2 37 3 36 4 28 6 27 7 25 8 26 9 23 11 24 12 19 13
REMARK SMILES IDX 18 14 16 15 17 16 11 18 10 19 8 20 9 21 12 24 13 25 14 26
REMARK SMILES IDX 15 27 20 28 21 29 22 30 29 32 30 33 31 34 32 35 33 36 34 37
REMARK SMILES IDX 35 38 57 43 58 44 59 45 60 46 61 47 62 49 66 50 67 51 68 52
REMARK SMILES IDX 69 53 70 54 71 55 2 56 1 57 3 58 4 59 5 60 6 62 7 63 63 65
REMARK SMILES IDX 64 66 65 67 40 69 41 70 42 71 44 72 43 73 45 74 46 75 47 76
REMARK SMILES IDX 55 77 56 78 48 79 49 80 50 81 54 82 51 83 53 84 52 85
REMARK H PARENT 38 5 27 10 18 17 10 22 22 31 34 39 34 40 35 41 35 42 61 48
REMARK H PARENT 5 61 65 68
REMARK Flexibility Score:  369.900
ROOT
ATOM      1  C   UNL     1      14.350  -6.911  -8.548  1.00  0.00     0.117 C 
ENDROOT
BRANCH   1   2
ATOM      2  N   UNL     1      14.332  -7.174  -7.108  1.00  0.00    -0.347 N 
ATOM      3  O   UNL     1      13.493  -5.148  -6.430  1.00  0.00    -0.273 OA
ATOM      4  C   UNL     1      13.817  -6.301  -6.169  1.00  0.00     0.243 C 
ATOM      5  H   UNL     1      14.665  -8.061  -6.763  1.00  0.00     0.164 HD
BRANCH   4   6
ATOM      6  C   UNL     1      13.839  -6.858  -4.723  1.00  0.00     0.171 C 
BRANCH   6   7
ATOM      7  N   UNL     1      14.555  -8.143  -4.677  1.00  0.00    -0.344 N 
ATOM      8  C   UNL     1      13.967  -9.254  -4.113  1.00  0.00     0.226 C 
ATOM      9  O   UNL     1      12.850  -9.227  -3.609  1.00  0.00    -0.275 OA
ATOM     10  H   UNL     1      15.505  -8.188  -5.023  1.00  0.00     0.164 HD
BRANCH   8  11
ATOM     11  C   UNL     1      14.810 -10.515  -4.192  1.00  0.00     0.109 C 
ATOM     12  C   UNL     1      16.018 -10.285  -5.100  1.00  0.00     0.021 C 
BRANCH  11  13
ATOM     13  C   UNL     1      15.151 -11.005  -2.770  1.00  0.00     0.204 C 
BRANCH  13  14
ATOM     14  N   UNL     1      15.027  -9.936  -1.775  1.00  0.00    -0.340 N 
ATOM     15  C   UNL     1      15.777  -9.899  -0.619  1.00  0.00     0.243 C 
ATOM     16  O   UNL     1      16.649 -10.730  -0.371  1.00  0.00    -0.273 OA
ATOM     17  H   UNL     1      14.225  -9.304  -1.845  1.00  0.00     0.164 HD
BRANCH  15  18
ATOM     18  C   UNL     1      15.330  -8.798   0.374  1.00  0.00     0.171 C 
BRANCH  18  19
ATOM     19  N   UNL     1      16.466  -7.894   0.536  1.00  0.00    -0.343 N 
ATOM     20  C   UNL     1      17.250  -7.904   1.673  1.00  0.00     0.242 CG0
ATOM     21  O   UNL     1      16.950  -8.580   2.655  1.00  0.00    -0.273 OA
ATOM     22  H   UNL     1      16.686  -7.234  -0.202  1.00  0.00     0.164 HD
ATOM     23  G   UNL     1      18.449  -6.935   1.630  1.00  0.00     0.000 G0
ENDBRANCH  18  19
BRANCH  18  24
ATOM     24  C   UNL     1      14.095  -8.060  -0.156  1.00  0.00     0.038 C 
BRANCH  24  25
ATOM     25  C   UNL     1      12.854  -8.141   0.758  1.00  0.00    -0.015 C 
ATOM     26  C   UNL     1      13.217  -8.104   2.243  1.00  0.00     0.007 C 
ATOM     27  C   UNL     1      12.071  -9.421   0.451  1.00  0.00     0.007 C 
ENDBRANCH  24  25
ENDBRANCH  18  24
ENDBRANCH  15  18
ENDBRANCH  13  14
BRANCH  13  28
ATOM     28  C   UNL     1      14.266 -12.165  -2.303  1.00  0.00     0.327 C 
ATOM     29  O   UNL     1      14.598 -13.337  -2.217  1.00  0.00    -0.250 OA
BRANCH  28  30
ATOM     30  O   UNL     1      12.986 -11.800  -2.086  1.00  0.00    -0.480 OA
ATOM     31  H   UNL     1      12.780 -12.158  -1.198  1.00  0.00     0.296 HD
ENDBRANCH  28  30
ENDBRANCH  13  28
ENDBRANCH  11  13
ENDBRANCH   8  11
ENDBRANCH   6   7
BRANCH   6  32
ATOM     32  C   UNL     1      14.501  -5.830  -3.798  1.00  0.00     0.037 C 
BRANCH  32  33
ATOM     33  C   UNL     1      16.018  -5.745  -4.019  1.00  0.00     0.026 C 
BRANCH  33  34
ATOM     34  C   UNL     1      16.812  -6.081  -2.756  1.00  0.00     0.146 C 
BRANCH  34  35
ATOM     35  N   UNL     1      17.026  -7.520  -2.704  1.00  0.00    -0.254 NA
ATOM     36  C   UNL     1      18.227  -7.962  -2.649  1.00  0.00     0.185 C 
ATOM     37  N   UNL     1      18.434  -9.287  -2.596  1.00  0.00    -0.370 N 
ATOM     38  N   UNL     1      19.381  -7.272  -2.633  1.00  0.00    -0.370 N 
ATOM     39  H   UNL     1      17.611  -9.876  -2.593  1.00  0.00     0.159 HD
ATOM     40  H   UNL     1      19.324  -9.702  -2.377  1.00  0.00     0.159 HD
ATOM     41  H   UNL     1      20.268  -7.738  -2.729  1.00  0.00     0.159 HD
ATOM     42  H   UNL     1      19.377  -6.265  -2.685  1.00  0.00     0.159 HD
ENDBRANCH  34  35
ENDBRANCH  33  34
ENDBRANCH  32  33
ENDBRANCH   6  32
ENDBRANCH   4   6
ENDBRANCH   1   2
BRANCH   1  43
ATOM     43  C   UNL     1      13.156  -7.662  -9.204  1.00  0.00     0.102 C 
ATOM     44  C   UNL     1      13.011  -9.117  -8.726  1.00  0.00     0.020 C 
BRANCH  43  45
ATOM     45  C   UNL     1      13.179  -7.507 -10.727  1.00  0.00     0.225 C 
ATOM     46  O   UNL     1      13.493  -6.463 -11.291  1.00  0.00    -0.275 OA
ATOM     47  N   UNL     1      12.731  -8.596 -11.440  1.00  0.00    -0.342 N 
ATOM     48  H   UNL     1      12.624  -9.487 -10.977  1.00  0.00     0.164 HD
BRANCH  47  49
ATOM     49  C   UNL     1      12.731  -8.605 -12.906  1.00  0.00     0.192 C 
BRANCH  49  50
ATOM     50  C   UNL     1      11.324  -8.926 -13.418  1.00  0.00     0.047 C 
BRANCH  50  51
ATOM     51  C   UNL     1      10.242  -8.115 -12.693  1.00  0.00     0.103 C 
BRANCH  51  52
ATOM     52  C   UNL     1       8.839  -8.647 -12.979  1.00  0.00     0.226 C 
ATOM     53  O   UNL     1       8.659  -9.417 -13.924  1.00  0.00    -0.275 OA
BRANCH  52  54
ATOM     54  N   UNL     1       7.829  -8.271 -12.073  1.00  0.00    -0.311 N 
ATOM     55  C   UNL     1       7.788  -8.825 -10.714  1.00  0.00     0.153 C 
BRANCH  54  56
ATOM     56  C   UNL     1       6.830  -7.350 -12.431  1.00  0.00     0.102 C 
ATOM     57  C   UNL     1       6.739  -6.095 -11.964  1.00  0.00     0.043 C 
BRANCH  56  58
ATOM     58  C   UNL     1       5.770  -7.713 -13.444  1.00  0.00     0.268 C 
ATOM     59  O   UNL     1       4.708  -8.240 -13.143  1.00  0.00    -0.268 OA
ATOM     60  N   UNL     1       6.093  -7.331 -14.725  1.00  0.00    -0.339 N 
ATOM     61  H   UNL     1       6.998  -6.909 -14.893  1.00  0.00     0.164 HD
BRANCH  60  62
ATOM     62  C   UNL     1       5.181  -7.529 -15.850  1.00  0.00     0.168 CG0
ATOM     63  C   UNL     1       5.579  -8.751 -16.668  1.00  0.00     0.041 C 
ATOM     64  G   UNL     1       5.165  -6.263 -16.732  1.00  0.00     0.000 G0
ENDBRANCH  60  62
ENDBRANCH  56  58
ENDBRANCH  54  56
ENDBRANCH  52  54
ENDBRANCH  51  52
ENDBRANCH  50  51
ENDBRANCH  49  50
BRANCH  49  65
ATOM     65  C   UNL     1      13.724  -9.635 -13.467  1.00  0.00     0.326 C 
ATOM     66  O   UNL     1      13.443 -10.557 -14.217  1.00  0.00    -0.250 OA
BRANCH  65  67
ATOM     67  O   UNL     1      14.992  -9.498 -13.019  1.00  0.00    -0.480 OA
ATOM     68  H   UNL     1      15.539  -9.762 -13.789  1.00  0.00     0.296 HD
ENDBRANCH  65  67
ENDBRANCH  49  65
ENDBRANCH  47  49
ENDBRANCH  43  45
ENDBRANCH   1  43
BRANCH   1  69
ATOM     69  C   UNL     1      15.760  -7.222  -9.017  1.00  0.00    -0.001 C 
ATOM     70  C   UNL     1      16.888  -7.200  -8.286  1.00  0.00     0.001 C 
BRANCH  70  71
ATOM     71  C   UNL     1      18.240  -7.523  -8.746  1.00  0.00    -0.055 C 
ATOM     72  C   UNL     1      18.622  -7.056  -9.953  1.00  0.00    -0.018 C 
ATOM     73  C   UNL     1      19.113  -8.348  -7.836  1.00  0.00     0.044 C 
BRANCH  72  74
ATOM     74  C   UNL     1      19.949  -7.228 -10.677  1.00  0.00     0.038 C 
ATOM     75  C   UNL     1      20.596  -5.841 -10.772  1.00  0.00     0.015 C 
BRANCH  74  76
ATOM     76  C   UNL     1      19.686  -7.922 -12.047  1.00  0.00     0.128 C 
BRANCH  76  77
ATOM     77  O   UNL     1      20.290  -7.160 -13.106  1.00  0.00    -0.381 OA
ATOM     78  C   UNL     1      19.928  -7.605 -14.407  1.00  0.00     0.195 C 
ENDBRANCH  76  77
BRANCH  76  79
ATOM     79  C   UNL     1      20.086  -9.418 -12.081  1.00  0.00     0.068 C 
BRANCH  79  80
ATOM     80  C   UNL     1      19.435 -10.347 -11.085  1.00  0.00    -0.045 A 
ATOM     81  C   UNL     1      20.207 -11.151 -10.236  1.00  0.00     0.004 A 
ATOM     82  C   UNL     1      18.036 -10.440 -11.014  1.00  0.00     0.004 A 
ATOM     83  C   UNL     1      19.596 -12.018  -9.327  1.00  0.00     0.000 A 
ATOM     84  C   UNL     1      17.427 -11.308 -10.105  1.00  0.00     0.000 A 
ATOM     85  C   UNL     1      18.207 -12.095  -9.261  1.00  0.00     0.000 A 
ENDBRANCH  79  80
ENDBRANCH  76  79
ENDBRANCH  74  76
ENDBRANCH  72  74
ENDBRANCH  70  71
ENDBRANCH   1  69
TORSDOF 17
ENDMDL
MODEL 29
REMARK VINA RESULT:    -4.701     10.957     16.310
REMARK INTER + INTRA:         -22.438
REMARK INTER:                 -13.571
REMARK INTRA:                  -8.866
REMARK UNBOUND:                -8.394
REMARK SMILES C=C1C(=O)N[C@H](C)C(=O)N[C@@H](CC(C)C)C(=O)N[C@@H](C(=O)O)[C@H](C)C(=O)N[C@@H](CCCN=C(N)N)C(=O)N[C@@H](/C=C/C(C)=C/[C@H](C)[C@H](Cc2ccccc2)OC)[C@H](C)C(=O)N[C@@H](C(=O)O)CCC(=O)N1C
REMARK SMILES IDX 39 1 38 2 37 3 36 4 28 6 27 7 25 8 26 9 23 11 24 12 19 13
REMARK SMILES IDX 18 14 16 15 17 16 11 18 10 19 8 20 9 21 12 24 13 25 14 26
REMARK SMILES IDX 15 27 20 28 21 29 22 30 29 32 30 33 31 34 32 35 33 36 34 37
REMARK SMILES IDX 35 38 57 43 58 44 59 45 60 46 61 47 62 49 66 50 67 51 68 52
REMARK SMILES IDX 69 53 70 54 71 55 2 56 1 57 3 58 4 59 5 60 6 62 7 63 63 65
REMARK SMILES IDX 64 66 65 67 40 69 41 70 42 71 44 72 43 73 45 74 46 75 47 76
REMARK SMILES IDX 55 77 56 78 48 79 49 80 50 81 54 82 51 83 53 84 52 85
REMARK H PARENT 38 5 27 10 18 17 10 22 22 31 34 39 34 40 35 41 35 42 61 48
REMARK H PARENT 5 61 65 68
REMARK Flexibility Score:  369.900
ROOT
ATOM      1  C   UNL     1      14.403  -6.501  -7.117  1.00  0.00     0.117 C 
ENDROOT
BRANCH   1   2
ATOM      2  N   UNL     1      14.749  -6.433  -5.697  1.00  0.00    -0.347 N 
ATOM      3  O   UNL     1      13.493  -4.588  -5.158  1.00  0.00    -0.273 OA
ATOM      4  C   UNL     1      14.193  -5.533  -4.808  1.00  0.00     0.243 C 
ATOM      5  H   UNL     1      15.394  -7.106  -5.312  1.00  0.00     0.164 HD
BRANCH   4   6
ATOM      6  C   UNL     1      14.666  -5.728  -3.345  1.00  0.00     0.171 C 
BRANCH   6   7
ATOM      7  N   UNL     1      13.919  -6.822  -2.704  1.00  0.00    -0.344 N 
ATOM      8  C   UNL     1      13.640  -6.786  -1.355  1.00  0.00     0.226 C 
ATOM      9  O   UNL     1      14.011  -5.872  -0.628  1.00  0.00    -0.275 OA
ATOM     10  H   UNL     1      13.654  -7.626  -3.259  1.00  0.00     0.164 HD
BRANCH   8  11
ATOM     11  C   UNL     1      12.815  -7.959  -0.855  1.00  0.00     0.109 C 
ATOM     12  C   UNL     1      12.011  -8.565  -2.006  1.00  0.00     0.021 C 
BRANCH  11  13
ATOM     13  C   UNL     1      13.724  -8.954  -0.106  1.00  0.00     0.204 C 
BRANCH  13  14
ATOM     14  N   UNL     1      15.044  -9.075  -0.732  1.00  0.00    -0.340 N 
ATOM     15  C   UNL     1      15.572 -10.281  -1.139  1.00  0.00     0.243 C 
ATOM     16  O   UNL     1      14.945 -11.336  -1.060  1.00  0.00    -0.273 OA
ATOM     17  H   UNL     1      15.673  -8.268  -0.688  1.00  0.00     0.164 HD
BRANCH  15  18
ATOM     18  C   UNL     1      17.054 -10.192  -1.578  1.00  0.00     0.171 C 
BRANCH  18  19
ATOM     19  N   UNL     1      17.834 -10.895  -0.561  1.00  0.00    -0.343 N 
ATOM     20  C   UNL     1      18.103 -10.331   0.671  1.00  0.00     0.242 CG0
ATOM     21  O   UNL     1      17.814  -9.163   0.920  1.00  0.00    -0.273 OA
ATOM     22  H   UNL     1      18.195 -11.821  -0.764  1.00  0.00     0.164 HD
ATOM     23  G   UNL     1      18.872 -11.253   1.639  1.00  0.00     0.000 G0
ENDBRANCH  18  19
BRANCH  18  24
ATOM     24  C   UNL     1      17.246 -10.816  -2.965  1.00  0.00     0.038 C 
BRANCH  24  25
ATOM     25  C   UNL     1      16.131 -10.488  -3.980  1.00  0.00    -0.015 C 
ATOM     26  C   UNL     1      15.728 -11.700  -4.820  1.00  0.00     0.007 C 
ATOM     27  C   UNL     1      16.589  -9.353  -4.900  1.00  0.00     0.007 C 
ENDBRANCH  24  25
ENDBRANCH  18  24
ENDBRANCH  15  18
ENDBRANCH  13  14
BRANCH  13  28
ATOM     28  C   UNL     1      13.951  -8.576   1.361  1.00  0.00     0.327 C 
ATOM     29  O   UNL     1      13.285  -7.789   2.016  1.00  0.00    -0.250 OA
BRANCH  28  30
ATOM     30  O   UNL     1      15.071  -9.120   1.880  1.00  0.00    -0.480 OA
ATOM     31  H   UNL     1      15.283  -8.549   2.647  1.00  0.00     0.296 HD
ENDBRANCH  28  30
ENDBRANCH  13  28
ENDBRANCH  11  13
ENDBRANCH   8  11
ENDBRANCH   6   7
BRANCH   6  32
ATOM     32  C   UNL     1      16.172  -6.016  -3.338  1.00  0.00     0.037 C 
BRANCH  32  33
ATOM     33  C   UNL     1      16.998  -4.772  -2.980  1.00  0.00     0.026 C 
BRANCH  33  34
ATOM     34  C   UNL     1      17.947  -5.018  -1.807  1.00  0.00     0.146 C 
BRANCH  34  35
ATOM     35  N   UNL     1      17.317  -5.948  -0.880  1.00  0.00    -0.254 NA
ATOM     36  C   UNL     1      17.277  -5.643   0.364  1.00  0.00     0.185 C 
ATOM     37  N   UNL     1      16.694  -6.491   1.226  1.00  0.00    -0.370 N 
ATOM     38  N   UNL     1      17.751  -4.546   0.981  1.00  0.00    -0.370 N 
ATOM     39  H   UNL     1      16.302  -7.338   0.836  1.00  0.00     0.159 HD
ATOM     40  H   UNL     1      16.469  -6.250   2.176  1.00  0.00     0.159 HD
ATOM     41  H   UNL     1      17.783  -4.486   1.985  1.00  0.00     0.159 HD
ATOM     42  H   UNL     1      18.229  -3.830   0.457  1.00  0.00     0.159 HD
ENDBRANCH  34  35
ENDBRANCH  33  34
ENDBRANCH  32  33
ENDBRANCH   6  32
ENDBRANCH   4   6
ENDBRANCH   1   2
BRANCH   1  43
ATOM     43  C   UNL     1      13.124  -7.374  -7.273  1.00  0.00     0.102 C 
ATOM     44  C   UNL     1      13.274  -8.789  -6.690  1.00  0.00     0.020 C 
BRANCH  43  45
ATOM     45  C   UNL     1      12.614  -7.348  -8.717  1.00  0.00     0.225 C 
ATOM     46  O   UNL     1      12.704  -6.362  -9.443  1.00  0.00    -0.275 OA
ATOM     47  N   UNL     1      11.953  -8.481  -9.132  1.00  0.00    -0.342 N 
ATOM     48  H   UNL     1      12.019  -9.328  -8.585  1.00  0.00     0.164 HD
BRANCH  47  49
ATOM     49  C   UNL     1      11.441  -8.612 -10.500  1.00  0.00     0.192 C 
BRANCH  49  50
ATOM     50  C   UNL     1       9.914  -8.723 -10.470  1.00  0.00     0.047 C 
BRANCH  50  51
ATOM     51  C   UNL     1       9.304  -8.735 -11.877  1.00  0.00     0.103 C 
BRANCH  51  52
ATOM     52  C   UNL     1       7.788  -8.924 -11.844  1.00  0.00     0.226 C 
ATOM     53  O   UNL     1       7.261  -9.454 -10.864  1.00  0.00    -0.275 OA
BRANCH  52  54
ATOM     54  N   UNL     1       7.067  -8.398 -12.931  1.00  0.00    -0.311 N 
ATOM     55  C   UNL     1       7.070  -9.070 -14.237  1.00  0.00     0.153 C 
BRANCH  54  56
ATOM     56  C   UNL     1       6.314  -7.218 -12.809  1.00  0.00     0.102 C 
ATOM     57  C   UNL     1       6.742  -6.091 -12.217  1.00  0.00     0.043 C 
BRANCH  56  58
ATOM     58  C   UNL     1       4.927  -7.119 -13.399  1.00  0.00     0.268 C 
ATOM     59  O   UNL     1       4.675  -6.484 -14.414  1.00  0.00    -0.268 OA
ATOM     60  N   UNL     1       3.995  -7.866 -12.718  1.00  0.00    -0.339 N 
ATOM     61  H   UNL     1       4.282  -8.356 -11.879  1.00  0.00     0.164 HD
BRANCH  60  62
ATOM     62  C   UNL     1       2.603  -7.963 -13.156  1.00  0.00     0.168 CG0
ATOM     63  C   UNL     1       1.654  -7.962 -11.964  1.00  0.00     0.041 C 
ATOM     64  G   UNL     1       2.415  -9.238 -14.003  1.00  0.00     0.000 G0
ENDBRANCH  60  62
ENDBRANCH  56  58
ENDBRANCH  54  56
ENDBRANCH  52  54
ENDBRANCH  51  52
ENDBRANCH  50  51
ENDBRANCH  49  50
BRANCH  49  65
ATOM     65  C   UNL     1      12.027  -9.843 -11.209  1.00  0.00     0.326 C 
ATOM     66  O   UNL     1      11.873 -11.004 -10.860  1.00  0.00    -0.250 OA
BRANCH  65  67
ATOM     67  O   UNL     1      12.816  -9.560 -12.269  1.00  0.00    -0.480 OA
ATOM     68  H   UNL     1      13.574  -9.079 -11.872  1.00  0.00     0.296 HD
ENDBRANCH  65  67
ENDBRANCH  49  65
ENDBRANCH  47  49
ENDBRANCH  43  45
ENDBRANCH   1  43
BRANCH   1  69
ATOM     69  C   UNL     1      15.669  -6.919  -7.842  1.00  0.00    -0.001 C 
ATOM     70  C   UNL     1      16.934  -6.837  -7.392  1.00  0.00     0.001 C 
BRANCH  70  71
ATOM     71  C   UNL     1      18.146  -7.264  -8.092  1.00  0.00    -0.055 C 
ATOM     72  C   UNL     1      18.235  -6.997  -9.412  1.00  0.00    -0.018 C 
ATOM     73  C   UNL     1      19.213  -7.962  -7.289  1.00  0.00     0.044 C 
BRANCH  72  74
ATOM     74  C   UNL     1      19.362  -7.314 -10.386  1.00  0.00     0.038 C 
ATOM     75  C   UNL     1      20.099  -6.000 -10.669  1.00  0.00     0.015 C 
BRANCH  74  76
ATOM     76  C   UNL     1      18.758  -8.008 -11.642  1.00  0.00     0.128 C 
BRANCH  76  77
ATOM     77  O   UNL     1      19.535  -7.679 -12.806  1.00  0.00    -0.381 OA
ATOM     78  C   UNL     1      19.101  -8.338 -13.988  1.00  0.00     0.195 C 
ENDBRANCH  76  77
BRANCH  76  79
ATOM     79  C   UNL     1      18.542  -9.533 -11.477  1.00  0.00     0.068 C 
BRANCH  79  80
ATOM     80  C   UNL     1      17.568  -9.999 -10.422  1.00  0.00    -0.045 A 
ATOM     81  C   UNL     1      17.999 -10.760  -9.327  1.00  0.00     0.004 A 
ATOM     82  C   UNL     1      16.202  -9.699 -10.539  1.00  0.00     0.004 A 
ATOM     83  C   UNL     1      17.089 -11.199  -8.363  1.00  0.00     0.000 A 
ATOM     84  C   UNL     1      15.293 -10.140  -9.575  1.00  0.00     0.000 A 
ATOM     85  C   UNL     1      15.737 -10.888  -8.486  1.00  0.00     0.000 A 
ENDBRANCH  79  80
ENDBRANCH  76  79
ENDBRANCH  74  76
ENDBRANCH  72  74
ENDBRANCH  70  71
ENDBRANCH   1  69
TORSDOF 17
ENDMDL
MODEL 30
REMARK VINA RESULT:    -4.696     11.379     15.606
REMARK INTER + INTRA:         -22.423
REMARK INTER:                 -14.012
REMARK INTRA:                  -8.411
REMARK UNBOUND:                -8.394
REMARK SMILES C=C1C(=O)N[C@H](C)C(=O)N[C@@H](CC(C)C)C(=O)N[C@@H](C(=O)O)[C@H](C)C(=O)N[C@@H](CCCN=C(N)N)C(=O)N[C@@H](/C=C/C(C)=C/[C@H](C)[C@H](Cc2ccccc2)OC)[C@H](C)C(=O)N[C@@H](C(=O)O)CCC(=O)N1C
REMARK SMILES IDX 39 1 38 2 37 3 36 4 28 6 27 7 25 8 26 9 23 11 24 12 19 13
REMARK SMILES IDX 18 14 16 15 17 16 11 18 10 19 8 20 9 21 12 24 13 25 14 26
REMARK SMILES IDX 15 27 20 28 21 29 22 30 29 32 30 33 31 34 32 35 33 36 34 37
REMARK SMILES IDX 35 38 57 43 58 44 59 45 60 46 61 47 62 49 66 50 67 51 68 52
REMARK SMILES IDX 69 53 70 54 71 55 2 56 1 57 3 58 4 59 5 60 6 62 7 63 63 65
REMARK SMILES IDX 64 66 65 67 40 69 41 70 42 71 44 72 43 73 45 74 46 75 47 76
REMARK SMILES IDX 55 77 56 78 48 79 49 80 50 81 54 82 51 83 53 84 52 85
REMARK H PARENT 38 5 27 10 18 17 10 22 22 31 34 39 34 40 35 41 35 42 61 48
REMARK H PARENT 5 61 65 68
REMARK Flexibility Score:  369.900
ROOT
ATOM      1  C   UNL     1      15.937  -5.905  -4.462  1.00  0.00     0.117 C 
ENDROOT
BRANCH   1   2
ATOM      2  N   UNL     1      16.281  -6.311  -3.098  1.00  0.00    -0.347 N 
ATOM      3  O   UNL     1      16.929  -4.254  -2.313  1.00  0.00    -0.273 OA
ATOM      4  C   UNL     1      16.664  -5.433  -2.103  1.00  0.00     0.243 C 
ATOM      5  H   UNL     1      16.192  -7.280  -2.834  1.00  0.00     0.164 HD
BRANCH   4   6
ATOM      6  C   UNL     1      16.887  -6.109  -0.727  1.00  0.00     0.171 C 
BRANCH   6   7
ATOM      7  N   UNL     1      16.014  -7.286  -0.584  1.00  0.00    -0.344 N 
ATOM      8  C   UNL     1      14.847  -7.210   0.145  1.00  0.00     0.226 C 
ATOM      9  O   UNL     1      14.493  -6.188   0.720  1.00  0.00    -0.275 OA
ATOM     10  H   UNL     1      16.307  -8.166  -0.989  1.00  0.00     0.164 HD
BRANCH   8  11
ATOM     11  C   UNL     1      14.031  -8.491   0.152  1.00  0.00     0.109 C 
ATOM     12  C   UNL     1      13.630  -8.867  -1.274  1.00  0.00     0.021 C 
BRANCH  11  13
ATOM     13  C   UNL     1      14.790  -9.589   0.923  1.00  0.00     0.204 C 
BRANCH  13  14
ATOM     14  N   UNL     1      14.568  -9.501   2.370  1.00  0.00    -0.340 N 
ATOM     15  C   UNL     1      15.524  -9.858   3.297  1.00  0.00     0.243 C 
ATOM     16  O   UNL     1      16.654 -10.219   2.974  1.00  0.00    -0.273 OA
ATOM     17  H   UNL     1      13.611  -9.355   2.701  1.00  0.00     0.164 HD
BRANCH  15  18
ATOM     18  C   UNL     1      14.996  -9.880   4.752  1.00  0.00     0.171 C 
BRANCH  18  19
ATOM     19  N   UNL     1      15.808  -8.927   5.506  1.00  0.00    -0.343 N 
ATOM     20  C   UNL     1      16.059  -9.090   6.855  1.00  0.00     0.242 CG0
ATOM     21  O   UNL     1      15.505  -9.969   7.511  1.00  0.00    -0.273 OA
ATOM     22  H   UNL     1      16.194  -8.118   5.032  1.00  0.00     0.164 HD
ATOM     23  G   UNL     1      17.000  -8.028   7.460  1.00  0.00     0.000 G0
ENDBRANCH  18  19
BRANCH  18  24
ATOM     24  C   UNL     1      13.509  -9.508   4.795  1.00  0.00     0.038 C 
BRANCH  24  25
ATOM     25  C   UNL     1      12.568 -10.662   5.202  1.00  0.00    -0.015 C 
ATOM     26  C   UNL     1      13.326 -11.950   5.524  1.00  0.00     0.007 C 
ATOM     27  C   UNL     1      11.559 -10.924   4.080  1.00  0.00     0.007 C 
ENDBRANCH  24  25
ENDBRANCH  18  24
ENDBRANCH  15  18
ENDBRANCH  13  14
BRANCH  13  28
ATOM     28  C   UNL     1      14.404 -11.007   0.491  1.00  0.00     0.327 C 
ATOM     29  O   UNL     1      15.012 -11.712  -0.300  1.00  0.00    -0.250 OA
BRANCH  28  30
ATOM     30  O   UNL     1      13.215 -11.406   0.987  1.00  0.00    -0.480 OA
ATOM     31  H   UNL     1      12.776 -11.850   0.232  1.00  0.00     0.296 HD
ENDBRANCH  28  30
ENDBRANCH  13  28
ENDBRANCH  11  13
ENDBRANCH   8  11
ENDBRANCH   6   7
BRANCH   6  32
ATOM     32  C   UNL     1      18.363  -6.503  -0.594  1.00  0.00     0.037 C 
BRANCH  32  33
ATOM     33  C   UNL     1      18.563  -8.025  -0.643  1.00  0.00     0.026 C 
BRANCH  33  34
ATOM     34  C   UNL     1      18.840  -8.532  -2.059  1.00  0.00     0.146 C 
BRANCH  34  35
ATOM     35  N   UNL     1      17.645  -9.196  -2.562  1.00  0.00    -0.254 NA
ATOM     36  C   UNL     1      17.569 -10.472  -2.476  1.00  0.00     0.185 C 
ATOM     37  N   UNL     1      16.471 -11.094  -2.933  1.00  0.00    -0.370 N 
ATOM     38  N   UNL     1      18.465 -11.340  -1.973  1.00  0.00    -0.370 N 
ATOM     39  H   UNL     1      15.743 -10.506  -3.319  1.00  0.00     0.159 HD
ATOM     40  H   UNL     1      16.260 -12.059  -2.746  1.00  0.00     0.159 HD
ATOM     41  H   UNL     1      18.350 -12.333  -2.089  1.00  0.00     0.159 HD
ATOM     42  H   UNL     1      19.346 -11.013  -1.608  1.00  0.00     0.159 HD
ENDBRANCH  34  35
ENDBRANCH  33  34
ENDBRANCH  32  33
ENDBRANCH   6  32
ENDBRANCH   4   6
ENDBRANCH   1   2
BRANCH   1  43
ATOM     43  C   UNL     1      14.458  -6.301  -4.739  1.00  0.00     0.102 C 
ATOM     44  C   UNL     1      13.488  -5.859  -3.630  1.00  0.00     0.020 C 
BRANCH  43  45
ATOM     45  C   UNL     1      14.346  -7.784  -5.107  1.00  0.00     0.225 C 
ATOM     46  O   UNL     1      14.872  -8.679  -4.452  1.00  0.00    -0.275 OA
ATOM     47  N   UNL     1      13.689  -8.053  -6.286  1.00  0.00    -0.342 N 
ATOM     48  H   UNL     1      13.137  -7.331  -6.727  1.00  0.00     0.164 HD
BRANCH  47  49
ATOM     49  C   UNL     1      13.474  -9.429  -6.746  1.00  0.00     0.192 C 
BRANCH  49  50
ATOM     50  C   UNL     1      13.445  -9.460  -8.276  1.00  0.00     0.047 C 
BRANCH  50  51
ATOM     51  C   UNL     1      13.128  -8.085  -8.881  1.00  0.00     0.103 C 
BRANCH  51  52
ATOM     52  C   UNL     1      12.357  -8.201 -10.194  1.00  0.00     0.226 C 
ATOM     53  O   UNL     1      11.232  -8.706 -10.199  1.00  0.00    -0.275 OA
BRANCH  52  54
ATOM     54  N   UNL     1      12.968  -7.639 -11.331  1.00  0.00    -0.311 N 
ATOM     55  C   UNL     1      13.866  -6.483 -11.213  1.00  0.00     0.153 C 
BRANCH  54  56
ATOM     56  C   UNL     1      12.748  -8.165 -12.615  1.00  0.00     0.102 C 
ATOM     57  C   UNL     1      11.993  -7.586 -13.563  1.00  0.00     0.043 C 
BRANCH  56  58
ATOM     58  C   UNL     1      13.412  -9.450 -13.051  1.00  0.00     0.268 C 
ATOM     59  O   UNL     1      12.811 -10.357 -13.611  1.00  0.00    -0.268 OA
ATOM     60  N   UNL     1      14.765  -9.466 -12.813  1.00  0.00    -0.339 N 
ATOM     61  H   UNL     1      15.186  -8.678 -12.334  1.00  0.00     0.164 HD
BRANCH  60  62
ATOM     62  C   UNL     1      15.613 -10.588 -13.214  1.00  0.00     0.168 CG0
ATOM     63  C   UNL     1      15.954 -11.469 -12.019  1.00  0.00     0.041 C 
ATOM     64  G   UNL     1      16.896 -10.054 -13.882  1.00  0.00     0.000 G0
ENDBRANCH  60  62
ENDBRANCH  56  58
ENDBRANCH  54  56
ENDBRANCH  52  54
ENDBRANCH  51  52
ENDBRANCH  50  51
ENDBRANCH  49  50
BRANCH  49  65
ATOM     65  C   UNL     1      12.161 -10.011  -6.200  1.00  0.00     0.326 C 
ATOM     66  O   UNL     1      11.196 -10.341  -6.874  1.00  0.00    -0.250 OA
BRANCH  65  67
ATOM     67  O   UNL     1      12.098 -10.094  -4.853  1.00  0.00    -0.480 OA
ATOM     68  H   UNL     1      11.167 -10.352  -4.680  1.00  0.00     0.296 HD
ENDBRANCH  65  67
ENDBRANCH  49  65
ENDBRANCH  47  49
ENDBRANCH  43  45
ENDBRANCH   1  43
BRANCH   1  69
ATOM     69  C   UNL     1      17.027  -6.464  -5.358  1.00  0.00    -0.001 C 
ATOM     70  C   UNL     1      17.045  -6.491  -6.702  1.00  0.00     0.001 C 
BRANCH  70  71
ATOM     71  C   UNL     1      18.112  -7.015  -7.557  1.00  0.00    -0.055 C 
ATOM     72  C   UNL     1      17.992  -6.839  -8.890  1.00  0.00    -0.018 C 
ATOM     73  C   UNL     1      19.273  -7.704  -6.889  1.00  0.00     0.044 C 
BRANCH  72  74
ATOM     74  C   UNL     1      18.933  -7.268 -10.007  1.00  0.00     0.038 C 
ATOM     75  C   UNL     1      18.997  -6.112 -11.013  1.00  0.00     0.015 C 
BRANCH  74  76
ATOM     76  C   UNL     1      18.429  -8.619 -10.595  1.00  0.00     0.128 C 
BRANCH  76  77
ATOM     77  O   UNL     1      18.438  -8.562 -12.032  1.00  0.00    -0.381 OA
ATOM     78  C   UNL     1      19.175  -9.614 -12.641  1.00  0.00     0.195 C 
ENDBRANCH  76  77
BRANCH  76  79
ATOM     79  C   UNL     1      19.169  -9.862 -10.040  1.00  0.00     0.068 C 
BRANCH  79  80
ATOM     80  C   UNL     1      18.356 -10.897  -9.302  1.00  0.00    -0.045 A 
ATOM     81  C   UNL     1      17.233 -10.530  -8.549  1.00  0.00     0.004 A 
ATOM     82  C   UNL     1      18.733 -12.248  -9.336  1.00  0.00     0.004 A 
ATOM     83  C   UNL     1      16.494 -11.492  -7.857  1.00  0.00     0.000 A 
ATOM     84  C   UNL     1      17.994 -13.210  -8.643  1.00  0.00     0.000 A 
ATOM     85  C   UNL     1      16.874 -12.832  -7.905  1.00  0.00     0.000 A 
ENDBRANCH  79  80
ENDBRANCH  76  79
ENDBRANCH  74  76
ENDBRANCH  72  74
ENDBRANCH  70  71
ENDBRANCH   1  69
TORSDOF 17
ENDMDL
MODEL 31
REMARK VINA RESULT:    -4.690     12.550     16.798
REMARK INTER + INTRA:         -22.406
REMARK INTER:                 -15.346
REMARK INTRA:                  -7.060
REMARK UNBOUND:                -8.394
REMARK SMILES C=C1C(=O)N[C@H](C)C(=O)N[C@@H](CC(C)C)C(=O)N[C@@H](C(=O)O)[C@H](C)C(=O)N[C@@H](CCCN=C(N)N)C(=O)N[C@@H](/C=C/C(C)=C/[C@H](C)[C@H](Cc2ccccc2)OC)[C@H](C)C(=O)N[C@@H](C(=O)O)CCC(=O)N1C
REMARK SMILES IDX 39 1 38 2 37 3 36 4 28 6 27 7 25 8 26 9 23 11 24 12 19 13
REMARK SMILES IDX 18 14 16 15 17 16 11 18 10 19 8 20 9 21 12 24 13 25 14 26
REMARK SMILES IDX 15 27 20 28 21 29 22 30 29 32 30 33 31 34 32 35 33 36 34 37
REMARK SMILES IDX 35 38 57 43 58 44 59 45 60 46 61 47 62 49 66 50 67 51 68 52
REMARK SMILES IDX 69 53 70 54 71 55 2 56 1 57 3 58 4 59 5 60 6 62 7 63 63 65
REMARK SMILES IDX 64 66 65 67 40 69 41 70 42 71 44 72 43 73 45 74 46 75 47 76
REMARK SMILES IDX 55 77 56 78 48 79 49 80 50 81 54 82 51 83 53 84 52 85
REMARK H PARENT 38 5 27 10 18 17 10 22 22 31 34 39 34 40 35 41 35 42 61 48
REMARK H PARENT 5 61 65 68
REMARK Flexibility Score:  369.900
ROOT
ATOM      1  C   UNL     1      15.645  -6.667  -5.062  1.00  0.00     0.117 C 
ENDROOT
BRANCH   1   2
ATOM      2  N   UNL     1      15.917  -7.894  -4.312  1.00  0.00    -0.347 N 
ATOM      3  O   UNL     1      16.915  -6.928  -2.484  1.00  0.00    -0.273 OA
ATOM      4  C   UNL     1      16.449  -7.919  -3.037  1.00  0.00     0.243 C 
ATOM      5  H   UNL     1      15.663  -8.784  -4.712  1.00  0.00     0.164 HD
BRANCH   4   6
ATOM      6  C   UNL     1      16.556  -9.343  -2.435  1.00  0.00     0.171 C 
BRANCH   6   7
ATOM      7  N   UNL     1      15.486  -9.566  -1.450  1.00  0.00    -0.344 N 
ATOM      8  C   UNL     1      15.714  -9.360  -0.106  1.00  0.00     0.226 C 
ATOM      9  O   UNL     1      16.802  -9.010   0.333  1.00  0.00    -0.275 OA
ATOM     10  H   UNL     1      14.593  -9.920  -1.767  1.00  0.00     0.164 HD
BRANCH   8  11
ATOM     11  C   UNL     1      14.497  -9.580   0.775  1.00  0.00     0.109 C 
ATOM     12  C   UNL     1      13.219  -9.275  -0.007  1.00  0.00     0.021 C 
BRANCH  11  13
ATOM     13  C   UNL     1      14.553 -10.988   1.401  1.00  0.00     0.204 C 
BRANCH  13  14
ATOM     14  N   UNL     1      14.135 -10.985   2.806  1.00  0.00    -0.340 N 
ATOM     15  C   UNL     1      14.975 -10.619   3.836  1.00  0.00     0.243 C 
ATOM     16  O   UNL     1      16.118 -10.210   3.642  1.00  0.00    -0.273 OA
ATOM     17  H   UNL     1      13.258 -11.454   3.048  1.00  0.00     0.164 HD
BRANCH  15  18
ATOM     18  C   UNL     1      14.386 -10.892   5.241  1.00  0.00     0.171 C 
BRANCH  18  19
ATOM     19  N   UNL     1      13.810  -9.632   5.706  1.00  0.00    -0.343 N 
ATOM     20  C   UNL     1      14.472  -8.814   6.601  1.00  0.00     0.242 CG0
ATOM     21  O   UNL     1      15.512  -9.169   7.149  1.00  0.00    -0.273 OA
ATOM     22  H   UNL     1      12.896  -9.349   5.370  1.00  0.00     0.164 HD
ATOM     23  G   UNL     1      13.743  -7.490   6.913  1.00  0.00     0.000 G0
ENDBRANCH  18  19
BRANCH  18  24
ATOM     24  C   UNL     1      13.331 -12.004   5.180  1.00  0.00     0.038 C 
BRANCH  24  25
ATOM     25  C   UNL     1      13.615 -13.213   6.096  1.00  0.00    -0.015 C 
ATOM     26  C   UNL     1      12.343 -13.779   6.729  1.00  0.00     0.007 C 
ATOM     27  C   UNL     1      14.600 -12.806   7.194  1.00  0.00     0.007 C 
ENDBRANCH  24  25
ENDBRANCH  18  24
ENDBRANCH  15  18
ENDBRANCH  13  14
BRANCH  13  28
ATOM     28  C   UNL     1      13.677 -12.010   0.669  1.00  0.00     0.327 C 
ATOM     29  O   UNL     1      12.614 -12.465   1.064  1.00  0.00    -0.250 OA
BRANCH  28  30
ATOM     30  O   UNL     1      14.246 -12.484  -0.457  1.00  0.00    -0.480 OA
ATOM     31  H   UNL     1      13.792 -13.338  -0.616  1.00  0.00     0.296 HD
ENDBRANCH  28  30
ENDBRANCH  13  28
ENDBRANCH  11  13
ENDBRANCH   8  11
ENDBRANCH   6   7
BRANCH   6  32
ATOM     32  C   UNL     1      16.484 -10.375  -3.565  1.00  0.00     0.037 C 
BRANCH  32  33
ATOM     33  C   UNL     1      15.177 -11.180  -3.532  1.00  0.00     0.026 C 
BRANCH  33  34
ATOM     34  C   UNL     1      15.333 -12.575  -4.137  1.00  0.00     0.146 C 
BRANCH  34  35
ATOM     35  N   UNL     1      16.612 -13.130  -3.713  1.00  0.00    -0.254 NA
ATOM     36  C   UNL     1      17.186 -13.993  -4.466  1.00  0.00     0.185 C 
ATOM     37  N   UNL     1      18.367 -14.507  -4.087  1.00  0.00    -0.370 N 
ATOM     38  N   UNL     1      16.774 -14.496  -5.643  1.00  0.00    -0.370 N 
ATOM     39  H   UNL     1      18.750 -14.170  -3.214  1.00  0.00     0.159 HD
ATOM     40  H   UNL     1      18.958 -15.049  -4.695  1.00  0.00     0.159 HD
ATOM     41  H   UNL     1      17.248 -15.274  -6.072  1.00  0.00     0.159 HD
ATOM     42  H   UNL     1      15.893 -14.210  -6.042  1.00  0.00     0.159 HD
ENDBRANCH  34  35
ENDBRANCH  33  34
ENDBRANCH  32  33
ENDBRANCH   6  32
ENDBRANCH   4   6
ENDBRANCH   1   2
BRANCH   1  43
ATOM     43  C   UNL     1      14.104  -6.467  -5.142  1.00  0.00     0.102 C 
ATOM     44  C   UNL     1      13.474  -6.030  -3.809  1.00  0.00     0.020 C 
BRANCH  43  45
ATOM     45  C   UNL     1      13.424  -7.681  -5.782  1.00  0.00     0.225 C 
ATOM     46  O   UNL     1      13.706  -8.839  -5.490  1.00  0.00    -0.275 OA
ATOM     47  N   UNL     1      12.530  -7.396  -6.789  1.00  0.00    -0.342 N 
ATOM     48  H   UNL     1      12.199  -6.450  -6.911  1.00  0.00     0.164 HD
BRANCH  47  49
ATOM     49  C   UNL     1      11.778  -8.456  -7.467  1.00  0.00     0.192 C 
BRANCH  49  50
ATOM     50  C   UNL     1      11.209  -7.921  -8.784  1.00  0.00     0.047 C 
BRANCH  50  51
ATOM     51  C   UNL     1      10.795  -9.047  -9.740  1.00  0.00     0.103 C 
BRANCH  51  52
ATOM     52  C   UNL     1       9.466  -8.753 -10.433  1.00  0.00     0.226 C 
ATOM     53  O   UNL     1       9.462  -8.336 -11.593  1.00  0.00    -0.275 OA
BRANCH  52  54
ATOM     54  N   UNL     1       8.300  -9.058  -9.707  1.00  0.00    -0.311 N 
ATOM     55  C   UNL     1       8.141 -10.358  -9.042  1.00  0.00     0.153 C 
BRANCH  54  56
ATOM     56  C   UNL     1       7.250  -8.132  -9.585  1.00  0.00     0.102 C 
ATOM     57  C   UNL     1       7.123  -7.241  -8.588  1.00  0.00     0.043 C 
BRANCH  56  58
ATOM     58  C   UNL     1       6.171  -8.042 -10.638  1.00  0.00     0.268 C 
ATOM     59  O   UNL     1       5.107  -8.641 -10.559  1.00  0.00    -0.268 OA
ATOM     60  N   UNL     1       6.479  -7.170 -11.655  1.00  0.00    -0.339 N 
ATOM     61  H   UNL     1       7.387  -6.721 -11.653  1.00  0.00     0.164 HD
BRANCH  60  62
ATOM     62  C   UNL     1       5.548  -6.885 -12.746  1.00  0.00     0.168 CG0
ATOM     63  C   UNL     1       6.273  -6.838 -14.086  1.00  0.00     0.041 C 
ATOM     64  G   UNL     1       4.822  -5.552 -12.471  1.00  0.00     0.000 G0
ENDBRANCH  60  62
ENDBRANCH  56  58
ENDBRANCH  54  56
ENDBRANCH  52  54
ENDBRANCH  51  52
ENDBRANCH  50  51
ENDBRANCH  49  50
BRANCH  49  65
ATOM     65  C   UNL     1      10.629  -8.984  -6.594  1.00  0.00     0.326 C 
ATOM     66  O   UNL     1       9.563  -8.417  -6.402  1.00  0.00    -0.250 OA
BRANCH  65  67
ATOM     67  O   UNL     1      10.890 -10.150  -5.964  1.00  0.00    -0.480 OA
ATOM     68  H   UNL     1      10.219 -10.766  -6.328  1.00  0.00     0.296 HD
ENDBRANCH  65  67
ENDBRANCH  49  65
ENDBRANCH  47  49
ENDBRANCH  43  45
ENDBRANCH   1  43
BRANCH   1  69
ATOM     69  C   UNL     1      16.439  -6.774  -6.351  1.00  0.00    -0.001 C 
ATOM     70  C   UNL     1      17.771  -6.901  -6.483  1.00  0.00     0.001 C 
BRANCH  70  71
ATOM     71  C   UNL     1      18.524  -7.025  -7.732  1.00  0.00    -0.055 C 
ATOM     72  C   UNL     1      17.882  -7.536  -8.804  1.00  0.00    -0.018 C 
ATOM     73  C   UNL     1      19.959  -6.565  -7.737  1.00  0.00     0.044 C 
BRANCH  72  74
ATOM     74  C   UNL     1      18.402  -7.777 -10.214  1.00  0.00     0.038 C 
ATOM     75  C   UNL     1      18.209  -6.472 -10.996  1.00  0.00     0.015 C 
BRANCH  74  76
ATOM     76  C   UNL     1      17.669  -9.012 -10.814  1.00  0.00     0.128 C 
BRANCH  76  77
ATOM     77  O   UNL     1      18.507 -10.176 -10.715  1.00  0.00    -0.381 OA
ATOM     78  C   UNL     1      19.797 -10.001 -11.286  1.00  0.00     0.195 C 
ENDBRANCH  76  77
BRANCH  76  79
ATOM     79  C   UNL     1      16.250  -9.244 -10.237  1.00  0.00     0.068 C 
BRANCH  79  80
ATOM     80  C   UNL     1      15.079  -8.646 -10.978  1.00  0.00    -0.045 A 
ATOM     81  C   UNL     1      14.585  -7.378 -10.643  1.00  0.00     0.004 A 
ATOM     82  C   UNL     1      14.445  -9.368 -12.000  1.00  0.00     0.004 A 
ATOM     83  C   UNL     1      13.492  -6.838 -11.324  1.00  0.00     0.000 A 
ATOM     84  C   UNL     1      13.352  -8.827 -12.680  1.00  0.00     0.000 A 
ATOM     85  C   UNL     1      12.876  -7.562 -12.343  1.00  0.00     0.000 A 
ENDBRANCH  79  80
ENDBRANCH  76  79
ENDBRANCH  74  76
ENDBRANCH  72  74
ENDBRANCH  70  71
ENDBRANCH   1  69
TORSDOF 17
ENDMDL
MODEL 32
REMARK VINA RESULT:    -4.688      9.704     16.996
REMARK INTER + INTRA:         -22.401
REMARK INTER:                 -13.080
REMARK INTRA:                  -9.321
REMARK UNBOUND:                -8.394
REMARK SMILES C=C1C(=O)N[C@H](C)C(=O)N[C@@H](CC(C)C)C(=O)N[C@@H](C(=O)O)[C@H](C)C(=O)N[C@@H](CCCN=C(N)N)C(=O)N[C@@H](/C=C/C(C)=C/[C@H](C)[C@H](Cc2ccccc2)OC)[C@H](C)C(=O)N[C@@H](C(=O)O)CCC(=O)N1C
REMARK SMILES IDX 39 1 38 2 37 3 36 4 28 6 27 7 25 8 26 9 23 11 24 12 19 13
REMARK SMILES IDX 18 14 16 15 17 16 11 18 10 19 8 20 9 21 12 24 13 25 14 26
REMARK SMILES IDX 15 27 20 28 21 29 22 30 29 32 30 33 31 34 32 35 33 36 34 37
REMARK SMILES IDX 35 38 57 43 58 44 59 45 60 46 61 47 62 49 66 50 67 51 68 52
REMARK SMILES IDX 69 53 70 54 71 55 2 56 1 57 3 58 4 59 5 60 6 62 7 63 63 65
REMARK SMILES IDX 64 66 65 67 40 69 41 70 42 71 44 72 43 73 45 74 46 75 47 76
REMARK SMILES IDX 55 77 56 78 48 79 49 80 50 81 54 82 51 83 53 84 52 85
REMARK H PARENT 38 5 27 10 18 17 10 22 22 31 34 39 34 40 35 41 35 42 61 48
REMARK H PARENT 5 61 65 68
REMARK Flexibility Score:  369.900
ROOT
ATOM      1  C   UNL     1       8.386  -7.338   4.648  1.00  0.00     0.117 C 
ENDROOT
BRANCH   1   2
ATOM      2  N   UNL     1       9.363  -8.420   4.516  1.00  0.00    -0.347 N 
ATOM      3  O   UNL     1      11.265  -7.150   4.723  1.00  0.00    -0.273 OA
ATOM      4  C   UNL     1      10.727  -8.251   4.656  1.00  0.00     0.243 C 
ATOM      5  H   UNL     1       9.039  -9.363   4.363  1.00  0.00     0.164 HD
BRANCH   4   6
ATOM      6  C   UNL     1      11.532  -9.571   4.556  1.00  0.00     0.171 C 
BRANCH   6   7
ATOM      7  N   UNL     1      12.886  -9.311   4.040  1.00  0.00    -0.344 N 
ATOM      8  C   UNL     1      13.406 -10.071   3.015  1.00  0.00     0.226 C 
ATOM      9  O   UNL     1      12.791 -10.999   2.504  1.00  0.00    -0.275 OA
ATOM     10  H   UNL     1      13.450  -8.596   4.482  1.00  0.00     0.164 HD
BRANCH   8  11
ATOM     11  C   UNL     1      14.790  -9.643   2.559  1.00  0.00     0.109 C 
ATOM     12  C   UNL     1      15.785 -10.786   2.758  1.00  0.00     0.021 C 
BRANCH  11  13
ATOM     13  C   UNL     1      14.718  -9.089   1.122  1.00  0.00     0.204 C 
BRANCH  13  14
ATOM     14  N   UNL     1      13.997  -9.992   0.218  1.00  0.00    -0.340 N 
ATOM     15  C   UNL     1      14.635 -10.807  -0.691  1.00  0.00     0.243 C 
ATOM     16  O   UNL     1      15.860 -10.880  -0.767  1.00  0.00    -0.273 OA
ATOM     17  H   UNL     1      12.985  -9.870   0.124  1.00  0.00     0.164 HD
BRANCH  15  18
ATOM     18  C   UNL     1      13.668 -11.511  -1.675  1.00  0.00     0.171 C 
BRANCH  18  19
ATOM     19  N   UNL     1      14.228 -12.836  -1.935  1.00  0.00    -0.343 N 
ATOM     20  C   UNL     1      14.365 -13.331  -3.218  1.00  0.00     0.242 CG0
ATOM     21  O   UNL     1      13.902 -12.737  -4.189  1.00  0.00    -0.273 OA
ATOM     22  H   UNL     1      14.519 -13.415  -1.155  1.00  0.00     0.164 HD
ATOM     23  G   UNL     1      15.047 -14.712  -3.298  1.00  0.00     0.000 G0
ENDBRANCH  18  19
BRANCH  18  24
ATOM     24  C   UNL     1      12.259 -11.604  -1.077  1.00  0.00     0.038 C 
BRANCH  24  25
ATOM     25  C   UNL     1      11.135 -11.073  -1.992  1.00  0.00    -0.015 C 
ATOM     26  C   UNL     1      10.418 -12.192  -2.747  1.00  0.00     0.007 C 
ATOM     27  C   UNL     1      11.715 -10.068  -2.990  1.00  0.00     0.007 C 
ENDBRANCH  24  25
ENDBRANCH  18  24
ENDBRANCH  15  18
ENDBRANCH  13  14
BRANCH  13  28
ATOM     28  C   UNL     1      14.035  -7.721   1.036  1.00  0.00     0.327 C 
ATOM     29  O   UNL     1      13.621  -7.182   0.021  1.00  0.00    -0.250 OA
BRANCH  28  30
ATOM     30  O   UNL     1      14.023  -7.061   2.212  1.00  0.00    -0.480 OA
ATOM     31  H   UNL     1      14.599  -6.284   2.059  1.00  0.00     0.296 HD
ENDBRANCH  28  30
ENDBRANCH  13  28
ENDBRANCH  11  13
ENDBRANCH   8  11
ENDBRANCH   6   7
BRANCH   6  32
ATOM     32  C   UNL     1      11.591 -10.231   5.938  1.00  0.00     0.037 C 
BRANCH  32  33
ATOM     33  C   UNL     1      10.673 -11.458   6.033  1.00  0.00     0.026 C 
BRANCH  33  34
ATOM     34  C   UNL     1      11.448 -12.749   6.303  1.00  0.00     0.146 C 
BRANCH  34  35
ATOM     35  N   UNL     1      12.037 -13.213   5.055  1.00  0.00    -0.254 NA
ATOM     36  C   UNL     1      13.313 -13.214   4.940  1.00  0.00     0.185 C 
ATOM     37  N   UNL     1      13.867 -13.644   3.796  1.00  0.00    -0.370 N 
ATOM     38  N   UNL     1      14.242 -12.831   5.835  1.00  0.00    -0.370 N 
ATOM     39  H   UNL     1      13.232 -13.960   3.075  1.00  0.00     0.159 HD
ATOM     40  H   UNL     1      14.848 -13.838   3.692  1.00  0.00     0.159 HD
ATOM     41  H   UNL     1      15.211 -12.747   5.576  1.00  0.00     0.159 HD
ATOM     42  H   UNL     1      13.968 -12.469   6.735  1.00  0.00     0.159 HD
ENDBRANCH  34  35
ENDBRANCH  33  34
ENDBRANCH  32  33
ENDBRANCH   6  32
ENDBRANCH   4   6
ENDBRANCH   1   2
BRANCH   1  43
ATOM     43  C   UNL     1       7.726  -7.436   6.054  1.00  0.00     0.102 C 
ATOM     44  C   UNL     1       6.192  -7.339   6.017  1.00  0.00     0.020 C 
BRANCH  43  45
ATOM     45  C   UNL     1       8.387  -6.467   7.039  1.00  0.00     0.225 C 
ATOM     46  O   UNL     1       8.288  -6.579   8.258  1.00  0.00    -0.275 OA
ATOM     47  N   UNL     1       9.031  -5.392   6.472  1.00  0.00    -0.342 N 
ATOM     48  H   UNL     1       9.232  -5.395   5.482  1.00  0.00     0.164 HD
BRANCH  47  49
ATOM     49  C   UNL     1       9.738  -4.403   7.291  1.00  0.00     0.192 C 
BRANCH  49  50
ATOM     50  C   UNL     1       9.762  -3.055   6.564  1.00  0.00     0.047 C 
BRANCH  50  51
ATOM     51  C   UNL     1      10.282  -1.921   7.458  1.00  0.00     0.103 C 
BRANCH  51  52
ATOM     52  C   UNL     1       9.190  -0.908   7.793  1.00  0.00     0.226 C 
ATOM     53  O   UNL     1       8.242  -1.246   8.505  1.00  0.00    -0.275 OA
BRANCH  52  54
ATOM     54  N   UNL     1       9.381   0.402   7.315  1.00  0.00    -0.311 N 
ATOM     55  C   UNL     1      10.468   1.244   7.832  1.00  0.00     0.153 C 
BRANCH  54  56
ATOM     56  C   UNL     1       8.549   0.949   6.325  1.00  0.00     0.102 C 
ATOM     57  C   UNL     1       8.242   0.351   5.162  1.00  0.00     0.043 C 
BRANCH  56  58
ATOM     58  C   UNL     1       7.876   2.286   6.530  1.00  0.00     0.268 C 
ATOM     59  O   UNL     1       7.116   2.518   7.460  1.00  0.00    -0.268 OA
ATOM     60  N   UNL     1       8.257   3.230   5.606  1.00  0.00    -0.339 N 
ATOM     61  H   UNL     1       8.883   2.955   4.858  1.00  0.00     0.164 HD
BRANCH  60  62
ATOM     62  C   UNL     1       7.774   4.609   5.656  1.00  0.00     0.168 CG0
ATOM     63  C   UNL     1       8.038   5.330   4.340  1.00  0.00     0.041 C 
ATOM     64  G   UNL     1       8.450   5.350   6.829  1.00  0.00     0.000 G0
ENDBRANCH  60  62
ENDBRANCH  56  58
ENDBRANCH  54  56
ENDBRANCH  52  54
ENDBRANCH  51  52
ENDBRANCH  50  51
ENDBRANCH  49  50
BRANCH  49  65
ATOM     65  C   UNL     1      11.179  -4.843   7.592  1.00  0.00     0.326 C 
ATOM     66  O   UNL     1      12.139  -4.692   6.850  1.00  0.00    -0.250 OA
BRANCH  65  67
ATOM     67  O   UNL     1      11.335  -5.497   8.765  1.00  0.00    -0.480 OA
ATOM     68  H   UNL     1      12.057  -5.003   9.211  1.00  0.00     0.296 HD
ENDBRANCH  65  67
ENDBRANCH  49  65
ENDBRANCH  47  49
ENDBRANCH  43  45
ENDBRANCH   1  43
BRANCH   1  69
ATOM     69  C   UNL     1       7.503  -7.413   3.416  1.00  0.00    -0.001 C 
ATOM     70  C   UNL     1       7.351  -6.479   2.461  1.00  0.00     0.001 C 
BRANCH  70  71
ATOM     71  C   UNL     1       6.511  -6.571   1.265  1.00  0.00    -0.055 C 
ATOM     72  C   UNL     1       5.914  -7.753   1.008  1.00  0.00    -0.018 C 
ATOM     73  C   UNL     1       6.367  -5.338   0.411  1.00  0.00     0.044 C 
BRANCH  72  74
ATOM     74  C   UNL     1       4.996  -8.138  -0.144  1.00  0.00     0.038 C 
ATOM     75  C   UNL     1       3.581  -8.278   0.433  1.00  0.00     0.015 C 
BRANCH  74  76
ATOM     76  C   UNL     1       5.554  -9.423  -0.822  1.00  0.00     0.128 C 
BRANCH  76  77
ATOM     77  O   UNL     1       4.554 -10.001  -1.678  1.00  0.00    -0.381 OA
ATOM     78  C   UNL     1       4.871  -9.921  -3.061  1.00  0.00     0.195 C 
ENDBRANCH  76  77
BRANCH  76  79
ATOM     79  C   UNL     1       6.911  -9.216  -1.541  1.00  0.00     0.068 C 
BRANCH  79  80
ATOM     80  C   UNL     1       8.153  -9.107  -0.690  1.00  0.00    -0.045 A 
ATOM     81  C   UNL     1       8.390 -10.004   0.360  1.00  0.00     0.004 A 
ATOM     82  C   UNL     1       9.080  -8.079  -0.921  1.00  0.00     0.004 A 
ATOM     83  C   UNL     1       9.534  -9.887   1.152  1.00  0.00     0.000 A 
ATOM     84  C   UNL     1      10.224  -7.963  -0.127  1.00  0.00     0.000 A 
ATOM     85  C   UNL     1      10.451  -8.867   0.907  1.00  0.00     0.000 A 
ENDBRANCH  79  80
ENDBRANCH  76  79
ENDBRANCH  74  76
ENDBRANCH  72  74
ENDBRANCH  70  71
ENDBRANCH   1  69
TORSDOF 17
ENDMDL
MODEL 33
REMARK VINA RESULT:    -4.679     13.126     16.835
REMARK INTER + INTRA:         -22.373
REMARK INTER:                 -14.087
REMARK INTRA:                  -8.286
REMARK UNBOUND:                -8.394
REMARK SMILES C=C1C(=O)N[C@H](C)C(=O)N[C@@H](CC(C)C)C(=O)N[C@@H](C(=O)O)[C@H](C)C(=O)N[C@@H](CCCN=C(N)N)C(=O)N[C@@H](/C=C/C(C)=C/[C@H](C)[C@H](Cc2ccccc2)OC)[C@H](C)C(=O)N[C@@H](C(=O)O)CCC(=O)N1C
REMARK SMILES IDX 39 1 38 2 37 3 36 4 28 6 27 7 25 8 26 9 23 11 24 12 19 13
REMARK SMILES IDX 18 14 16 15 17 16 11 18 10 19 8 20 9 21 12 24 13 25 14 26
REMARK SMILES IDX 15 27 20 28 21 29 22 30 29 32 30 33 31 34 32 35 33 36 34 37
REMARK SMILES IDX 35 38 57 43 58 44 59 45 60 46 61 47 62 49 66 50 67 51 68 52
REMARK SMILES IDX 69 53 70 54 71 55 2 56 1 57 3 58 4 59 5 60 6 62 7 63 63 65
REMARK SMILES IDX 64 66 65 67 40 69 41 70 42 71 44 72 43 73 45 74 46 75 47 76
REMARK SMILES IDX 55 77 56 78 48 79 49 80 50 81 54 82 51 83 53 84 52 85
REMARK H PARENT 38 5 27 10 18 17 10 22 22 31 34 39 34 40 35 41 35 42 61 48
REMARK H PARENT 5 61 65 68
REMARK Flexibility Score:  369.900
ROOT
ATOM      1  C   UNL     1      14.553  -7.851  -7.481  1.00  0.00     0.117 C 
ENDROOT
BRANCH   1   2
ATOM      2  N   UNL     1      14.627  -9.033  -6.623  1.00  0.00    -0.347 N 
ATOM      3  O   UNL     1      15.023  -7.953  -4.636  1.00  0.00    -0.273 OA
ATOM      4  C   UNL     1      14.766  -8.984  -5.249  1.00  0.00     0.243 C 
ATOM      5  H   UNL     1      14.524  -9.949  -7.033  1.00  0.00     0.164 HD
BRANCH   4   6
ATOM      6  C   UNL     1      14.731 -10.376  -4.569  1.00  0.00     0.171 C 
BRANCH   6   7
ATOM      7  N   UNL     1      13.912 -10.332  -3.347  1.00  0.00    -0.344 N 
ATOM      8  C   UNL     1      14.401 -10.821  -2.156  1.00  0.00     0.226 C 
ATOM      9  O   UNL     1      15.511 -11.331  -2.057  1.00  0.00    -0.275 OA
ATOM     10  H   UNL     1      12.965  -9.980  -3.404  1.00  0.00     0.164 HD
BRANCH   8  11
ATOM     11  C   UNL     1      13.459 -10.653  -0.976  1.00  0.00     0.109 C 
ATOM     12  C   UNL     1      13.477 -11.910  -0.106  1.00  0.00     0.021 C 
BRANCH  11  13
ATOM     13  C   UNL     1      13.785  -9.343  -0.231  1.00  0.00     0.204 C 
BRANCH  13  14
ATOM     14  N   UNL     1      15.208  -9.002  -0.312  1.00  0.00    -0.340 N 
ATOM     15  C   UNL     1      16.083  -9.188   0.737  1.00  0.00     0.243 C 
ATOM     16  O   UNL     1      15.742  -9.711   1.796  1.00  0.00    -0.273 OA
ATOM     17  H   UNL     1      15.521  -8.430  -1.100  1.00  0.00     0.164 HD
BRANCH  15  18
ATOM     18  C   UNL     1      17.480  -8.566   0.495  1.00  0.00     0.171 C 
BRANCH  18  19
ATOM     19  N   UNL     1      18.365  -9.111   1.523  1.00  0.00    -0.343 N 
ATOM     20  C   UNL     1      18.839  -8.334   2.562  1.00  0.00     0.242 CG0
ATOM     21  O   UNL     1      18.648  -7.121   2.598  1.00  0.00    -0.273 OA
ATOM     22  H   UNL     1      18.646 -10.083   1.472  1.00  0.00     0.164 HD
ATOM     23  G   UNL     1      19.694  -9.102   3.592  1.00  0.00     0.000 G0
ENDBRANCH  18  19
BRANCH  18  24
ATOM     24  C   UNL     1      17.984  -8.898  -0.915  1.00  0.00     0.038 C 
BRANCH  24  25
ATOM     25  C   UNL     1      19.284  -9.730  -0.955  1.00  0.00    -0.015 C 
ATOM     26  C   UNL     1      20.479  -8.924  -1.464  1.00  0.00     0.007 C 
ATOM     27  C   UNL     1      19.080 -10.963  -1.839  1.00  0.00     0.007 C 
ENDBRANCH  24  25
ENDBRANCH  18  24
ENDBRANCH  15  18
ENDBRANCH  13  14
BRANCH  13  28
ATOM     28  C   UNL     1      12.999  -8.138  -0.757  1.00  0.00     0.327 C 
ATOM     29  O   UNL     1      13.446  -7.023  -0.974  1.00  0.00    -0.250 OA
BRANCH  28  30
ATOM     30  O   UNL     1      11.676  -8.376  -0.865  1.00  0.00    -0.480 OA
ATOM     31  H   UNL     1      11.540  -9.210  -0.369  1.00  0.00     0.296 HD
ENDBRANCH  28  30
ENDBRANCH  13  28
ENDBRANCH  11  13
ENDBRANCH   8  11
ENDBRANCH   6   7
BRANCH   6  32
ATOM     32  C   UNL     1      14.179 -11.407  -5.560  1.00  0.00     0.037 C 
BRANCH  32  33
ATOM     33  C   UNL     1      13.685 -12.679  -4.858  1.00  0.00     0.026 C 
BRANCH  33  34
ATOM     34  C   UNL     1      14.556 -13.897  -5.172  1.00  0.00     0.146 C 
BRANCH  34  35
ATOM     35  N   UNL     1      15.630 -13.971  -4.192  1.00  0.00    -0.254 NA
ATOM     36  C   UNL     1      16.833 -14.114  -4.608  1.00  0.00     0.185 C 
ATOM     37  N   UNL     1      17.831 -14.179  -3.713  1.00  0.00    -0.370 N 
ATOM     38  N   UNL     1      17.283 -14.215  -5.871  1.00  0.00    -0.370 N 
ATOM     39  H   UNL     1      17.573 -14.100  -2.738  1.00  0.00     0.159 HD
ATOM     40  H   UNL     1      18.804 -14.115  -3.960  1.00  0.00     0.159 HD
ATOM     41  H   UNL     1      18.239 -14.465  -6.065  1.00  0.00     0.159 HD
ATOM     42  H   UNL     1      16.640 -14.198  -6.647  1.00  0.00     0.159 HD
ENDBRANCH  34  35
ENDBRANCH  33  34
ENDBRANCH  32  33
ENDBRANCH   6  32
ENDBRANCH   4   6
ENDBRANCH   1   2
BRANCH   1  43
ATOM     43  C   UNL     1      13.185  -7.862  -8.222  1.00  0.00     0.102 C 
ATOM     44  C   UNL     1      12.579  -6.461  -8.410  1.00  0.00     0.020 C 
BRANCH  43  45
ATOM     45  C   UNL     1      12.225  -8.874  -7.590  1.00  0.00     0.225 C 
ATOM     46  O   UNL     1      12.111 -10.030  -7.988  1.00  0.00    -0.275 OA
ATOM     47  N   UNL     1      11.416  -8.380  -6.592  1.00  0.00    -0.342 N 
ATOM     48  H   UNL     1      11.625  -7.483  -6.177  1.00  0.00     0.164 HD
BRANCH  47  49
ATOM     49  C   UNL     1      10.474  -9.243  -5.872  1.00  0.00     0.192 C 
BRANCH  49  50
ATOM     50  C   UNL     1       9.080  -8.610  -5.891  1.00  0.00     0.047 C 
BRANCH  50  51
ATOM     51  C   UNL     1       8.023  -9.548  -6.492  1.00  0.00     0.103 C 
BRANCH  51  52
ATOM     52  C   UNL     1       8.331  -9.902  -7.945  1.00  0.00     0.226 C 
ATOM     53  O   UNL     1       8.634 -11.060  -8.240  1.00  0.00    -0.275 OA
BRANCH  52  54
ATOM     54  N   UNL     1       8.171  -8.871  -8.889  1.00  0.00    -0.311 N 
ATOM     55  C   UNL     1       9.323  -8.337  -9.629  1.00  0.00     0.153 C 
BRANCH  54  56
ATOM     56  C   UNL     1       6.909  -8.319  -9.164  1.00  0.00     0.102 C 
ATOM     57  C   UNL     1       6.412  -7.212  -8.589  1.00  0.00     0.043 C 
BRANCH  56  58
ATOM     58  C   UNL     1       6.003  -8.936 -10.204  1.00  0.00     0.268 C 
ATOM     59  O   UNL     1       6.306  -9.929 -10.851  1.00  0.00    -0.268 OA
ATOM     60  N   UNL     1       4.784  -8.309 -10.299  1.00  0.00    -0.339 N 
ATOM     61  H   UNL     1       4.614  -7.485  -9.734  1.00  0.00     0.164 HD
BRANCH  60  62
ATOM     62  C   UNL     1       3.732  -8.781 -11.198  1.00  0.00     0.168 CG0
ATOM     63  C   UNL     1       3.654  -7.917 -12.451  1.00  0.00     0.041 C 
ATOM     64  G   UNL     1       2.381  -8.789 -10.455  1.00  0.00     0.000 G0
ENDBRANCH  60  62
ENDBRANCH  56  58
ENDBRANCH  54  56
ENDBRANCH  52  54
ENDBRANCH  51  52
ENDBRANCH  50  51
ENDBRANCH  49  50
BRANCH  49  65
ATOM     65  C   UNL     1      10.911  -9.468  -4.417  1.00  0.00     0.326 C 
ATOM     66  O   UNL     1      10.827 -10.523  -3.805  1.00  0.00    -0.250 OA
BRANCH  65  67
ATOM     67  O   UNL     1      11.368  -8.363  -3.787  1.00  0.00    -0.480 OA
ATOM     68  H   UNL     1      11.338  -8.609  -2.838  1.00  0.00     0.296 HD
ENDBRANCH  65  67
ENDBRANCH  49  65
ENDBRANCH  47  49
ENDBRANCH  43  45
ENDBRANCH   1  43
BRANCH   1  69
ATOM     69  C   UNL     1      15.830  -7.840  -8.301  1.00  0.00    -0.001 C 
ATOM     70  C   UNL     1      16.978  -7.199  -8.017  1.00  0.00     0.001 C 
BRANCH  70  71
ATOM     71  C   UNL     1      18.212  -7.214  -8.805  1.00  0.00    -0.055 C 
ATOM     72  C   UNL     1      18.131  -6.858 -10.104  1.00  0.00    -0.018 C 
ATOM     73  C   UNL     1      19.485  -7.617  -8.108  1.00  0.00     0.044 C 
BRANCH  72  74
ATOM     74  C   UNL     1      19.233  -6.778 -11.151  1.00  0.00     0.038 C 
ATOM     75  C   UNL     1      19.118  -5.405 -11.825  1.00  0.00     0.015 C 
BRANCH  74  76
ATOM     76  C   UNL     1      19.097  -7.993 -12.116  1.00  0.00     0.128 C 
BRANCH  76  77
ATOM     77  O   UNL     1      19.308  -7.568 -13.473  1.00  0.00    -0.381 OA
ATOM     78  C   UNL     1      18.786  -8.468 -14.441  1.00  0.00     0.195 C 
ENDBRANCH  76  77
BRANCH  76  79
ATOM     79  C   UNL     1      19.974  -9.209 -11.725  1.00  0.00     0.068 C 
BRANCH  79  80
ATOM     80  C   UNL     1      19.364 -10.264 -10.835  1.00  0.00    -0.045 A 
ATOM     81  C   UNL     1      20.168 -11.186 -10.152  1.00  0.00     0.004 A 
ATOM     82  C   UNL     1      17.970 -10.355 -10.699  1.00  0.00     0.004 A 
ATOM     83  C   UNL     1      19.595 -12.168  -9.341  1.00  0.00     0.000 A 
ATOM     84  C   UNL     1      17.398 -11.338  -9.889  1.00  0.00     0.000 A 
ATOM     85  C   UNL     1      18.210 -12.243  -9.209  1.00  0.00     0.000 A 
ENDBRANCH  79  80
ENDBRANCH  76  79
ENDBRANCH  74  76
ENDBRANCH  72  74
ENDBRANCH  70  71
ENDBRANCH   1  69
TORSDOF 17
ENDMDL
MODEL 34
REMARK VINA RESULT:    -4.676      4.639     10.511
REMARK INTER + INTRA:         -22.365
REMARK INTER:                 -14.288
REMARK INTRA:                  -8.077
REMARK UNBOUND:                -8.394
REMARK SMILES C=C1C(=O)N[C@H](C)C(=O)N[C@@H](CC(C)C)C(=O)N[C@@H](C(=O)O)[C@H](C)C(=O)N[C@@H](CCCN=C(N)N)C(=O)N[C@@H](/C=C/C(C)=C/[C@H](C)[C@H](Cc2ccccc2)OC)[C@H](C)C(=O)N[C@@H](C(=O)O)CCC(=O)N1C
REMARK SMILES IDX 39 1 38 2 37 3 36 4 28 6 27 7 25 8 26 9 23 11 24 12 19 13
REMARK SMILES IDX 18 14 16 15 17 16 11 18 10 19 8 20 9 21 12 24 13 25 14 26
REMARK SMILES IDX 15 27 20 28 21 29 22 30 29 32 30 33 31 34 32 35 33 36 34 37
REMARK SMILES IDX 35 38 57 43 58 44 59 45 60 46 61 47 62 49 66 50 67 51 68 52
REMARK SMILES IDX 69 53 70 54 71 55 2 56 1 57 3 58 4 59 5 60 6 62 7 63 63 65
REMARK SMILES IDX 64 66 65 67 40 69 41 70 42 71 44 72 43 73 45 74 46 75 47 76
REMARK SMILES IDX 55 77 56 78 48 79 49 80 50 81 54 82 51 83 53 84 52 85
REMARK H PARENT 38 5 27 10 18 17 10 22 22 31 34 39 34 40 35 41 35 42 61 48
REMARK H PARENT 5 61 65 68
REMARK Flexibility Score:  369.900
ROOT
ATOM      1  C   UNL     1      17.151  -4.989  -2.760  1.00  0.00     0.117 C 
ENDROOT
BRANCH   1   2
ATOM      2  N   UNL     1      17.558  -3.613  -2.470  1.00  0.00    -0.347 N 
ATOM      3  O   UNL     1      19.492  -3.592  -3.706  1.00  0.00    -0.273 OA
ATOM      4  C   UNL     1      18.652  -2.994  -3.042  1.00  0.00     0.243 C 
ATOM      5  H   UNL     1      16.991  -3.049  -1.856  1.00  0.00     0.164 HD
BRANCH   4   6
ATOM      6  C   UNL     1      18.812  -1.508  -2.632  1.00  0.00     0.171 C 
BRANCH   6   7
ATOM      7  N   UNL     1      18.159  -0.629  -3.616  1.00  0.00    -0.344 N 
ATOM      8  C   UNL     1      18.849  -0.177  -4.720  1.00  0.00     0.226 C 
ATOM      9  O   UNL     1      20.024  -0.457  -4.925  1.00  0.00    -0.275 OA
ATOM     10  H   UNL     1      17.210  -0.321  -3.445  1.00  0.00     0.164 HD
BRANCH   8  11
ATOM     11  C   UNL     1      18.022   0.674  -5.668  1.00  0.00     0.109 C 
ATOM     12  C   UNL     1      16.537   0.350  -5.507  1.00  0.00     0.021 C 
BRANCH  11  13
ATOM     13  C   UNL     1      18.384   2.161  -5.484  1.00  0.00     0.204 C 
BRANCH  13  14
ATOM     14  N   UNL     1      17.227   3.040  -5.684  1.00  0.00    -0.340 N 
ATOM     15  C   UNL     1      17.334   4.310  -6.209  1.00  0.00     0.243 C 
ATOM     16  O   UNL     1      18.402   4.774  -6.603  1.00  0.00    -0.273 OA
ATOM     17  H   UNL     1      16.342   2.777  -5.242  1.00  0.00     0.164 HD
BRANCH  15  18
ATOM     18  C   UNL     1      16.018   5.123  -6.132  1.00  0.00     0.171 C 
BRANCH  18  19
ATOM     19  N   UNL     1      16.177   6.075  -5.034  1.00  0.00    -0.343 N 
ATOM     20  C   UNL     1      16.117   5.678  -3.712  1.00  0.00     0.242 CG0
ATOM     21  O   UNL     1      15.795   4.535  -3.397  1.00  0.00    -0.273 OA
ATOM     22  H   UNL     1      16.330   7.055  -5.244  1.00  0.00     0.164 HD
ATOM     23  G   UNL     1      16.386   6.808  -2.696  1.00  0.00     0.000 G0
ENDBRANCH  18  19
BRANCH  18  24
ATOM     24  C   UNL     1      15.746   5.838  -7.461  1.00  0.00     0.038 C 
BRANCH  24  25
ATOM     25  C   UNL     1      14.456   6.686  -7.484  1.00  0.00    -0.015 C 
ATOM     26  C   UNL     1      13.492   6.255  -8.589  1.00  0.00     0.007 C 
ATOM     27  C   UNL     1      14.815   8.164  -7.661  1.00  0.00     0.007 C 
ENDBRANCH  24  25
ENDBRANCH  18  24
ENDBRANCH  15  18
ENDBRANCH  13  14
BRANCH  13  28
ATOM     28  C   UNL     1      18.959   2.476  -4.100  1.00  0.00     0.327 C 
ATOM     29  O   UNL     1      20.141   2.593  -3.818  1.00  0.00    -0.250 OA
BRANCH  28  30
ATOM     30  O   UNL     1      18.020   2.507  -3.132  1.00  0.00    -0.480 OA
ATOM     31  H   UNL     1      18.427   2.020  -2.386  1.00  0.00     0.296 HD
ENDBRANCH  28  30
ENDBRANCH  13  28
ENDBRANCH  11  13
ENDBRANCH   8  11
ENDBRANCH   6   7
BRANCH   6  32
ATOM     32  C   UNL     1      18.214  -1.304  -1.235  1.00  0.00     0.037 C 
BRANCH  32  33
ATOM     33  C   UNL     1      17.029  -0.329  -1.249  1.00  0.00     0.026 C 
BRANCH  33  34
ATOM     34  C   UNL     1      17.113   0.711  -0.131  1.00  0.00     0.146 C 
BRANCH  34  35
ATOM     35  N   UNL     1      16.619   1.985  -0.636  1.00  0.00    -0.254 NA
ATOM     36  C   UNL     1      15.463   2.388  -0.260  1.00  0.00     0.185 C 
ATOM     37  N   UNL     1      15.000   3.563  -0.715  1.00  0.00    -0.370 N 
ATOM     38  N   UNL     1      14.588   1.790   0.568  1.00  0.00    -0.370 N 
ATOM     39  H   UNL     1      15.608   4.080  -1.337  1.00  0.00     0.159 HD
ATOM     40  H   UNL     1      14.192   4.026  -0.336  1.00  0.00     0.159 HD
ATOM     41  H   UNL     1      13.651   2.142   0.678  1.00  0.00     0.159 HD
ATOM     42  H   UNL     1      14.798   0.892   0.973  1.00  0.00     0.159 HD
ENDBRANCH  34  35
ENDBRANCH  33  34
ENDBRANCH  32  33
ENDBRANCH   6  32
ENDBRANCH   4   6
ENDBRANCH   1   2
BRANCH   1  43
ATOM     43  C   UNL     1      15.686  -4.972  -3.284  1.00  0.00     0.102 C 
ATOM     44  C   UNL     1      14.637  -5.146  -2.173  1.00  0.00     0.020 C 
BRANCH  43  45
ATOM     45  C   UNL     1      15.512  -5.937  -4.461  1.00  0.00     0.225 C 
ATOM     46  O   UNL     1      14.644  -5.799  -5.318  1.00  0.00    -0.275 OA
ATOM     47  N   UNL     1      16.337  -7.038  -4.451  1.00  0.00    -0.342 N 
ATOM     48  H   UNL     1      17.137  -7.058  -3.834  1.00  0.00     0.164 HD
BRANCH  47  49
ATOM     49  C   UNL     1      16.306  -8.028  -5.532  1.00  0.00     0.192 C 
BRANCH  49  50
ATOM     50  C   UNL     1      16.862  -9.361  -5.024  1.00  0.00     0.047 C 
BRANCH  50  51
ATOM     51  C   UNL     1      17.131  -9.342  -3.513  1.00  0.00     0.103 C 
BRANCH  51  52
ATOM     52  C   UNL     1      16.789 -10.676  -2.853  1.00  0.00     0.226 C 
ATOM     53  O   UNL     1      17.689 -11.475  -2.588  1.00  0.00    -0.275 OA
BRANCH  52  54
ATOM     54  N   UNL     1      15.438 -10.878  -2.512  1.00  0.00    -0.311 N 
ATOM     55  C   UNL     1      14.949 -10.588  -1.158  1.00  0.00     0.153 C 
BRANCH  54  56
ATOM     56  C   UNL     1      14.510 -11.357  -3.451  1.00  0.00     0.102 C 
ATOM     57  C   UNL     1      13.429 -10.682  -3.876  1.00  0.00     0.043 C 
BRANCH  56  58
ATOM     58  C   UNL     1      14.697 -12.704  -4.108  1.00  0.00     0.268 C 
ATOM     59  O   UNL     1      14.305 -12.958  -5.239  1.00  0.00    -0.268 OA
ATOM     60  N   UNL     1      15.408 -13.589  -3.333  1.00  0.00    -0.339 N 
ATOM     61  H   UNL     1      15.689 -13.305  -2.402  1.00  0.00     0.164 HD
BRANCH  60  62
ATOM     62  C   UNL     1      15.757 -14.929  -3.803  1.00  0.00     0.168 CG0
ATOM     63  C   UNL     1      14.997 -15.996  -3.024  1.00  0.00     0.041 C 
ATOM     64  G   UNL     1      17.280 -15.141  -3.676  1.00  0.00     0.000 G0
ENDBRANCH  60  62
ENDBRANCH  56  58
ENDBRANCH  54  56
ENDBRANCH  52  54
ENDBRANCH  51  52
ENDBRANCH  50  51
ENDBRANCH  49  50
BRANCH  49  65
ATOM     65  C   UNL     1      17.125  -7.565  -6.747  1.00  0.00     0.326 C 
ATOM     66  O   UNL     1      18.306  -7.810  -6.943  1.00  0.00    -0.250 OA
BRANCH  65  67
ATOM     67  O   UNL     1      16.450  -6.780  -7.616  1.00  0.00    -0.480 OA
ATOM     68  H   UNL     1      16.571  -5.876  -7.252  1.00  0.00     0.296 HD
ENDBRANCH  65  67
ENDBRANCH  49  65
ENDBRANCH  47  49
ENDBRANCH  43  45
ENDBRANCH   1  43
BRANCH   1  69
ATOM     69  C   UNL     1      17.477  -5.798  -1.518  1.00  0.00    -0.001 C 
ATOM     70  C   UNL     1      18.518  -6.629  -1.334  1.00  0.00     0.001 C 
BRANCH  70  71
ATOM     71  C   UNL     1      18.833  -7.389  -0.123  1.00  0.00    -0.055 C 
ATOM     72  C   UNL     1      17.896  -8.240   0.346  1.00  0.00    -0.018 C 
ATOM     73  C   UNL     1      20.183  -7.173   0.510  1.00  0.00     0.044 C 
BRANCH  72  74
ATOM     74  C   UNL     1      17.946  -9.150   1.565  1.00  0.00     0.038 C 
ATOM     75  C   UNL     1      17.900 -10.595   1.054  1.00  0.00     0.015 C 
BRANCH  74  76
ATOM     76  C   UNL     1      16.785  -8.760   2.528  1.00  0.00     0.128 C 
BRANCH  76  77
ATOM     77  O   UNL     1      16.491  -9.856   3.411  1.00  0.00    -0.381 OA
ATOM     78  C   UNL     1      15.234  -9.742   4.063  1.00  0.00     0.195 C 
ENDBRANCH  76  77
BRANCH  76  79
ATOM     79  C   UNL     1      17.014  -7.427   3.283  1.00  0.00     0.068 C 
BRANCH  79  80
ATOM     80  C   UNL     1      16.679  -6.142   2.566  1.00  0.00    -0.045 A 
ATOM     81  C   UNL     1      17.629  -5.121   2.432  1.00  0.00     0.004 A 
ATOM     82  C   UNL     1      15.392  -5.938   2.044  1.00  0.00     0.004 A 
ATOM     83  C   UNL     1      17.306  -3.929   1.779  1.00  0.00     0.000 A 
ATOM     84  C   UNL     1      15.071  -4.745   1.393  1.00  0.00     0.000 A 
ATOM     85  C   UNL     1      16.028  -3.742   1.259  1.00  0.00     0.000 A 
ENDBRANCH  79  80
ENDBRANCH  76  79
ENDBRANCH  74  76
ENDBRANCH  72  74
ENDBRANCH  70  71
ENDBRANCH   1  69
TORSDOF 17
ENDMDL
MODEL 35
REMARK VINA RESULT:    -4.648      5.521     14.870
REMARK INTER + INTRA:         -22.281
REMARK INTER:                 -12.685
REMARK INTRA:                  -9.596
REMARK UNBOUND:                -8.394
REMARK SMILES C=C1C(=O)N[C@H](C)C(=O)N[C@@H](CC(C)C)C(=O)N[C@@H](C(=O)O)[C@H](C)C(=O)N[C@@H](CCCN=C(N)N)C(=O)N[C@@H](/C=C/C(C)=C/[C@H](C)[C@H](Cc2ccccc2)OC)[C@H](C)C(=O)N[C@@H](C(=O)O)CCC(=O)N1C
REMARK SMILES IDX 39 1 38 2 37 3 36 4 28 6 27 7 25 8 26 9 23 11 24 12 19 13
REMARK SMILES IDX 18 14 16 15 17 16 11 18 10 19 8 20 9 21 12 24 13 25 14 26
REMARK SMILES IDX 15 27 20 28 21 29 22 30 29 32 30 33 31 34 32 35 33 36 34 37
REMARK SMILES IDX 35 38 57 43 58 44 59 45 60 46 61 47 62 49 66 50 67 51 68 52
REMARK SMILES IDX 69 53 70 54 71 55 2 56 1 57 3 58 4 59 5 60 6 62 7 63 63 65
REMARK SMILES IDX 64 66 65 67 40 69 41 70 42 71 44 72 43 73 45 74 46 75 47 76
REMARK SMILES IDX 55 77 56 78 48 79 49 80 50 81 54 82 51 83 53 84 52 85
REMARK H PARENT 38 5 27 10 18 17 10 22 22 31 34 39 34 40 35 41 35 42 61 48
REMARK H PARENT 5 61 65 68
REMARK Flexibility Score:  369.900
ROOT
ATOM      1  C   UNL     1      14.514  -5.614  -1.696  1.00  0.00     0.117 C 
ENDROOT
BRANCH   1   2
ATOM      2  N   UNL     1      14.448  -6.768  -0.799  1.00  0.00    -0.347 N 
ATOM      3  O   UNL     1      15.990  -6.054   0.744  1.00  0.00    -0.273 OA
ATOM      4  C   UNL     1      15.127  -6.854   0.401  1.00  0.00     0.243 C 
ATOM      5  H   UNL     1      13.838  -7.538  -1.028  1.00  0.00     0.164 HD
BRANCH   4   6
ATOM      6  C   UNL     1      14.817  -8.145   1.201  1.00  0.00     0.171 C 
BRANCH   6   7
ATOM      7  N   UNL     1      13.525  -8.712   0.782  1.00  0.00    -0.344 N 
ATOM      8  C   UNL     1      12.400  -8.548   1.561  1.00  0.00     0.226 C 
ATOM      9  O   UNL     1      12.419  -7.954   2.632  1.00  0.00    -0.275 OA
ATOM     10  H   UNL     1      13.484  -9.267  -0.064  1.00  0.00     0.164 HD
BRANCH   8  11
ATOM     11  C   UNL     1      11.136  -9.144   0.966  1.00  0.00     0.109 C 
ATOM     12  C   UNL     1       9.910  -8.649   1.733  1.00  0.00     0.021 C 
BRANCH  11  13
ATOM     13  C   UNL     1      11.100  -8.881  -0.553  1.00  0.00     0.204 C 
BRANCH  13  14
ATOM     14  N   UNL     1      11.300 -10.108  -1.330  1.00  0.00    -0.340 N 
ATOM     15  C   UNL     1      12.458 -10.369  -2.031  1.00  0.00     0.243 C 
ATOM     16  O   UNL     1      13.430  -9.617  -2.004  1.00  0.00    -0.273 OA
ATOM     17  H   UNL     1      10.484 -10.697  -1.516  1.00  0.00     0.164 HD
BRANCH  15  18
ATOM     18  C   UNL     1      12.361 -11.619  -2.940  1.00  0.00     0.171 C 
BRANCH  18  19
ATOM     19  N   UNL     1      12.652 -12.775  -2.094  1.00  0.00    -0.343 N 
ATOM     20  C   UNL     1      13.886 -13.397  -2.109  1.00  0.00     0.242 CG0
ATOM     21  O   UNL     1      14.750 -13.092  -2.927  1.00  0.00    -0.273 OA
ATOM     22  H   UNL     1      11.930 -13.138  -1.483  1.00  0.00     0.164 HD
ATOM     23  G   UNL     1      14.030 -14.549  -1.093  1.00  0.00     0.000 G0
ENDBRANCH  18  19
BRANCH  18  24
ATOM     24  C   UNL     1      10.969 -11.722  -3.573  1.00  0.00     0.038 C 
BRANCH  24  25
ATOM     25  C   UNL     1      10.818 -12.847  -4.619  1.00  0.00    -0.015 C 
ATOM     26  C   UNL     1      11.994 -12.900  -5.595  1.00  0.00     0.007 C 
ATOM     27  C   UNL     1       9.512 -12.656  -5.396  1.00  0.00     0.007 C 
ENDBRANCH  24  25
ENDBRANCH  18  24
ENDBRANCH  15  18
ENDBRANCH  13  14
BRANCH  13  28
ATOM     28  C   UNL     1       9.785  -8.254  -1.026  1.00  0.00     0.327 C 
ATOM     29  O   UNL     1       8.752  -8.852  -1.289  1.00  0.00    -0.250 OA
BRANCH  28  30
ATOM     30  O   UNL     1       9.883  -6.928  -1.253  1.00  0.00    -0.480 OA
ATOM     31  H   UNL     1      10.348  -6.582  -0.463  1.00  0.00     0.296 HD
ENDBRANCH  28  30
ENDBRANCH  13  28
ENDBRANCH  11  13
ENDBRANCH   8  11
ENDBRANCH   6   7
BRANCH   6  32
ATOM     32  C   UNL     1      15.952  -9.153   0.989  1.00  0.00     0.037 C 
BRANCH  32  33
ATOM     33  C   UNL     1      15.432 -10.591   0.856  1.00  0.00     0.026 C 
BRANCH  33  34
ATOM     34  C   UNL     1      15.540 -11.377   2.163  1.00  0.00     0.146 C 
BRANCH  34  35
ATOM     35  N   UNL     1      14.316 -11.184   2.930  1.00  0.00    -0.254 NA
ATOM     36  C   UNL     1      14.368 -10.489   4.004  1.00  0.00     0.185 C 
ATOM     37  N   UNL     1      13.245 -10.300   4.716  1.00  0.00    -0.370 N 
ATOM     38  N   UNL     1      15.427  -9.881   4.567  1.00  0.00    -0.370 N 
ATOM     39  H   UNL     1      12.400 -10.720   4.350  1.00  0.00     0.159 HD
ATOM     40  H   UNL     1      13.166  -9.633   5.464  1.00  0.00     0.159 HD
ATOM     41  H   UNL     1      15.368  -9.480   5.489  1.00  0.00     0.159 HD
ATOM     42  H   UNL     1      16.341  -9.951   4.149  1.00  0.00     0.159 HD
ENDBRANCH  34  35
ENDBRANCH  33  34
ENDBRANCH  32  33
ENDBRANCH   6  32
ENDBRANCH   4   6
ENDBRANCH   1   2
BRANCH   1  43
ATOM     43  C   UNL     1      13.365  -4.633  -1.325  1.00  0.00     0.102 C 
ATOM     44  C   UNL     1      12.364  -4.402  -2.470  1.00  0.00     0.020 C 
BRANCH  43  45
ATOM     45  C   UNL     1      13.919  -3.342  -0.715  1.00  0.00     0.225 C 
ATOM     46  O   UNL     1      13.205  -2.419  -0.335  1.00  0.00    -0.275 OA
ATOM     47  N   UNL     1      15.291  -3.235  -0.702  1.00  0.00    -0.342 N 
ATOM     48  H   UNL     1      15.859  -4.053  -0.873  1.00  0.00     0.164 HD
BRANCH  47  49
ATOM     49  C   UNL     1      15.963  -2.071  -0.116  1.00  0.00     0.192 C 
BRANCH  49  50
ATOM     50  C   UNL     1      16.974  -1.503  -1.116  1.00  0.00     0.047 C 
BRANCH  50  51
ATOM     51  C   UNL     1      17.751  -0.310  -0.543  1.00  0.00     0.103 C 
BRANCH  51  52
ATOM     52  C   UNL     1      17.170   1.026  -1.003  1.00  0.00     0.226 C 
ATOM     53  O   UNL     1      16.220   1.520  -0.393  1.00  0.00    -0.275 OA
BRANCH  52  54
ATOM     54  N   UNL     1      17.825   1.659  -2.076  1.00  0.00    -0.311 N 
ATOM     55  C   UNL     1      19.168   2.231  -1.911  1.00  0.00     0.153 C 
BRANCH  54  56
ATOM     56  C   UNL     1      17.225   1.761  -3.342  1.00  0.00     0.102 C 
ATOM     57  C   UNL     1      17.282   0.820  -4.298  1.00  0.00     0.043 C 
BRANCH  56  58
ATOM     58  C   UNL     1      16.400   2.971  -3.713  1.00  0.00     0.268 C 
ATOM     59  O   UNL     1      15.362   3.276  -3.141  1.00  0.00    -0.268 OA
ATOM     60  N   UNL     1      16.969   3.727  -4.710  1.00  0.00    -0.339 N 
ATOM     61  H   UNL     1      17.825   3.401  -5.141  1.00  0.00     0.164 HD
BRANCH  60  62
ATOM     62  C   UNL     1      16.369   4.975  -5.180  1.00  0.00     0.168 CG0
ATOM     63  C   UNL     1      15.439   4.725  -6.361  1.00  0.00     0.041 C 
ATOM     64  G   UNL     1      17.482   5.972  -5.563  1.00  0.00     0.000 G0
ENDBRANCH  60  62
ENDBRANCH  56  58
ENDBRANCH  54  56
ENDBRANCH  52  54
ENDBRANCH  51  52
ENDBRANCH  50  51
ENDBRANCH  49  50
BRANCH  49  65
ATOM     65  C   UNL     1      16.687  -2.432   1.190  1.00  0.00     0.326 C 
ATOM     66  O   UNL     1      16.610  -1.812   2.241  1.00  0.00    -0.250 OA
BRANCH  65  67
ATOM     67  O   UNL     1      17.508  -3.502   1.102  1.00  0.00    -0.480 OA
ATOM     68  H   UNL     1      18.356  -3.118   0.793  1.00  0.00     0.296 HD
ENDBRANCH  65  67
ENDBRANCH  49  65
ENDBRANCH  47  49
ENDBRANCH  43  45
ENDBRANCH   1  43
BRANCH   1  69
ATOM     69  C   UNL     1      14.573  -6.175  -3.105  1.00  0.00    -0.001 C 
ATOM     70  C   UNL     1      15.340  -5.747  -4.123  1.00  0.00     0.001 C 
BRANCH  70  71
ATOM     71  C   UNL     1      15.404  -6.310  -5.474  1.00  0.00    -0.055 C 
ATOM     72  C   UNL     1      14.240  -6.502  -6.129  1.00  0.00    -0.018 C 
ATOM     73  C   UNL     1      16.764  -6.628  -6.038  1.00  0.00     0.044 C 
BRANCH  72  74
ATOM     74  C   UNL     1      14.002  -7.060  -7.525  1.00  0.00     0.038 C 
ATOM     75  C   UNL     1      12.808  -6.303  -8.118  1.00  0.00     0.015 C 
BRANCH  74  76
ATOM     76  C   UNL     1      13.812  -8.602  -7.422  1.00  0.00     0.128 C 
BRANCH  76  77
ATOM     77  O   UNL     1      15.051  -9.271  -7.712  1.00  0.00    -0.381 OA
ATOM     78  C   UNL     1      15.646  -8.864  -8.937  1.00  0.00     0.195 C 
ENDBRANCH  76  77
BRANCH  76  79
ATOM     79  C   UNL     1      13.176  -9.070  -6.089  1.00  0.00     0.068 C 
BRANCH  79  80
ATOM     80  C   UNL     1      11.676  -8.975  -5.950  1.00  0.00    -0.045 A 
ATOM     81  C   UNL     1      10.827  -9.363  -6.995  1.00  0.00     0.004 A 
ATOM     82  C   UNL     1      11.106  -8.467  -4.772  1.00  0.00     0.004 A 
ATOM     83  C   UNL     1       9.441  -9.259  -6.863  1.00  0.00     0.000 A 
ATOM     84  C   UNL     1       9.719  -8.362  -4.642  1.00  0.00     0.000 A 
ATOM     85  C   UNL     1       8.887  -8.760  -5.686  1.00  0.00     0.000 A 
ENDBRANCH  79  80
ENDBRANCH  76  79
ENDBRANCH  74  76
ENDBRANCH  72  74
ENDBRANCH  70  71
ENDBRANCH   1  69
TORSDOF 17
ENDMDL
MODEL 36
REMARK VINA RESULT:    -4.626     18.695     24.078
REMARK INTER + INTRA:         -22.216
REMARK INTER:                 -17.636
REMARK INTRA:                  -4.579
REMARK UNBOUND:                -8.394
REMARK SMILES C=C1C(=O)N[C@H](C)C(=O)N[C@@H](CC(C)C)C(=O)N[C@@H](C(=O)O)[C@H](C)C(=O)N[C@@H](CCCN=C(N)N)C(=O)N[C@@H](/C=C/C(C)=C/[C@H](C)[C@H](Cc2ccccc2)OC)[C@H](C)C(=O)N[C@@H](C(=O)O)CCC(=O)N1C
REMARK SMILES IDX 39 1 38 2 37 3 36 4 28 6 27 7 25 8 26 9 23 11 24 12 19 13
REMARK SMILES IDX 18 14 16 15 17 16 11 18 10 19 8 20 9 21 12 24 13 25 14 26
REMARK SMILES IDX 15 27 20 28 21 29 22 30 29 32 30 33 31 34 32 35 33 36 34 37
REMARK SMILES IDX 35 38 57 43 58 44 59 45 60 46 61 47 62 49 66 50 67 51 68 52
REMARK SMILES IDX 69 53 70 54 71 55 2 56 1 57 3 58 4 59 5 60 6 62 7 63 63 65
REMARK SMILES IDX 64 66 65 67 40 69 41 70 42 71 44 72 43 73 45 74 46 75 47 76
REMARK SMILES IDX 55 77 56 78 48 79 49 80 50 81 54 82 51 83 53 84 52 85
REMARK H PARENT 38 5 27 10 18 17 10 22 22 31 34 39 34 40 35 41 35 42 61 48
REMARK H PARENT 5 61 65 68
REMARK Flexibility Score:  369.900
ROOT
ATOM      1  C   UNL     1      -3.540 -11.411  -0.419  1.00  0.00     0.117 C 
ENDROOT
BRANCH   1   2
ATOM      2  N   UNL     1      -2.383 -10.516  -0.480  1.00  0.00    -0.347 N 
ATOM      3  O   UNL     1      -0.804 -11.992   0.293  1.00  0.00    -0.273 OA
ATOM      4  C   UNL     1      -1.087 -10.907  -0.205  1.00  0.00     0.243 C 
ATOM      5  H   UNL     1      -2.511  -9.564  -0.787  1.00  0.00     0.164 HD
BRANCH   4   6
ATOM      6  C   UNL     1      -0.038  -9.789  -0.428  1.00  0.00     0.171 C 
BRANCH   6   7
ATOM      7  N   UNL     1       0.925 -10.188  -1.468  1.00  0.00    -0.344 N 
ATOM      8  C   UNL     1       2.158 -10.697  -1.126  1.00  0.00     0.226 C 
ATOM      9  O   UNL     1       2.521 -10.822   0.038  1.00  0.00    -0.275 OA
ATOM     10  H   UNL     1       0.687 -10.036  -2.440  1.00  0.00     0.164 HD
BRANCH   8  11
ATOM     11  C   UNL     1       3.014 -11.112  -2.309  1.00  0.00     0.109 C 
ATOM     12  C   UNL     1       2.126 -11.489  -3.495  1.00  0.00     0.021 C 
BRANCH  11  13
ATOM     13  C   UNL     1       4.060 -10.018  -2.605  1.00  0.00     0.204 C 
BRANCH  13  14
ATOM     14  N   UNL     1       5.137 -10.001  -1.611  1.00  0.00    -0.340 N 
ATOM     15  C   UNL     1       5.344  -8.945  -0.750  1.00  0.00     0.243 C 
ATOM     16  O   UNL     1       4.601  -7.966  -0.714  1.00  0.00    -0.273 OA
ATOM     17  H   UNL     1       5.875 -10.707  -1.689  1.00  0.00     0.164 HD
BRANCH  15  18
ATOM     18  C   UNL     1       6.658  -9.058   0.062  1.00  0.00     0.171 C 
BRANCH  18  19
ATOM     19  N   UNL     1       7.707  -8.449  -0.753  1.00  0.00    -0.343 N 
ATOM     20  C   UNL     1       8.406  -9.173  -1.700  1.00  0.00     0.242 CG0
ATOM     21  O   UNL     1       8.270 -10.389  -1.809  1.00  0.00    -0.273 OA
ATOM     22  H   UNL     1       7.937  -7.471  -0.619  1.00  0.00     0.164 HD
ATOM     23  G   UNL     1       9.418  -8.343  -2.516  1.00  0.00     0.000 G0
ENDBRANCH  18  19
BRANCH  18  24
ATOM     24  C   UNL     1       6.519  -8.353   1.417  1.00  0.00     0.038 C 
BRANCH  24  25
ATOM     25  C   UNL     1       7.327  -7.045   1.549  1.00  0.00    -0.015 C 
ATOM     26  C   UNL     1       7.881  -6.838   2.959  1.00  0.00     0.007 C 
ATOM     27  C   UNL     1       6.446  -5.854   1.162  1.00  0.00     0.007 C 
ENDBRANCH  24  25
ENDBRANCH  18  24
ENDBRANCH  15  18
ENDBRANCH  13  14
BRANCH  13  28
ATOM     28  C   UNL     1       4.715 -10.166  -3.982  1.00  0.00     0.327 C 
ATOM     29  O   UNL     1       5.488 -11.049  -4.323  1.00  0.00    -0.250 OA
BRANCH  28  30
ATOM     30  O   UNL     1       4.454  -9.132  -4.806  1.00  0.00    -0.480 OA
ATOM     31  H   UNL     1       4.421  -8.353  -4.213  1.00  0.00     0.296 HD
ENDBRANCH  28  30
ENDBRANCH  13  28
ENDBRANCH  11  13
ENDBRANCH   8  11
ENDBRANCH   6   7
BRANCH   6  32
ATOM     32  C   UNL     1      -0.758  -8.493  -0.817  1.00  0.00     0.037 C 
BRANCH  32  33
ATOM     33  C   UNL     1      -1.173  -7.671   0.411  1.00  0.00     0.026 C 
BRANCH  33  34
ATOM     34  C   UNL     1      -2.084  -6.497   0.049  1.00  0.00     0.146 C 
BRANCH  34  35
ATOM     35  N   UNL     1      -1.866  -5.421   1.005  1.00  0.00    -0.254 NA
ATOM     36  C   UNL     1      -1.613  -4.246   0.560  1.00  0.00     0.185 C 
ATOM     37  N   UNL     1      -1.416  -3.245   1.432  1.00  0.00    -0.370 N 
ATOM     38  N   UNL     1      -1.508  -3.830  -0.714  1.00  0.00    -0.370 N 
ATOM     39  H   UNL     1      -1.489  -3.478   2.415  1.00  0.00     0.159 HD
ATOM     40  H   UNL     1      -1.386  -2.276   1.169  1.00  0.00     0.159 HD
ATOM     41  H   UNL     1      -1.167  -2.908  -0.934  1.00  0.00     0.159 HD
ATOM     42  H   UNL     1      -1.617  -4.480  -1.477  1.00  0.00     0.159 HD
ENDBRANCH  34  35
ENDBRANCH  33  34
ENDBRANCH  32  33
ENDBRANCH   6  32
ENDBRANCH   4   6
ENDBRANCH   1   2
BRANCH   1  43
ATOM     43  C   UNL     1      -3.716 -11.892   1.050  1.00  0.00     0.102 C 
ATOM     44  C   UNL     1      -4.381 -13.274   1.166  1.00  0.00     0.020 C 
BRANCH  43  45
ATOM     45  C   UNL     1      -4.379 -10.810   1.908  1.00  0.00     0.225 C 
ATOM     46  O   UNL     1      -3.885  -9.701   2.089  1.00  0.00    -0.275 OA
ATOM     47  N   UNL     1      -5.536 -11.190   2.550  1.00  0.00    -0.342 N 
ATOM     48  H   UNL     1      -6.005 -12.041   2.274  1.00  0.00     0.164 HD
BRANCH  47  49
ATOM     49  C   UNL     1      -6.298 -10.248   3.376  1.00  0.00     0.192 C 
BRANCH  49  50
ATOM     50  C   UNL     1      -6.104 -10.588   4.856  1.00  0.00     0.047 C 
BRANCH  50  51
ATOM     51  C   UNL     1      -5.115 -11.744   5.063  1.00  0.00     0.103 C 
BRANCH  51  52
ATOM     52  C   UNL     1      -3.863 -11.299   5.817  1.00  0.00     0.226 C 
ATOM     53  O   UNL     1      -3.030 -10.588   5.252  1.00  0.00    -0.275 OA
BRANCH  52  54
ATOM     54  N   UNL     1      -3.778 -11.680   7.169  1.00  0.00    -0.311 N 
ATOM     55  C   UNL     1      -3.020 -12.872   7.572  1.00  0.00     0.153 C 
BRANCH  54  56
ATOM     56  C   UNL     1      -4.406 -10.935   8.181  1.00  0.00     0.102 C 
ATOM     57  C   UNL     1      -3.891  -9.838   8.759  1.00  0.00     0.043 C 
BRANCH  56  58
ATOM     58  C   UNL     1      -5.783 -11.309   8.677  1.00  0.00     0.268 C 
ATOM     59  O   UNL     1      -5.990 -12.249   9.432  1.00  0.00    -0.268 OA
ATOM     60  N   UNL     1      -6.764 -10.448   8.248  1.00  0.00    -0.339 N 
ATOM     61  H   UNL     1      -6.511  -9.698   7.614  1.00  0.00     0.164 HD
BRANCH  60  62
ATOM     62  C   UNL     1      -8.160 -10.588   8.661  1.00  0.00     0.168 CG0
ATOM     63  C   UNL     1      -8.633  -9.353   9.417  1.00  0.00     0.041 C 
ATOM     64  G   UNL     1      -8.316 -11.853   9.530  1.00  0.00     0.000 G0
ENDBRANCH  60  62
ENDBRANCH  56  58
ENDBRANCH  54  56
ENDBRANCH  52  54
ENDBRANCH  51  52
ENDBRANCH  50  51
ENDBRANCH  49  50
BRANCH  49  65
ATOM     65  C   UNL     1      -7.796 -10.283   3.038  1.00  0.00     0.326 C 
ATOM     66  O   UNL     1      -8.690  -9.802   3.720  1.00  0.00    -0.250 OA
BRANCH  65  67
ATOM     67  O   UNL     1      -8.105 -10.961   1.911  1.00  0.00    -0.480 OA
ATOM     68  H   UNL     1      -7.648 -11.822   2.027  1.00  0.00     0.296 HD
ENDBRANCH  65  67
ENDBRANCH  49  65
ENDBRANCH  47  49
ENDBRANCH  43  45
ENDBRANCH   1  43
BRANCH   1  69
ATOM     69  C   UNL     1      -3.333 -12.445  -1.510  1.00  0.00    -0.001 C 
ATOM     70  C   UNL     1      -4.094 -12.645  -2.601  1.00  0.00     0.001 C 
BRANCH  70  71
ATOM     71  C   UNL     1      -3.873 -13.633  -3.658  1.00  0.00    -0.055 C 
ATOM     72  C   UNL     1      -3.960 -13.213  -4.938  1.00  0.00    -0.018 C 
ATOM     73  C   UNL     1      -3.556 -15.047  -3.244  1.00  0.00     0.044 C 
BRANCH  72  74
ATOM     74  C   UNL     1      -3.778 -14.003  -6.226  1.00  0.00     0.038 C 
ATOM     75  C   UNL     1      -2.457 -13.545  -6.856  1.00  0.00     0.015 C 
BRANCH  74  76
ATOM     76  C   UNL     1      -5.035 -13.798  -7.122  1.00  0.00     0.128 C 
BRANCH  76  77
ATOM     77  O   UNL     1      -6.229 -13.966  -6.338  1.00  0.00    -0.381 OA
ATOM     78  C   UNL     1      -7.102 -14.971  -6.836  1.00  0.00     0.195 C 
ENDBRANCH  76  77
BRANCH  76  79
ATOM     79  C   UNL     1      -5.026 -12.472  -7.924  1.00  0.00     0.068 C 
BRANCH  79  80
ATOM     80  C   UNL     1      -5.110 -12.556  -9.429  1.00  0.00    -0.045 A 
ATOM     81  C   UNL     1      -5.947 -13.490 -10.054  1.00  0.00     0.004 A 
ATOM     82  C   UNL     1      -4.324 -11.713 -10.229  1.00  0.00     0.004 A 
ATOM     83  C   UNL     1      -6.008 -13.571 -11.447  1.00  0.00     0.000 A 
ATOM     84  C   UNL     1      -4.386 -11.795 -11.622  1.00  0.00     0.000 A 
ATOM     85  C   UNL     1      -5.229 -12.722 -12.230  1.00  0.00     0.000 A 
ENDBRANCH  79  80
ENDBRANCH  76  79
ENDBRANCH  74  76
ENDBRANCH  72  74
ENDBRANCH  70  71
ENDBRANCH   1  69
TORSDOF 17
ENDMDL
MODEL 37
REMARK VINA RESULT:    -4.618      8.734     15.959
REMARK INTER + INTRA:         -22.192
REMARK INTER:                 -14.788
REMARK INTRA:                  -7.404
REMARK UNBOUND:                -8.394
REMARK SMILES C=C1C(=O)N[C@H](C)C(=O)N[C@@H](CC(C)C)C(=O)N[C@@H](C(=O)O)[C@H](C)C(=O)N[C@@H](CCCN=C(N)N)C(=O)N[C@@H](/C=C/C(C)=C/[C@H](C)[C@H](Cc2ccccc2)OC)[C@H](C)C(=O)N[C@@H](C(=O)O)CCC(=O)N1C
REMARK SMILES IDX 39 1 38 2 37 3 36 4 28 6 27 7 25 8 26 9 23 11 24 12 19 13
REMARK SMILES IDX 18 14 16 15 17 16 11 18 10 19 8 20 9 21 12 24 13 25 14 26
REMARK SMILES IDX 15 27 20 28 21 29 22 30 29 32 30 33 31 34 32 35 33 36 34 37
REMARK SMILES IDX 35 38 57 43 58 44 59 45 60 46 61 47 62 49 66 50 67 51 68 52
REMARK SMILES IDX 69 53 70 54 71 55 2 56 1 57 3 58 4 59 5 60 6 62 7 63 63 65
REMARK SMILES IDX 64 66 65 67 40 69 41 70 42 71 44 72 43 73 45 74 46 75 47 76
REMARK SMILES IDX 55 77 56 78 48 79 49 80 50 81 54 82 51 83 53 84 52 85
REMARK H PARENT 38 5 27 10 18 17 10 22 22 31 34 39 34 40 35 41 35 42 61 48
REMARK H PARENT 5 61 65 68
REMARK Flexibility Score:  369.900
ROOT
ATOM      1  C   UNL     1      11.208  -8.423  -2.395  1.00  0.00     0.117 C 
ENDROOT
BRANCH   1   2
ATOM      2  N   UNL     1       9.818  -8.329  -1.948  1.00  0.00    -0.347 N 
ATOM      3  O   UNL     1      10.175  -8.752   0.279  1.00  0.00    -0.273 OA
ATOM      4  C   UNL     1       9.423  -8.411  -0.627  1.00  0.00     0.243 C 
ATOM      5  H   UNL     1       9.093  -8.144  -2.625  1.00  0.00     0.164 HD
BRANCH   4   6
ATOM      6  C   UNL     1       7.903  -8.193  -0.417  1.00  0.00     0.171 C 
BRANCH   6   7
ATOM      7  N   UNL     1       7.251  -9.455  -0.031  1.00  0.00    -0.344 N 
ATOM      8  C   UNL     1       6.793 -10.331  -0.990  1.00  0.00     0.226 C 
ATOM      9  O   UNL     1       6.882 -10.102  -2.190  1.00  0.00    -0.275 OA
ATOM     10  H   UNL     1       7.099  -9.648   0.951  1.00  0.00     0.164 HD
BRANCH   8  11
ATOM     11  C   UNL     1       6.195 -11.611  -0.433  1.00  0.00     0.109 C 
ATOM     12  C   UNL     1       6.985 -12.071   0.792  1.00  0.00     0.021 C 
BRANCH  11  13
ATOM     13  C   UNL     1       4.683 -11.421  -0.196  1.00  0.00     0.204 C 
BRANCH  13  14
ATOM     14  N   UNL     1       3.918 -11.474  -1.446  1.00  0.00    -0.340 N 
ATOM     15  C   UNL     1       2.657 -10.932  -1.575  1.00  0.00     0.243 C 
ATOM     16  O   UNL     1       2.109 -10.311  -0.666  1.00  0.00    -0.273 OA
ATOM     17  H   UNL     1       4.248 -12.101  -2.185  1.00  0.00     0.164 HD
BRANCH  15  18
ATOM     18  C   UNL     1       1.964 -11.291  -2.912  1.00  0.00     0.171 C 
BRANCH  18  19
ATOM     19  N   UNL     1       1.018 -10.213  -3.195  1.00  0.00    -0.343 N 
ATOM     20  C   UNL     1      -0.336 -10.451  -3.336  1.00  0.00     0.242 CG0
ATOM     21  O   UNL     1      -0.789 -11.593  -3.364  1.00  0.00    -0.273 OA
ATOM     22  H   UNL     1       1.360  -9.265  -3.297  1.00  0.00     0.164 HD
ATOM     23  G   UNL     1      -1.186  -9.182  -3.553  1.00  0.00     0.000 G0
ENDBRANCH  18  19
BRANCH  18  24
ATOM     24  C   UNL     1       2.998 -11.440  -4.035  1.00  0.00     0.038 C 
BRANCH  24  25
ATOM     25  C   UNL     1       3.122 -10.213  -4.963  1.00  0.00    -0.015 C 
ATOM     26  C   UNL     1       3.086 -10.593  -6.444  1.00  0.00     0.007 C 
ATOM     27  C   UNL     1       4.422  -9.464  -4.656  1.00  0.00     0.007 C 
ENDBRANCH  24  25
ENDBRANCH  18  24
ENDBRANCH  15  18
ENDBRANCH  13  14
BRANCH  13  28
ATOM     28  C   UNL     1       4.084 -12.467   0.748  1.00  0.00     0.327 C 
ATOM     29  O   UNL     1       4.092 -13.677   0.585  1.00  0.00    -0.250 OA
BRANCH  28  30
ATOM     30  O   UNL     1       3.407 -11.922   1.780  1.00  0.00    -0.480 OA
ATOM     31  H   UNL     1       2.465 -12.034   1.536  1.00  0.00     0.296 HD
ENDBRANCH  28  30
ENDBRANCH  13  28
ENDBRANCH  11  13
ENDBRANCH   8  11
ENDBRANCH   6   7
BRANCH   6  32
ATOM     32  C   UNL     1       7.692  -7.118   0.655  1.00  0.00     0.037 C 
BRANCH  32  33
ATOM     33  C   UNL     1       6.287  -6.502   0.589  1.00  0.00     0.026 C 
BRANCH  33  34
ATOM     34  C   UNL     1       5.568  -6.539   1.938  1.00  0.00     0.146 C 
BRANCH  34  35
ATOM     35  N   UNL     1       5.832  -7.821   2.576  1.00  0.00    -0.254 NA
ATOM     36  C   UNL     1       4.948  -8.744   2.488  1.00  0.00     0.185 C 
ATOM     37  N   UNL     1       5.183  -9.932   3.067  1.00  0.00    -0.370 N 
ATOM     38  N   UNL     1       3.753  -8.714   1.871  1.00  0.00    -0.370 N 
ATOM     39  H   UNL     1       6.069 -10.037   3.544  1.00  0.00     0.159 HD
ATOM     40  H   UNL     1       4.627 -10.753   2.899  1.00  0.00     0.159 HD
ATOM     41  H   UNL     1       3.086  -9.458   1.991  1.00  0.00     0.159 HD
ATOM     42  H   UNL     1       3.438  -7.877   1.406  1.00  0.00     0.159 HD
ENDBRANCH  34  35
ENDBRANCH  33  34
ENDBRANCH  32  33
ENDBRANCH   6  32
ENDBRANCH   4   6
ENDBRANCH   1   2
BRANCH   1  43
ATOM     43  C   UNL     1      12.056  -7.393  -1.594  1.00  0.00     0.102 C 
ATOM     44  C   UNL     1      12.214  -6.041  -2.310  1.00  0.00     0.020 C 
BRANCH  43  45
ATOM     45  C   UNL     1      13.380  -8.011  -1.133  1.00  0.00     0.225 C 
ATOM     46  O   UNL     1      13.575  -9.222  -1.085  1.00  0.00    -0.275 OA
ATOM     47  N   UNL     1      14.324  -7.118  -0.680  1.00  0.00    -0.342 N 
ATOM     48  H   UNL     1      14.210  -6.131  -0.866  1.00  0.00     0.164 HD
BRANCH  47  49
ATOM     49  C   UNL     1      15.650  -7.562  -0.241  1.00  0.00     0.192 C 
BRANCH  49  50
ATOM     50  C   UNL     1      16.134  -6.678   0.912  1.00  0.00     0.047 C 
BRANCH  50  51
ATOM     51  C   UNL     1      15.064  -5.674   1.363  1.00  0.00     0.103 C 
BRANCH  51  52
ATOM     52  C   UNL     1      15.290  -4.287   0.764  1.00  0.00     0.226 C 
ATOM     53  O   UNL     1      15.604  -4.180  -0.423  1.00  0.00    -0.275 OA
BRANCH  52  54
ATOM     54  N   UNL     1      15.045  -3.191   1.611  1.00  0.00    -0.311 N 
ATOM     55  C   UNL     1      15.421  -3.233   3.030  1.00  0.00     0.153 C 
BRANCH  54  56
ATOM     56  C   UNL     1      14.441  -2.016   1.133  1.00  0.00     0.102 C 
ATOM     57  C   UNL     1      13.118  -1.841   0.979  1.00  0.00     0.043 C 
BRANCH  56  58
ATOM     58  C   UNL     1      15.271  -0.803   0.786  1.00  0.00     0.268 C 
ATOM     59  O   UNL     1      15.119   0.287   1.320  1.00  0.00    -0.268 OA
ATOM     60  N   UNL     1      16.253  -1.067  -0.139  1.00  0.00    -0.339 N 
ATOM     61  H   UNL     1      16.306  -1.994  -0.542  1.00  0.00     0.164 HD
BRANCH  60  62
ATOM     62  C   UNL     1      17.210  -0.049  -0.571  1.00  0.00     0.168 CG0
ATOM     63  C   UNL     1      17.622  -0.266  -2.022  1.00  0.00     0.041 C 
ATOM     64  G   UNL     1      18.442  -0.072   0.356  1.00  0.00     0.000 G0
ENDBRANCH  60  62
ENDBRANCH  56  58
ENDBRANCH  54  56
ENDBRANCH  52  54
ENDBRANCH  51  52
ENDBRANCH  50  51
ENDBRANCH  49  50
BRANCH  49  65
ATOM     65  C   UNL     1      16.674  -7.508  -1.386  1.00  0.00     0.326 C 
ATOM     66  O   UNL     1      16.929  -8.424  -2.154  1.00  0.00    -0.250 OA
BRANCH  65  67
ATOM     67  O   UNL     1      17.361  -6.348  -1.475  1.00  0.00    -0.480 OA
ATOM     68  H   UNL     1      18.290  -6.638  -1.598  1.00  0.00     0.296 HD
ENDBRANCH  65  67
ENDBRANCH  49  65
ENDBRANCH  47  49
ENDBRANCH  43  45
ENDBRANCH   1  43
BRANCH   1  69
ATOM     69  C   UNL     1      11.175  -8.326  -3.909  1.00  0.00    -0.001 C 
ATOM     70  C   UNL     1      10.184  -8.713  -4.731  1.00  0.00     0.001 C 
BRANCH  70  71
ATOM     71  C   UNL     1      10.154  -8.595  -6.190  1.00  0.00    -0.055 C 
ATOM     72  C   UNL     1      11.327  -8.394  -6.827  1.00  0.00    -0.018 C 
ATOM     73  C   UNL     1       8.819  -8.712  -6.877  1.00  0.00     0.044 C 
BRANCH  72  74
ATOM     74  C   UNL     1      11.599  -8.239  -8.317  1.00  0.00     0.038 C 
ATOM     75  C   UNL     1      11.727  -9.650  -8.904  1.00  0.00     0.015 C 
BRANCH  74  76
ATOM     76  C   UNL     1      12.855  -7.337  -8.505  1.00  0.00     0.128 C 
BRANCH  76  77
ATOM     77  O   UNL     1      12.883  -6.807  -9.841  1.00  0.00    -0.381 OA
ATOM     78  C   UNL     1      14.074  -7.117 -10.553  1.00  0.00     0.195 C 
ENDBRANCH  76  77
BRANCH  76  79
ATOM     79  C   UNL     1      13.010  -6.240  -7.421  1.00  0.00     0.068 C 
BRANCH  79  80
ATOM     80  C   UNL     1      14.247  -6.271  -6.556  1.00  0.00    -0.045 A 
ATOM     81  C   UNL     1      14.242  -5.713  -5.271  1.00  0.00     0.004 A 
ATOM     82  C   UNL     1      15.435  -6.837  -7.041  1.00  0.00     0.004 A 
ATOM     83  C   UNL     1      15.395  -5.733  -4.482  1.00  0.00     0.000 A 
ATOM     84  C   UNL     1      16.587  -6.855  -6.252  1.00  0.00     0.000 A 
ATOM     85  C   UNL     1      16.566  -6.305  -4.973  1.00  0.00     0.000 A 
ENDBRANCH  79  80
ENDBRANCH  76  79
ENDBRANCH  74  76
ENDBRANCH  72  74
ENDBRANCH  70  71
ENDBRANCH   1  69
TORSDOF 17
ENDMDL
MODEL 38
REMARK VINA RESULT:    -4.616      5.272     14.847
REMARK INTER + INTRA:         -22.184
REMARK INTER:                 -14.424
REMARK INTRA:                  -7.760
REMARK UNBOUND:                -8.394
REMARK SMILES C=C1C(=O)N[C@H](C)C(=O)N[C@@H](CC(C)C)C(=O)N[C@@H](C(=O)O)[C@H](C)C(=O)N[C@@H](CCCN=C(N)N)C(=O)N[C@@H](/C=C/C(C)=C/[C@H](C)[C@H](Cc2ccccc2)OC)[C@H](C)C(=O)N[C@@H](C(=O)O)CCC(=O)N1C
REMARK SMILES IDX 39 1 38 2 37 3 36 4 28 6 27 7 25 8 26 9 23 11 24 12 19 13
REMARK SMILES IDX 18 14 16 15 17 16 11 18 10 19 8 20 9 21 12 24 13 25 14 26
REMARK SMILES IDX 15 27 20 28 21 29 22 30 29 32 30 33 31 34 32 35 33 36 34 37
REMARK SMILES IDX 35 38 57 43 58 44 59 45 60 46 61 47 62 49 66 50 67 51 68 52
REMARK SMILES IDX 69 53 70 54 71 55 2 56 1 57 3 58 4 59 5 60 6 62 7 63 63 65
REMARK SMILES IDX 64 66 65 67 40 69 41 70 42 71 44 72 43 73 45 74 46 75 47 76
REMARK SMILES IDX 55 77 56 78 48 79 49 80 50 81 54 82 51 83 53 84 52 85
REMARK H PARENT 38 5 27 10 18 17 10 22 22 31 34 39 34 40 35 41 35 42 61 48
REMARK H PARENT 5 61 65 68
REMARK Flexibility Score:  369.900
ROOT
ATOM      1  C   UNL     1      15.478  -4.756  -0.634  1.00  0.00     0.117 C 
ENDROOT
BRANCH   1   2
ATOM      2  N   UNL     1      16.148  -5.700   0.262  1.00  0.00    -0.347 N 
ATOM      3  O   UNL     1      18.220  -4.713   0.263  1.00  0.00    -0.273 OA
ATOM      4  C   UNL     1      17.445  -5.550   0.713  1.00  0.00     0.243 C 
ATOM      5  H   UNL     1      15.633  -6.488   0.624  1.00  0.00     0.164 HD
BRANCH   4   6
ATOM      6  C   UNL     1      17.884  -6.642   1.721  1.00  0.00     0.171 C 
BRANCH   6   7
ATOM      7  N   UNL     1      16.711  -7.223   2.394  1.00  0.00    -0.344 N 
ATOM      8  C   UNL     1      16.623  -7.232   3.769  1.00  0.00     0.226 C 
ATOM      9  O   UNL     1      17.508  -6.786   4.490  1.00  0.00    -0.275 OA
ATOM     10  H   UNL     1      15.991  -7.661   1.833  1.00  0.00     0.164 HD
BRANCH   8  11
ATOM     11  C   UNL     1      15.329  -7.815   4.309  1.00  0.00     0.109 C 
ATOM     12  C   UNL     1      14.497  -6.720   4.977  1.00  0.00     0.021 C 
BRANCH  11  13
ATOM     13  C   UNL     1      14.602  -8.592   3.193  1.00  0.00     0.204 C 
BRANCH  13  14
ATOM     14  N   UNL     1      14.136  -9.905   3.650  1.00  0.00    -0.340 N 
ATOM     15  C   UNL     1      14.880 -11.056   3.502  1.00  0.00     0.243 C 
ATOM     16  O   UNL     1      16.015 -11.053   3.031  1.00  0.00    -0.273 OA
ATOM     17  H   UNL     1      13.150 -10.002   3.908  1.00  0.00     0.164 HD
BRANCH  15  18
ATOM     18  C   UNL     1      14.103 -12.346   3.865  1.00  0.00     0.171 C 
BRANCH  18  19
ATOM     19  N   UNL     1      14.661 -13.416   3.042  1.00  0.00    -0.343 N 
ATOM     20  C   UNL     1      13.868 -14.414   2.508  1.00  0.00     0.242 CG0
ATOM     21  O   UNL     1      12.681 -14.522   2.808  1.00  0.00    -0.273 OA
ATOM     22  H   UNL     1      15.658 -13.436   2.860  1.00  0.00     0.164 HD
ATOM     23  G   UNL     1      14.621 -15.410   1.603  1.00  0.00     0.000 G0
ENDBRANCH  18  19
BRANCH  18  24
ATOM     24  C   UNL     1      14.239 -12.657   5.361  1.00  0.00     0.038 C 
BRANCH  24  25
ATOM     25  C   UNL     1      12.913 -13.003   6.070  1.00  0.00    -0.015 C 
ATOM     26  C   UNL     1      12.044 -11.771   6.321  1.00  0.00     0.007 C 
ATOM     27  C   UNL     1      13.208 -13.704   7.399  1.00  0.00     0.007 C 
ENDBRANCH  24  25
ENDBRANCH  18  24
ENDBRANCH  15  18
ENDBRANCH  13  14
BRANCH  13  28
ATOM     28  C   UNL     1      13.386  -7.848   2.633  1.00  0.00     0.327 C 
ATOM     29  O   UNL     1      12.230  -7.964   3.012  1.00  0.00    -0.250 OA
BRANCH  28  30
ATOM     30  O   UNL     1      13.678  -7.094   1.554  1.00  0.00    -0.480 OA
ATOM     31  H   UNL     1      13.114  -6.300   1.656  1.00  0.00     0.296 HD
ENDBRANCH  28  30
ENDBRANCH  13  28
ENDBRANCH  11  13
ENDBRANCH   8  11
ENDBRANCH   6   7
BRANCH   6  32
ATOM     32  C   UNL     1      18.679  -7.722   0.978  1.00  0.00     0.037 C 
BRANCH  32  33
ATOM     33  C   UNL     1      17.985  -9.090   1.028  1.00  0.00     0.026 C 
BRANCH  33  34
ATOM     34  C   UNL     1      17.068  -9.325  -0.174  1.00  0.00     0.146 C 
BRANCH  34  35
ATOM     35  N   UNL     1      17.434 -10.586  -0.804  1.00  0.00    -0.254 NA
ATOM     36  C   UNL     1      18.021 -10.557  -1.942  1.00  0.00     0.185 C 
ATOM     37  N   UNL     1      18.367 -11.713  -2.529  1.00  0.00    -0.370 N 
ATOM     38  N   UNL     1      18.369  -9.492  -2.686  1.00  0.00    -0.370 N 
ATOM     39  H   UNL     1      18.147 -12.563  -2.024  1.00  0.00     0.159 HD
ATOM     40  H   UNL     1      18.978 -11.772  -3.325  1.00  0.00     0.159 HD
ATOM     41  H   UNL     1      18.702  -9.603  -3.629  1.00  0.00     0.159 HD
ATOM     42  H   UNL     1      18.157  -8.558  -2.374  1.00  0.00     0.159 HD
ENDBRANCH  34  35
ENDBRANCH  33  34
ENDBRANCH  32  33
ENDBRANCH   6  32
ENDBRANCH   4   6
ENDBRANCH   1   2
BRANCH   1  43
ATOM     43  C   UNL     1      14.243  -4.164   0.104  1.00  0.00     0.102 C 
ATOM     44  C   UNL     1      13.493  -3.099  -0.715  1.00  0.00     0.020 C 
BRANCH  43  45
ATOM     45  C   UNL     1      14.612  -3.713   1.520  1.00  0.00     0.225 C 
ATOM     46  O   UNL     1      14.244  -4.305   2.531  1.00  0.00    -0.275 OA
ATOM     47  N   UNL     1      15.315  -2.532   1.601  1.00  0.00    -0.342 N 
ATOM     48  H   UNL     1      15.736  -2.143   0.770  1.00  0.00     0.164 HD
BRANCH  47  49
ATOM     49  C   UNL     1      15.767  -1.997   2.889  1.00  0.00     0.192 C 
BRANCH  49  50
ATOM     50  C   UNL     1      15.873  -0.472   2.803  1.00  0.00     0.047 C 
BRANCH  50  51
ATOM     51  C   UNL     1      16.072   0.018   1.362  1.00  0.00     0.103 C 
BRANCH  51  52
ATOM     52  C   UNL     1      14.847   0.762   0.835  1.00  0.00     0.226 C 
ATOM     53  O   UNL     1      13.758   0.187   0.786  1.00  0.00    -0.275 OA
BRANCH  52  54
ATOM     54  N   UNL     1      15.032   2.117   0.501  1.00  0.00    -0.311 N 
ATOM     55  C   UNL     1      15.866   2.506  -0.644  1.00  0.00     0.153 C 
BRANCH  54  56
ATOM     56  C   UNL     1      14.425   3.144   1.243  1.00  0.00     0.102 C 
ATOM     57  C   UNL     1      14.930   3.684   2.363  1.00  0.00     0.043 C 
BRANCH  56  58
ATOM     58  C   UNL     1      13.127   3.767   0.785  1.00  0.00     0.268 C 
ATOM     59  O   UNL     1      12.429   3.287  -0.098  1.00  0.00    -0.268 OA
ATOM     60  N   UNL     1      12.781   4.885   1.505  1.00  0.00    -0.339 N 
ATOM     61  H   UNL     1      13.420   5.225   2.214  1.00  0.00     0.164 HD
BRANCH  60  62
ATOM     62  C   UNL     1      11.533   5.609   1.268  1.00  0.00     0.168 CG0
ATOM     63  C   UNL     1      11.788   6.913   0.523  1.00  0.00     0.041 C 
ATOM     64  G   UNL     1      10.829   5.878   2.614  1.00  0.00     0.000 G0
ENDBRANCH  60  62
ENDBRANCH  56  58
ENDBRANCH  54  56
ENDBRANCH  52  54
ENDBRANCH  51  52
ENDBRANCH  50  51
ENDBRANCH  49  50
BRANCH  49  65
ATOM     65  C   UNL     1      17.129  -2.579   3.297  1.00  0.00     0.326 C 
ATOM     66  O   UNL     1      18.212  -2.036   3.133  1.00  0.00    -0.250 OA
BRANCH  65  67
ATOM     67  O   UNL     1      17.075  -3.820   3.829  1.00  0.00    -0.480 OA
ATOM     68  H   UNL     1      16.583  -3.692   4.668  1.00  0.00     0.296 HD
ENDBRANCH  65  67
ENDBRANCH  49  65
ENDBRANCH  47  49
ENDBRANCH  43  45
ENDBRANCH   1  43
BRANCH   1  69
ATOM     69  C   UNL     1      15.266  -5.493  -1.944  1.00  0.00    -0.001 C 
ATOM     70  C   UNL     1      15.856  -5.244  -3.126  1.00  0.00     0.001 C 
BRANCH  70  71
ATOM     71  C   UNL     1      15.659  -5.976  -4.379  1.00  0.00    -0.055 C 
ATOM     72  C   UNL     1      14.392  -6.163  -4.805  1.00  0.00    -0.018 C 
ATOM     73  C   UNL     1      16.884  -6.462  -5.108  1.00  0.00     0.044 C 
BRANCH  72  74
ATOM     74  C   UNL     1      13.890  -6.873  -6.054  1.00  0.00     0.038 C 
ATOM     75  C   UNL     1      13.492  -5.789  -7.062  1.00  0.00     0.015 C 
BRANCH  74  76
ATOM     76  C   UNL     1      12.741  -7.843  -5.650  1.00  0.00     0.128 C 
BRANCH  76  77
ATOM     77  O   UNL     1      12.658  -8.925  -6.593  1.00  0.00    -0.381 OA
ATOM     78  C   UNL     1      11.348  -9.143  -7.100  1.00  0.00     0.195 C 
ENDBRANCH  76  77
BRANCH  76  79
ATOM     79  C   UNL     1      12.816  -8.332  -4.182  1.00  0.00     0.068 C 
BRANCH  79  80
ATOM     80  C   UNL     1      11.632  -8.063  -3.285  1.00  0.00    -0.045 A 
ATOM     81  C   UNL     1      11.684  -7.071  -2.298  1.00  0.00     0.004 A 
ATOM     82  C   UNL     1      10.462  -8.828  -3.411  1.00  0.00     0.004 A 
ATOM     83  C   UNL     1      10.589  -6.838  -1.463  1.00  0.00     0.000 A 
ATOM     84  C   UNL     1       9.367  -8.594  -2.575  1.00  0.00     0.000 A 
ATOM     85  C   UNL     1       9.431  -7.599  -1.603  1.00  0.00     0.000 A 
ENDBRANCH  79  80
ENDBRANCH  76  79
ENDBRANCH  74  76
ENDBRANCH  72  74
ENDBRANCH  70  71
ENDBRANCH   1  69
TORSDOF 17
ENDMDL
MODEL 39
REMARK VINA RESULT:    -4.612     12.944     19.353
REMARK INTER + INTRA:         -22.173
REMARK INTER:                 -14.705
REMARK INTRA:                  -7.468
REMARK UNBOUND:                -8.394
REMARK SMILES C=C1C(=O)N[C@H](C)C(=O)N[C@@H](CC(C)C)C(=O)N[C@@H](C(=O)O)[C@H](C)C(=O)N[C@@H](CCCN=C(N)N)C(=O)N[C@@H](/C=C/C(C)=C/[C@H](C)[C@H](Cc2ccccc2)OC)[C@H](C)C(=O)N[C@@H](C(=O)O)CCC(=O)N1C
REMARK SMILES IDX 39 1 38 2 37 3 36 4 28 6 27 7 25 8 26 9 23 11 24 12 19 13
REMARK SMILES IDX 18 14 16 15 17 16 11 18 10 19 8 20 9 21 12 24 13 25 14 26
REMARK SMILES IDX 15 27 20 28 21 29 22 30 29 32 30 33 31 34 32 35 33 36 34 37
REMARK SMILES IDX 35 38 57 43 58 44 59 45 60 46 61 47 62 49 66 50 67 51 68 52
REMARK SMILES IDX 69 53 70 54 71 55 2 56 1 57 3 58 4 59 5 60 6 62 7 63 63 65
REMARK SMILES IDX 64 66 65 67 40 69 41 70 42 71 44 72 43 73 45 74 46 75 47 76
REMARK SMILES IDX 55 77 56 78 48 79 49 80 50 81 54 82 51 83 53 84 52 85
REMARK H PARENT 38 5 27 10 18 17 10 22 22 31 34 39 34 40 35 41 35 42 61 48
REMARK H PARENT 5 61 65 68
REMARK Flexibility Score:  369.900
ROOT
ATOM      1  C   UNL     1       4.707  -9.463  -1.691  1.00  0.00     0.117 C 
ENDROOT
BRANCH   1   2
ATOM      2  N   UNL     1       5.925  -8.921  -1.088  1.00  0.00    -0.347 N 
ATOM      3  O   UNL     1       4.933  -7.363   0.275  1.00  0.00    -0.273 OA
ATOM      4  C   UNL     1       5.935  -7.974  -0.082  1.00  0.00     0.243 C 
ATOM      5  H   UNL     1       6.822  -9.283  -1.375  1.00  0.00     0.164 HD
BRANCH   4   6
ATOM      6  C   UNL     1       7.354  -7.635   0.440  1.00  0.00     0.171 C 
BRANCH   6   7
ATOM      7  N   UNL     1       8.245  -7.290  -0.679  1.00  0.00    -0.344 N 
ATOM      8  C   UNL     1       9.573  -7.658  -0.659  1.00  0.00     0.226 C 
ATOM      9  O   UNL     1      10.078  -8.259   0.282  1.00  0.00    -0.275 OA
ATOM     10  H   UNL     1       7.881  -6.735  -1.443  1.00  0.00     0.164 HD
BRANCH   8  11
ATOM     11  C   UNL     1      10.347  -7.277  -1.909  1.00  0.00     0.109 C 
ATOM     12  C   UNL     1      11.848  -7.278  -1.619  1.00  0.00     0.021 C 
BRANCH  11  13
ATOM     13  C   UNL     1       9.913  -8.175  -3.084  1.00  0.00     0.204 C 
BRANCH  13  14
ATOM     14  N   UNL     1      10.926  -8.227  -4.143  1.00  0.00    -0.340 N 
ATOM     15  C   UNL     1      10.607  -8.337  -5.479  1.00  0.00     0.243 C 
ATOM     16  O   UNL     1       9.446  -8.338  -5.883  1.00  0.00    -0.273 OA
ATOM     17  H   UNL     1      11.900  -8.382  -3.868  1.00  0.00     0.164 HD
BRANCH  15  18
ATOM     18  C   UNL     1      11.836  -8.583  -6.390  1.00  0.00     0.171 C 
BRANCH  18  19
ATOM     19  N   UNL     1      11.513  -8.005  -7.693  1.00  0.00    -0.343 N 
ATOM     20  C   UNL     1      11.475  -8.772  -8.841  1.00  0.00     0.242 CG0
ATOM     21  O   UNL     1      11.839  -9.945  -8.843  1.00  0.00    -0.273 OA
ATOM     22  H   UNL     1      11.317  -7.012  -7.762  1.00  0.00     0.164 HD
ATOM     23  G   UNL     1      11.040  -8.003 -10.106  1.00  0.00     0.000 G0
ENDBRANCH  18  19
BRANCH  18  24
ATOM     24  C   UNL     1      13.093  -7.945  -5.787  1.00  0.00     0.038 C 
BRANCH  24  25
ATOM     25  C   UNL     1      13.588  -6.679  -6.519  1.00  0.00    -0.015 C 
ATOM     26  C   UNL     1      14.842  -6.939  -7.354  1.00  0.00     0.007 C 
ATOM     27  C   UNL     1      13.867  -5.571  -5.501  1.00  0.00     0.007 C 
ENDBRANCH  24  25
ENDBRANCH  18  24
ENDBRANCH  15  18
ENDBRANCH  13  14
BRANCH  13  28
ATOM     28  C   UNL     1       9.620  -9.619  -2.665  1.00  0.00     0.327 C 
ATOM     29  O   UNL     1       8.542 -10.061  -2.299  1.00  0.00    -0.250 OA
BRANCH  28  30
ATOM     30  O   UNL     1      10.726 -10.390  -2.618  1.00  0.00    -0.480 OA
ATOM     31  H   UNL     1      11.282  -9.972  -1.928  1.00  0.00     0.296 HD
ENDBRANCH  28  30
ENDBRANCH  13  28
ENDBRANCH  11  13
ENDBRANCH   8  11
ENDBRANCH   6   7
BRANCH   6  32
ATOM     32  C   UNL     1       7.259  -6.478   1.441  1.00  0.00     0.037 C 
BRANCH  32  33
ATOM     33  C   UNL     1       7.867  -6.838   2.803  1.00  0.00     0.026 C 
BRANCH  33  34
ATOM     34  C   UNL     1       7.504  -8.255   3.250  1.00  0.00     0.146 C 
BRANCH  34  35
ATOM     35  N   UNL     1       6.122  -8.263   3.708  1.00  0.00    -0.254 NA
ATOM     36  C   UNL     1       5.357  -9.222   3.337  1.00  0.00     0.185 C 
ATOM     37  N   UNL     1       4.083  -9.242   3.757  1.00  0.00    -0.370 N 
ATOM     38  N   UNL     1       5.643 -10.273   2.549  1.00  0.00    -0.370 N 
ATOM     39  H   UNL     1       3.793  -8.486   4.365  1.00  0.00     0.159 HD
ATOM     40  H   UNL     1       3.477 -10.038   3.657  1.00  0.00     0.159 HD
ATOM     41  H   UNL     1       4.918 -10.887   2.216  1.00  0.00     0.159 HD
ATOM     42  H   UNL     1       6.562 -10.379   2.148  1.00  0.00     0.159 HD
ENDBRANCH  34  35
ENDBRANCH  33  34
ENDBRANCH  32  33
ENDBRANCH   6  32
ENDBRANCH   4   6
ENDBRANCH   1   2
BRANCH   1  43
ATOM     43  C   UNL     1       4.195 -10.635  -0.805  1.00  0.00     0.102 C 
ATOM     44  C   UNL     1       4.160 -11.987  -1.538  1.00  0.00     0.020 C 
BRANCH  43  45
ATOM     45  C   UNL     1       2.877 -10.269  -0.115  1.00  0.00     0.225 C 
ATOM     46  O   UNL     1       2.792 -10.034   1.087  1.00  0.00    -0.275 OA
ATOM     47  N   UNL     1       1.759 -10.309  -0.916  1.00  0.00    -0.342 N 
ATOM     48  H   UNL     1       1.863 -10.353  -1.919  1.00  0.00     0.164 HD
BRANCH  47  49
ATOM     49  C   UNL     1       0.435  -9.948  -0.400  1.00  0.00     0.192 C 
BRANCH  49  50
ATOM     50  C   UNL     1      -0.328 -11.216  -0.006  1.00  0.00     0.047 C 
BRANCH  50  51
ATOM     51  C   UNL     1      -1.179 -11.015   1.254  1.00  0.00     0.103 C 
BRANCH  51  52
ATOM     52  C   UNL     1      -2.636 -10.702   0.919  1.00  0.00     0.226 C 
ATOM     53  O   UNL     1      -3.211 -11.345   0.037  1.00  0.00    -0.275 OA
BRANCH  52  54
ATOM     54  N   UNL     1      -3.266  -9.725   1.711  1.00  0.00    -0.311 N 
ATOM     55  C   UNL     1      -3.008  -8.295   1.495  1.00  0.00     0.153 C 
BRANCH  54  56
ATOM     56  C   UNL     1      -4.166 -10.077   2.730  1.00  0.00     0.102 C 
ATOM     57  C   UNL     1      -3.844 -10.213   4.027  1.00  0.00     0.043 C 
BRANCH  56  58
ATOM     58  C   UNL     1      -5.631 -10.293   2.430  1.00  0.00     0.268 C 
ATOM     59  O   UNL     1      -6.051 -10.588   1.319  1.00  0.00    -0.268 OA
ATOM     60  N   UNL     1      -6.431 -10.190   3.543  1.00  0.00    -0.339 N 
ATOM     61  H   UNL     1      -6.007  -9.932   4.426  1.00  0.00     0.164 HD
BRANCH  60  62
ATOM     62  C   UNL     1      -7.874 -10.424   3.489  1.00  0.00     0.168 CG0
ATOM     63  C   UNL     1      -8.634  -9.326   4.224  1.00  0.00     0.041 C 
ATOM     64  G   UNL     1      -8.196 -11.807   4.092  1.00  0.00     0.000 G0
ENDBRANCH  60  62
ENDBRANCH  56  58
ENDBRANCH  54  56
ENDBRANCH  52  54
ENDBRANCH  51  52
ENDBRANCH  50  51
ENDBRANCH  49  50
BRANCH  49  65
ATOM     65  C   UNL     1      -0.383  -9.164  -1.439  1.00  0.00     0.326 C 
ATOM     66  O   UNL     1      -0.733  -9.585  -2.532  1.00  0.00    -0.250 OA
BRANCH  65  67
ATOM     67  O   UNL     1      -0.666  -7.890  -1.089  1.00  0.00    -0.480 OA
ATOM     68  H   UNL     1      -1.021  -7.974  -0.178  1.00  0.00     0.296 HD
ENDBRANCH  65  67
ENDBRANCH  49  65
ENDBRANCH  47  49
ENDBRANCH  43  45
ENDBRANCH   1  43
BRANCH   1  69
ATOM     69  C   UNL     1       5.039  -9.735  -3.147  1.00  0.00    -0.001 C 
ATOM     70  C   UNL     1       4.412  -9.249  -4.232  1.00  0.00     0.001 C 
BRANCH  70  71
ATOM     71  C   UNL     1       4.755  -9.502  -5.633  1.00  0.00    -0.055 C 
ATOM     72  C   UNL     1       5.964  -9.088  -6.068  1.00  0.00    -0.018 C 
ATOM     73  C   UNL     1       3.739 -10.213  -6.488  1.00  0.00     0.044 C 
BRANCH  72  74
ATOM     74  C   UNL     1       6.586  -9.215  -7.451  1.00  0.00     0.038 C 
ATOM     75  C   UNL     1       5.806  -8.281  -8.385  1.00  0.00     0.015 C 
BRANCH  74  76
ATOM     76  C   UNL     1       6.575 -10.715  -7.870  1.00  0.00     0.128 C 
BRANCH  76  77
ATOM     77  O   UNL     1       6.628 -10.825  -9.302  1.00  0.00    -0.381 OA
ATOM     78  C   UNL     1       5.728 -11.789  -9.834  1.00  0.00     0.195 C 
ENDBRANCH  76  77
BRANCH  76  79
ATOM     79  C   UNL     1       7.653 -11.573  -7.162  1.00  0.00     0.068 C 
BRANCH  79  80
ATOM     80  C   UNL     1       7.251 -12.332  -5.921  1.00  0.00    -0.045 A 
ATOM     81  C   UNL     1       8.124 -12.451  -4.832  1.00  0.00     0.004 A 
ATOM     82  C   UNL     1       5.997 -12.959  -5.850  1.00  0.00     0.004 A 
ATOM     83  C   UNL     1       7.749 -13.166  -3.693  1.00  0.00     0.000 A 
ATOM     84  C   UNL     1       5.624 -13.675  -4.711  1.00  0.00     0.000 A 
ATOM     85  C   UNL     1       6.499 -13.777  -3.632  1.00  0.00     0.000 A 
ENDBRANCH  79  80
ENDBRANCH  76  79
ENDBRANCH  74  76
ENDBRANCH  72  74
ENDBRANCH  70  71
ENDBRANCH   1  69
TORSDOF 17
ENDMDL
MODEL 40
REMARK VINA RESULT:    -4.582      9.074     16.173
REMARK INTER + INTRA:         -22.082
REMARK INTER:                 -14.286
REMARK INTRA:                  -7.796
REMARK UNBOUND:                -8.394
REMARK SMILES C=C1C(=O)N[C@H](C)C(=O)N[C@@H](CC(C)C)C(=O)N[C@@H](C(=O)O)[C@H](C)C(=O)N[C@@H](CCCN=C(N)N)C(=O)N[C@@H](/C=C/C(C)=C/[C@H](C)[C@H](Cc2ccccc2)OC)[C@H](C)C(=O)N[C@@H](C(=O)O)CCC(=O)N1C
REMARK SMILES IDX 39 1 38 2 37 3 36 4 28 6 27 7 25 8 26 9 23 11 24 12 19 13
REMARK SMILES IDX 18 14 16 15 17 16 11 18 10 19 8 20 9 21 12 24 13 25 14 26
REMARK SMILES IDX 15 27 20 28 21 29 22 30 29 32 30 33 31 34 32 35 33 36 34 37
REMARK SMILES IDX 35 38 57 43 58 44 59 45 60 46 61 47 62 49 66 50 67 51 68 52
REMARK SMILES IDX 69 53 70 54 71 55 2 56 1 57 3 58 4 59 5 60 6 62 7 63 63 65
REMARK SMILES IDX 64 66 65 67 40 69 41 70 42 71 44 72 43 73 45 74 46 75 47 76
REMARK SMILES IDX 55 77 56 78 48 79 49 80 50 81 54 82 51 83 53 84 52 85
REMARK H PARENT 38 5 27 10 18 17 10 22 22 31 34 39 34 40 35 41 35 42 61 48
REMARK H PARENT 5 61 65 68
REMARK Flexibility Score:  369.900
ROOT
ATOM      1  C   UNL     1      14.396  -6.889  -4.411  1.00  0.00     0.117 C 
ENDROOT
BRANCH   1   2
ATOM      2  N   UNL     1      15.151  -8.142  -4.413  1.00  0.00    -0.347 N 
ATOM      3  O   UNL     1      13.670  -9.402  -3.193  1.00  0.00    -0.273 OA
ATOM      4  C   UNL     1      14.684  -9.328  -3.880  1.00  0.00     0.243 C 
ATOM      5  H   UNL     1      16.050  -8.176  -4.870  1.00  0.00     0.164 HD
BRANCH   4   6
ATOM      6  C   UNL     1      15.643 -10.526  -4.090  1.00  0.00     0.171 C 
BRANCH   6   7
ATOM      7  N   UNL     1      16.402 -10.799  -2.859  1.00  0.00    -0.344 N 
ATOM      8  C   UNL     1      17.544 -10.085  -2.564  1.00  0.00     0.226 C 
ATOM      9  O   UNL     1      17.991  -9.219  -3.307  1.00  0.00    -0.275 OA
ATOM     10  H   UNL     1      16.102 -11.553  -2.254  1.00  0.00     0.164 HD
BRANCH   8  11
ATOM     11  C   UNL     1      18.181 -10.446  -1.234  1.00  0.00     0.109 C 
ATOM     12  C   UNL     1      19.651 -10.027  -1.224  1.00  0.00     0.021 C 
BRANCH  11  13
ATOM     13  C   UNL     1      17.336  -9.875  -0.078  1.00  0.00     0.204 C 
BRANCH  13  14
ATOM     14  N   UNL     1      16.574 -10.918   0.615  1.00  0.00    -0.340 N 
ATOM     15  C   UNL     1      15.212 -11.070   0.471  1.00  0.00     0.243 C 
ATOM     16  O   UNL     1      14.547 -10.379  -0.299  1.00  0.00    -0.273 OA
ATOM     17  H   UNL     1      17.034 -11.422   1.378  1.00  0.00     0.164 HD
BRANCH  15  18
ATOM     18  C   UNL     1      14.596 -12.096   1.455  1.00  0.00     0.171 C 
BRANCH  18  19
ATOM     19  N   UNL     1      14.115 -11.335   2.606  1.00  0.00    -0.343 N 
ATOM     20  C   UNL     1      14.228 -11.816   3.897  1.00  0.00     0.242 CG0
ATOM     21  O   UNL     1      14.616 -12.959   4.125  1.00  0.00    -0.273 OA
ATOM     22  H   UNL     1      13.680 -10.431   2.459  1.00  0.00     0.164 HD
ATOM     23  G   UNL     1      13.738 -10.839   4.985  1.00  0.00     0.000 G0
ENDBRANCH  18  19
BRANCH  18  24
ATOM     24  C   UNL     1      13.460 -12.877   0.783  1.00  0.00     0.038 C 
BRANCH  24  25
ATOM     25  C   UNL     1      13.859 -14.273   0.261  1.00  0.00    -0.015 C 
ATOM     26  C   UNL     1      12.775 -14.902  -0.614  1.00  0.00     0.007 C 
ATOM     27  C   UNL     1      14.166 -15.196   1.444  1.00  0.00     0.007 C 
ENDBRANCH  24  25
ENDBRANCH  18  24
ENDBRANCH  15  18
ENDBRANCH  13  14
BRANCH  13  28
ATOM     28  C   UNL     1      18.172  -9.145   0.977  1.00  0.00     0.327 C 
ATOM     29  O   UNL     1      18.983  -8.256   0.769  1.00  0.00    -0.250 OA
BRANCH  28  30
ATOM     30  O   UNL     1      18.024  -9.658   2.216  1.00  0.00    -0.480 OA
ATOM     31  H   UNL     1      18.903  -9.539   2.632  1.00  0.00     0.296 HD
ENDBRANCH  28  30
ENDBRANCH  13  28
ENDBRANCH  11  13
ENDBRANCH   8  11
ENDBRANCH   6   7
BRANCH   6  32
ATOM     32  C   UNL     1      14.830 -11.754  -4.515  1.00  0.00     0.037 C 
BRANCH  32  33
ATOM     33  C   UNL     1      14.506 -12.673  -3.329  1.00  0.00     0.026 C 
BRANCH  33  34
ATOM     34  C   UNL     1      15.122 -14.064  -3.482  1.00  0.00     0.146 C 
BRANCH  34  35
ATOM     35  N   UNL     1      15.818 -14.132  -4.760  1.00  0.00    -0.254 NA
ATOM     36  C   UNL     1      17.091 -14.271  -4.759  1.00  0.00     0.185 C 
ATOM     37  N   UNL     1      17.742 -14.340  -5.931  1.00  0.00    -0.370 N 
ATOM     38  N   UNL     1      17.931 -14.366  -3.713  1.00  0.00    -0.370 N 
ATOM     39  H   UNL     1      17.176 -14.287  -6.769  1.00  0.00     0.159 HD
ATOM     40  H   UNL     1      18.704 -14.621  -6.018  1.00  0.00     0.159 HD
ATOM     41  H   UNL     1      18.929 -14.333  -3.841  1.00  0.00     0.159 HD
ATOM     42  H   UNL     1      17.581 -14.314  -2.769  1.00  0.00     0.159 HD
ENDBRANCH  34  35
ENDBRANCH  33  34
ENDBRANCH  32  33
ENDBRANCH   6  32
ENDBRANCH   4   6
ENDBRANCH   1   2
BRANCH   1  43
ATOM     43  C   UNL     1      14.696  -6.127  -5.734  1.00  0.00     0.102 C 
ATOM     44  C   UNL     1      13.502  -6.087  -6.703  1.00  0.00     0.020 C 
BRANCH  43  45
ATOM     45  C   UNL     1      15.997  -6.624  -6.371  1.00  0.00     0.225 C 
ATOM     46  O   UNL     1      17.093  -6.519  -5.828  1.00  0.00    -0.275 OA
ATOM     47  N   UNL     1      15.879  -7.119  -7.650  1.00  0.00    -0.342 N 
ATOM     48  H   UNL     1      14.964  -7.337  -8.019  1.00  0.00     0.164 HD
BRANCH  47  49
ATOM     49  C   UNL     1      17.034  -7.663  -8.371  1.00  0.00     0.192 C 
BRANCH  49  50
ATOM     50  C   UNL     1      16.996  -7.197  -9.829  1.00  0.00     0.047 C 
BRANCH  50  51
ATOM     51  C   UNL     1      15.576  -6.843 -10.290  1.00  0.00     0.103 C 
BRANCH  51  52
ATOM     52  C   UNL     1      14.900  -8.006 -11.012  1.00  0.00     0.226 C 
ATOM     53  O   UNL     1      15.589  -8.849 -11.589  1.00  0.00    -0.275 OA
BRANCH  52  54
ATOM     54  N   UNL     1      13.499  -8.082 -10.904  1.00  0.00    -0.311 N 
ATOM     55  C   UNL     1      12.757  -7.166 -10.028  1.00  0.00     0.153 C 
BRANCH  54  56
ATOM     56  C   UNL     1      12.758  -9.028 -11.633  1.00  0.00     0.102 C 
ATOM     57  C   UNL     1      12.285 -10.182 -11.134  1.00  0.00     0.043 C 
BRANCH  56  58
ATOM     58  C   UNL     1      12.390  -8.779 -13.076  1.00  0.00     0.268 C 
ATOM     59  O   UNL     1      12.004  -7.695 -13.492  1.00  0.00    -0.268 OA
ATOM     60  N   UNL     1      12.597  -9.873 -13.882  1.00  0.00    -0.339 N 
ATOM     61  H   UNL     1      12.909 -10.739 -13.459  1.00  0.00     0.164 HD
BRANCH  60  62
ATOM     62  C   UNL     1      12.364  -9.833 -15.326  1.00  0.00     0.168 CG0
ATOM     63  C   UNL     1      12.539 -11.213 -15.947  1.00  0.00     0.041 C 
ATOM     64  G   UNL     1      13.325  -8.816 -15.975  1.00  0.00     0.000 G0
ENDBRANCH  60  62
ENDBRANCH  56  58
ENDBRANCH  54  56
ENDBRANCH  52  54
ENDBRANCH  51  52
ENDBRANCH  50  51
ENDBRANCH  49  50
BRANCH  49  65
ATOM     65  C   UNL     1      17.057  -9.199  -8.327  1.00  0.00     0.326 C 
ATOM     66  O   UNL     1      16.723  -9.888  -7.375  1.00  0.00    -0.250 OA
BRANCH  65  67
ATOM     67  O   UNL     1      17.549  -9.787  -9.440  1.00  0.00    -0.480 OA
ATOM     68  H   UNL     1      18.126 -10.499  -9.090  1.00  0.00     0.296 HD
ENDBRANCH  65  67
ENDBRANCH  49  65
ENDBRANCH  47  49
ENDBRANCH  43  45
ENDBRANCH   1  43
BRANCH   1  69
ATOM     69  C   UNL     1      14.703  -6.211  -3.088  1.00  0.00    -0.001 C 
ATOM     70  C   UNL     1      13.822  -5.777  -2.169  1.00  0.00     0.001 C 
BRANCH  70  71
ATOM     71  C   UNL     1      14.131  -5.143  -0.886  1.00  0.00    -0.055 C 
ATOM     72  C   UNL     1      14.080  -3.796  -0.822  1.00  0.00    -0.018 C 
ATOM     73  C   UNL     1      14.477  -6.039   0.275  1.00  0.00     0.044 C 
BRANCH  72  74
ATOM     74  C   UNL     1      14.344  -2.876   0.361  1.00  0.00     0.038 C 
ATOM     75  C   UNL     1      13.121  -1.964   0.509  1.00  0.00     0.015 C 
BRANCH  74  76
ATOM     76  C   UNL     1      15.690  -2.130   0.124  1.00  0.00     0.128 C 
BRANCH  76  77
ATOM     77  O   UNL     1      15.709  -0.902   0.871  1.00  0.00    -0.381 OA
ATOM     78  C   UNL     1      16.438   0.141   0.238  1.00  0.00     0.195 C 
ENDBRANCH  76  77
BRANCH  76  79
ATOM     79  C   UNL     1      16.946  -3.002   0.374  1.00  0.00     0.068 C 
BRANCH  79  80
ATOM     80  C   UNL     1      17.446  -3.865  -0.760  1.00  0.00    -0.045 A 
ATOM     81  C   UNL     1      17.448  -3.392  -2.079  1.00  0.00     0.004 A 
ATOM     82  C   UNL     1      17.891  -5.172  -0.511  1.00  0.00     0.004 A 
ATOM     83  C   UNL     1      17.898  -4.201  -3.124  1.00  0.00     0.000 A 
ATOM     84  C   UNL     1      18.340  -5.980  -1.557  1.00  0.00     0.000 A 
ATOM     85  C   UNL     1      18.345  -5.495  -2.863  1.00  0.00     0.000 A 
ENDBRANCH  79  80
ENDBRANCH  76  79
ENDBRANCH  74  76
ENDBRANCH  72  74
ENDBRANCH  70  71
ENDBRANCH   1  69
TORSDOF 17
ENDMDL
MODEL 41
REMARK VINA RESULT:    -4.578     11.017     16.846
REMARK INTER + INTRA:         -22.072
REMARK INTER:                 -15.122
REMARK INTRA:                  -6.949
REMARK UNBOUND:                -8.394
REMARK SMILES C=C1C(=O)N[C@H](C)C(=O)N[C@@H](CC(C)C)C(=O)N[C@@H](C(=O)O)[C@H](C)C(=O)N[C@@H](CCCN=C(N)N)C(=O)N[C@@H](/C=C/C(C)=C/[C@H](C)[C@H](Cc2ccccc2)OC)[C@H](C)C(=O)N[C@@H](C(=O)O)CCC(=O)N1C
REMARK SMILES IDX 39 1 38 2 37 3 36 4 28 6 27 7 25 8 26 9 23 11 24 12 19 13
REMARK SMILES IDX 18 14 16 15 17 16 11 18 10 19 8 20 9 21 12 24 13 25 14 26
REMARK SMILES IDX 15 27 20 28 21 29 22 30 29 32 30 33 31 34 32 35 33 36 34 37
REMARK SMILES IDX 35 38 57 43 58 44 59 45 60 46 61 47 62 49 66 50 67 51 68 52
REMARK SMILES IDX 69 53 70 54 71 55 2 56 1 57 3 58 4 59 5 60 6 62 7 63 63 65
REMARK SMILES IDX 64 66 65 67 40 69 41 70 42 71 44 72 43 73 45 74 46 75 47 76
REMARK SMILES IDX 55 77 56 78 48 79 49 80 50 81 54 82 51 83 53 84 52 85
REMARK H PARENT 38 5 27 10 18 17 10 22 22 31 34 39 34 40 35 41 35 42 61 48
REMARK H PARENT 5 61 65 68
REMARK Flexibility Score:  369.900
ROOT
ATOM      1  C   UNL     1      13.875  -6.801  -7.909  1.00  0.00     0.117 C 
ENDROOT
BRANCH   1   2
ATOM      2  N   UNL     1      13.652  -7.458  -6.621  1.00  0.00    -0.347 N 
ATOM      3  O   UNL     1      13.867  -5.605  -5.283  1.00  0.00    -0.273 OA
ATOM      4  C   UNL     1      13.575  -6.789  -5.414  1.00  0.00     0.243 C 
ATOM      5  H   UNL     1      13.493  -8.454  -6.595  1.00  0.00     0.164 HD
BRANCH   4   6
ATOM      6  C   UNL     1      13.245  -7.709  -4.212  1.00  0.00     0.171 C 
BRANCH   6   7
ATOM      7  N   UNL     1      13.716  -9.080  -4.468  1.00  0.00    -0.344 N 
ATOM      8  C   UNL     1      15.061  -9.346  -4.609  1.00  0.00     0.226 C 
ATOM      9  O   UNL     1      15.917  -8.471  -4.552  1.00  0.00    -0.275 OA
ATOM     10  H   UNL     1      13.034  -9.818  -4.589  1.00  0.00     0.164 HD
BRANCH   8  11
ATOM     11  C   UNL     1      15.389 -10.815  -4.815  1.00  0.00     0.109 C 
ATOM     12  C   UNL     1      15.755 -11.072  -6.276  1.00  0.00     0.021 C 
BRANCH  11  13
ATOM     13  C   UNL     1      16.454 -11.259  -3.792  1.00  0.00     0.204 C 
BRANCH  13  14
ATOM     14  N   UNL     1      16.247 -10.645  -2.477  1.00  0.00    -0.340 N 
ATOM     15  C   UNL     1      17.286 -10.295  -1.642  1.00  0.00     0.243 C 
ATOM     16  O   UNL     1      18.465 -10.418  -1.968  1.00  0.00    -0.273 OA
ATOM     17  H   UNL     1      15.301 -10.655  -2.086  1.00  0.00     0.164 HD
BRANCH  15  18
ATOM     18  C   UNL     1      16.824  -9.860  -0.229  1.00  0.00     0.171 C 
BRANCH  18  19
ATOM     19  N   UNL     1      17.992  -9.965   0.643  1.00  0.00    -0.343 N 
ATOM     20  C   UNL     1      17.927 -10.588   1.875  1.00  0.00     0.242 CG0
ATOM     21  O   UNL     1      16.858 -10.962   2.351  1.00  0.00    -0.273 OA
ATOM     22  H   UNL     1      18.875  -9.567   0.343  1.00  0.00     0.164 HD
ATOM     23  G   UNL     1      19.277 -10.671   2.618  1.00  0.00     0.000 G0
ENDBRANCH  18  19
BRANCH  18  24
ATOM     24  C   UNL     1      16.271  -8.430  -0.257  1.00  0.00     0.038 C 
BRANCH  24  25
ATOM     25  C   UNL     1      14.926  -8.245   0.477  1.00  0.00    -0.015 C 
ATOM     26  C   UNL     1      15.106  -7.776   1.921  1.00  0.00     0.007 C 
ATOM     27  C   UNL     1      14.143  -9.561   0.456  1.00  0.00     0.007 C 
ENDBRANCH  24  25
ENDBRANCH  18  24
ENDBRANCH  15  18
ENDBRANCH  13  14
BRANCH  13  28
ATOM     28  C   UNL     1      16.495 -12.776  -3.583  1.00  0.00     0.327 C 
ATOM     29  O   UNL     1      17.472 -13.497  -3.714  1.00  0.00    -0.250 OA
BRANCH  28  30
ATOM     30  O   UNL     1      15.281 -13.309  -3.339  1.00  0.00    -0.480 OA
ATOM     31  H   UNL     1      14.733 -12.545  -3.062  1.00  0.00     0.296 HD
ENDBRANCH  28  30
ENDBRANCH  13  28
ENDBRANCH  11  13
ENDBRANCH   8  11
ENDBRANCH   6   7
BRANCH   6  32
ATOM     32  C   UNL     1      13.894  -7.136  -2.947  1.00  0.00     0.037 C 
BRANCH  32  33
ATOM     33  C   UNL     1      12.890  -6.363  -2.081  1.00  0.00     0.026 C 
BRANCH  33  34
ATOM     34  C   UNL     1      13.318  -4.915  -1.839  1.00  0.00     0.146 C 
BRANCH  34  35
ATOM     35  N   UNL     1      14.102  -4.855  -0.613  1.00  0.00    -0.254 NA
ATOM     36  C   UNL     1      15.363  -4.649  -0.699  1.00  0.00     0.185 C 
ATOM     37  N   UNL     1      16.094  -4.587   0.425  1.00  0.00    -0.370 N 
ATOM     38  N   UNL     1      16.117  -4.474  -1.798  1.00  0.00    -0.370 N 
ATOM     39  H   UNL     1      15.594  -4.699   1.298  1.00  0.00     0.159 HD
ATOM     40  H   UNL     1      17.044  -4.260   0.453  1.00  0.00     0.159 HD
ATOM     41  H   UNL     1      17.123  -4.459  -1.744  1.00  0.00     0.159 HD
ATOM     42  H   UNL     1      15.702  -4.512  -2.716  1.00  0.00     0.159 HD
ENDBRANCH  34  35
ENDBRANCH  33  34
ENDBRANCH  32  33
ENDBRANCH   6  32
ENDBRANCH   4   6
ENDBRANCH   1   2
BRANCH   1  43
ATOM     43  C   UNL     1      12.672  -7.122  -8.843  1.00  0.00     0.102 C 
ATOM     44  C   UNL     1      11.908  -8.394  -8.441  1.00  0.00     0.020 C 
BRANCH  43  45
ATOM     45  C   UNL     1      13.096  -7.090 -10.315  1.00  0.00     0.225 C 
ATOM     46  O   UNL     1      13.546  -6.088 -10.862  1.00  0.00    -0.275 OA
ATOM     47  N   UNL     1      12.852  -8.243 -11.026  1.00  0.00    -0.342 N 
ATOM     48  H   UNL     1      12.626  -9.096 -10.534  1.00  0.00     0.164 HD
BRANCH  47  49
ATOM     49  C   UNL     1      13.237  -8.370 -12.435  1.00  0.00     0.192 C 
BRANCH  49  50
ATOM     50  C   UNL     1      12.051  -8.896 -13.247  1.00  0.00     0.047 C 
BRANCH  50  51
ATOM     51  C   UNL     1      10.829  -7.971 -13.159  1.00  0.00     0.103 C 
BRANCH  51  52
ATOM     52  C   UNL     1       9.520  -8.755 -13.088  1.00  0.00     0.226 C 
ATOM     53  O   UNL     1       9.344  -9.717 -13.838  1.00  0.00    -0.275 OA
BRANCH  52  54
ATOM     54  N   UNL     1       8.608  -8.363 -12.091  1.00  0.00    -0.311 N 
ATOM     55  C   UNL     1       8.815  -8.739 -10.686  1.00  0.00     0.153 C 
BRANCH  54  56
ATOM     56  C   UNL     1       7.473  -7.594 -12.398  1.00  0.00     0.102 C 
ATOM     57  C   UNL     1       7.117  -6.463 -11.768  1.00  0.00     0.043 C 
BRANCH  56  58
ATOM     58  C   UNL     1       6.560  -7.982 -13.538  1.00  0.00     0.268 C 
ATOM     59  O   UNL     1       6.160  -9.124 -13.716  1.00  0.00    -0.268 OA
ATOM     60  N   UNL     1       6.176  -6.912 -14.310  1.00  0.00    -0.339 N 
ATOM     61  H   UNL     1       6.561  -5.998 -14.102  1.00  0.00     0.164 HD
BRANCH  60  62
ATOM     62  C   UNL     1       5.244  -7.053 -15.428  1.00  0.00     0.168 CG0
ATOM     63  C   UNL     1       3.806  -6.838 -14.973  1.00  0.00     0.041 C 
ATOM     64  G   UNL     1       5.412  -8.447 -16.068  1.00  0.00     0.000 G0
ENDBRANCH  60  62
ENDBRANCH  56  58
ENDBRANCH  54  56
ENDBRANCH  52  54
ENDBRANCH  51  52
ENDBRANCH  50  51
ENDBRANCH  49  50
BRANCH  49  65
ATOM     65  C   UNL     1      14.435  -9.316 -12.612  1.00  0.00     0.326 C 
ATOM     66  O   UNL     1      14.417 -10.381 -13.213  1.00  0.00    -0.250 OA
BRANCH  65  67
ATOM     67  O   UNL     1      15.564  -8.919 -11.985  1.00  0.00    -0.480 OA
ATOM     68  H   UNL     1      15.309  -8.901 -11.038  1.00  0.00     0.296 HD
ENDBRANCH  65  67
ENDBRANCH  49  65
ENDBRANCH  47  49
ENDBRANCH  43  45
ENDBRANCH   1  43
BRANCH   1  69
ATOM     69  C   UNL     1      15.272  -7.195  -8.350  1.00  0.00    -0.001 C 
ATOM     70  C   UNL     1      16.421  -7.028  -7.672  1.00  0.00     0.001 C 
BRANCH  70  71
ATOM     71  C   UNL     1      17.762  -7.432  -8.099  1.00  0.00    -0.055 C 
ATOM     72  C   UNL     1      18.048  -7.364  -9.416  1.00  0.00    -0.018 C 
ATOM     73  C   UNL     1      18.729  -7.888  -7.038  1.00  0.00     0.044 C 
BRANCH  72  74
ATOM     74  C   UNL     1      19.341  -7.711 -10.140  1.00  0.00     0.038 C 
ATOM     75  C   UNL     1      19.599  -6.600 -11.165  1.00  0.00     0.015 C 
BRANCH  74  76
ATOM     76  C   UNL     1      19.208  -9.140 -10.745  1.00  0.00     0.128 C 
BRANCH  76  77
ATOM     77  O   UNL     1      20.003  -9.244 -11.938  1.00  0.00    -0.381 OA
ATOM     78  C   UNL     1      19.689 -10.376 -12.737  1.00  0.00     0.195 C 
ENDBRANCH  76  77
BRANCH  76  79
ATOM     79  C   UNL     1      19.492 -10.280  -9.735  1.00  0.00     0.068 C 
BRANCH  79  80
ATOM     80  C   UNL     1      18.426 -11.331  -9.537  1.00  0.00    -0.045 A 
ATOM     81  C   UNL     1      18.742 -12.589  -9.008  1.00  0.00     0.004 A 
ATOM     82  C   UNL     1      17.098 -11.070  -9.908  1.00  0.00     0.004 A 
ATOM     83  C   UNL     1      17.752 -13.561  -8.842  1.00  0.00     0.000 A 
ATOM     84  C   UNL     1      16.109 -12.042  -9.741  1.00  0.00     0.000 A 
ATOM     85  C   UNL     1      16.436 -13.286  -9.207  1.00  0.00     0.000 A 
ENDBRANCH  79  80
ENDBRANCH  76  79
ENDBRANCH  74  76
ENDBRANCH  72  74
ENDBRANCH  70  71
ENDBRANCH   1  69
TORSDOF 17
ENDMDL
MODEL 42
REMARK VINA RESULT:    -4.563     11.417     16.436
REMARK INTER + INTRA:         -22.025
REMARK INTER:                 -13.276
REMARK INTRA:                  -8.749
REMARK UNBOUND:                -8.394
REMARK SMILES C=C1C(=O)N[C@H](C)C(=O)N[C@@H](CC(C)C)C(=O)N[C@@H](C(=O)O)[C@H](C)C(=O)N[C@@H](CCCN=C(N)N)C(=O)N[C@@H](/C=C/C(C)=C/[C@H](C)[C@H](Cc2ccccc2)OC)[C@H](C)C(=O)N[C@@H](C(=O)O)CCC(=O)N1C
REMARK SMILES IDX 39 1 38 2 37 3 36 4 28 6 27 7 25 8 26 9 23 11 24 12 19 13
REMARK SMILES IDX 18 14 16 15 17 16 11 18 10 19 8 20 9 21 12 24 13 25 14 26
REMARK SMILES IDX 15 27 20 28 21 29 22 30 29 32 30 33 31 34 32 35 33 36 34 37
REMARK SMILES IDX 35 38 57 43 58 44 59 45 60 46 61 47 62 49 66 50 67 51 68 52
REMARK SMILES IDX 69 53 70 54 71 55 2 56 1 57 3 58 4 59 5 60 6 62 7 63 63 65
REMARK SMILES IDX 64 66 65 67 40 69 41 70 42 71 44 72 43 73 45 74 46 75 47 76
REMARK SMILES IDX 55 77 56 78 48 79 49 80 50 81 54 82 51 83 53 84 52 85
REMARK H PARENT 38 5 27 10 18 17 10 22 22 31 34 39 34 40 35 41 35 42 61 48
REMARK H PARENT 5 61 65 68
REMARK Flexibility Score:  369.900
ROOT
ATOM      1  C   UNL     1      12.566  -7.347  -1.591  1.00  0.00     0.117 C 
ENDROOT
BRANCH   1   2
ATOM      2  N   UNL     1      13.058  -8.317  -0.613  1.00  0.00    -0.347 N 
ATOM      3  O   UNL     1      14.035  -9.780  -2.087  1.00  0.00    -0.273 OA
ATOM      4  C   UNL     1      13.835  -9.413  -0.934  1.00  0.00     0.243 C 
ATOM      5  H   UNL     1      12.872  -8.168   0.368  1.00  0.00     0.164 HD
BRANCH   4   6
ATOM      6  C   UNL     1      14.296 -10.233   0.298  1.00  0.00     0.171 C 
BRANCH   6   7
ATOM      7  N   UNL     1      15.050  -9.380   1.231  1.00  0.00    -0.344 N 
ATOM      8  C   UNL     1      16.165  -9.863   1.880  1.00  0.00     0.226 C 
ATOM      9  O   UNL     1      16.567 -11.012   1.737  1.00  0.00    -0.275 OA
ATOM     10  H   UNL     1      14.710  -8.447   1.427  1.00  0.00     0.164 HD
BRANCH   8  11
ATOM     11  C   UNL     1      16.864  -8.846   2.766  1.00  0.00     0.109 C 
ATOM     12  C   UNL     1      17.213  -7.597   1.957  1.00  0.00     0.021 C 
BRANCH  11  13
ATOM     13  C   UNL     1      16.017  -8.585   4.028  1.00  0.00     0.204 C 
BRANCH  13  14
ATOM     14  N   UNL     1      15.500  -9.827   4.612  1.00  0.00    -0.340 N 
ATOM     15  C   UNL     1      14.167 -10.018   4.903  1.00  0.00     0.243 C 
ATOM     16  O   UNL     1      13.306  -9.182   4.636  1.00  0.00    -0.273 OA
ATOM     17  H   UNL     1      16.175 -10.495   4.994  1.00  0.00     0.164 HD
BRANCH  15  18
ATOM     18  C   UNL     1      13.888 -11.315   5.701  1.00  0.00     0.171 C 
BRANCH  18  19
ATOM     19  N   UNL     1      14.340 -11.070   7.070  1.00  0.00    -0.343 N 
ATOM     20  C   UNL     1      14.990 -12.040   7.808  1.00  0.00     0.242 CG0
ATOM     21  O   UNL     1      15.101 -13.193   7.399  1.00  0.00    -0.273 OA
ATOM     22  H   UNL     1      14.168 -10.166   7.495  1.00  0.00     0.164 HD
ATOM     23  G   UNL     1      15.460 -11.572   9.201  1.00  0.00     0.000 G0
ENDBRANCH  18  19
BRANCH  18  24
ATOM     24  C   UNL     1      12.397 -11.669   5.656  1.00  0.00     0.038 C 
BRANCH  24  25
ATOM     25  C   UNL     1      12.095 -13.154   5.362  1.00  0.00    -0.015 C 
ATOM     26  C   UNL     1      11.824 -13.959   6.633  1.00  0.00     0.007 C 
ATOM     27  C   UNL     1      13.267 -13.775   4.598  1.00  0.00     0.007 C 
ENDBRANCH  24  25
ENDBRANCH  18  24
ENDBRANCH  15  18
ENDBRANCH  13  14
BRANCH  13  28
ATOM     28  C   UNL     1      16.788  -7.852   5.130  1.00  0.00     0.327 C 
ATOM     29  O   UNL     1      16.413  -6.860   5.737  1.00  0.00    -0.250 OA
BRANCH  28  30
ATOM     30  O   UNL     1      18.031  -8.338   5.319  1.00  0.00    -0.480 OA
ATOM     31  H   UNL     1      18.584  -7.540   5.457  1.00  0.00     0.296 HD
ENDBRANCH  28  30
ENDBRANCH  13  28
ENDBRANCH  11  13
ENDBRANCH   8  11
ENDBRANCH   6   7
BRANCH   6  32
ATOM     32  C   UNL     1      13.069 -10.843   0.984  1.00  0.00     0.037 C 
BRANCH  32  33
ATOM     33  C   UNL     1      13.378 -12.206   1.619  1.00  0.00     0.026 C 
BRANCH  33  34
ATOM     34  C   UNL     1      13.866 -13.232   0.595  1.00  0.00     0.146 C 
BRANCH  34  35
ATOM     35  N   UNL     1      12.850 -13.383  -0.438  1.00  0.00    -0.254 NA
ATOM     36  C   UNL     1      13.189 -13.212  -1.662  1.00  0.00     0.185 C 
ATOM     37  N   UNL     1      12.262 -13.354  -2.622  1.00  0.00    -0.370 N 
ATOM     38  N   UNL     1      14.394 -12.897  -2.169  1.00  0.00    -0.370 N 
ATOM     39  H   UNL     1      11.329 -13.603  -2.320  1.00  0.00     0.159 HD
ATOM     40  H   UNL     1      12.481 -13.409  -3.602  1.00  0.00     0.159 HD
ATOM     41  H   UNL     1      14.503 -12.653  -3.140  1.00  0.00     0.159 HD
ATOM     42  H   UNL     1      15.182 -12.744  -1.560  1.00  0.00     0.159 HD
ENDBRANCH  34  35
ENDBRANCH  33  34
ENDBRANCH  32  33
ENDBRANCH   6  32
ENDBRANCH   4   6
ENDBRANCH   1   2
BRANCH   1  43
ATOM     43  C   UNL     1      13.243  -5.974  -1.311  1.00  0.00     0.102 C 
ATOM     44  C   UNL     1      12.654  -4.820  -2.141  1.00  0.00     0.020 C 
BRANCH  43  45
ATOM     45  C   UNL     1      14.768  -6.085  -1.398  1.00  0.00     0.225 C 
ATOM     46  O   UNL     1      15.524  -5.611  -0.555  1.00  0.00    -0.275 OA
ATOM     47  N   UNL     1      15.255  -6.677  -2.541  1.00  0.00    -0.342 N 
ATOM     48  H   UNL     1      14.629  -7.192  -3.144  1.00  0.00     0.164 HD
BRANCH  47  49
ATOM     49  C   UNL     1      16.693  -6.883  -2.744  1.00  0.00     0.192 C 
BRANCH  49  50
ATOM     50  C   UNL     1      17.107  -6.313  -4.103  1.00  0.00     0.047 C 
BRANCH  50  51
ATOM     51  C   UNL     1      15.905  -6.088  -5.031  1.00  0.00     0.103 C 
BRANCH  51  52
ATOM     52  C   UNL     1      16.126  -6.697  -6.414  1.00  0.00     0.226 C 
ATOM     53  O   UNL     1      17.187  -6.496  -7.007  1.00  0.00    -0.275 OA
BRANCH  52  54
ATOM     54  N   UNL     1      15.104  -7.533  -6.901  1.00  0.00    -0.311 N 
ATOM     55  C   UNL     1      14.961  -8.913  -6.418  1.00  0.00     0.153 C 
BRANCH  54  56
ATOM     56  C   UNL     1      14.182  -7.081  -7.860  1.00  0.00     0.102 C 
ATOM     57  C   UNL     1      13.018  -6.473  -7.579  1.00  0.00     0.043 C 
BRANCH  56  58
ATOM     58  C   UNL     1      14.472  -7.212  -9.336  1.00  0.00     0.268 C 
ATOM     59  O   UNL     1      15.492  -7.726  -9.775  1.00  0.00    -0.268 OA
ATOM     60  N   UNL     1      13.446  -6.757 -10.131  1.00  0.00    -0.339 N 
ATOM     61  H   UNL     1      12.639  -6.335  -9.689  1.00  0.00     0.164 HD
BRANCH  60  62
ATOM     62  C   UNL     1      13.492  -6.847 -11.589  1.00  0.00     0.168 CG0
ATOM     63  C   UNL     1      12.736  -8.074 -12.085  1.00  0.00     0.041 C 
ATOM     64  G   UNL     1      14.961  -6.885 -12.059  1.00  0.00     0.000 G0
ENDBRANCH  60  62
ENDBRANCH  56  58
ENDBRANCH  54  56
ENDBRANCH  52  54
ENDBRANCH  51  52
ENDBRANCH  50  51
ENDBRANCH  49  50
BRANCH  49  65
ATOM     65  C   UNL     1      17.066  -8.372  -2.682  1.00  0.00     0.326 C 
ATOM     66  O   UNL     1      17.346  -9.076  -3.642  1.00  0.00    -0.250 OA
BRANCH  65  67
ATOM     67  O   UNL     1      17.011  -8.916  -1.446  1.00  0.00    -0.480 OA
ATOM     68  H   UNL     1      16.845  -8.145  -0.861  1.00  0.00     0.296 HD
ENDBRANCH  65  67
ENDBRANCH  49  65
ENDBRANCH  47  49
ENDBRANCH  43  45
ENDBRANCH   1  43
BRANCH   1  69
ATOM     69  C   UNL     1      11.052  -7.438  -1.554  1.00  0.00    -0.001 C 
ATOM     70  C   UNL     1      10.284  -7.882  -0.543  1.00  0.00     0.001 C 
BRANCH  70  71
ATOM     71  C   UNL     1       8.822  -7.946  -0.511  1.00  0.00    -0.055 C 
ATOM     72  C   UNL     1       8.184  -7.240   0.446  1.00  0.00    -0.018 C 
ATOM     73  C   UNL     1       8.132  -8.788  -1.553  1.00  0.00     0.044 C 
BRANCH  72  74
ATOM     74  C   UNL     1       6.691  -7.116   0.718  1.00  0.00     0.038 C 
ATOM     75  C   UNL     1       6.367  -5.619   0.786  1.00  0.00     0.015 C 
BRANCH  74  76
ATOM     76  C   UNL     1       6.348  -7.918   2.007  1.00  0.00     0.128 C 
BRANCH  76  77
ATOM     77  O   UNL     1       5.145  -7.401   2.601  1.00  0.00    -0.381 OA
ATOM     78  C   UNL     1       4.844  -7.970   3.868  1.00  0.00     0.195 C 
ENDBRANCH  76  77
BRANCH  76  79
ATOM     79  C   UNL     1       6.303  -9.453   1.801  1.00  0.00     0.068 C 
BRANCH  79  80
ATOM     80  C   UNL     1       7.555 -10.243   2.099  1.00  0.00    -0.045 A 
ATOM     81  C   UNL     1       7.852 -11.418   1.394  1.00  0.00     0.004 A 
ATOM     82  C   UNL     1       8.430  -9.825   3.112  1.00  0.00     0.004 A 
ATOM     83  C   UNL     1       9.004 -12.151   1.686  1.00  0.00     0.000 A 
ATOM     84  C   UNL     1       9.582 -10.560   3.403  1.00  0.00     0.000 A 
ATOM     85  C   UNL     1       9.870 -11.721   2.689  1.00  0.00     0.000 A 
ENDBRANCH  79  80
ENDBRANCH  76  79
ENDBRANCH  74  76
ENDBRANCH  72  74
ENDBRANCH  70  71
ENDBRANCH   1  69
TORSDOF 17
ENDMDL
MODEL 43
REMARK VINA RESULT:    -4.550     10.006     17.678
REMARK INTER + INTRA:         -21.989
REMARK INTER:                 -13.384
REMARK INTRA:                  -8.605
REMARK UNBOUND:                -8.394
REMARK SMILES C=C1C(=O)N[C@H](C)C(=O)N[C@@H](CC(C)C)C(=O)N[C@@H](C(=O)O)[C@H](C)C(=O)N[C@@H](CCCN=C(N)N)C(=O)N[C@@H](/C=C/C(C)=C/[C@H](C)[C@H](Cc2ccccc2)OC)[C@H](C)C(=O)N[C@@H](C(=O)O)CCC(=O)N1C
REMARK SMILES IDX 39 1 38 2 37 3 36 4 28 6 27 7 25 8 26 9 23 11 24 12 19 13
REMARK SMILES IDX 18 14 16 15 17 16 11 18 10 19 8 20 9 21 12 24 13 25 14 26
REMARK SMILES IDX 15 27 20 28 21 29 22 30 29 32 30 33 31 34 32 35 33 36 34 37
REMARK SMILES IDX 35 38 57 43 58 44 59 45 60 46 61 47 62 49 66 50 67 51 68 52
REMARK SMILES IDX 69 53 70 54 71 55 2 56 1 57 3 58 4 59 5 60 6 62 7 63 63 65
REMARK SMILES IDX 64 66 65 67 40 69 41 70 42 71 44 72 43 73 45 74 46 75 47 76
REMARK SMILES IDX 55 77 56 78 48 79 49 80 50 81 54 82 51 83 53 84 52 85
REMARK H PARENT 38 5 27 10 18 17 10 22 22 31 34 39 34 40 35 41 35 42 61 48
REMARK H PARENT 5 61 65 68
REMARK Flexibility Score:  369.900
ROOT
ATOM      1  C   UNL     1       9.127  -7.155   4.769  1.00  0.00     0.117 C 
ENDROOT
BRANCH   1   2
ATOM      2  N   UNL     1       9.702  -8.462   4.450  1.00  0.00    -0.347 N 
ATOM      3  O   UNL     1      10.464  -7.964   2.342  1.00  0.00    -0.273 OA
ATOM      4  C   UNL     1      10.407  -8.736   3.293  1.00  0.00     0.243 C 
ATOM      5  H   UNL     1       9.633  -9.211   5.123  1.00  0.00     0.164 HD
BRANCH   4   6
ATOM      6  C   UNL     1      10.984 -10.174   3.240  1.00  0.00     0.171 C 
BRANCH   6   7
ATOM      7  N   UNL     1      12.375 -10.188   3.719  1.00  0.00    -0.344 N 
ATOM      8  C   UNL     1      13.421  -9.978   2.845  1.00  0.00     0.226 C 
ATOM      9  O   UNL     1      13.252  -9.796   1.646  1.00  0.00    -0.275 OA
ATOM     10  H   UNL     1      12.558 -10.402   4.691  1.00  0.00     0.164 HD
BRANCH   8  11
ATOM     11  C   UNL     1      14.791  -9.969   3.501  1.00  0.00     0.109 C 
ATOM     12  C   UNL     1      14.647 -10.034   5.021  1.00  0.00     0.021 C 
BRANCH  11  13
ATOM     13  C   UNL     1      15.671 -11.074   2.884  1.00  0.00     0.204 C 
BRANCH  13  14
ATOM     14  N   UNL     1      14.884 -12.038   2.108  1.00  0.00    -0.340 N 
ATOM     15  C   UNL     1      14.431 -13.228   2.632  1.00  0.00     0.243 C 
ATOM     16  O   UNL     1      14.602 -13.540   3.809  1.00  0.00    -0.273 OA
ATOM     17  H   UNL     1      14.837 -11.912   1.093  1.00  0.00     0.164 HD
BRANCH  15  18
ATOM     18  C   UNL     1      13.807 -14.172   1.575  1.00  0.00     0.171 C 
BRANCH  18  19
ATOM     19  N   UNL     1      14.243 -15.526   1.912  1.00  0.00    -0.343 N 
ATOM     20  C   UNL     1      14.622 -16.432   0.941  1.00  0.00     0.242 CG0
ATOM     21  O   UNL     1      14.482 -16.189  -0.256  1.00  0.00    -0.273 OA
ATOM     22  H   UNL     1      14.266 -15.813   2.884  1.00  0.00     0.164 HD
ATOM     23  G   UNL     1      15.127 -17.782   1.492  1.00  0.00     0.000 G0
ENDBRANCH  18  19
BRANCH  18  24
ATOM     24  C   UNL     1      12.277 -14.057   1.582  1.00  0.00     0.038 C 
BRANCH  24  25
ATOM     25  C   UNL     1      11.716 -12.881   0.754  1.00  0.00    -0.015 C 
ATOM     26  C   UNL     1      10.194 -12.933   0.622  1.00  0.00     0.007 C 
ATOM     27  C   UNL     1      12.354 -12.880  -0.637  1.00  0.00     0.007 C 
ENDBRANCH  24  25
ENDBRANCH  18  24
ENDBRANCH  15  18
ENDBRANCH  13  14
BRANCH  13  28
ATOM     28  C   UNL     1      16.764 -10.530   1.959  1.00  0.00     0.327 C 
ATOM     29  O   UNL     1      16.590  -9.857   0.954  1.00  0.00    -0.250 OA
BRANCH  28  30
ATOM     30  O   UNL     1      17.998 -10.963   2.286  1.00  0.00    -0.480 OA
ATOM     31  H   UNL     1      18.244 -10.423   3.065  1.00  0.00     0.296 HD
ENDBRANCH  28  30
ENDBRANCH  13  28
ENDBRANCH  11  13
ENDBRANCH   8  11
ENDBRANCH   6   7
BRANCH   6  32
ATOM     32  C   UNL     1      10.104 -11.100   4.088  1.00  0.00     0.037 C 
BRANCH  32  33
ATOM     33  C   UNL     1      10.781 -12.450   4.361  1.00  0.00     0.026 C 
BRANCH  33  34
ATOM     34  C   UNL     1      10.902 -12.752   5.855  1.00  0.00     0.146 C 
BRANCH  34  35
ATOM     35  N   UNL     1      11.933 -11.896   6.426  1.00  0.00    -0.254 NA
ATOM     36  C   UNL     1      11.669 -11.248   7.498  1.00  0.00     0.185 C 
ATOM     37  N   UNL     1      12.614 -10.460   8.035  1.00  0.00    -0.370 N 
ATOM     38  N   UNL     1      10.532 -11.228   8.216  1.00  0.00    -0.370 N 
ATOM     39  H   UNL     1      13.505 -10.429   7.557  1.00  0.00     0.159 HD
ATOM     40  H   UNL     1      12.548 -10.061   8.956  1.00  0.00     0.159 HD
ATOM     41  H   UNL     1      10.400 -10.569   8.965  1.00  0.00     0.159 HD
ATOM     42  H   UNL     1       9.730 -11.763   7.920  1.00  0.00     0.159 HD
ENDBRANCH  34  35
ENDBRANCH  33  34
ENDBRANCH  32  33
ENDBRANCH   6  32
ENDBRANCH   4   6
ENDBRANCH   1   2
BRANCH   1  43
ATOM     43  C   UNL     1       9.580  -6.752   6.202  1.00  0.00     0.102 C 
ATOM     44  C   UNL     1       8.991  -5.412   6.675  1.00  0.00     0.020 C 
BRANCH  43  45
ATOM     45  C   UNL     1      11.101  -6.848   6.346  1.00  0.00     0.225 C 
ATOM     46  O   UNL     1      11.684  -7.889   6.634  1.00  0.00    -0.275 OA
ATOM     47  N   UNL     1      11.784  -5.659   6.223  1.00  0.00    -0.342 N 
ATOM     48  H   UNL     1      11.315  -4.850   5.840  1.00  0.00     0.164 HD
BRANCH  47  49
ATOM     49  C   UNL     1      13.247  -5.603   6.302  1.00  0.00     0.192 C 
BRANCH  49  50
ATOM     50  C   UNL     1      13.671  -4.399   7.146  1.00  0.00     0.047 C 
BRANCH  50  51
ATOM     51  C   UNL     1      12.489  -3.480   7.485  1.00  0.00     0.103 C 
BRANCH  51  52
ATOM     52  C   UNL     1      12.784  -2.019   7.151  1.00  0.00     0.226 C 
ATOM     53  O   UNL     1      13.632  -1.404   7.800  1.00  0.00    -0.275 OA
BRANCH  52  54
ATOM     54  N   UNL     1      12.102  -1.480   6.044  1.00  0.00    -0.311 N 
ATOM     55  C   UNL     1      12.739  -1.416   4.722  1.00  0.00     0.153 C 
BRANCH  54  56
ATOM     56  C   UNL     1      10.791  -0.989   6.160  1.00  0.00     0.102 C 
ATOM     57  C   UNL     1       9.699  -1.591   5.662  1.00  0.00     0.043 C 
BRANCH  56  58
ATOM     58  C   UNL     1      10.504   0.282   6.925  1.00  0.00     0.268 C 
ATOM     59  O   UNL     1      11.381   1.036   7.323  1.00  0.00    -0.268 OA
ATOM     60  N   UNL     1       9.160   0.534   7.068  1.00  0.00    -0.339 N 
ATOM     61  H   UNL     1       8.497  -0.147   6.719  1.00  0.00     0.164 HD
BRANCH  60  62
ATOM     62  C   UNL     1       8.660   1.742   7.722  1.00  0.00     0.168 CG0
ATOM     63  C   UNL     1       7.764   2.541   6.784  1.00  0.00     0.041 C 
ATOM     64  G   UNL     1       9.849   2.600   8.202  1.00  0.00     0.000 G0
ENDBRANCH  60  62
ENDBRANCH  56  58
ENDBRANCH  54  56
ENDBRANCH  52  54
ENDBRANCH  51  52
ENDBRANCH  50  51
ENDBRANCH  49  50
BRANCH  49  65
ATOM     65  C   UNL     1      13.886  -5.499   4.909  1.00  0.00     0.326 C 
ATOM     66  O   UNL     1      13.667  -6.248   3.968  1.00  0.00    -0.250 OA
BRANCH  65  67
ATOM     67  O   UNL     1      14.801  -4.512   4.781  1.00  0.00    -0.480 OA
ATOM     68  H   UNL     1      15.432  -4.867   4.118  1.00  0.00     0.296 HD
ENDBRANCH  65  67
ENDBRANCH  49  65
ENDBRANCH  47  49
ENDBRANCH  43  45
ENDBRANCH   1  43
BRANCH   1  69
ATOM     69  C   UNL     1       7.643  -7.260   4.470  1.00  0.00    -0.001 C 
ATOM     70  C   UNL     1       6.866  -8.354   4.562  1.00  0.00     0.001 C 
BRANCH  70  71
ATOM     71  C   UNL     1       5.430  -8.438   4.292  1.00  0.00    -0.055 C 
ATOM     72  C   UNL     1       5.000  -9.429   3.482  1.00  0.00    -0.018 C 
ATOM     73  C   UNL     1       4.532  -7.419   4.943  1.00  0.00     0.044 C 
BRANCH  72  74
ATOM     74  C   UNL     1       3.585  -9.760   3.032  1.00  0.00     0.038 C 
ATOM     75  C   UNL     1       3.207 -11.099   3.676  1.00  0.00     0.015 C 
BRANCH  74  76
ATOM     76  C   UNL     1       3.537  -9.746   1.476  1.00  0.00     0.128 C 
BRANCH  76  77
ATOM     77  O   UNL     1       2.349 -10.412   1.015  1.00  0.00    -0.381 OA
ATOM     78  C   UNL     1       1.404  -9.540   0.410  1.00  0.00     0.195 C 
ENDBRANCH  76  77
BRANCH  76  79
ATOM     79  C   UNL     1       3.715  -8.339   0.853  1.00  0.00     0.068 C 
BRANCH  79  80
ATOM     80  C   UNL     1       5.121  -7.815   0.680  1.00  0.00    -0.045 A 
ATOM     81  C   UNL     1       6.105  -8.583   0.046  1.00  0.00     0.004 A 
ATOM     82  C   UNL     1       5.470  -6.552   1.182  1.00  0.00     0.004 A 
ATOM     83  C   UNL     1       7.406  -8.097  -0.097  1.00  0.00     0.000 A 
ATOM     84  C   UNL     1       6.772  -6.066   1.039  1.00  0.00     0.000 A 
ATOM     85  C   UNL     1       7.739  -6.838   0.399  1.00  0.00     0.000 A 
ENDBRANCH  79  80
ENDBRANCH  76  79
ENDBRANCH  74  76
ENDBRANCH  72  74
ENDBRANCH  70  71
ENDBRANCH   1  69
TORSDOF 17
ENDMDL
MODEL 44
REMARK VINA RESULT:    -4.550     11.218     16.581
REMARK INTER + INTRA:         -21.988
REMARK INTER:                 -14.024
REMARK INTRA:                  -7.963
REMARK UNBOUND:                -8.394
REMARK SMILES C=C1C(=O)N[C@H](C)C(=O)N[C@@H](CC(C)C)C(=O)N[C@@H](C(=O)O)[C@H](C)C(=O)N[C@@H](CCCN=C(N)N)C(=O)N[C@@H](/C=C/C(C)=C/[C@H](C)[C@H](Cc2ccccc2)OC)[C@H](C)C(=O)N[C@@H](C(=O)O)CCC(=O)N1C
REMARK SMILES IDX 39 1 38 2 37 3 36 4 28 6 27 7 25 8 26 9 23 11 24 12 19 13
REMARK SMILES IDX 18 14 16 15 17 16 11 18 10 19 8 20 9 21 12 24 13 25 14 26
REMARK SMILES IDX 15 27 20 28 21 29 22 30 29 32 30 33 31 34 32 35 33 36 34 37
REMARK SMILES IDX 35 38 57 43 58 44 59 45 60 46 61 47 62 49 66 50 67 51 68 52
REMARK SMILES IDX 69 53 70 54 71 55 2 56 1 57 3 58 4 59 5 60 6 62 7 63 63 65
REMARK SMILES IDX 64 66 65 67 40 69 41 70 42 71 44 72 43 73 45 74 46 75 47 76
REMARK SMILES IDX 55 77 56 78 48 79 49 80 50 81 54 82 51 83 53 84 52 85
REMARK H PARENT 38 5 27 10 18 17 10 22 22 31 34 39 34 40 35 41 35 42 61 48
REMARK H PARENT 5 61 65 68
REMARK Flexibility Score:  369.900
ROOT
ATOM      1  C   UNL     1       7.973  -9.657  -1.755  1.00  0.00     0.117 C 
ENDROOT
BRANCH   1   2
ATOM      2  N   UNL     1       9.426  -9.502  -1.830  1.00  0.00    -0.347 N 
ATOM      3  O   UNL     1       9.620  -7.684  -0.441  1.00  0.00    -0.273 OA
ATOM      4  C   UNL     1      10.145  -8.581  -1.093  1.00  0.00     0.243 C 
ATOM      5  H   UNL     1       9.960 -10.128  -2.414  1.00  0.00     0.164 HD
BRANCH   4   6
ATOM      6  C   UNL     1      11.678  -8.682  -1.294  1.00  0.00     0.171 C 
BRANCH   6   7
ATOM      7  N   UNL     1      12.244  -7.360  -1.608  1.00  0.00    -0.344 N 
ATOM      8  C   UNL     1      12.696  -7.072  -2.877  1.00  0.00     0.226 C 
ATOM      9  O   UNL     1      12.673  -7.892  -3.788  1.00  0.00    -0.275 OA
ATOM     10  H   UNL     1      12.342  -6.679  -0.865  1.00  0.00     0.164 HD
BRANCH   8  11
ATOM     11  C   UNL     1      13.200  -5.651  -3.055  1.00  0.00     0.109 C 
ATOM     12  C   UNL     1      12.761  -4.786  -1.873  1.00  0.00     0.021 C 
BRANCH  11  13
ATOM     13  C   UNL     1      14.718  -5.665  -3.320  1.00  0.00     0.204 C 
BRANCH  13  14
ATOM     14  N   UNL     1      15.399  -6.726  -2.571  1.00  0.00    -0.340 N 
ATOM     15  C   UNL     1      16.244  -6.472  -1.513  1.00  0.00     0.243 C 
ATOM     16  O   UNL     1      16.440  -5.336  -1.082  1.00  0.00    -0.273 OA
ATOM     17  H   UNL     1      15.400  -7.669  -2.969  1.00  0.00     0.164 HD
BRANCH  15  18
ATOM     18  C   UNL     1      17.006  -7.724  -1.015  1.00  0.00     0.171 C 
BRANCH  18  19
ATOM     19  N   UNL     1      18.418  -7.352  -0.939  1.00  0.00    -0.343 N 
ATOM     20  C   UNL     1      19.420  -8.208  -1.355  1.00  0.00     0.242 CG0
ATOM     21  O   UNL     1      19.181  -9.368  -1.681  1.00  0.00    -0.273 OA
ATOM     22  H   UNL     1      18.674  -6.445  -0.567  1.00  0.00     0.164 HD
ATOM     23  G   UNL     1      20.841  -7.612  -1.273  1.00  0.00     0.000 G0
ENDBRANCH  18  19
BRANCH  18  24
ATOM     24  C   UNL     1      16.471  -8.177   0.349  1.00  0.00     0.038 C 
BRANCH  24  25
ATOM     25  C   UNL     1      16.108  -9.675   0.433  1.00  0.00    -0.015 C 
ATOM     26  C   UNL     1      17.213 -10.509   1.082  1.00  0.00     0.007 C 
ATOM     27  C   UNL     1      15.813 -10.213  -0.970  1.00  0.00     0.007 C 
ENDBRANCH  24  25
ENDBRANCH  18  24
ENDBRANCH  15  18
ENDBRANCH  13  14
BRANCH  13  28
ATOM     28  C   UNL     1      15.072  -5.854  -4.798  1.00  0.00     0.327 C 
ATOM     29  O   UNL     1      16.182  -6.085  -5.252  1.00  0.00    -0.250 OA
BRANCH  28  30
ATOM     30  O   UNL     1      14.031  -5.623  -5.624  1.00  0.00    -0.480 OA
ATOM     31  H   UNL     1      13.424  -5.062  -5.097  1.00  0.00     0.296 HD
ENDBRANCH  28  30
ENDBRANCH  13  28
ENDBRANCH  11  13
ENDBRANCH   8  11
ENDBRANCH   6   7
BRANCH   6  32
ATOM     32  C   UNL     1      12.315  -9.263  -0.027  1.00  0.00     0.037 C 
BRANCH  32  33
ATOM     33  C   UNL     1      12.557  -8.190   1.044  1.00  0.00     0.026 C 
BRANCH  33  34
ATOM     34  C   UNL     1      12.196  -8.674   2.449  1.00  0.00     0.146 C 
BRANCH  34  35
ATOM     35  N   UNL     1      10.942  -8.053   2.852  1.00  0.00    -0.254 NA
ATOM     36  C   UNL     1       9.895  -8.785   2.945  1.00  0.00     0.185 C 
ATOM     37  N   UNL     1       8.735  -8.224   3.321  1.00  0.00    -0.370 N 
ATOM     38  N   UNL     1       9.763 -10.104   2.715  1.00  0.00    -0.370 N 
ATOM     39  H   UNL     1       8.755  -7.232   3.523  1.00  0.00     0.159 HD
ATOM     40  H   UNL     1       7.921  -8.752   3.583  1.00  0.00     0.159 HD
ATOM     41  H   UNL     1       8.856 -10.540   2.688  1.00  0.00     0.159 HD
ATOM     42  H   UNL     1      10.552 -10.652   2.410  1.00  0.00     0.159 HD
ENDBRANCH  34  35
ENDBRANCH  33  34
ENDBRANCH  32  33
ENDBRANCH   6  32
ENDBRANCH   4   6
ENDBRANCH   1   2
BRANCH   1  43
ATOM     43  C   UNL     1       7.639 -10.625  -0.583  1.00  0.00     0.102 C 
ATOM     44  C   UNL     1       6.867 -11.879  -1.027  1.00  0.00     0.020 C 
BRANCH  43  45
ATOM     45  C   UNL     1       6.987  -9.874   0.582  1.00  0.00     0.225 C 
ATOM     46  O   UNL     1       6.888 -10.345   1.712  1.00  0.00    -0.275 OA
ATOM     47  N   UNL     1       6.427  -8.658   0.264  1.00  0.00    -0.342 N 
ATOM     48  H   UNL     1       6.647  -8.222  -0.620  1.00  0.00     0.164 HD
BRANCH  47  49
ATOM     49  C   UNL     1       5.800  -7.813   1.284  1.00  0.00     0.192 C 
BRANCH  49  50
ATOM     50  C   UNL     1       4.278  -7.855   1.124  1.00  0.00     0.047 C 
BRANCH  50  51
ATOM     51  C   UNL     1       3.619  -8.854   2.085  1.00  0.00     0.103 C 
BRANCH  51  52
ATOM     52  C   UNL     1       3.376 -10.209   1.424  1.00  0.00     0.226 C 
ATOM     53  O   UNL     1       3.818 -11.233   1.950  1.00  0.00    -0.275 OA
BRANCH  52  54
ATOM     54  N   UNL     1       2.576 -10.207   0.266  1.00  0.00    -0.311 N 
ATOM     55  C   UNL     1       3.149 -10.522  -1.049  1.00  0.00     0.153 C 
BRANCH  54  56
ATOM     56  C   UNL     1       1.204  -9.911   0.324  1.00  0.00     0.102 C 
ATOM     57  C   UNL     1       0.663  -8.716   0.037  1.00  0.00     0.043 C 
BRANCH  56  58
ATOM     58  C   UNL     1       0.196 -10.976   0.685  1.00  0.00     0.268 C 
ATOM     59  O   UNL     1       0.506 -12.129   0.951  1.00  0.00    -0.268 OA
ATOM     60  N   UNL     1      -1.093 -10.501   0.747  1.00  0.00    -0.339 N 
ATOM     61  H   UNL     1      -1.268  -9.535   0.501  1.00  0.00     0.164 HD
BRANCH  60  62
ATOM     62  C   UNL     1      -2.217 -11.350   1.140  1.00  0.00     0.168 CG0
ATOM     63  C   UNL     1      -2.942 -11.897  -0.083  1.00  0.00     0.041 C 
ATOM     64  G   UNL     1      -3.184 -10.545   2.033  1.00  0.00     0.000 G0
ENDBRANCH  60  62
ENDBRANCH  56  58
ENDBRANCH  54  56
ENDBRANCH  52  54
ENDBRANCH  51  52
ENDBRANCH  50  51
ENDBRANCH  49  50
BRANCH  49  65
ATOM     65  C   UNL     1       6.282  -6.357   1.188  1.00  0.00     0.326 C 
ATOM     66  O   UNL     1       5.617  -5.413   0.786  1.00  0.00    -0.250 OA
BRANCH  65  67
ATOM     67  O   UNL     1       7.574  -6.166   1.537  1.00  0.00    -0.480 OA
ATOM     68  H   UNL     1       7.517  -5.584   2.325  1.00  0.00     0.296 HD
ENDBRANCH  65  67
ENDBRANCH  49  65
ENDBRANCH  47  49
ENDBRANCH  43  45
ENDBRANCH   1  43
BRANCH   1  69
ATOM     69  C   UNL     1       7.511 -10.014  -3.156  1.00  0.00    -0.001 C 
ATOM     70  C   UNL     1       6.279  -9.862  -3.673  1.00  0.00     0.001 C 
BRANCH  70  71
ATOM     71  C   UNL     1       5.851 -10.191  -5.034  1.00  0.00    -0.055 C 
ATOM     72  C   UNL     1       5.078  -9.294  -5.683  1.00  0.00    -0.018 C 
ATOM     73  C   UNL     1       6.308 -11.502  -5.617  1.00  0.00     0.044 C 
BRANCH  72  74
ATOM     74  C   UNL     1       4.494  -9.362  -7.087  1.00  0.00     0.038 C 
ATOM     75  C   UNL     1       3.572 -10.586  -7.134  1.00  0.00     0.015 C 
BRANCH  74  76
ATOM     76  C   UNL     1       5.663  -9.386  -8.115  1.00  0.00     0.128 C 
BRANCH  76  77
ATOM     77  O   UNL     1       5.152  -9.644  -9.434  1.00  0.00    -0.381 OA
ATOM     78  C   UNL     1       4.926  -8.467 -10.199  1.00  0.00     0.195 C 
ENDBRANCH  76  77
BRANCH  76  79
ATOM     79  C   UNL     1       6.575  -8.134  -8.060  1.00  0.00     0.068 C 
BRANCH  79  80
ATOM     80  C   UNL     1       8.058  -8.347  -7.878  1.00  0.00    -0.045 A 
ATOM     81  C   UNL     1       8.611  -8.529  -6.603  1.00  0.00     0.004 A 
ATOM     82  C   UNL     1       8.915  -8.339  -8.989  1.00  0.00     0.004 A 
ATOM     83  C   UNL     1       9.986  -8.712  -6.442  1.00  0.00     0.000 A 
ATOM     84  C   UNL     1      10.291  -8.521  -8.827  1.00  0.00     0.000 A 
ATOM     85  C   UNL     1      10.825  -8.709  -7.554  1.00  0.00     0.000 A 
ENDBRANCH  79  80
ENDBRANCH  76  79
ENDBRANCH  74  76
ENDBRANCH  72  74
ENDBRANCH  70  71
ENDBRANCH   1  69
TORSDOF 17
ENDMDL
MODEL 45
REMARK VINA RESULT:    -4.524     11.276     16.606
REMARK INTER + INTRA:         -21.911
REMARK INTER:                 -14.507
REMARK INTRA:                  -7.405
REMARK UNBOUND:                -8.394
REMARK SMILES C=C1C(=O)N[C@H](C)C(=O)N[C@@H](CC(C)C)C(=O)N[C@@H](C(=O)O)[C@H](C)C(=O)N[C@@H](CCCN=C(N)N)C(=O)N[C@@H](/C=C/C(C)=C/[C@H](C)[C@H](Cc2ccccc2)OC)[C@H](C)C(=O)N[C@@H](C(=O)O)CCC(=O)N1C
REMARK SMILES IDX 39 1 38 2 37 3 36 4 28 6 27 7 25 8 26 9 23 11 24 12 19 13
REMARK SMILES IDX 18 14 16 15 17 16 11 18 10 19 8 20 9 21 12 24 13 25 14 26
REMARK SMILES IDX 15 27 20 28 21 29 22 30 29 32 30 33 31 34 32 35 33 36 34 37
REMARK SMILES IDX 35 38 57 43 58 44 59 45 60 46 61 47 62 49 66 50 67 51 68 52
REMARK SMILES IDX 69 53 70 54 71 55 2 56 1 57 3 58 4 59 5 60 6 62 7 63 63 65
REMARK SMILES IDX 64 66 65 67 40 69 41 70 42 71 44 72 43 73 45 74 46 75 47 76
REMARK SMILES IDX 55 77 56 78 48 79 49 80 50 81 54 82 51 83 53 84 52 85
REMARK H PARENT 38 5 27 10 18 17 10 22 22 31 34 39 34 40 35 41 35 42 61 48
REMARK H PARENT 5 61 65 68
REMARK Flexibility Score:  369.900
ROOT
ATOM      1  C   UNL     1       8.107  -9.264  -2.427  1.00  0.00     0.117 C 
ENDROOT
BRANCH   1   2
ATOM      2  N   UNL     1       9.474  -9.221  -1.907  1.00  0.00    -0.347 N 
ATOM      3  O   UNL     1       9.616  -6.953  -1.584  1.00  0.00    -0.273 OA
ATOM      4  C   UNL     1      10.089  -8.075  -1.439  1.00  0.00     0.243 C 
ATOM      5  H   UNL     1      10.001 -10.078  -1.830  1.00  0.00     0.164 HD
BRANCH   4   6
ATOM      6  C   UNL     1      11.506  -8.319  -0.862  1.00  0.00     0.171 C 
BRANCH   6   7
ATOM      7  N   UNL     1      12.409  -7.218  -1.232  1.00  0.00    -0.344 N 
ATOM      8  C   UNL     1      13.052  -7.215  -2.451  1.00  0.00     0.226 C 
ATOM      9  O   UNL     1      12.926  -8.122  -3.266  1.00  0.00    -0.275 OA
ATOM     10  H   UNL     1      12.590  -6.484  -0.558  1.00  0.00     0.164 HD
BRANCH   8  11
ATOM     11  C   UNL     1      13.904  -5.985  -2.706  1.00  0.00     0.109 C 
ATOM     12  C   UNL     1      13.350  -4.791  -1.929  1.00  0.00     0.021 C 
BRANCH  11  13
ATOM     13  C   UNL     1      15.385  -6.309  -2.427  1.00  0.00     0.204 C 
BRANCH  13  14
ATOM     14  N   UNL     1      15.675  -7.738  -2.581  1.00  0.00    -0.340 N 
ATOM     15  C   UNL     1      16.432  -8.450  -1.675  1.00  0.00     0.243 C 
ATOM     16  O   UNL     1      16.867  -7.949  -0.640  1.00  0.00    -0.273 OA
ATOM     17  H   UNL     1      15.475  -8.174  -3.485  1.00  0.00     0.164 HD
BRANCH  15  18
ATOM     18  C   UNL     1      16.778  -9.883  -2.150  1.00  0.00     0.171 C 
BRANCH  18  19
ATOM     19  N   UNL     1      17.368 -10.572  -1.004  1.00  0.00    -0.343 N 
ATOM     20  C   UNL     1      18.729 -10.790  -0.906  1.00  0.00     0.242 CG0
ATOM     21  O   UNL     1      19.490 -10.534  -1.836  1.00  0.00    -0.273 OA
ATOM     22  H   UNL     1      16.765 -10.907  -0.261  1.00  0.00     0.164 HD
ATOM     23  G   UNL     1      19.172 -11.462   0.410  1.00  0.00     0.000 G0
ENDBRANCH  18  19
BRANCH  18  24
ATOM     24  C   UNL     1      15.523 -10.605  -2.655  1.00  0.00     0.038 C 
BRANCH  24  25
ATOM     25  C   UNL     1      15.627 -11.146  -4.097  1.00  0.00    -0.015 C 
ATOM     26  C   UNL     1      14.259 -11.314  -4.759  1.00  0.00     0.007 C 
ATOM     27  C   UNL     1      16.365 -12.487  -4.091  1.00  0.00     0.007 C 
ENDBRANCH  24  25
ENDBRANCH  18  24
ENDBRANCH  15  18
ENDBRANCH  13  14
BRANCH  13  28
ATOM     28  C   UNL     1      16.353  -5.549  -3.339  1.00  0.00     0.327 C 
ATOM     29  O   UNL     1      16.749  -5.913  -4.436  1.00  0.00    -0.250 OA
BRANCH  28  30
ATOM     30  O   UNL     1      16.854  -4.436  -2.767  1.00  0.00    -0.480 OA
ATOM     31  H   UNL     1      16.063  -3.915  -2.518  1.00  0.00     0.296 HD
ENDBRANCH  28  30
ENDBRANCH  13  28
ENDBRANCH  11  13
ENDBRANCH   8  11
ENDBRANCH   6   7
BRANCH   6  32
ATOM     32  C   UNL     1      11.412  -8.462   0.661  1.00  0.00     0.037 C 
BRANCH  32  33
ATOM     33  C   UNL     1      12.795  -8.502   1.326  1.00  0.00     0.026 C 
BRANCH  33  34
ATOM     34  C   UNL     1      13.223  -9.922   1.699  1.00  0.00     0.146 C 
BRANCH  34  35
ATOM     35  N   UNL     1      13.887  -9.887   2.995  1.00  0.00    -0.254 NA
ATOM     36  C   UNL     1      15.139  -9.616   3.037  1.00  0.00     0.185 C 
ATOM     37  N   UNL     1      15.760  -9.576   4.226  1.00  0.00    -0.370 N 
ATOM     38  N   UNL     1      15.980  -9.349   2.022  1.00  0.00    -0.370 N 
ATOM     39  H   UNL     1      15.189  -9.756   5.043  1.00  0.00     0.159 HD
ATOM     40  H   UNL     1      16.685  -9.205   4.358  1.00  0.00     0.159 HD
ATOM     41  H   UNL     1      16.974  -9.288   2.172  1.00  0.00     0.159 HD
ATOM     42  H   UNL     1      15.653  -9.360   1.069  1.00  0.00     0.159 HD
ENDBRANCH  34  35
ENDBRANCH  33  34
ENDBRANCH  32  33
ENDBRANCH   6  32
ENDBRANCH   4   6
ENDBRANCH   1   2
BRANCH   1  43
ATOM     43  C   UNL     1       7.255 -10.182  -1.505  1.00  0.00     0.102 C 
ATOM     44  C   UNL     1       5.880 -10.536  -2.097  1.00  0.00     0.020 C 
BRANCH  43  45
ATOM     45  C   UNL     1       7.192  -9.624  -0.080  1.00  0.00     0.225 C 
ATOM     46  O   UNL     1       8.120  -9.717   0.718  1.00  0.00    -0.275 OA
ATOM     47  N   UNL     1       5.982  -9.085   0.293  1.00  0.00    -0.342 N 
ATOM     48  H   UNL     1       5.288  -8.879  -0.412  1.00  0.00     0.164 HD
BRANCH  47  49
ATOM     49  C   UNL     1       5.787  -8.482   1.615  1.00  0.00     0.192 C 
BRANCH  49  50
ATOM     50  C   UNL     1       4.346  -8.712   2.077  1.00  0.00     0.047 C 
BRANCH  50  51
ATOM     51  C   UNL     1       3.601  -9.715   1.185  1.00  0.00     0.103 C 
BRANCH  51  52
ATOM     52  C   UNL     1       2.275  -9.154   0.675  1.00  0.00     0.226 C 
ATOM     53  O   UNL     1       2.184  -7.956   0.403  1.00  0.00    -0.275 OA
BRANCH  52  54
ATOM     54  N   UNL     1       1.238 -10.084   0.472  1.00  0.00    -0.311 N 
ATOM     55  C   UNL     1       1.216 -11.361   1.197  1.00  0.00     0.153 C 
BRANCH  54  56
ATOM     56  C   UNL     1       0.187  -9.824  -0.422  1.00  0.00     0.102 C 
ATOM     57  C   UNL     1       0.155 -10.219  -1.706  1.00  0.00     0.043 C 
BRANCH  56  58
ATOM     58  C   UNL     1      -1.053  -9.091   0.031  1.00  0.00     0.268 C 
ATOM     59  O   UNL     1      -2.020  -9.653   0.527  1.00  0.00    -0.268 OA
ATOM     60  N   UNL     1      -0.956  -7.727  -0.110  1.00  0.00    -0.339 N 
ATOM     61  H   UNL     1      -0.124  -7.340  -0.540  1.00  0.00     0.164 HD
BRANCH  60  62
ATOM     62  C   UNL     1      -2.018  -6.821   0.325  1.00  0.00     0.168 CG0
ATOM     63  C   UNL     1      -1.510  -5.388   0.420  1.00  0.00     0.041 C 
ATOM     64  G   UNL     1      -2.576  -7.293   1.683  1.00  0.00     0.000 G0
ENDBRANCH  60  62
ENDBRANCH  56  58
ENDBRANCH  54  56
ENDBRANCH  52  54
ENDBRANCH  51  52
ENDBRANCH  50  51
ENDBRANCH  49  50
BRANCH  49  65
ATOM     65  C   UNL     1       6.081  -6.974   1.599  1.00  0.00     0.326 C 
ATOM     66  O   UNL     1       5.241  -6.086   1.595  1.00  0.00    -0.250 OA
BRANCH  65  67
ATOM     67  O   UNL     1       7.393  -6.656   1.526  1.00  0.00    -0.480 OA
ATOM     68  H   UNL     1       7.717  -6.805   2.441  1.00  0.00     0.296 HD
ENDBRANCH  65  67
ENDBRANCH  49  65
ENDBRANCH  47  49
ENDBRANCH  43  45
ENDBRANCH   1  43
BRANCH   1  69
ATOM     69  C   UNL     1       8.225  -9.610  -3.900  1.00  0.00    -0.001 C 
ATOM     70  C   UNL     1       8.914  -8.943  -4.844  1.00  0.00     0.001 C 
BRANCH  70  71
ATOM     71  C   UNL     1       9.037  -9.300  -6.259  1.00  0.00    -0.055 C 
ATOM     72  C   UNL     1       9.837 -10.339  -6.577  1.00  0.00    -0.018 C 
ATOM     73  C   UNL     1       8.257  -8.486  -7.259  1.00  0.00     0.044 C 
BRANCH  72  74
ATOM     74  C   UNL     1      10.152 -10.930  -7.944  1.00  0.00     0.038 C 
ATOM     75  C   UNL     1       9.979 -12.450  -7.830  1.00  0.00     0.015 C 
BRANCH  74  76
ATOM     76  C   UNL     1      11.573 -10.464  -8.376  1.00  0.00     0.128 C 
BRANCH  76  77
ATOM     77  O   UNL     1      12.117 -11.380  -9.342  1.00  0.00    -0.381 OA
ATOM     78  C   UNL     1      13.488 -11.149  -9.639  1.00  0.00     0.195 C 
ENDBRANCH  76  77
BRANCH  76  79
ATOM     79  C   UNL     1      11.637  -8.989  -8.845  1.00  0.00     0.068 C 
BRANCH  79  80
ATOM     80  C   UNL     1      12.450  -8.020  -8.023  1.00  0.00    -0.045 A 
ATOM     81  C   UNL     1      13.267  -8.469  -6.977  1.00  0.00     0.004 A 
ATOM     82  C   UNL     1      12.378  -6.642  -8.278  1.00  0.00     0.004 A 
ATOM     83  C   UNL     1      14.006  -7.564  -6.211  1.00  0.00     0.000 A 
ATOM     84  C   UNL     1      13.117  -5.738  -7.511  1.00  0.00     0.000 A 
ATOM     85  C   UNL     1      13.931  -6.199  -6.479  1.00  0.00     0.000 A 
ENDBRANCH  79  80
ENDBRANCH  76  79
ENDBRANCH  74  76
ENDBRANCH  72  74
ENDBRANCH  70  71
ENDBRANCH   1  69
TORSDOF 17
ENDMDL
MODEL 46
REMARK VINA RESULT:    -4.503      5.958     15.056
REMARK INTER + INTRA:         -21.846
REMARK INTER:                 -15.065
REMARK INTRA:                  -6.781
REMARK UNBOUND:                -8.394
REMARK SMILES C=C1C(=O)N[C@H](C)C(=O)N[C@@H](CC(C)C)C(=O)N[C@@H](C(=O)O)[C@H](C)C(=O)N[C@@H](CCCN=C(N)N)C(=O)N[C@@H](/C=C/C(C)=C/[C@H](C)[C@H](Cc2ccccc2)OC)[C@H](C)C(=O)N[C@@H](C(=O)O)CCC(=O)N1C
REMARK SMILES IDX 39 1 38 2 37 3 36 4 28 6 27 7 25 8 26 9 23 11 24 12 19 13
REMARK SMILES IDX 18 14 16 15 17 16 11 18 10 19 8 20 9 21 12 24 13 25 14 26
REMARK SMILES IDX 15 27 20 28 21 29 22 30 29 32 30 33 31 34 32 35 33 36 34 37
REMARK SMILES IDX 35 38 57 43 58 44 59 45 60 46 61 47 62 49 66 50 67 51 68 52
REMARK SMILES IDX 69 53 70 54 71 55 2 56 1 57 3 58 4 59 5 60 6 62 7 63 63 65
REMARK SMILES IDX 64 66 65 67 40 69 41 70 42 71 44 72 43 73 45 74 46 75 47 76
REMARK SMILES IDX 55 77 56 78 48 79 49 80 50 81 54 82 51 83 53 84 52 85
REMARK H PARENT 38 5 27 10 18 17 10 22 22 31 34 39 34 40 35 41 35 42 61 48
REMARK H PARENT 5 61 65 68
REMARK Flexibility Score:  369.900
ROOT
ATOM      1  C   UNL     1      15.151  -5.315  -1.693  1.00  0.00     0.117 C 
ENDROOT
BRANCH   1   2
ATOM      2  N   UNL     1      15.578  -6.372  -0.776  1.00  0.00    -0.347 N 
ATOM      3  O   UNL     1      17.371  -5.277   0.149  1.00  0.00    -0.273 OA
ATOM      4  C   UNL     1      16.603  -6.233   0.141  1.00  0.00     0.243 C 
ATOM      5  H   UNL     1      15.075  -7.246  -0.761  1.00  0.00     0.164 HD
BRANCH   4   6
ATOM      6  C   UNL     1      16.796  -7.471   1.052  1.00  0.00     0.171 C 
BRANCH   6   7
ATOM      7  N   UNL     1      15.680  -8.415   0.880  1.00  0.00    -0.344 N 
ATOM      8  C   UNL     1      14.711  -8.542   1.852  1.00  0.00     0.226 C 
ATOM      9  O   UNL     1      14.739  -7.906   2.899  1.00  0.00    -0.275 OA
ATOM     10  H   UNL     1      15.660  -9.007   0.059  1.00  0.00     0.164 HD
BRANCH   8  11
ATOM     11  C   UNL     1      13.599  -9.516   1.503  1.00  0.00     0.109 C 
ATOM     12  C   UNL     1      13.108  -9.264   0.077  1.00  0.00     0.021 C 
BRANCH  11  13
ATOM     13  C   UNL     1      14.063 -10.959   1.783  1.00  0.00     0.204 C 
BRANCH  13  14
ATOM     14  N   UNL     1      13.564 -11.459   3.068  1.00  0.00    -0.340 N 
ATOM     15  C   UNL     1      14.296 -11.386   4.234  1.00  0.00     0.243 C 
ATOM     16  O   UNL     1      15.396 -10.840   4.290  1.00  0.00    -0.273 OA
ATOM     17  H   UNL     1      12.732 -12.054   3.062  1.00  0.00     0.164 HD
BRANCH  15  18
ATOM     18  C   UNL     1      13.658 -12.160   5.414  1.00  0.00     0.171 C 
BRANCH  18  19
ATOM     19  N   UNL     1      14.221 -11.594   6.639  1.00  0.00    -0.343 N 
ATOM     20  C   UNL     1      14.923 -12.367   7.543  1.00  0.00     0.242 CG0
ATOM     21  O   UNL     1      14.993 -13.588   7.428  1.00  0.00    -0.273 OA
ATOM     22  H   UNL     1      14.090 -10.609   6.837  1.00  0.00     0.164 HD
ATOM     23  G   UNL     1      15.507 -11.580   8.734  1.00  0.00     0.000 G0
ENDBRANCH  18  19
BRANCH  18  24
ATOM     24  C   UNL     1      12.131 -12.030   5.385  1.00  0.00     0.038 C 
BRANCH  24  25
ATOM     25  C   UNL     1      11.368 -13.367   5.487  1.00  0.00    -0.015 C 
ATOM     26  C   UNL     1      11.486 -14.005   6.872  1.00  0.00     0.007 C 
ATOM     27  C   UNL     1      11.890 -14.340   4.426  1.00  0.00     0.007 C 
ENDBRANCH  24  25
ENDBRANCH  18  24
ENDBRANCH  15  18
ENDBRANCH  13  14
BRANCH  13  28
ATOM     28  C   UNL     1      13.620 -11.955   0.707  1.00  0.00     0.327 C 
ATOM     29  O   UNL     1      12.526 -12.492   0.625  1.00  0.00    -0.250 OA
BRANCH  28  30
ATOM     30  O   UNL     1      14.616 -12.305  -0.132  1.00  0.00    -0.480 OA
ATOM     31  H   UNL     1      14.209 -12.969  -0.726  1.00  0.00     0.296 HD
ENDBRANCH  28  30
ENDBRANCH  13  28
ENDBRANCH  11  13
ENDBRANCH   8  11
ENDBRANCH   6   7
BRANCH   6  32
ATOM     32  C   UNL     1      18.134  -8.139   0.716  1.00  0.00     0.037 C 
BRANCH  32  33
ATOM     33  C   UNL     1      17.976  -9.636   0.417  1.00  0.00     0.026 C 
BRANCH  33  34
ATOM     34  C   UNL     1      17.916  -9.930  -1.082  1.00  0.00     0.146 C 
BRANCH  34  35
ATOM     35  N   UNL     1      16.642 -10.568  -1.385  1.00  0.00    -0.254 NA
ATOM     36  C   UNL     1      16.050 -10.270  -2.481  1.00  0.00     0.185 C 
ATOM     37  N   UNL     1      14.879 -10.855  -2.773  1.00  0.00    -0.370 N 
ATOM     38  N   UNL     1      16.438  -9.415  -3.445  1.00  0.00    -0.370 N 
ATOM     39  H   UNL     1      14.524 -11.522  -2.099  1.00  0.00     0.159 HD
ATOM     40  H   UNL     1      14.444 -10.809  -3.678  1.00  0.00     0.159 HD
ATOM     41  H   UNL     1      15.817  -9.161  -4.196  1.00  0.00     0.159 HD
ATOM     42  H   UNL     1      17.294  -8.891  -3.351  1.00  0.00     0.159 HD
ENDBRANCH  34  35
ENDBRANCH  33  34
ENDBRANCH  32  33
ENDBRANCH   6  32
ENDBRANCH   4   6
ENDBRANCH   1   2
BRANCH   1  43
ATOM     43  C   UNL     1      13.856  -4.662  -1.129  1.00  0.00     0.102 C 
ATOM     44  C   UNL     1      12.692  -4.644  -2.133  1.00  0.00     0.020 C 
BRANCH  43  45
ATOM     45  C   UNL     1      14.156  -3.298  -0.501  1.00  0.00     0.225 C 
ATOM     46  O   UNL     1      13.283  -2.551  -0.070  1.00  0.00    -0.275 OA
ATOM     47  N   UNL     1      15.476  -2.909  -0.533  1.00  0.00    -0.342 N 
ATOM     48  H   UNL     1      16.193  -3.588  -0.747  1.00  0.00     0.164 HD
BRANCH  47  49
ATOM     49  C   UNL     1      15.916  -1.644   0.063  1.00  0.00     0.192 C 
BRANCH  49  50
ATOM     50  C   UNL     1      17.301  -1.276  -0.476  1.00  0.00     0.047 C 
BRANCH  50  51
ATOM     51  C   UNL     1      17.243  -0.734  -1.910  1.00  0.00     0.103 C 
BRANCH  51  52
ATOM     52  C   UNL     1      17.433   0.781  -1.960  1.00  0.00     0.226 C 
ATOM     53  O   UNL     1      17.332   1.442  -0.925  1.00  0.00    -0.275 OA
BRANCH  52  54
ATOM     54  N   UNL     1      17.796   1.327  -3.205  1.00  0.00    -0.311 N 
ATOM     55  C   UNL     1      19.208   1.479  -3.581  1.00  0.00     0.153 C 
BRANCH  54  56
ATOM     56  C   UNL     1      16.827   1.740  -4.134  1.00  0.00     0.102 C 
ATOM     57  C   UNL     1      16.449   1.037  -5.214  1.00  0.00     0.043 C 
BRANCH  56  58
ATOM     58  C   UNL     1      16.079   3.039  -3.947  1.00  0.00     0.268 C 
ATOM     59  O   UNL     1      15.375   3.273  -2.974  1.00  0.00    -0.268 OA
ATOM     60  N   UNL     1      16.324   3.951  -4.946  1.00  0.00    -0.339 N 
ATOM     61  H   UNL     1      16.911   3.676  -5.724  1.00  0.00     0.164 HD
BRANCH  60  62
ATOM     62  C   UNL     1      15.750   5.296  -4.930  1.00  0.00     0.168 CG0
ATOM     63  C   UNL     1      16.490   6.218  -5.892  1.00  0.00     0.041 C 
ATOM     64  G   UNL     1      15.792   5.859  -3.494  1.00  0.00     0.000 G0
ENDBRANCH  60  62
ENDBRANCH  56  58
ENDBRANCH  54  56
ENDBRANCH  52  54
ENDBRANCH  51  52
ENDBRANCH  50  51
ENDBRANCH  49  50
BRANCH  49  65
ATOM     65  C   UNL     1      15.973  -1.728   1.596  1.00  0.00     0.326 C 
ATOM     66  O   UNL     1      16.863  -2.256   2.247  1.00  0.00    -0.250 OA
BRANCH  65  67
ATOM     67  O   UNL     1      14.897  -1.210   2.230  1.00  0.00    -0.480 OA
ATOM     68  H   UNL     1      15.229  -1.023   3.134  1.00  0.00     0.296 HD
ENDBRANCH  65  67
ENDBRANCH  49  65
ENDBRANCH  47  49
ENDBRANCH  43  45
ENDBRANCH   1  43
BRANCH   1  69
ATOM     69  C   UNL     1      15.113  -5.942  -3.075  1.00  0.00    -0.001 C 
ATOM     70  C   UNL     1      15.728  -5.504  -4.188  1.00  0.00     0.001 C 
BRANCH  70  71
ATOM     71  C   UNL     1      15.702  -6.131  -5.511  1.00  0.00    -0.055 C 
ATOM     72  C   UNL     1      14.501  -6.288  -6.108  1.00  0.00    -0.018 C 
ATOM     73  C   UNL     1      17.017  -6.547  -6.117  1.00  0.00     0.044 C 
BRANCH  72  74
ATOM     74  C   UNL     1      14.172  -6.895  -7.464  1.00  0.00     0.038 C 
ATOM     75  C   UNL     1      12.743  -6.464  -7.818  1.00  0.00     0.015 C 
BRANCH  74  76
ATOM     76  C   UNL     1      14.390  -8.435  -7.390  1.00  0.00     0.128 C 
BRANCH  76  77
ATOM     77  O   UNL     1      13.154  -9.091  -7.059  1.00  0.00    -0.381 OA
ATOM     78  C   UNL     1      13.167  -9.723  -5.786  1.00  0.00     0.195 C 
ENDBRANCH  76  77
BRANCH  76  79
ATOM     79  C   UNL     1      15.069  -9.035  -8.647  1.00  0.00     0.068 C 
BRANCH  79  80
ATOM     80  C   UNL     1      16.482  -8.606  -8.961  1.00  0.00    -0.045 A 
ATOM     81  C   UNL     1      16.734  -7.484  -9.762  1.00  0.00     0.004 A 
ATOM     82  C   UNL     1      17.570  -9.345  -8.474  1.00  0.00     0.004 A 
ATOM     83  C   UNL     1      18.043  -7.102 -10.060  1.00  0.00     0.000 A 
ATOM     84  C   UNL     1      18.880  -8.962  -8.773  1.00  0.00     0.000 A 
ATOM     85  C   UNL     1      19.116  -7.840  -9.564  1.00  0.00     0.000 A 
ENDBRANCH  79  80
ENDBRANCH  76  79
ENDBRANCH  74  76
ENDBRANCH  72  74
ENDBRANCH  70  71
ENDBRANCH   1  69
TORSDOF 17
ENDMDL
MODEL 47
REMARK VINA RESULT:    -4.500      7.984     14.283
REMARK INTER + INTRA:         -21.839
REMARK INTER:                 -12.908
REMARK INTRA:                  -8.932
REMARK UNBOUND:                -8.394
REMARK SMILES C=C1C(=O)N[C@H](C)C(=O)N[C@@H](CC(C)C)C(=O)N[C@@H](C(=O)O)[C@H](C)C(=O)N[C@@H](CCCN=C(N)N)C(=O)N[C@@H](/C=C/C(C)=C/[C@H](C)[C@H](Cc2ccccc2)OC)[C@H](C)C(=O)N[C@@H](C(=O)O)CCC(=O)N1C
REMARK SMILES IDX 39 1 38 2 37 3 36 4 28 6 27 7 25 8 26 9 23 11 24 12 19 13
REMARK SMILES IDX 18 14 16 15 17 16 11 18 10 19 8 20 9 21 12 24 13 25 14 26
REMARK SMILES IDX 15 27 20 28 21 29 22 30 29 32 30 33 31 34 32 35 33 36 34 37
REMARK SMILES IDX 35 38 57 43 58 44 59 45 60 46 61 47 62 49 66 50 67 51 68 52
REMARK SMILES IDX 69 53 70 54 71 55 2 56 1 57 3 58 4 59 5 60 6 62 7 63 63 65
REMARK SMILES IDX 64 66 65 67 40 69 41 70 42 71 44 72 43 73 45 74 46 75 47 76
REMARK SMILES IDX 55 77 56 78 48 79 49 80 50 81 54 82 51 83 53 84 52 85
REMARK H PARENT 38 5 27 10 18 17 10 22 22 31 34 39 34 40 35 41 35 42 61 48
REMARK H PARENT 5 61 65 68
REMARK Flexibility Score:  369.900
ROOT
ATOM      1  C   UNL     1      15.980  -6.182  -5.881  1.00  0.00     0.117 C 
ENDROOT
BRANCH   1   2
ATOM      2  N   UNL     1      16.443  -6.901  -4.694  1.00  0.00    -0.347 N 
ATOM      3  O   UNL     1      17.833  -5.273  -3.865  1.00  0.00    -0.273 OA
ATOM      4  C   UNL     1      17.265  -6.351  -3.729  1.00  0.00     0.243 C 
ATOM      5  H   UNL     1      16.114  -7.839  -4.524  1.00  0.00     0.164 HD
BRANCH   4   6
ATOM      6  C   UNL     1      17.535  -7.295  -2.530  1.00  0.00     0.171 C 
BRANCH   6   7
ATOM      7  N   UNL     1      16.272  -7.674  -1.878  1.00  0.00    -0.344 N 
ATOM      8  C   UNL     1      16.062  -7.407  -0.542  1.00  0.00     0.226 C 
ATOM      9  O   UNL     1      16.908  -6.871   0.164  1.00  0.00    -0.275 OA
ATOM     10  H   UNL     1      15.576  -8.179  -2.413  1.00  0.00     0.164 HD
BRANCH   8  11
ATOM     11  C   UNL     1      14.690  -7.809  -0.032  1.00  0.00     0.109 C 
ATOM     12  C   UNL     1      14.792  -8.320   1.405  1.00  0.00     0.021 C 
BRANCH  11  13
ATOM     13  C   UNL     1      13.696  -6.648  -0.237  1.00  0.00     0.204 C 
BRANCH  13  14
ATOM     14  N   UNL     1      14.372  -5.348  -0.300  1.00  0.00    -0.340 N 
ATOM     15  C   UNL     1      14.569  -4.553   0.808  1.00  0.00     0.243 C 
ATOM     16  O   UNL     1      14.244  -4.906   1.940  1.00  0.00    -0.273 OA
ATOM     17  H   UNL     1      14.528  -4.932  -1.222  1.00  0.00     0.164 HD
BRANCH  15  18
ATOM     18  C   UNL     1      15.112  -3.143   0.469  1.00  0.00     0.171 C 
BRANCH  18  19
ATOM     19  N   UNL     1      14.782  -2.283   1.603  1.00  0.00    -0.343 N 
ATOM     20  C   UNL     1      13.558  -1.650   1.706  1.00  0.00     0.242 CG0
ATOM     21  O   UNL     1      12.742  -1.673   0.787  1.00  0.00    -0.273 OA
ATOM     22  H   UNL     1      15.469  -2.139   2.335  1.00  0.00     0.164 HD
ATOM     23  G   UNL     1      13.363  -0.849   3.010  1.00  0.00     0.000 G0
ENDBRANCH  18  19
BRANCH  18  24
ATOM     24  C   UNL     1      16.625  -3.191   0.222  1.00  0.00     0.038 C 
BRANCH  24  25
ATOM     25  C   UNL     1      17.084  -2.527  -1.094  1.00  0.00    -0.015 C 
ATOM     26  C   UNL     1      18.515  -2.910  -1.474  1.00  0.00     0.007 C 
ATOM     27  C   UNL     1      16.974  -1.006  -0.969  1.00  0.00     0.007 C 
ENDBRANCH  24  25
ENDBRANCH  18  24
ENDBRANCH  15  18
ENDBRANCH  13  14
BRANCH  13  28
ATOM     28  C   UNL     1      12.861  -6.787  -1.514  1.00  0.00     0.327 C 
ATOM     29  O   UNL     1      11.914  -6.086  -1.838  1.00  0.00    -0.250 OA
BRANCH  28  30
ATOM     30  O   UNL     1      13.190  -7.871  -2.245  1.00  0.00    -0.480 OA
ATOM     31  H   UNL     1      12.743  -7.726  -3.105  1.00  0.00     0.296 HD
ENDBRANCH  28  30
ENDBRANCH  13  28
ENDBRANCH  11  13
ENDBRANCH   8  11
ENDBRANCH   6   7
BRANCH   6  32
ATOM     32  C   UNL     1      18.289  -8.535  -3.025  1.00  0.00     0.037 C 
BRANCH  32  33
ATOM     33  C   UNL     1      19.162  -9.158  -1.927  1.00  0.00     0.026 C 
BRANCH  33  34
ATOM     34  C   UNL     1      18.751 -10.593  -1.597  1.00  0.00     0.146 C 
BRANCH  34  35
ATOM     35  N   UNL     1      17.379 -10.803  -2.040  1.00  0.00    -0.254 NA
ATOM     36  C   UNL     1      16.465 -10.959  -1.157  1.00  0.00     0.185 C 
ATOM     37  N   UNL     1      15.197 -11.147  -1.555  1.00  0.00    -0.370 N 
ATOM     38  N   UNL     1      16.577 -10.963   0.183  1.00  0.00    -0.370 N 
ATOM     39  H   UNL     1      15.029 -11.146  -2.553  1.00  0.00     0.159 HD
ATOM     40  H   UNL     1      14.407 -11.103  -0.934  1.00  0.00     0.159 HD
ATOM     41  H   UNL     1      15.805 -11.235   0.769  1.00  0.00     0.159 HD
ATOM     42  H   UNL     1      17.477 -10.848   0.623  1.00  0.00     0.159 HD
ENDBRANCH  34  35
ENDBRANCH  33  34
ENDBRANCH  32  33
ENDBRANCH   6  32
ENDBRANCH   4   6
ENDBRANCH   1   2
BRANCH   1  43
ATOM     43  C   UNL     1      14.425  -6.120  -5.848  1.00  0.00     0.102 C 
ATOM     44  C   UNL     1      13.869  -5.338  -4.646  1.00  0.00     0.020 C 
BRANCH  43  45
ATOM     45  C   UNL     1      13.816  -7.515  -6.018  1.00  0.00     0.225 C 
ATOM     46  O   UNL     1      13.726  -8.324  -5.099  1.00  0.00    -0.275 OA
ATOM     47  N   UNL     1      13.452  -7.851  -7.302  1.00  0.00    -0.342 N 
ATOM     48  H   UNL     1      13.390  -7.132  -8.008  1.00  0.00     0.164 HD
BRANCH  47  49
ATOM     49  C   UNL     1      12.823  -9.139  -7.608  1.00  0.00     0.192 C 
BRANCH  49  50
ATOM     50  C   UNL     1      13.781  -9.994  -8.442  1.00  0.00     0.047 C 
BRANCH  50  51
ATOM     51  C   UNL     1      14.824 -10.713  -7.575  1.00  0.00     0.103 C 
BRANCH  51  52
ATOM     52  C   UNL     1      15.167 -12.098  -8.121  1.00  0.00     0.226 C 
ATOM     53  O   UNL     1      15.277 -12.264  -9.337  1.00  0.00    -0.275 OA
BRANCH  52  54
ATOM     54  N   UNL     1      15.415 -13.103  -7.168  1.00  0.00    -0.311 N 
ATOM     55  C   UNL     1      16.118 -12.800  -5.914  1.00  0.00     0.153 C 
BRANCH  54  56
ATOM     56  C   UNL     1      14.996 -14.428  -7.375  1.00  0.00     0.102 C 
ATOM     57  C   UNL     1      13.762 -14.893  -7.120  1.00  0.00     0.043 C 
BRANCH  56  58
ATOM     58  C   UNL     1      15.933 -15.454  -7.968  1.00  0.00     0.268 C 
ATOM     59  O   UNL     1      16.461 -16.339  -7.307  1.00  0.00    -0.268 OA
ATOM     60  N   UNL     1      16.079 -15.331  -9.329  1.00  0.00    -0.339 N 
ATOM     61  H   UNL     1      15.615 -14.563  -9.801  1.00  0.00     0.164 HD
BRANCH  60  62
ATOM     62  C   UNL     1      16.892 -16.259 -10.113  1.00  0.00     0.168 CG0
ATOM     63  C   UNL     1      17.709 -15.518 -11.164  1.00  0.00     0.041 C 
ATOM     64  G   UNL     1      15.980 -17.314 -10.773  1.00  0.00     0.000 G0
ENDBRANCH  60  62
ENDBRANCH  56  58
ENDBRANCH  54  56
ENDBRANCH  52  54
ENDBRANCH  51  52
ENDBRANCH  50  51
ENDBRANCH  49  50
BRANCH  49  65
ATOM     65  C   UNL     1      11.504  -8.958  -8.375  1.00  0.00     0.326 C 
ATOM     66  O   UNL     1      11.128  -7.923  -8.906  1.00  0.00    -0.250 OA
BRANCH  65  67
ATOM     67  O   UNL     1      10.705 -10.047  -8.387  1.00  0.00    -0.480 OA
ATOM     68  H   UNL     1      11.045 -10.592  -7.645  1.00  0.00     0.296 HD
ENDBRANCH  65  67
ENDBRANCH  49  65
ENDBRANCH  47  49
ENDBRANCH  43  45
ENDBRANCH   1  43
BRANCH   1  69
ATOM     69  C   UNL     1      16.663  -6.838  -7.067  1.00  0.00    -0.001 C 
ATOM     70  C   UNL     1      17.680  -7.717  -7.040  1.00  0.00     0.001 C 
BRANCH  70  71
ATOM     71  C   UNL     1      18.318  -8.360  -8.191  1.00  0.00    -0.055 C 
ATOM     72  C   UNL     1      17.925  -9.613  -8.507  1.00  0.00    -0.018 C 
ATOM     73  C   UNL     1      19.359  -7.577  -8.946  1.00  0.00     0.044 C 
BRANCH  72  74
ATOM     74  C   UNL     1      18.402 -10.516  -9.635  1.00  0.00     0.038 C 
ATOM     75  C   UNL     1      19.861 -10.881  -9.337  1.00  0.00     0.015 C 
BRANCH  74  76
ATOM     76  C   UNL     1      18.176  -9.785 -10.991  1.00  0.00     0.128 C 
BRANCH  76  77
ATOM     77  O   UNL     1      19.245 -10.095 -11.901  1.00  0.00    -0.381 OA
ATOM     78  C   UNL     1      19.587  -9.022 -12.768  1.00  0.00     0.195 C 
ENDBRANCH  76  77
BRANCH  76  79
ATOM     79  C   UNL     1      16.775 -10.024 -11.610  1.00  0.00     0.068 C 
BRANCH  79  80
ATOM     80  C   UNL     1      15.727  -8.954 -11.423  1.00  0.00    -0.045 A 
ATOM     81  C   UNL     1      15.986  -7.818 -10.643  1.00  0.00     0.004 A 
ATOM     82  C   UNL     1      14.460  -9.094 -12.009  1.00  0.00     0.004 A 
ATOM     83  C   UNL     1      15.007  -6.839 -10.464  1.00  0.00     0.000 A 
ATOM     84  C   UNL     1      13.481  -8.115 -11.828  1.00  0.00     0.000 A 
ATOM     85  C   UNL     1      13.755  -6.987 -11.058  1.00  0.00     0.000 A 
ENDBRANCH  79  80
ENDBRANCH  76  79
ENDBRANCH  74  76
ENDBRANCH  72  74
ENDBRANCH  70  71
ENDBRANCH   1  69
TORSDOF 17
ENDMDL
MODEL 48
REMARK VINA RESULT:    -4.482     19.957     25.507
REMARK INTER + INTRA:         -21.785
REMARK INTER:                 -15.774
REMARK INTRA:                  -6.011
REMARK UNBOUND:                -8.394
REMARK SMILES C=C1C(=O)N[C@H](C)C(=O)N[C@@H](CC(C)C)C(=O)N[C@@H](C(=O)O)[C@H](C)C(=O)N[C@@H](CCCN=C(N)N)C(=O)N[C@@H](/C=C/C(C)=C/[C@H](C)[C@H](Cc2ccccc2)OC)[C@H](C)C(=O)N[C@@H](C(=O)O)CCC(=O)N1C
REMARK SMILES IDX 39 1 38 2 37 3 36 4 28 6 27 7 25 8 26 9 23 11 24 12 19 13
REMARK SMILES IDX 18 14 16 15 17 16 11 18 10 19 8 20 9 21 12 24 13 25 14 26
REMARK SMILES IDX 15 27 20 28 21 29 22 30 29 32 30 33 31 34 32 35 33 36 34 37
REMARK SMILES IDX 35 38 57 43 58 44 59 45 60 46 61 47 62 49 66 50 67 51 68 52
REMARK SMILES IDX 69 53 70 54 71 55 2 56 1 57 3 58 4 59 5 60 6 62 7 63 63 65
REMARK SMILES IDX 64 66 65 67 40 69 41 70 42 71 44 72 43 73 45 74 46 75 47 76
REMARK SMILES IDX 55 77 56 78 48 79 49 80 50 81 54 82 51 83 53 84 52 85
REMARK H PARENT 38 5 27 10 18 17 10 22 22 31 34 39 34 40 35 41 35 42 61 48
REMARK H PARENT 5 61 65 68
REMARK Flexibility Score:  369.900
ROOT
ATOM      1  C   UNL     1      -3.346 -11.409   0.099  1.00  0.00     0.117 C 
ENDROOT
BRANCH   1   2
ATOM      2  N   UNL     1      -2.260 -10.531  -0.337  1.00  0.00    -0.347 N 
ATOM      3  O   UNL     1      -0.512 -11.736   0.536  1.00  0.00    -0.273 OA
ATOM      4  C   UNL     1      -0.919 -10.813  -0.162  1.00  0.00     0.243 C 
ATOM      5  H   UNL     1      -2.480  -9.685  -0.842  1.00  0.00     0.164 HD
BRANCH   4   6
ATOM      6  C   UNL     1       0.028  -9.760  -0.792  1.00  0.00     0.171 C 
BRANCH   6   7
ATOM      7  N   UNL     1       0.626 -10.282  -2.031  1.00  0.00    -0.344 N 
ATOM      8  C   UNL     1       1.835 -10.943  -2.003  1.00  0.00     0.226 C 
ATOM      9  O   UNL     1       2.474 -11.108  -0.970  1.00  0.00    -0.275 OA
ATOM     10  H   UNL     1       0.161 -10.106  -2.913  1.00  0.00     0.164 HD
BRANCH   8  11
ATOM     11  C   UNL     1       2.292 -11.469  -3.353  1.00  0.00     0.109 C 
ATOM     12  C   UNL     1       3.449 -12.451  -3.170  1.00  0.00     0.021 C 
BRANCH  11  13
ATOM     13  C   UNL     1       1.084 -12.027  -4.131  1.00  0.00     0.204 C 
BRANCH  13  14
ATOM     14  N   UNL     1       1.369 -12.172  -5.562  1.00  0.00    -0.340 N 
ATOM     15  C   UNL     1       0.403 -12.031  -6.535  1.00  0.00     0.243 C 
ATOM     16  O   UNL     1      -0.756 -11.714  -6.274  1.00  0.00    -0.273 OA
ATOM     17  H   UNL     1       2.267 -12.580  -5.834  1.00  0.00     0.164 HD
BRANCH  15  18
ATOM     18  C   UNL     1       0.888 -12.432  -7.950  1.00  0.00     0.171 C 
BRANCH  18  19
ATOM     19  N   UNL     1       0.229 -13.695  -8.276  1.00  0.00    -0.343 N 
ATOM     20  C   UNL     1       0.864 -14.911  -8.114  1.00  0.00     0.242 CG0
ATOM     21  O   UNL     1       2.054 -14.981  -7.815  1.00  0.00    -0.273 OA
ATOM     22  H   UNL     1      -0.718 -13.683  -8.637  1.00  0.00     0.164 HD
ATOM     23  G   UNL     1      -0.017 -16.137  -8.435  1.00  0.00     0.000 G0
ENDBRANCH  18  19
BRANCH  18  24
ATOM     24  C   UNL     1       0.544 -11.339  -8.970  1.00  0.00     0.038 C 
BRANCH  24  25
ATOM     25  C   UNL     1       1.738 -10.849  -9.816  1.00  0.00    -0.015 C 
ATOM     26  C   UNL     1       1.884 -11.622 -11.126  1.00  0.00     0.007 C 
ATOM     27  C   UNL     1       3.029 -10.966  -9.001  1.00  0.00     0.007 C 
ENDBRANCH  24  25
ENDBRANCH  18  24
ENDBRANCH  15  18
ENDBRANCH  13  14
BRANCH  13  28
ATOM     28  C   UNL     1       0.617 -13.394  -3.621  1.00  0.00     0.327 C 
ATOM     29  O   UNL     1       0.965 -14.483  -4.050  1.00  0.00    -0.250 OA
BRANCH  28  30
ATOM     30  O   UNL     1      -0.348 -13.307  -2.683  1.00  0.00    -0.480 OA
ATOM     31  H   UNL     1       0.032 -13.760  -1.902  1.00  0.00     0.296 HD
ENDBRANCH  28  30
ENDBRANCH  13  28
ENDBRANCH  11  13
ENDBRANCH   8  11
ENDBRANCH   6   7
BRANCH   6  32
ATOM     32  C   UNL     1      -0.761  -8.474  -1.065  1.00  0.00     0.037 C 
BRANCH  32  33
ATOM     33  C   UNL     1      -0.551  -7.422   0.033  1.00  0.00     0.026 C 
BRANCH  33  34
ATOM     34  C   UNL     1      -1.845  -6.696   0.402  1.00  0.00     0.146 C 
BRANCH  34  35
ATOM     35  N   UNL     1      -1.508  -5.418   1.015  1.00  0.00    -0.254 NA
ATOM     36  C   UNL     1      -1.882  -4.340   0.434  1.00  0.00     0.185 C 
ATOM     37  N   UNL     1      -1.582  -3.157   0.992  1.00  0.00    -0.370 N 
ATOM     38  N   UNL     1      -2.569  -4.193  -0.714  1.00  0.00    -0.370 N 
ATOM     39  H   UNL     1      -1.073  -3.184   1.867  1.00  0.00     0.159 HD
ATOM     40  H   UNL     1      -1.983  -2.284   0.696  1.00  0.00     0.159 HD
ATOM     41  H   UNL     1      -2.682  -3.289  -1.141  1.00  0.00     0.159 HD
ATOM     42  H   UNL     1      -2.848  -5.000  -1.251  1.00  0.00     0.159 HD
ENDBRANCH  34  35
ENDBRANCH  33  34
ENDBRANCH  32  33
ENDBRANCH   6  32
ENDBRANCH   4   6
ENDBRANCH   1   2
BRANCH   1  43
ATOM     43  C   UNL     1      -3.210 -11.641   1.631  1.00  0.00     0.102 C 
ATOM     44  C   UNL     1      -3.482 -13.094   2.057  1.00  0.00     0.020 C 
BRANCH  43  45
ATOM     45  C   UNL     1      -4.015 -10.602   2.418  1.00  0.00     0.225 C 
ATOM     46  O   UNL     1      -3.692  -9.420   2.495  1.00  0.00    -0.275 OA
ATOM     47  N   UNL     1      -5.090 -11.095   3.122  1.00  0.00    -0.342 N 
ATOM     48  H   UNL     1      -5.430 -12.027   2.930  1.00  0.00     0.164 HD
BRANCH  47  49
ATOM     49  C   UNL     1      -5.972 -10.212   3.891  1.00  0.00     0.192 C 
BRANCH  49  50
ATOM     50  C   UNL     1      -6.109 -10.740   5.322  1.00  0.00     0.047 C 
BRANCH  50  51
ATOM     51  C   UNL     1      -5.048 -11.798   5.655  1.00  0.00     0.103 C 
BRANCH  51  52
ATOM     52  C   UNL     1      -3.908 -11.223   6.494  1.00  0.00     0.226 C 
ATOM     53  O   UNL     1      -3.007 -10.587   5.943  1.00  0.00    -0.275 OA
BRANCH  52  54
ATOM     54  N   UNL     1      -4.004 -11.399   7.887  1.00  0.00    -0.311 N 
ATOM     55  C   UNL     1      -3.216 -12.430   8.575  1.00  0.00     0.153 C 
BRANCH  54  56
ATOM     56  C   UNL     1      -4.849 -10.594   8.670  1.00  0.00     0.102 C 
ATOM     57  C   UNL     1      -4.506  -9.410   9.201  1.00  0.00     0.043 C 
BRANCH  56  58
ATOM     58  C   UNL     1      -6.277 -11.005   8.941  1.00  0.00     0.268 C 
ATOM     59  O   UNL     1      -6.583 -12.092   9.411  1.00  0.00    -0.268 OA
ATOM     60  N   UNL     1      -7.186 -10.010   8.669  1.00  0.00    -0.339 N 
ATOM     61  H   UNL     1      -6.852  -9.140   8.271  1.00  0.00     0.164 HD
BRANCH  60  62
ATOM     62  C   UNL     1      -8.617 -10.173   8.919  1.00  0.00     0.168 CG0
ATOM     63  C   UNL     1      -9.341 -10.646   7.664  1.00  0.00     0.041 C 
ATOM     64  G   UNL     1      -9.209  -8.841   9.422  1.00  0.00     0.000 G0
ENDBRANCH  60  62
ENDBRANCH  56  58
ENDBRANCH  54  56
ENDBRANCH  52  54
ENDBRANCH  51  52
ENDBRANCH  50  51
ENDBRANCH  49  50
BRANCH  49  65
ATOM     65  C   UNL     1      -7.366 -10.107   3.253  1.00  0.00     0.326 C 
ATOM     66  O   UNL     1      -8.409 -10.495   3.756  1.00  0.00    -0.250 OA
BRANCH  65  67
ATOM     67  O   UNL     1      -7.377  -9.584   2.007  1.00  0.00    -0.480 OA
ATOM     68  H   UNL     1      -7.988  -8.819   2.082  1.00  0.00     0.296 HD
ENDBRANCH  65  67
ENDBRANCH  49  65
ENDBRANCH  47  49
ENDBRANCH  43  45
ENDBRANCH   1  43
BRANCH   1  69
ATOM     69  C   UNL     1      -3.318 -12.610  -0.830  1.00  0.00    -0.001 C 
ATOM     70  C   UNL     1      -4.063 -12.807  -1.932  1.00  0.00     0.001 C 
BRANCH  70  71
ATOM     71  C   UNL     1      -4.012 -13.961  -2.832  1.00  0.00    -0.055 C 
ATOM     72  C   UNL     1      -3.821 -13.722  -4.147  1.00  0.00    -0.018 C 
ATOM     73  C   UNL     1      -4.169 -15.331  -2.227  1.00  0.00     0.044 C 
BRANCH  72  74
ATOM     74  C   UNL     1      -3.724 -14.711  -5.301  1.00  0.00     0.038 C 
ATOM     75  C   UNL     1      -2.275 -14.678  -5.803  1.00  0.00     0.015 C 
BRANCH  74  76
ATOM     76  C   UNL     1      -4.794 -14.340  -6.369  1.00  0.00     0.128 C 
BRANCH  76  77
ATOM     77  O   UNL     1      -6.084 -14.827  -5.961  1.00  0.00    -0.381 OA
ATOM     78  C   UNL     1      -6.702 -15.678  -6.916  1.00  0.00     0.195 C 
ENDBRANCH  76  77
BRANCH  76  79
ATOM     79  C   UNL     1      -4.812 -12.838  -6.748  1.00  0.00     0.068 C 
BRANCH  79  80
ATOM     80  C   UNL     1      -4.518 -12.467  -8.181  1.00  0.00    -0.045 A 
ATOM     81  C   UNL     1      -5.540 -12.415  -9.138  1.00  0.00     0.004 A 
ATOM     82  C   UNL     1      -3.202 -12.194  -8.585  1.00  0.00     0.004 A 
ATOM     83  C   UNL     1      -5.258 -12.084 -10.465  1.00  0.00     0.000 A 
ATOM     84  C   UNL     1      -2.921 -11.864  -9.913  1.00  0.00     0.000 A 
ATOM     85  C   UNL     1      -3.948 -11.808 -10.852  1.00  0.00     0.000 A 
ENDBRANCH  79  80
ENDBRANCH  76  79
ENDBRANCH  74  76
ENDBRANCH  72  74
ENDBRANCH  70  71
ENDBRANCH   1  69
TORSDOF 17
ENDMDL
MODEL 49
REMARK VINA RESULT:    -4.474     12.299     17.267
REMARK INTER + INTRA:         -21.760
REMARK INTER:                 -14.725
REMARK INTRA:                  -7.035
REMARK UNBOUND:                -8.394
REMARK SMILES C=C1C(=O)N[C@H](C)C(=O)N[C@@H](CC(C)C)C(=O)N[C@@H](C(=O)O)[C@H](C)C(=O)N[C@@H](CCCN=C(N)N)C(=O)N[C@@H](/C=C/C(C)=C/[C@H](C)[C@H](Cc2ccccc2)OC)[C@H](C)C(=O)N[C@@H](C(=O)O)CCC(=O)N1C
REMARK SMILES IDX 39 1 38 2 37 3 36 4 28 6 27 7 25 8 26 9 23 11 24 12 19 13
REMARK SMILES IDX 18 14 16 15 17 16 11 18 10 19 8 20 9 21 12 24 13 25 14 26
REMARK SMILES IDX 15 27 20 28 21 29 22 30 29 32 30 33 31 34 32 35 33 36 34 37
REMARK SMILES IDX 35 38 57 43 58 44 59 45 60 46 61 47 62 49 66 50 67 51 68 52
REMARK SMILES IDX 69 53 70 54 71 55 2 56 1 57 3 58 4 59 5 60 6 62 7 63 63 65
REMARK SMILES IDX 64 66 65 67 40 69 41 70 42 71 44 72 43 73 45 74 46 75 47 76
REMARK SMILES IDX 55 77 56 78 48 79 49 80 50 81 54 82 51 83 53 84 52 85
REMARK H PARENT 38 5 27 10 18 17 10 22 22 31 34 39 34 40 35 41 35 42 61 48
REMARK H PARENT 5 61 65 68
REMARK Flexibility Score:  369.900
ROOT
ATOM      1  C   UNL     1       8.683 -10.344  -4.364  1.00  0.00     0.117 C 
ENDROOT
BRANCH   1   2
ATOM      2  N   UNL     1       8.385  -9.496  -5.519  1.00  0.00    -0.347 N 
ATOM      3  O   UNL     1       9.999 -10.313  -6.933  1.00  0.00    -0.273 OA
ATOM      4  C   UNL     1       9.009  -9.613  -6.746  1.00  0.00     0.243 C 
ATOM      5  H   UNL     1       7.648  -8.811  -5.452  1.00  0.00     0.164 HD
BRANCH   4   6
ATOM      6  C   UNL     1       8.448  -8.653  -7.825  1.00  0.00     0.171 C 
BRANCH   6   7
ATOM      7  N   UNL     1       8.922  -9.046  -9.162  1.00  0.00    -0.344 N 
ATOM      8  C   UNL     1      10.070  -8.498  -9.689  1.00  0.00     0.226 C 
ATOM      9  O   UNL     1      10.732  -7.654  -9.097  1.00  0.00    -0.275 OA
ATOM     10  H   UNL     1       8.366  -9.691  -9.709  1.00  0.00     0.164 HD
BRANCH   8  11
ATOM     11  C   UNL     1      10.457  -9.046 -11.052  1.00  0.00     0.109 C 
ATOM     12  C   UNL     1       9.226  -9.125 -11.955  1.00  0.00     0.021 C 
BRANCH  11  13
ATOM     13  C   UNL     1      11.633  -8.232 -11.627  1.00  0.00     0.204 C 
BRANCH  13  14
ATOM     14  N   UNL     1      12.904  -8.563 -10.976  1.00  0.00    -0.340 N 
ATOM     15  C   UNL     1      13.910  -7.641 -10.786  1.00  0.00     0.243 C 
ATOM     16  O   UNL     1      13.788  -6.457 -11.096  1.00  0.00    -0.273 OA
ATOM     17  H   UNL     1      13.128  -9.552 -10.834  1.00  0.00     0.164 HD
BRANCH  15  18
ATOM     18  C   UNL     1      15.231  -8.263 -10.271  1.00  0.00     0.171 C 
BRANCH  18  19
ATOM     19  N   UNL     1      15.938  -8.775 -11.443  1.00  0.00    -0.343 N 
ATOM     20  C   UNL     1      16.086 -10.130 -11.671  1.00  0.00     0.242 CG0
ATOM     21  O   UNL     1      15.748 -10.964 -10.834  1.00  0.00    -0.273 OA
ATOM     22  H   UNL     1      16.337  -8.122 -12.107  1.00  0.00     0.164 HD
ATOM     23  G   UNL     1      16.791 -10.479 -12.998  1.00  0.00     0.000 G0
ENDBRANCH  18  19
BRANCH  18  24
ATOM     24  C   UNL     1      16.067  -7.217  -9.523  1.00  0.00     0.038 C 
BRANCH  24  25
ATOM     25  C   UNL     1      16.963  -7.789  -8.403  1.00  0.00    -0.015 C 
ATOM     26  C   UNL     1      17.091  -6.838  -7.213  1.00  0.00     0.007 C 
ATOM     27  C   UNL     1      18.352  -8.102  -8.966  1.00  0.00     0.007 C 
ENDBRANCH  24  25
ENDBRANCH  18  24
ENDBRANCH  15  18
ENDBRANCH  13  14
BRANCH  13  28
ATOM     28  C   UNL     1      11.828  -8.435 -13.133  1.00  0.00     0.327 C 
ATOM     29  O   UNL     1      12.220  -9.454 -13.680  1.00  0.00    -0.250 OA
BRANCH  28  30
ATOM     30  O   UNL     1      11.631  -7.309 -13.848  1.00  0.00    -0.480 OA
ATOM     31  H   UNL     1      10.971  -6.806 -13.329  1.00  0.00     0.296 HD
ENDBRANCH  28  30
ENDBRANCH  13  28
ENDBRANCH  11  13
ENDBRANCH   8  11
ENDBRANCH   6   7
BRANCH   6  32
ATOM     32  C   UNL     1       6.916  -8.665  -7.762  1.00  0.00     0.037 C 
BRANCH  32  33
ATOM     33  C   UNL     1       6.286  -7.712  -8.788  1.00  0.00     0.026 C 
BRANCH  33  34
ATOM     34  C   UNL     1       5.381  -8.439  -9.783  1.00  0.00     0.146 C 
BRANCH  34  35
ATOM     35  N   UNL     1       5.672  -7.952 -11.125  1.00  0.00    -0.254 NA
ATOM     36  C   UNL     1       4.697  -7.590 -11.872  1.00  0.00     0.185 C 
ATOM     37  N   UNL     1       4.954  -7.135 -13.108  1.00  0.00    -0.370 N 
ATOM     38  N   UNL     1       3.380  -7.590 -11.601  1.00  0.00    -0.370 N 
ATOM     39  H   UNL     1       5.927  -7.094 -13.384  1.00  0.00     0.159 HD
ATOM     40  H   UNL     1       4.271  -6.673 -13.684  1.00  0.00     0.159 HD
ATOM     41  H   UNL     1       2.699  -7.412 -12.321  1.00  0.00     0.159 HD
ATOM     42  H   UNL     1       3.039  -7.922 -10.712  1.00  0.00     0.159 HD
ENDBRANCH  34  35
ENDBRANCH  33  34
ENDBRANCH  32  33
ENDBRANCH   6  32
ENDBRANCH   4   6
ENDBRANCH   1   2
BRANCH   1  43
ATOM     43  C   UNL     1       7.409 -11.162  -4.008  1.00  0.00     0.102 C 
ATOM     44  C   UNL     1       7.015 -12.184  -5.088  1.00  0.00     0.020 C 
BRANCH  43  45
ATOM     45  C   UNL     1       6.264 -10.238  -3.580  1.00  0.00     0.225 C 
ATOM     46  O   UNL     1       5.704  -9.463  -4.351  1.00  0.00    -0.275 OA
ATOM     47  N   UNL     1       5.955 -10.259  -2.240  1.00  0.00    -0.342 N 
ATOM     48  H   UNL     1       6.314 -11.001  -1.655  1.00  0.00     0.164 HD
BRANCH  47  49
ATOM     49  C   UNL     1       4.859  -9.454  -1.693  1.00  0.00     0.192 C 
BRANCH  49  50
ATOM     50  C   UNL     1       5.420  -8.416  -0.718  1.00  0.00     0.047 C 
BRANCH  50  51
ATOM     51  C   UNL     1       6.862  -8.730  -0.299  1.00  0.00     0.103 C 
BRANCH  51  52
ATOM     52  C   UNL     1       6.962  -9.104   1.178  1.00  0.00     0.226 C 
ATOM     53  O   UNL     1       7.081 -10.288   1.501  1.00  0.00    -0.275 OA
BRANCH  52  54
ATOM     54  N   UNL     1       6.986  -8.037   2.095  1.00  0.00    -0.311 N 
ATOM     55  C   UNL     1       7.868  -6.881   1.886  1.00  0.00     0.153 C 
BRANCH  54  56
ATOM     56  C   UNL     1       6.167  -8.033   3.237  1.00  0.00     0.102 C 
ATOM     57  C   UNL     1       4.839  -7.834   3.229  1.00  0.00     0.043 C 
BRANCH  56  58
ATOM     58  C   UNL     1       6.745  -8.309   4.605  1.00  0.00     0.268 C 
ATOM     59  O   UNL     1       6.471  -7.642   5.594  1.00  0.00    -0.268 OA
ATOM     60  N   UNL     1       7.552  -9.421   4.637  1.00  0.00    -0.339 N 
ATOM     61  H   UNL     1       7.737  -9.914   3.771  1.00  0.00     0.164 HD
BRANCH  60  62
ATOM     62  C   UNL     1       8.163  -9.905   5.874  1.00  0.00     0.168 CG0
ATOM     63  C   UNL     1       9.457 -10.657   5.586  1.00  0.00     0.041 C 
ATOM     64  G   UNL     1       7.164 -10.807   6.626  1.00  0.00     0.000 G0
ENDBRANCH  60  62
ENDBRANCH  56  58
ENDBRANCH  54  56
ENDBRANCH  52  54
ENDBRANCH  51  52
ENDBRANCH  50  51
ENDBRANCH  49  50
BRANCH  49  65
ATOM     65  C   UNL     1       3.823 -10.326  -0.968  1.00  0.00     0.326 C 
ATOM     66  O   UNL     1       2.835 -10.832  -1.481  1.00  0.00    -0.250 OA
BRANCH  65  67
ATOM     67  O   UNL     1       4.036 -10.470   0.359  1.00  0.00    -0.480 OA
ATOM     68  H   UNL     1       4.977 -10.745   0.413  1.00  0.00     0.296 HD
ENDBRANCH  65  67
ENDBRANCH  49  65
ENDBRANCH  47  49
ENDBRANCH  43  45
ENDBRANCH   1  43
BRANCH   1  69
ATOM     69  C   UNL     1       9.287  -9.431  -3.313  1.00  0.00    -0.001 C 
ATOM     70  C   UNL     1      10.129  -8.401  -3.511  1.00  0.00     0.001 C 
BRANCH  70  71
ATOM     71  C   UNL     1      10.688  -7.513  -2.490  1.00  0.00    -0.055 C 
ATOM     72  C   UNL     1      11.924  -7.014  -2.700  1.00  0.00    -0.018 C 
ATOM     73  C   UNL     1       9.841  -7.212  -1.281  1.00  0.00     0.044 C 
BRANCH  72  74
ATOM     74  C   UNL     1      12.746  -6.077  -1.827  1.00  0.00     0.038 C 
ATOM     75  C   UNL     1      12.368  -4.644  -2.220  1.00  0.00     0.015 C 
BRANCH  74  76
ATOM     76  C   UNL     1      14.254  -6.426  -2.000  1.00  0.00     0.128 C 
BRANCH  76  77
ATOM     77  O   UNL     1      14.455  -7.838  -1.824  1.00  0.00    -0.381 OA
ATOM     78  C   UNL     1      15.775  -8.182  -1.427  1.00  0.00     0.195 C 
ENDBRANCH  76  77
BRANCH  76  79
ATOM     79  C   UNL     1      14.877  -5.891  -3.314  1.00  0.00     0.068 C 
BRANCH  79  80
ATOM     80  C   UNL     1      14.359  -6.446  -4.619  1.00  0.00    -0.045 A 
ATOM     81  C   UNL     1      14.383  -7.822  -4.878  1.00  0.00     0.004 A 
ATOM     82  C   UNL     1      13.869  -5.582  -5.610  1.00  0.00     0.004 A 
ATOM     83  C   UNL     1      13.916  -8.326  -6.094  1.00  0.00     0.000 A 
ATOM     84  C   UNL     1      13.402  -6.087  -6.825  1.00  0.00     0.000 A 
ATOM     85  C   UNL     1      13.424  -7.458  -7.066  1.00  0.00     0.000 A 
ENDBRANCH  79  80
ENDBRANCH  76  79
ENDBRANCH  74  76
ENDBRANCH  72  74
ENDBRANCH  70  71
ENDBRANCH   1  69
TORSDOF 17
ENDMDL
MODEL 50
REMARK VINA RESULT:    -4.403     12.086     17.009
REMARK INTER + INTRA:         -21.549
REMARK INTER:                 -11.220
REMARK INTRA:                 -10.330
REMARK UNBOUND:                -8.394
REMARK SMILES C=C1C(=O)N[C@H](C)C(=O)N[C@@H](CC(C)C)C(=O)N[C@@H](C(=O)O)[C@H](C)C(=O)N[C@@H](CCCN=C(N)N)C(=O)N[C@@H](/C=C/C(C)=C/[C@H](C)[C@H](Cc2ccccc2)OC)[C@H](C)C(=O)N[C@@H](C(=O)O)CCC(=O)N1C
REMARK SMILES IDX 39 1 38 2 37 3 36 4 28 6 27 7 25 8 26 9 23 11 24 12 19 13
REMARK SMILES IDX 18 14 16 15 17 16 11 18 10 19 8 20 9 21 12 24 13 25 14 26
REMARK SMILES IDX 15 27 20 28 21 29 22 30 29 32 30 33 31 34 32 35 33 36 34 37
REMARK SMILES IDX 35 38 57 43 58 44 59 45 60 46 61 47 62 49 66 50 67 51 68 52
REMARK SMILES IDX 69 53 70 54 71 55 2 56 1 57 3 58 4 59 5 60 6 62 7 63 63 65
REMARK SMILES IDX 64 66 65 67 40 69 41 70 42 71 44 72 43 73 45 74 46 75 47 76
REMARK SMILES IDX 55 77 56 78 48 79 49 80 50 81 54 82 51 83 53 84 52 85
REMARK H PARENT 38 5 27 10 18 17 10 22 22 31 34 39 34 40 35 41 35 42 61 48
REMARK H PARENT 5 61 65 68
REMARK Flexibility Score:  369.900
ROOT
ATOM      1  C   UNL     1      15.597  -6.633  -5.502  1.00  0.00     0.117 C 
ENDROOT
BRANCH   1   2
ATOM      2  N   UNL     1      15.336  -7.268  -6.794  1.00  0.00    -0.347 N 
ATOM      3  O   UNL     1      13.531  -5.992  -7.413  1.00  0.00    -0.273 OA
ATOM      4  C   UNL     1      14.378  -6.835  -7.690  1.00  0.00     0.243 C 
ATOM      5  H   UNL     1      15.913  -8.041  -7.091  1.00  0.00     0.164 HD
BRANCH   4   6
ATOM      6  C   UNL     1      14.365  -7.628  -9.021  1.00  0.00     0.171 C 
BRANCH   6   7
ATOM      7  N   UNL     1      14.379  -9.076  -8.758  1.00  0.00    -0.344 N 
ATOM      8  C   UNL     1      15.366  -9.877  -9.290  1.00  0.00     0.226 C 
ATOM      9  O   UNL     1      16.253  -9.440 -10.014  1.00  0.00    -0.275 OA
ATOM     10  H   UNL     1      13.625  -9.484  -8.220  1.00  0.00     0.164 HD
BRANCH   8  11
ATOM     11  C   UNL     1      15.274 -11.337  -8.882  1.00  0.00     0.109 C 
ATOM     12  C   UNL     1      16.628 -11.825  -8.365  1.00  0.00     0.021 C 
BRANCH  11  13
ATOM     13  C   UNL     1      14.098 -11.532  -7.904  1.00  0.00     0.204 C 
BRANCH  13  14
ATOM     14  N   UNL     1      13.058 -12.403  -8.460  1.00  0.00    -0.340 N 
ATOM     15  C   UNL     1      12.078 -11.948  -9.315  1.00  0.00     0.243 C 
ATOM     16  O   UNL     1      12.043 -10.788  -9.721  1.00  0.00    -0.273 OA
ATOM     17  H   UNL     1      12.940 -13.333  -8.047  1.00  0.00     0.164 HD
BRANCH  15  18
ATOM     18  C   UNL     1      10.973 -12.994  -9.603  1.00  0.00     0.171 C 
BRANCH  18  19
ATOM     19  N   UNL     1      11.525 -13.925 -10.586  1.00  0.00    -0.343 N 
ATOM     20  C   UNL     1      11.328 -13.753 -11.943  1.00  0.00     0.242 CG0
ATOM     21  O   UNL     1      10.572 -12.888 -12.379  1.00  0.00    -0.273 OA
ATOM     22  H   UNL     1      12.062 -14.724 -10.268  1.00  0.00     0.164 HD
ATOM     23  G   UNL     1      12.052 -14.789 -12.827  1.00  0.00     0.000 G0
ENDBRANCH  18  19
BRANCH  18  24
ATOM     24  C   UNL     1      10.562 -13.716  -8.314  1.00  0.00     0.038 C 
BRANCH  24  25
ATOM     25  C   UNL     1       9.393 -13.057  -7.551  1.00  0.00    -0.015 C 
ATOM     26  C   UNL     1       8.553 -12.144  -8.444  1.00  0.00     0.007 C 
ATOM     27  C   UNL     1       9.939 -12.259  -6.365  1.00  0.00     0.007 C 
ENDBRANCH  24  25
ENDBRANCH  18  24
ENDBRANCH  15  18
ENDBRANCH  13  14
BRANCH  13  28
ATOM     28  C   UNL     1      14.523 -12.132  -6.561  1.00  0.00     0.327 C 
ATOM     29  O   UNL     1      14.594 -13.321  -6.290  1.00  0.00    -0.250 OA
BRANCH  28  30
ATOM     30  O   UNL     1      14.719 -11.202  -5.604  1.00  0.00    -0.480 OA
ATOM     31  H   UNL     1      14.905 -11.722  -4.796  1.00  0.00     0.296 HD
ENDBRANCH  28  30
ENDBRANCH  13  28
ENDBRANCH  11  13
ENDBRANCH   8  11
ENDBRANCH   6   7
BRANCH   6  32
ATOM     32  C   UNL     1      13.125  -7.231  -9.832  1.00  0.00     0.037 C 
BRANCH  32  33
ATOM     33  C   UNL     1      13.490  -6.702 -11.225  1.00  0.00     0.026 C 
BRANCH  33  34
ATOM     34  C   UNL     1      12.964  -7.598 -12.348  1.00  0.00     0.146 C 
BRANCH  34  35
ATOM     35  N   UNL     1      13.731  -8.836 -12.358  1.00  0.00    -0.254 NA
ATOM     36  C   UNL     1      13.105  -9.945 -12.499  1.00  0.00     0.185 C 
ATOM     37  N   UNL     1      13.802 -11.091 -12.515  1.00  0.00    -0.370 N 
ATOM     38  N   UNL     1      11.785 -10.157 -12.642  1.00  0.00    -0.370 N 
ATOM     39  H   UNL     1      14.807 -11.013 -12.423  1.00  0.00     0.159 HD
ATOM     40  H   UNL     1      13.412 -11.976 -12.792  1.00  0.00     0.159 HD
ATOM     41  H   UNL     1      11.400 -11.087 -12.604  1.00  0.00     0.159 HD
ATOM     42  H   UNL     1      11.137  -9.385 -12.632  1.00  0.00     0.159 HD
ENDBRANCH  34  35
ENDBRANCH  33  34
ENDBRANCH  32  33
ENDBRANCH   6  32
ENDBRANCH   4   6
ENDBRANCH   1   2
BRANCH   1  43
ATOM     43  C   UNL     1      17.003  -7.077  -5.007  1.00  0.00     0.102 C 
ATOM     44  C   UNL     1      18.123  -6.815  -6.028  1.00  0.00     0.020 C 
BRANCH  43  45
ATOM     45  C   UNL     1      16.971  -8.513  -4.475  1.00  0.00     0.225 C 
ATOM     46  O   UNL     1      16.831  -9.494  -5.201  1.00  0.00    -0.275 OA
ATOM     47  N   UNL     1      17.014  -8.639  -3.106  1.00  0.00    -0.342 N 
ATOM     48  H   UNL     1      17.279  -7.846  -2.538  1.00  0.00     0.164 HD
BRANCH  47  49
ATOM     49  C   UNL     1      17.026  -9.954  -2.457  1.00  0.00     0.192 C 
BRANCH  49  50
ATOM     50  C   UNL     1      16.120  -9.928  -1.224  1.00  0.00     0.047 C 
BRANCH  50  51
ATOM     51  C   UNL     1      15.718  -8.501  -0.827  1.00  0.00     0.103 C 
BRANCH  51  52
ATOM     52  C   UNL     1      16.419  -8.042   0.450  1.00  0.00     0.226 C 
ATOM     53  O   UNL     1      17.535  -7.522   0.380  1.00  0.00    -0.275 OA
BRANCH  52  54
ATOM     54  N   UNL     1      15.694  -8.180   1.648  1.00  0.00    -0.311 N 
ATOM     55  C   UNL     1      14.481  -7.389   1.892  1.00  0.00     0.153 C 
BRANCH  54  56
ATOM     56  C   UNL     1      16.096  -9.080   2.649  1.00  0.00     0.102 C 
ATOM     57  C   UNL     1      15.855 -10.401   2.637  1.00  0.00     0.043 C 
BRANCH  56  58
ATOM     58  C   UNL     1      16.902  -8.609   3.836  1.00  0.00     0.268 C 
ATOM     59  O   UNL     1      16.515  -8.713   4.992  1.00  0.00    -0.268 OA
ATOM     60  N   UNL     1      18.137  -8.114   3.489  1.00  0.00    -0.339 N 
ATOM     61  H   UNL     1      18.378  -8.052   2.507  1.00  0.00     0.164 HD
BRANCH  60  62
ATOM     62  C   UNL     1      19.104  -7.661   4.488  1.00  0.00     0.168 CG0
ATOM     63  C   UNL     1      20.487  -8.236   4.211  1.00  0.00     0.041 C 
ATOM     64  G   UNL     1      18.618  -8.062   5.896  1.00  0.00     0.000 G0
ENDBRANCH  60  62
ENDBRANCH  56  58
ENDBRANCH  54  56
ENDBRANCH  52  54
ENDBRANCH  51  52
ENDBRANCH  50  51
ENDBRANCH  49  50
BRANCH  49  65
ATOM     65  C   UNL     1      18.446 -10.365  -2.036  1.00  0.00     0.326 C 
ATOM     66  O   UNL     1      19.310  -9.608  -1.619  1.00  0.00    -0.250 OA
BRANCH  65  67
ATOM     67  O   UNL     1      18.730 -11.674  -2.214  1.00  0.00    -0.480 OA
ATOM     68  H   UNL     1      19.511 -11.822  -1.639  1.00  0.00     0.296 HD
ENDBRANCH  65  67
ENDBRANCH  49  65
ENDBRANCH  47  49
ENDBRANCH  43  45
ENDBRANCH   1  43
BRANCH   1  69
ATOM     69  C   UNL     1      14.387  -6.925  -4.634  1.00  0.00    -0.001 C 
ATOM     70  C   UNL     1      13.979  -6.249  -3.546  1.00  0.00     0.001 C 
BRANCH  70  71
ATOM     71  C   UNL     1      12.797  -6.528  -2.728  1.00  0.00    -0.055 C 
ATOM     72  C   UNL     1      12.496  -7.821  -2.482  1.00  0.00    -0.018 C 
ATOM     73  C   UNL     1      12.006  -5.354  -2.214  1.00  0.00     0.044 C 
BRANCH  72  74
ATOM     74  C   UNL     1      11.346  -8.404  -1.673  1.00  0.00     0.038 C 
ATOM     75  C   UNL     1      11.953  -9.040  -0.416  1.00  0.00     0.015 C 
BRANCH  74  76
ATOM     76  C   UNL     1      10.543  -9.384  -2.578  1.00  0.00     0.128 C 
BRANCH  76  77
ATOM     77  O   UNL     1       9.960 -10.427  -1.778  1.00  0.00    -0.381 OA
ATOM     78  C   UNL     1       8.653 -10.124  -1.311  1.00  0.00     0.195 C 
ENDBRANCH  76  77
BRANCH  76  79
ATOM     79  C   UNL     1       9.510  -8.688  -3.500  1.00  0.00     0.068 C 
BRANCH  79  80
ATOM     80  C   UNL     1       9.760  -8.714  -4.988  1.00  0.00    -0.045 A 
ATOM     81  C   UNL     1      11.064  -8.710  -5.502  1.00  0.00     0.004 A 
ATOM     82  C   UNL     1       8.682  -8.713  -5.886  1.00  0.00     0.004 A 
ATOM     83  C   UNL     1      11.286  -8.720  -6.880  1.00  0.00     0.000 A 
ATOM     84  C   UNL     1       8.906  -8.722  -7.265  1.00  0.00     0.000 A 
ATOM     85  C   UNL     1      10.207  -8.727  -7.761  1.00  0.00     0.000 A 
ENDBRANCH  79  80
ENDBRANCH  76  79
ENDBRANCH  74  76
ENDBRANCH  72  74
ENDBRANCH  70  71
ENDBRANCH   1  69
TORSDOF 17
ENDMDL
