MODEL 1
REMARK VINA RESULT:    -6.723      0.000      0.000
REMARK INTER + INTRA:         -14.275
REMARK INTER:                 -12.029
REMARK INTRA:                  -2.246
REMARK UNBOUND:                -2.246
REMARK SMILES CC[C@H](C)[C@H]1NC(=O)c2coc(n2)[C@H](C(C)C)NC(=O)[C@H]([C@@H](C)O)NC(=O)[C@H](C)NC(=O)c2csc1n2
REMARK SMILES IDX 11 1 13 2 12 3 9 4 10 5 7 6 6 7 8 8 5 10 36 11 35 12 34 13
REMARK SMILES IDX 37 14 33 15 31 16 32 17 30 18 28 20 29 21 3 23 4 24 2 25
REMARK SMILES IDX 1 26 14 27 18 28 19 29 20 30 21 32 25 33 26 34 27 35 22 38
REMARK SMILES IDX 23 39 24 40 15 42 16 43 17 44
REMARK H PARENT 6 9 30 19 18 31 25 36 24 41
REMARK Flexibility Score:   94.900
ROOT
ATOM      1  O   UNL     1      -4.200  -2.208   6.350  1.00  0.00    -0.446 OA
ATOM      2  N   UNL     1      -2.789  -3.893   6.854  1.00  0.00    -0.207 NA
ATOM      3  C   UNL     1      -3.773  -3.480   6.074  1.00  0.00     0.217 A 
ATOM      4  C   UNL     1      -2.534  -2.811   7.679  1.00  0.00     0.167 A 
ATOM      5  C   UNL     1      -3.396  -1.789   7.367  1.00  0.00     0.231 A 
ENDROOT
BRANCH   4   6
ATOM      6  C   UNL     1      -1.520  -2.829   8.719  1.00  0.00     0.273 C 
ATOM      7  N   UNL     1      -1.019  -4.090   8.922  1.00  0.00    -0.341 N 
ATOM      8  O   UNL     1      -1.179  -1.836   9.350  1.00  0.00    -0.267 OA
ATOM      9  H   UNL     1      -1.464  -4.832   8.388  1.00  0.00     0.164 HD
BRANCH   7  10
ATOM     10  C   UNL     1      -0.184  -4.438  10.055  1.00  0.00     0.145 C 
BRANCH  10  11
ATOM     11  C   UNL     1      -0.828  -5.628  10.752  1.00  0.00     0.116 A 
ATOM     12  S   UNL     1       0.106  -6.593  11.832  1.00  0.00    -0.124 S 
ATOM     13  C   UNL     1      -1.270  -7.557  12.149  1.00  0.00     0.101 A 
ATOM     14  N   UNL     1      -2.091  -5.996  10.613  1.00  0.00    -0.234 NA
ATOM     15  C   UNL     1      -2.357  -7.098  11.429  1.00  0.00     0.139 A 
BRANCH  15  16
ATOM     16  C   UNL     1      -3.692  -7.696  11.504  1.00  0.00     0.271 C 
ATOM     17  O   UNL     1      -4.046  -8.417  12.430  1.00  0.00    -0.267 OA
ATOM     18  N   UNL     1      -4.503  -7.368  10.439  1.00  0.00    -0.339 N 
ATOM     19  H   UNL     1      -4.058  -6.855   9.682  1.00  0.00     0.164 HD
BRANCH  18  20
ATOM     20  C   UNL     1      -5.843  -7.925  10.310  1.00  0.00     0.168 CG0
ATOM     21  C   UNL     1      -6.895  -6.989  10.908  1.00  0.00     0.041 C 
ATOM     22  G   UNL     1      -6.234  -8.201   8.849  1.00  0.00     0.000 G0
ENDBRANCH  18  20
ENDBRANCH  15  16
ENDBRANCH  10  11
BRANCH  10  23
ATOM     23  C   UNL     1       1.283  -4.721   9.637  1.00  0.00     0.015 C 
ATOM     24  C   UNL     1       1.516  -4.613   8.120  1.00  0.00     0.010 C 
BRANCH  23  25
ATOM     25  C   UNL     1       2.297  -3.805  10.359  1.00  0.00     0.002 C 
ATOM     26  C   UNL     1       1.658  -2.644  11.108  1.00  0.00     0.004 C 
ENDBRANCH  23  25
ENDBRANCH  10  23
ENDBRANCH   7  10
ENDBRANCH   4   6
BRANCH   3  27
ATOM     27  C   UNL     1      -4.469  -4.268   4.998  1.00  0.00     0.171 C 
BRANCH  27  28
ATOM     28  N   UNL     1      -5.402  -5.183   5.647  1.00  0.00    -0.342 N 
ATOM     29  C   UNL     1      -5.203  -6.545   5.693  1.00  0.00     0.245 C 
ATOM     30  O   UNL     1      -4.215  -7.089   5.202  1.00  0.00    -0.273 OA
ATOM     31  H   UNL     1      -6.183  -4.794   6.174  1.00  0.00     0.164 HD
BRANCH  29  32
ATOM     32  C   UNL     1      -6.229  -7.333   6.533  1.00  0.00     0.200 C 
BRANCH  32  33
ATOM     33  N   UNL     1      -5.834  -7.245   7.944  1.00  0.00    -0.340 N 
ATOM     34  C   UNL     1      -6.217  -8.206   8.856  1.00  0.00     0.243 CG0
ATOM     35  O   UNL     1      -6.954  -9.140   8.546  1.00  0.00    -0.273 OA
ATOM     36  H   UNL     1      -5.252  -6.469   8.237  1.00  0.00     0.164 HD
ATOM     37  G   UNL     1      -5.852  -7.918  10.321  1.00  0.00     0.000 G0
ENDBRANCH  32  33
BRANCH  32  38
ATOM     38  C   UNL     1      -7.671  -6.836   6.278  1.00  0.00     0.143 C 
ATOM     39  C   UNL     1      -8.095  -5.674   7.169  1.00  0.00     0.041 C 
BRANCH  38  40
ATOM     40  O   UNL     1      -7.821  -6.446   4.899  1.00  0.00    -0.391 OA
ATOM     41  H   UNL     1      -7.800  -5.470   4.881  1.00  0.00     0.211 HD
ENDBRANCH  38  40
ENDBRANCH  32  38
ENDBRANCH  29  32
ENDBRANCH  27  28
BRANCH  27  42
ATOM     42  C   UNL     1      -5.151  -3.471   3.860  1.00  0.00     0.015 C 
ATOM     43  C   UNL     1      -5.105  -4.126   2.474  1.00  0.00     0.010 C 
ATOM     44  C   UNL     1      -6.590  -3.083   4.215  1.00  0.00     0.010 C 
ENDBRANCH  27  42
ENDBRANCH   3  27
TORSDOF 5
ENDMDL
MODEL 2
REMARK VINA RESULT:    -6.325      1.703      2.110
REMARK INTER + INTRA:         -13.563
REMARK INTER:                 -12.140
REMARK INTRA:                  -1.423
REMARK UNBOUND:                -2.246
REMARK SMILES CC[C@H](C)[C@H]1NC(=O)c2coc(n2)[C@H](C(C)C)NC(=O)[C@H]([C@@H](C)O)NC(=O)[C@H](C)NC(=O)c2csc1n2
REMARK SMILES IDX 11 1 13 2 12 3 9 4 10 5 7 6 6 7 8 8 5 10 36 11 35 12 34 13
REMARK SMILES IDX 37 14 33 15 31 16 32 17 30 18 28 20 29 21 3 23 4 24 2 25
REMARK SMILES IDX 1 26 14 27 18 28 19 29 20 30 21 32 25 33 26 34 27 35 22 38
REMARK SMILES IDX 23 39 24 40 15 42 16 43 17 44
REMARK H PARENT 6 9 30 19 18 31 25 36 24 41
REMARK Flexibility Score:   94.900
ROOT
ATOM      1  O   UNL     1      -2.215  -5.261   4.921  1.00  0.00    -0.446 OA
ATOM      2  N   UNL     1      -3.343  -4.623   6.765  1.00  0.00    -0.207 NA
ATOM      3  C   UNL     1      -3.428  -5.015   5.507  1.00  0.00     0.217 A 
ATOM      4  C   UNL     1      -1.986  -4.637   7.034  1.00  0.00     0.167 A 
ATOM      5  C   UNL     1      -1.304  -5.027   5.907  1.00  0.00     0.231 A 
ENDROOT
BRANCH   4   6
ATOM      6  C   UNL     1      -1.427  -4.256   8.320  1.00  0.00     0.273 C 
ATOM      7  N   UNL     1      -1.180  -5.349   9.112  1.00  0.00    -0.341 N 
ATOM      8  O   UNL     1      -1.228  -3.095   8.655  1.00  0.00    -0.267 OA
ATOM      9  H   UNL     1      -1.482  -6.243   8.736  1.00  0.00     0.164 HD
BRANCH   7  10
ATOM     10  C   UNL     1      -0.859  -5.248  10.522  1.00  0.00     0.145 C 
BRANCH  10  11
ATOM     11  C   UNL     1      -2.038  -5.808  11.304  1.00  0.00     0.116 A 
ATOM     12  S   UNL     1      -2.367  -5.221  12.891  1.00  0.00    -0.124 S 
ATOM     13  C   UNL     1      -3.728  -6.251  12.981  1.00  0.00     0.101 A 
ATOM     14  N   UNL     1      -2.876  -6.729  10.857  1.00  0.00    -0.234 NA
ATOM     15  C   UNL     1      -3.863  -6.977  11.814  1.00  0.00     0.139 A 
BRANCH  15  16
ATOM     16  C   UNL     1      -4.949  -7.930  11.570  1.00  0.00     0.271 C 
ATOM     17  O   UNL     1      -4.962  -9.059  12.047  1.00  0.00    -0.267 OA
ATOM     18  N   UNL     1      -5.946  -7.432  10.758  1.00  0.00    -0.339 N 
ATOM     19  H   UNL     1      -5.764  -6.525  10.336  1.00  0.00     0.164 HD
BRANCH  18  20
ATOM     20  C   UNL     1      -7.073  -8.261  10.352  1.00  0.00     0.168 CG0
ATOM     21  C   UNL     1      -8.135  -8.333  11.451  1.00  0.00     0.041 C 
ATOM     22  G   UNL     1      -7.755  -7.752   9.072  1.00  0.00     0.000 G0
ENDBRANCH  18  20
ENDBRANCH  15  16
ENDBRANCH  10  11
BRANCH  10  23
ATOM     23  C   UNL     1       0.475  -5.960  10.872  1.00  0.00     0.015 C 
ATOM     24  C   UNL     1       1.568  -4.998  11.363  1.00  0.00     0.010 C 
BRANCH  23  25
ATOM     25  C   UNL     1       0.296  -7.083  11.919  1.00  0.00     0.002 C 
ATOM     26  C   UNL     1       0.998  -6.811  13.243  1.00  0.00     0.004 C 
ENDBRANCH  23  25
ENDBRANCH  10  23
ENDBRANCH   7  10
ENDBRANCH   4   6
BRANCH   3  27
ATOM     27  C   UNL     1      -4.679  -5.155   4.683  1.00  0.00     0.171 C 
BRANCH  27  28
ATOM     28  N   UNL     1      -5.802  -5.319   5.601  1.00  0.00    -0.342 N 
ATOM     29  C   UNL     1      -6.400  -6.536   5.839  1.00  0.00     0.245 C 
ATOM     30  O   UNL     1      -6.023  -7.579   5.307  1.00  0.00    -0.273 OA
ATOM     31  H   UNL     1      -6.095  -4.521   6.164  1.00  0.00     0.164 HD
BRANCH  29  32
ATOM     32  C   UNL     1      -7.486  -6.533   6.936  1.00  0.00     0.200 C 
BRANCH  32  33
ATOM     33  N   UNL     1      -6.935  -7.187   8.130  1.00  0.00    -0.340 N 
ATOM     34  C   UNL     1      -7.760  -7.746   9.085  1.00  0.00     0.243 CG0
ATOM     35  O   UNL     1      -8.985  -7.666   9.013  1.00  0.00    -0.273 OA
ATOM     36  H   UNL     1      -5.929  -7.241   8.233  1.00  0.00     0.164 HD
ATOM     37  G   UNL     1      -7.057  -8.273  10.346  1.00  0.00     0.000 G0
ENDBRANCH  32  33
BRANCH  32  38
ATOM     38  C   UNL     1      -8.003  -5.103   7.217  1.00  0.00     0.143 C 
ATOM     39  C   UNL     1      -6.981  -4.192   7.886  1.00  0.00     0.041 C 
BRANCH  38  40
ATOM     40  O   UNL     1      -8.444  -4.489   5.990  1.00  0.00    -0.391 OA
ATOM     41  H   UNL     1      -9.417  -4.433   6.040  1.00  0.00     0.211 HD
ENDBRANCH  38  40
ENDBRANCH  32  38
ENDBRANCH  29  32
ENDBRANCH  27  28
BRANCH  27  42
ATOM     42  C   UNL     1      -4.963  -4.060   3.626  1.00  0.00     0.015 C 
ATOM     43  C   UNL     1      -5.895  -4.474   2.481  1.00  0.00     0.010 C 
ATOM     44  C   UNL     1      -5.455  -2.758   4.267  1.00  0.00     0.010 C 
ENDBRANCH  27  42
ENDBRANCH   3  27
TORSDOF 5
ENDMDL
MODEL 3
REMARK VINA RESULT:    -6.290      2.024      3.013
REMARK INTER + INTRA:         -13.500
REMARK INTER:                 -11.554
REMARK INTRA:                  -1.946
REMARK UNBOUND:                -2.246
REMARK SMILES CC[C@H](C)[C@H]1NC(=O)c2coc(n2)[C@H](C(C)C)NC(=O)[C@H]([C@@H](C)O)NC(=O)[C@H](C)NC(=O)c2csc1n2
REMARK SMILES IDX 11 1 13 2 12 3 9 4 10 5 7 6 6 7 8 8 5 10 36 11 35 12 34 13
REMARK SMILES IDX 37 14 33 15 31 16 32 17 30 18 28 20 29 21 3 23 4 24 2 25
REMARK SMILES IDX 1 26 14 27 18 28 19 29 20 30 21 32 25 33 26 34 27 35 22 38
REMARK SMILES IDX 23 39 24 40 15 42 16 43 17 44
REMARK H PARENT 6 9 30 19 18 31 25 36 24 41
REMARK Flexibility Score:   94.900
ROOT
ATOM      1  O   UNL     1      -2.256  -2.742   6.975  1.00  0.00    -0.446 OA
ATOM      2  N   UNL     1      -3.860  -3.293   8.460  1.00  0.00    -0.207 NA
ATOM      3  C   UNL     1      -3.586  -2.966   7.210  1.00  0.00     0.217 A 
ATOM      4  C   UNL     1      -2.624  -3.313   9.084  1.00  0.00     0.167 A 
ATOM      5  C   UNL     1      -1.652  -2.977   8.174  1.00  0.00     0.231 A 
ENDROOT
BRANCH   4   6
ATOM      6  C   UNL     1      -2.451  -3.616  10.493  1.00  0.00     0.273 C 
ATOM      7  N   UNL     1      -2.345  -4.966  10.715  1.00  0.00    -0.341 N 
ATOM      8  O   UNL     1      -2.430  -2.764  11.373  1.00  0.00    -0.267 OA
ATOM      9  H   UNL     1      -2.473  -5.558   9.899  1.00  0.00     0.164 HD
BRANCH   7  10
ATOM     10  C   UNL     1      -2.414  -5.560  12.035  1.00  0.00     0.145 C 
BRANCH  10  11
ATOM     11  C   UNL     1      -3.706  -6.360  12.114  1.00  0.00     0.116 A 
ATOM     12  S   UNL     1      -4.339  -6.812  13.652  1.00  0.00    -0.124 S 
ATOM     13  C   UNL     1      -5.669  -7.555  12.877  1.00  0.00     0.101 A 
ATOM     14  N   UNL     1      -4.424  -6.745  11.071  1.00  0.00    -0.234 NA
ATOM     15  C   UNL     1      -5.567  -7.420  11.506  1.00  0.00     0.139 A 
BRANCH  15  16
ATOM     16  C   UNL     1      -6.567  -7.927  10.563  1.00  0.00     0.271 C 
ATOM     17  O   UNL     1      -7.333  -8.844  10.835  1.00  0.00    -0.267 OA
ATOM     18  N   UNL     1      -6.560  -7.273   9.349  1.00  0.00    -0.339 N 
ATOM     19  H   UNL     1      -5.805  -6.607   9.207  1.00  0.00     0.164 HD
BRANCH  18  20
ATOM     20  C   UNL     1      -7.439  -7.686   8.264  1.00  0.00     0.168 CG0
ATOM     21  C   UNL     1      -8.647  -6.755   8.141  1.00  0.00     0.041 C 
ATOM     22  G   UNL     1      -6.729  -7.717   6.901  1.00  0.00     0.000 G0
ENDBRANCH  18  20
ENDBRANCH  15  16
ENDBRANCH  10  11
BRANCH  10  23
ATOM     23  C   UNL     1      -1.164  -6.422  12.356  1.00  0.00     0.015 C 
ATOM     24  C   UNL     1      -1.140  -7.764  11.605  1.00  0.00     0.010 C 
BRANCH  23  25
ATOM     25  C   UNL     1       0.163  -5.678  12.081  1.00  0.00     0.002 C 
ATOM     26  C   UNL     1       0.822  -6.057  10.762  1.00  0.00     0.004 C 
ENDBRANCH  23  25
ENDBRANCH  10  23
ENDBRANCH   7  10
ENDBRANCH   4   6
BRANCH   3  27
ATOM     27  C   UNL     1      -4.569  -2.772   6.088  1.00  0.00     0.171 C 
BRANCH  27  28
ATOM     28  N   UNL     1      -5.274  -4.034   5.889  1.00  0.00    -0.342 N 
ATOM     29  C   UNL     1      -4.741  -5.084   5.175  1.00  0.00     0.245 C 
ATOM     30  O   UNL     1      -3.623  -5.041   4.663  1.00  0.00    -0.273 OA
ATOM     31  H   UNL     1      -6.155  -4.185   6.379  1.00  0.00     0.164 HD
BRANCH  29  32
ATOM     32  C   UNL     1      -5.579  -6.380   5.183  1.00  0.00     0.200 C 
BRANCH  32  33
ATOM     33  N   UNL     1      -6.173  -6.536   6.516  1.00  0.00    -0.340 N 
ATOM     34  C   UNL     1      -6.746  -7.727   6.910  1.00  0.00     0.243 CG0
ATOM     35  O   UNL     1      -6.842  -8.686   6.146  1.00  0.00    -0.273 OA
ATOM     36  H   UNL     1      -6.137  -5.753   7.158  1.00  0.00     0.164 HD
ATOM     37  G   UNL     1      -7.452  -7.709   8.275  1.00  0.00     0.000 G0
ENDBRANCH  32  33
BRANCH  32  38
ATOM     38  C   UNL     1      -6.631  -6.381   4.050  1.00  0.00     0.143 C 
ATOM     39  C   UNL     1      -6.384  -5.332   2.971  1.00  0.00     0.041 C 
BRANCH  38  40
ATOM     40  O   UNL     1      -6.689  -7.681   3.432  1.00  0.00    -0.391 OA
ATOM     41  H   UNL     1      -6.248  -7.599   2.566  1.00  0.00     0.211 HD
ENDBRANCH  38  40
ENDBRANCH  32  38
ENDBRANCH  29  32
ENDBRANCH  27  28
BRANCH  27  42
ATOM     42  C   UNL     1      -5.552  -1.582   6.198  1.00  0.00     0.015 C 
ATOM     43  C   UNL     1      -6.934  -1.916   6.773  1.00  0.00     0.010 C 
ATOM     44  C   UNL     1      -4.936  -0.398   6.951  1.00  0.00     0.010 C 
ENDBRANCH  27  42
ENDBRANCH   3  27
TORSDOF 5
ENDMDL
MODEL 4
REMARK VINA RESULT:    -6.289      3.924      6.337
REMARK INTER + INTRA:         -13.498
REMARK INTER:                 -11.272
REMARK INTRA:                  -2.227
REMARK UNBOUND:                -2.246
REMARK SMILES CC[C@H](C)[C@H]1NC(=O)c2coc(n2)[C@H](C(C)C)NC(=O)[C@H]([C@@H](C)O)NC(=O)[C@H](C)NC(=O)c2csc1n2
REMARK SMILES IDX 11 1 13 2 12 3 9 4 10 5 7 6 6 7 8 8 5 10 36 11 35 12 34 13
REMARK SMILES IDX 37 14 33 15 31 16 32 17 30 18 28 20 29 21 3 23 4 24 2 25
REMARK SMILES IDX 1 26 14 27 18 28 19 29 20 30 21 32 25 33 26 34 27 35 22 38
REMARK SMILES IDX 23 39 24 40 15 42 16 43 17 44
REMARK H PARENT 6 9 30 19 18 31 25 36 24 41
REMARK Flexibility Score:   94.900
ROOT
ATOM      1  O   UNL     1      -5.885  -0.059   9.520  1.00  0.00    -0.446 OA
ATOM      2  N   UNL     1      -6.632  -1.626   8.082  1.00  0.00    -0.207 NA
ATOM      3  C   UNL     1      -6.941  -0.806   9.071  1.00  0.00     0.217 A 
ATOM      4  C   UNL     1      -5.290  -1.384   7.848  1.00  0.00     0.167 A 
ATOM      5  C   UNL     1      -4.841  -0.428   8.726  1.00  0.00     0.231 A 
ENDROOT
BRANCH   4   6
ATOM      6  C   UNL     1      -4.521  -2.088   6.836  1.00  0.00     0.273 C 
ATOM      7  N   UNL     1      -5.298  -2.970   6.128  1.00  0.00    -0.341 N 
ATOM      8  O   UNL     1      -3.320  -1.925   6.663  1.00  0.00    -0.267 OA
ATOM      9  H   UNL     1      -6.258  -3.065   6.446  1.00  0.00     0.164 HD
BRANCH   7  10
ATOM     10  C   UNL     1      -4.747  -3.972   5.237  1.00  0.00     0.145 C 
BRANCH  10  11
ATOM     11  C   UNL     1      -4.892  -5.325   5.919  1.00  0.00     0.116 A 
ATOM     12  S   UNL     1      -3.608  -6.471   5.826  1.00  0.00    -0.124 S 
ATOM     13  C   UNL     1      -4.513  -7.551   6.794  1.00  0.00     0.101 A 
ATOM     14  N   UNL     1      -5.948  -5.713   6.615  1.00  0.00    -0.234 NA
ATOM     15  C   UNL     1      -5.728  -6.990   7.137  1.00  0.00     0.139 A 
BRANCH  15  16
ATOM     16  C   UNL     1      -6.720  -7.656   7.984  1.00  0.00     0.271 C 
ATOM     17  O   UNL     1      -7.369  -8.627   7.611  1.00  0.00    -0.267 OA
ATOM     18  N   UNL     1      -6.848  -7.087   9.234  1.00  0.00    -0.339 N 
ATOM     19  H   UNL     1      -6.337  -6.221   9.382  1.00  0.00     0.164 HD
BRANCH  18  20
ATOM     20  C   UNL     1      -7.835  -7.575  10.188  1.00  0.00     0.168 CG0
ATOM     21  C   UNL     1      -7.164  -8.175  11.425  1.00  0.00     0.041 C 
ATOM     22  G   UNL     1      -8.798  -6.475  10.662  1.00  0.00     0.000 G0
ENDBRANCH  18  20
ENDBRANCH  15  16
ENDBRANCH  10  11
BRANCH  10  23
ATOM     23  C   UNL     1      -5.414  -3.941   3.836  1.00  0.00     0.015 C 
ATOM     24  C   UNL     1      -6.272  -5.183   3.543  1.00  0.00     0.010 C 
BRANCH  23  25
ATOM     25  C   UNL     1      -6.277  -2.679   3.612  1.00  0.00     0.002 C 
ATOM     26  C   UNL     1      -5.501  -1.487   3.069  1.00  0.00     0.004 C 
ENDBRANCH  23  25
ENDBRANCH  10  23
ENDBRANCH   7  10
ENDBRANCH   4   6
BRANCH   3  27
ATOM     27  C   UNL     1      -8.276  -0.667   9.750  1.00  0.00     0.171 C 
BRANCH  27  28
ATOM     28  N   UNL     1      -8.443  -1.808  10.643  1.00  0.00    -0.342 N 
ATOM     29  C   UNL     1      -9.113  -2.954  10.275  1.00  0.00     0.245 C 
ATOM     30  O   UNL     1      -9.607  -3.106   9.159  1.00  0.00    -0.273 OA
ATOM     31  H   UNL     1      -7.963  -1.801  11.542  1.00  0.00     0.164 HD
BRANCH  29  32
ATOM     32  C   UNL     1      -9.075  -4.101  11.307  1.00  0.00     0.200 C 
BRANCH  32  33
ATOM     33  N   UNL     1      -8.293  -5.206  10.738  1.00  0.00    -0.340 N 
ATOM     34  C   UNL     1      -8.801  -6.487  10.681  1.00  0.00     0.243 CG0
ATOM     35  O   UNL     1      -9.897  -6.773  11.158  1.00  0.00    -0.273 OA
ATOM     36  H   UNL     1      -7.372  -5.007  10.365  1.00  0.00     0.164 HD
ATOM     37  G   UNL     1      -7.826  -7.569  10.190  1.00  0.00     0.000 G0
ENDBRANCH  32  33
BRANCH  32  38
ATOM     38  C   UNL     1      -8.531  -3.616  12.671  1.00  0.00     0.143 C 
ATOM     39  C   UNL     1      -8.911  -4.510  13.845  1.00  0.00     0.041 C 
BRANCH  38  40
ATOM     40  O   UNL     1      -7.096  -3.501  12.616  1.00  0.00    -0.391 OA
ATOM     41  H   UNL     1      -6.847  -2.804  13.252  1.00  0.00     0.211 HD
ENDBRANCH  38  40
ENDBRANCH  32  38
ENDBRANCH  29  32
ENDBRANCH  27  28
BRANCH  27  42
ATOM     42  C   UNL     1      -8.573   0.670  10.472  1.00  0.00     0.015 C 
ATOM     43  C   UNL     1      -8.892   1.859   9.558  1.00  0.00     0.010 C 
ATOM     44  C   UNL     1      -9.661   0.515  11.540  1.00  0.00     0.010 C 
ENDBRANCH  27  42
ENDBRANCH   3  27
TORSDOF 5
ENDMDL
MODEL 5
REMARK VINA RESULT:    -6.166      2.777      6.765
REMARK INTER + INTRA:         -13.278
REMARK INTER:                 -11.277
REMARK INTRA:                  -2.001
REMARK UNBOUND:                -2.246
REMARK SMILES CC[C@H](C)[C@H]1NC(=O)c2coc(n2)[C@H](C(C)C)NC(=O)[C@H]([C@@H](C)O)NC(=O)[C@H](C)NC(=O)c2csc1n2
REMARK SMILES IDX 11 1 13 2 12 3 9 4 10 5 7 6 6 7 8 8 5 10 36 11 35 12 34 13
REMARK SMILES IDX 37 14 33 15 31 16 32 17 30 18 28 20 29 21 3 23 4 24 2 25
REMARK SMILES IDX 1 26 14 27 18 28 19 29 20 30 21 32 25 33 26 34 27 35 22 38
REMARK SMILES IDX 23 39 24 40 15 42 16 43 17 44
REMARK H PARENT 6 9 30 19 18 31 25 36 24 41
REMARK Flexibility Score:   94.900
ROOT
ATOM      1  O   UNL     1      -0.275  -4.805   8.193  1.00  0.00    -0.446 OA
ATOM      2  N   UNL     1      -2.236  -5.916   8.174  1.00  0.00    -0.207 NA
ATOM      3  C   UNL     1      -1.239  -5.460   8.911  1.00  0.00     0.217 A 
ATOM      4  C   UNL     1      -1.920  -5.512   6.888  1.00  0.00     0.167 A 
ATOM      5  C   UNL     1      -0.725  -4.835   6.907  1.00  0.00     0.231 A 
ENDROOT
BRANCH   4   6
ATOM      6  C   UNL     1      -2.748  -5.816   5.734  1.00  0.00     0.273 C 
ATOM      7  N   UNL     1      -3.442  -4.715   5.301  1.00  0.00    -0.341 N 
ATOM      8  O   UNL     1      -2.828  -6.930   5.233  1.00  0.00    -0.267 OA
ATOM      9  H   UNL     1      -3.347  -3.880   5.873  1.00  0.00     0.164 HD
BRANCH   7  10
ATOM     10  C   UNL     1      -4.520  -4.788   4.334  1.00  0.00     0.145 C 
BRANCH  10  11
ATOM     11  C   UNL     1      -5.765  -5.267   5.067  1.00  0.00     0.116 A 
ATOM     12  S   UNL     1      -6.751  -6.494   4.366  1.00  0.00    -0.124 S 
ATOM     13  C   UNL     1      -7.776  -6.441   5.732  1.00  0.00     0.101 A 
ATOM     14  N   UNL     1      -6.169  -4.822   6.246  1.00  0.00    -0.234 NA
ATOM     15  C   UNL     1      -7.319  -5.507   6.643  1.00  0.00     0.139 A 
BRANCH  15  16
ATOM     16  C   UNL     1      -7.966  -5.245   7.930  1.00  0.00     0.271 C 
ATOM     17  O   UNL     1      -8.801  -4.360   8.087  1.00  0.00    -0.267 OA
ATOM     18  N   UNL     1      -7.547  -6.086   8.939  1.00  0.00    -0.339 N 
ATOM     19  H   UNL     1      -6.771  -6.702   8.710  1.00  0.00     0.164 HD
BRANCH  18  20
ATOM     20  C   UNL     1      -8.032  -5.928  10.304  1.00  0.00     0.168 CG0
ATOM     21  C   UNL     1      -9.140  -6.934  10.620  1.00  0.00     0.041 C 
ATOM     22  G   UNL     1      -6.922  -6.105  11.353  1.00  0.00     0.000 G0
ENDBRANCH  18  20
ENDBRANCH  15  16
ENDBRANCH  10  11
BRANCH  10  23
ATOM     23  C   UNL     1      -4.746  -3.437   3.605  1.00  0.00     0.015 C 
ATOM     24  C   UNL     1      -4.976  -3.593   2.093  1.00  0.00     0.010 C 
BRANCH  23  25
ATOM     25  C   UNL     1      -5.916  -2.623   4.202  1.00  0.00     0.002 C 
ATOM     26  C   UNL     1      -6.471  -1.559   3.266  1.00  0.00     0.004 C 
ENDBRANCH  23  25
ENDBRANCH  10  23
ENDBRANCH   7  10
ENDBRANCH   4   6
BRANCH   3  27
ATOM     27  C   UNL     1      -1.054  -5.636  10.393  1.00  0.00     0.171 C 
BRANCH  27  28
ATOM     28  N   UNL     1      -2.217  -6.351  10.907  1.00  0.00    -0.342 N 
ATOM     29  C   UNL     1      -3.349  -5.709  11.358  1.00  0.00     0.245 C 
ATOM     30  O   UNL     1      -3.469  -4.485  11.345  1.00  0.00    -0.273 OA
ATOM     31  H   UNL     1      -2.236  -7.368  10.842  1.00  0.00     0.164 HD
BRANCH  29  32
ATOM     32  C   UNL     1      -4.523  -6.634  11.742  1.00  0.00     0.200 C 
BRANCH  32  33
ATOM     33  N   UNL     1      -5.655  -6.334  10.857  1.00  0.00    -0.340 N 
ATOM     34  C   UNL     1      -6.919  -6.110  11.362  1.00  0.00     0.243 CG0
ATOM     35  O   UNL     1      -7.167  -6.215  12.562  1.00  0.00    -0.273 OA
ATOM     36  H   UNL     1      -5.488  -6.270   9.860  1.00  0.00     0.164 HD
ATOM     37  G   UNL     1      -8.035  -5.944  10.318  1.00  0.00     0.000 G0
ENDBRANCH  32  33
BRANCH  32  38
ATOM     38  C   UNL     1      -4.106  -8.123  11.702  1.00  0.00     0.143 C 
ATOM     39  C   UNL     1      -5.038  -9.051  12.473  1.00  0.00     0.041 C 
BRANCH  38  40
ATOM     40  O   UNL     1      -4.021  -8.575  10.337  1.00  0.00    -0.391 OA
ATOM     41  H   UNL     1      -4.408  -9.471  10.315  1.00  0.00     0.211 HD
ENDBRANCH  38  40
ENDBRANCH  32  38
ENDBRANCH  29  32
ENDBRANCH  27  28
BRANCH  27  42
ATOM     42  C   UNL     1       0.269  -6.282  10.874  1.00  0.00     0.015 C 
ATOM     43  C   UNL     1       1.245  -5.338  11.587  1.00  0.00     0.010 C 
ATOM     44  C   UNL     1       0.020  -7.530  11.727  1.00  0.00     0.010 C 
ENDBRANCH  27  42
ENDBRANCH   3  27
TORSDOF 5
ENDMDL
MODEL 6
REMARK VINA RESULT:    -6.101      2.387      6.808
REMARK INTER + INTRA:         -13.162
REMARK INTER:                 -11.127
REMARK INTRA:                  -2.036
REMARK UNBOUND:                -2.246
REMARK SMILES CC[C@H](C)[C@H]1NC(=O)c2coc(n2)[C@H](C(C)C)NC(=O)[C@H]([C@@H](C)O)NC(=O)[C@H](C)NC(=O)c2csc1n2
REMARK SMILES IDX 11 1 13 2 12 3 9 4 10 5 7 6 6 7 8 8 5 10 36 11 35 12 34 13
REMARK SMILES IDX 37 14 33 15 31 16 32 17 30 18 28 20 29 21 3 23 4 24 2 25
REMARK SMILES IDX 1 26 14 27 18 28 19 29 20 30 21 32 25 33 26 34 27 35 22 38
REMARK SMILES IDX 23 39 24 40 15 42 16 43 17 44
REMARK H PARENT 6 9 30 19 18 31 25 36 24 41
REMARK Flexibility Score:   94.900
ROOT
ATOM      1  O   UNL     1      -1.400  -2.761   7.935  1.00  0.00    -0.446 OA
ATOM      2  N   UNL     1      -1.630  -5.001   7.830  1.00  0.00    -0.207 NA
ATOM      3  C   UNL     1      -1.168  -3.975   8.523  1.00  0.00     0.217 A 
ATOM      4  C   UNL     1      -2.229  -4.420   6.725  1.00  0.00     0.167 A 
ATOM      5  C   UNL     1      -2.086  -3.056   6.795  1.00  0.00     0.231 A 
ENDROOT
BRANCH   4   6
ATOM      6  C   UNL     1      -2.866  -5.191   5.671  1.00  0.00     0.273 C 
ATOM      7  N   UNL     1      -4.039  -4.614   5.255  1.00  0.00    -0.341 N 
ATOM      8  O   UNL     1      -2.414  -6.242   5.233  1.00  0.00    -0.267 OA
ATOM      9  H   UNL     1      -4.334  -3.793   5.774  1.00  0.00     0.164 HD
BRANCH   7  10
ATOM     10  C   UNL     1      -4.994  -5.291   4.400  1.00  0.00     0.145 C 
BRANCH  10  11
ATOM     11  C   UNL     1      -5.725  -6.320   5.250  1.00  0.00     0.116 A 
ATOM     12  S   UNL     1      -6.619  -7.580   4.486  1.00  0.00    -0.124 S 
ATOM     13  C   UNL     1      -7.021  -8.215   6.021  1.00  0.00     0.101 A 
ATOM     14  N   UNL     1      -5.727  -6.346   6.573  1.00  0.00    -0.234 NA
ATOM     15  C   UNL     1      -6.459  -7.447   7.024  1.00  0.00     0.139 A 
BRANCH  15  16
ATOM     16  C   UNL     1      -6.598  -7.747   8.451  1.00  0.00     0.271 C 
ATOM     17  O   UNL     1      -7.582  -8.309   8.919  1.00  0.00    -0.267 OA
ATOM     18  N   UNL     1      -5.520  -7.338   9.207  1.00  0.00    -0.339 N 
ATOM     19  H   UNL     1      -4.819  -6.786   8.719  1.00  0.00     0.164 HD
BRANCH  18  20
ATOM     20  C   UNL     1      -5.512  -7.493  10.655  1.00  0.00     0.168 CG0
ATOM     21  C   UNL     1      -4.568  -8.616  11.090  1.00  0.00     0.041 C 
ATOM     22  G   UNL     1      -5.084  -6.210  11.387  1.00  0.00     0.000 G0
ENDBRANCH  18  20
ENDBRANCH  15  16
ENDBRANCH  10  11
BRANCH  10  23
ATOM     23  C   UNL     1      -5.965  -4.299   3.707  1.00  0.00     0.015 C 
ATOM     24  C   UNL     1      -6.374  -3.119   4.605  1.00  0.00     0.010 C 
BRANCH  23  25
ATOM     25  C   UNL     1      -5.403  -3.739   2.380  1.00  0.00     0.002 C 
ATOM     26  C   UNL     1      -5.714  -2.267   2.149  1.00  0.00     0.004 C 
ENDBRANCH  23  25
ENDBRANCH  10  23
ENDBRANCH   7  10
ENDBRANCH   4   6
BRANCH   3  27
ATOM     27  C   UNL     1      -0.398  -4.027   9.814  1.00  0.00     0.171 C 
BRANCH  27  28
ATOM     28  N   UNL     1      -1.245  -4.667  10.814  1.00  0.00    -0.342 N 
ATOM     29  C   UNL     1      -2.337  -4.045  11.378  1.00  0.00     0.245 C 
ATOM     30  O   UNL     1      -2.688  -2.908  11.068  1.00  0.00    -0.273 OA
ATOM     31  H   UNL     1      -1.085  -5.649  11.036  1.00  0.00     0.164 HD
BRANCH  29  32
ATOM     32  C   UNL     1      -3.185  -4.927  12.319  1.00  0.00     0.200 C 
BRANCH  32  33
ATOM     33  N   UNL     1      -3.726  -6.046  11.539  1.00  0.00    -0.340 N 
ATOM     34  C   UNL     1      -5.085  -6.213  11.373  1.00  0.00     0.243 CG0
ATOM     35  O   UNL     1      -5.902  -5.474  11.920  1.00  0.00    -0.273 OA
ATOM     36  H   UNL     1      -3.078  -6.690  11.101  1.00  0.00     0.164 HD
ATOM     37  G   UNL     1      -5.516  -7.500  10.651  1.00  0.00     0.000 G0
ENDBRANCH  32  33
BRANCH  32  38
ATOM     38  C   UNL     1      -2.370  -5.388  13.549  1.00  0.00     0.143 C 
ATOM     39  C   UNL     1      -1.726  -6.760  13.391  1.00  0.00     0.041 C 
BRANCH  38  40
ATOM     40  O   UNL     1      -1.343  -4.422  13.850  1.00  0.00    -0.391 OA
ATOM     41  H   UNL     1      -1.444  -4.192  14.793  1.00  0.00     0.211 HD
ENDBRANCH  38  40
ENDBRANCH  32  38
ENDBRANCH  29  32
ENDBRANCH  27  28
BRANCH  27  42
ATOM     42  C   UNL     1       1.016  -4.658   9.776  1.00  0.00     0.015 C 
ATOM     43  C   UNL     1       1.902  -4.226   8.602  1.00  0.00     0.010 C 
ATOM     44  C   UNL     1       1.762  -4.472  11.102  1.00  0.00     0.010 C 
ENDBRANCH  27  42
ENDBRANCH   3  27
TORSDOF 5
ENDMDL
MODEL 7
REMARK VINA RESULT:    -6.039      1.813      2.488
REMARK INTER + INTRA:         -13.051
REMARK INTER:                 -11.022
REMARK INTRA:                  -2.029
REMARK UNBOUND:                -2.246
REMARK SMILES CC[C@H](C)[C@H]1NC(=O)c2coc(n2)[C@H](C(C)C)NC(=O)[C@H]([C@@H](C)O)NC(=O)[C@H](C)NC(=O)c2csc1n2
REMARK SMILES IDX 11 1 13 2 12 3 9 4 10 5 7 6 6 7 8 8 5 10 36 11 35 12 34 13
REMARK SMILES IDX 37 14 33 15 31 16 32 17 30 18 28 20 29 21 3 23 4 24 2 25
REMARK SMILES IDX 1 26 14 27 18 28 19 29 20 30 21 32 25 33 26 34 27 35 22 38
REMARK SMILES IDX 23 39 24 40 15 42 16 43 17 44
REMARK H PARENT 6 9 30 19 18 31 25 36 24 41
REMARK Flexibility Score:   94.900
ROOT
ATOM      1  O   UNL     1      -3.452  -0.791   7.283  1.00  0.00    -0.446 OA
ATOM      2  N   UNL     1      -3.490  -2.134   9.094  1.00  0.00    -0.207 NA
ATOM      3  C   UNL     1      -4.190  -1.592   8.113  1.00  0.00     0.217 A 
ATOM      4  C   UNL     1      -2.200  -1.680   8.880  1.00  0.00     0.167 A 
ATOM      5  C   UNL     1      -2.183  -0.864   7.776  1.00  0.00     0.231 A 
ENDROOT
BRANCH   4   6
ATOM      6  C   UNL     1      -1.084  -2.023   9.745  1.00  0.00     0.273 C 
ATOM      7  N   UNL     1      -0.552  -3.247   9.428  1.00  0.00    -0.341 N 
ATOM      8  O   UNL     1      -0.692  -1.310  10.660  1.00  0.00    -0.267 OA
ATOM      9  H   UNL     1      -1.040  -3.766   8.704  1.00  0.00     0.164 HD
BRANCH   7  10
ATOM     10  C   UNL     1       0.399  -3.941  10.275  1.00  0.00     0.145 C 
BRANCH  10  11
ATOM     11  C   UNL     1      -0.278  -5.204  10.787  1.00  0.00     0.116 A 
ATOM     12  S   UNL     1       0.487  -6.147  12.011  1.00  0.00    -0.124 S 
ATOM     13  C   UNL     1      -0.843  -7.221  12.003  1.00  0.00     0.101 A 
ATOM     14  N   UNL     1      -1.451  -5.657  10.375  1.00  0.00    -0.234 NA
ATOM     15  C   UNL     1      -1.790  -6.811  11.085  1.00  0.00     0.139 A 
BRANCH  15  16
ATOM     16  C   UNL     1      -3.059  -7.507  10.861  1.00  0.00     0.271 C 
ATOM     17  O   UNL     1      -3.404  -8.487  11.512  1.00  0.00    -0.267 OA
ATOM     18  N   UNL     1      -3.821  -6.953   9.853  1.00  0.00    -0.339 N 
ATOM     19  H   UNL     1      -3.376  -6.213   9.316  1.00  0.00     0.164 HD
BRANCH  18  20
ATOM     20  C   UNL     1      -5.084  -7.553   9.445  1.00  0.00     0.168 CG0
ATOM     21  C   UNL     1      -6.223  -7.143  10.380  1.00  0.00     0.041 C 
ATOM     22  G   UNL     1      -5.489  -7.168   8.013  1.00  0.00     0.000 G0
ENDBRANCH  18  20
ENDBRANCH  15  16
ENDBRANCH  10  11
BRANCH  10  23
ATOM     23  C   UNL     1       1.731  -4.240   9.538  1.00  0.00     0.015 C 
ATOM     24  C   UNL     1       1.549  -4.503   8.034  1.00  0.00     0.010 C 
BRANCH  23  25
ATOM     25  C   UNL     1       2.781  -3.121   9.721  1.00  0.00     0.002 C 
ATOM     26  C   UNL     1       2.640  -2.349  11.026  1.00  0.00     0.004 C 
ENDBRANCH  23  25
ENDBRANCH  10  23
ENDBRANCH   7  10
ENDBRANCH   4   6
BRANCH   3  27
ATOM     27  C   UNL     1      -5.669  -1.728   7.872  1.00  0.00     0.171 C 
BRANCH  27  28
ATOM     28  N   UNL     1      -5.964  -3.147   7.701  1.00  0.00    -0.342 N 
ATOM     29  C   UNL     1      -5.953  -3.769   6.473  1.00  0.00     0.245 C 
ATOM     30  O   UNL     1      -5.678  -3.178   5.430  1.00  0.00    -0.273 OA
ATOM     31  H   UNL     1      -6.089  -3.725   8.531  1.00  0.00     0.164 HD
BRANCH  29  32
ATOM     32  C   UNL     1      -6.163  -5.298   6.506  1.00  0.00     0.200 C 
BRANCH  32  33
ATOM     33  N   UNL     1      -5.634  -5.808   7.777  1.00  0.00    -0.340 N 
ATOM     34  C   UNL     1      -5.509  -7.162   8.008  1.00  0.00     0.243 CG0
ATOM     35  O   UNL     1      -5.892  -7.999   7.193  1.00  0.00    -0.273 OA
ATOM     36  H   UNL     1      -5.338  -5.142   8.481  1.00  0.00     0.164 HD
ATOM     37  G   UNL     1      -5.072  -7.558   9.428  1.00  0.00     0.000 G0
ENDBRANCH  32  33
BRANCH  32  38
ATOM     38  C   UNL     1      -7.646  -5.670   6.278  1.00  0.00     0.143 C 
ATOM     39  C   UNL     1      -8.572  -4.469   6.118  1.00  0.00     0.041 C 
BRANCH  38  40
ATOM     40  O   UNL     1      -7.770  -6.513   5.116  1.00  0.00    -0.391 OA
ATOM     41  H   UNL     1      -6.866  -6.656   4.777  1.00  0.00     0.211 HD
ENDBRANCH  38  40
ENDBRANCH  32  38
ENDBRANCH  29  32
ENDBRANCH  27  28
BRANCH  27  42
ATOM     42  C   UNL     1      -6.622  -1.068   8.897  1.00  0.00     0.015 C 
ATOM     43  C   UNL     1      -6.051   0.140   9.650  1.00  0.00     0.010 C 
ATOM     44  C   UNL     1      -7.976  -0.713   8.274  1.00  0.00     0.010 C 
ENDBRANCH  27  42
ENDBRANCH   3  27
TORSDOF 5
ENDMDL
MODEL 8
REMARK VINA RESULT:    -6.034      4.666      6.969
REMARK INTER + INTRA:         -13.042
REMARK INTER:                 -10.719
REMARK INTRA:                  -2.323
REMARK UNBOUND:                -2.246
REMARK SMILES CC[C@H](C)[C@H]1NC(=O)c2coc(n2)[C@H](C(C)C)NC(=O)[C@H]([C@@H](C)O)NC(=O)[C@H](C)NC(=O)c2csc1n2
REMARK SMILES IDX 11 1 13 2 12 3 9 4 10 5 7 6 6 7 8 8 5 10 36 11 35 12 34 13
REMARK SMILES IDX 37 14 33 15 31 16 32 17 30 18 28 20 29 21 3 23 4 24 2 25
REMARK SMILES IDX 1 26 14 27 18 28 19 29 20 30 21 32 25 33 26 34 27 35 22 38
REMARK SMILES IDX 23 39 24 40 15 42 16 43 17 44
REMARK H PARENT 6 9 30 19 18 31 25 36 24 41
REMARK Flexibility Score:   94.900
ROOT
ATOM      1  O   UNL     1      -9.631  -2.230   8.276  1.00  0.00    -0.446 OA
ATOM      2  N   UNL     1      -7.832  -2.604   9.581  1.00  0.00    -0.207 NA
ATOM      3  C   UNL     1      -9.064  -2.132   9.518  1.00  0.00     0.217 A 
ATOM      4  C   UNL     1      -7.581  -3.069   8.302  1.00  0.00     0.167 A 
ATOM      5  C   UNL     1      -8.681  -2.838   7.512  1.00  0.00     0.231 A 
ENDROOT
BRANCH   4   6
ATOM      6  C   UNL     1      -6.317  -3.667   7.909  1.00  0.00     0.273 C 
ATOM      7  N   UNL     1      -6.498  -4.875   7.283  1.00  0.00    -0.341 N 
ATOM      8  O   UNL     1      -5.227  -3.158   8.136  1.00  0.00    -0.267 OA
ATOM      9  H   UNL     1      -7.455  -5.214   7.248  1.00  0.00     0.164 HD
BRANCH   7  10
ATOM     10  C   UNL     1      -5.412  -5.796   7.011  1.00  0.00     0.145 C 
BRANCH  10  11
ATOM     11  C   UNL     1      -5.253  -6.693   8.230  1.00  0.00     0.116 A 
ATOM     12  S   UNL     1      -3.888  -7.738   8.349  1.00  0.00    -0.124 S 
ATOM     13  C   UNL     1      -4.439  -8.272   9.876  1.00  0.00     0.101 A 
ATOM     14  N   UNL     1      -6.089  -6.737   9.254  1.00  0.00    -0.234 NA
ATOM     15  C   UNL     1      -5.617  -7.634  10.215  1.00  0.00     0.139 A 
BRANCH  15  16
ATOM     16  C   UNL     1      -6.327  -7.855  11.476  1.00  0.00     0.271 C 
ATOM     17  O   UNL     1      -6.137  -8.839  12.183  1.00  0.00    -0.267 OA
ATOM     18  N   UNL     1      -7.223  -6.854  11.787  1.00  0.00    -0.339 N 
ATOM     19  H   UNL     1      -7.370  -6.150  11.068  1.00  0.00     0.164 HD
BRANCH  18  20
ATOM     20  C   UNL     1      -8.068  -6.938  12.970  1.00  0.00     0.168 CG0
ATOM     21  C   UNL     1      -7.496  -6.110  14.123  1.00  0.00     0.041 C 
ATOM     22  G   UNL     1      -9.504  -6.452  12.711  1.00  0.00     0.000 G0
ENDBRANCH  18  20
ENDBRANCH  15  16
ENDBRANCH  10  11
BRANCH  10  23
ATOM     23  C   UNL     1      -5.644  -6.605   5.707  1.00  0.00     0.015 C 
ATOM     24  C   UNL     1      -6.716  -7.698   5.852  1.00  0.00     0.010 C 
BRANCH  23  25
ATOM     25  C   UNL     1      -6.010  -5.709   4.503  1.00  0.00     0.002 C 
ATOM     26  C   UNL     1      -6.641  -6.462   3.340  1.00  0.00     0.004 C 
ENDBRANCH  23  25
ENDBRANCH  10  23
ENDBRANCH   7  10
ENDBRANCH   4   6
BRANCH   3  27
ATOM     27  C   UNL     1      -9.842  -1.477  10.627  1.00  0.00     0.171 C 
BRANCH  27  28
ATOM     28  N   UNL     1     -10.083  -2.481  11.657  1.00  0.00    -0.342 N 
ATOM     29  C   UNL     1     -11.031  -3.471  11.528  1.00  0.00     0.245 C 
ATOM     30  O   UNL     1     -11.735  -3.592  10.527  1.00  0.00    -0.273 OA
ATOM     31  H   UNL     1      -9.461  -2.514  12.464  1.00  0.00     0.164 HD
BRANCH  29  32
ATOM     32  C   UNL     1     -11.052  -4.516  12.663  1.00  0.00     0.200 C 
BRANCH  32  33
ATOM     33  N   UNL     1      -9.705  -5.089  12.786  1.00  0.00    -0.340 N 
ATOM     34  C   UNL     1      -9.496  -6.450  12.701  1.00  0.00     0.243 CG0
ATOM     35  O   UNL     1     -10.427  -7.245  12.584  1.00  0.00    -0.273 OA
ATOM     36  H   UNL     1      -8.921  -4.461  12.915  1.00  0.00     0.164 HD
ATOM     37  G   UNL     1      -8.061  -6.922  12.985  1.00  0.00     0.000 G0
ENDBRANCH  32  33
BRANCH  32  38
ATOM     38  C   UNL     1     -11.570  -3.905  13.986  1.00  0.00     0.143 C 
ATOM     39  C   UNL     1     -10.573  -3.975  15.137  1.00  0.00     0.041 C 
BRANCH  38  40
ATOM     40  O   UNL     1     -11.948  -2.530  13.778  1.00  0.00    -0.391 OA
ATOM     41  H   UNL     1     -12.709  -2.359  14.365  1.00  0.00     0.211 HD
ENDBRANCH  38  40
ENDBRANCH  32  38
ENDBRANCH  29  32
ENDBRANCH  27  28
BRANCH  27  42
ATOM     42  C   UNL     1      -9.265  -0.171  11.227  1.00  0.00     0.015 C 
ATOM     43  C   UNL     1      -9.102   0.993  10.244  1.00  0.00     0.010 C 
ATOM     44  C   UNL     1     -10.046   0.284  12.464  1.00  0.00     0.010 C 
ENDBRANCH  27  42
ENDBRANCH   3  27
TORSDOF 5
ENDMDL
MODEL 9
REMARK VINA RESULT:    -6.026      1.766      2.052
REMARK INTER + INTRA:         -13.027
REMARK INTER:                 -11.167
REMARK INTRA:                  -1.860
REMARK UNBOUND:                -2.246
REMARK SMILES CC[C@H](C)[C@H]1NC(=O)c2coc(n2)[C@H](C(C)C)NC(=O)[C@H]([C@@H](C)O)NC(=O)[C@H](C)NC(=O)c2csc1n2
REMARK SMILES IDX 11 1 13 2 12 3 9 4 10 5 7 6 6 7 8 8 5 10 36 11 35 12 34 13
REMARK SMILES IDX 37 14 33 15 31 16 32 17 30 18 28 20 29 21 3 23 4 24 2 25
REMARK SMILES IDX 1 26 14 27 18 28 19 29 20 30 21 32 25 33 26 34 27 35 22 38
REMARK SMILES IDX 23 39 24 40 15 42 16 43 17 44
REMARK H PARENT 6 9 30 19 18 31 25 36 24 41
REMARK Flexibility Score:   94.900
ROOT
ATOM      1  O   UNL     1      -2.223  -5.047   5.184  1.00  0.00    -0.446 OA
ATOM      2  N   UNL     1      -3.331  -3.846   6.737  1.00  0.00    -0.207 NA
ATOM      3  C   UNL     1      -3.430  -4.657   5.698  1.00  0.00     0.217 A 
ATOM      4  C   UNL     1      -1.968  -3.715   6.935  1.00  0.00     0.167 A 
ATOM      5  C   UNL     1      -1.298  -4.449   5.987  1.00  0.00     0.231 A 
ENDROOT
BRANCH   4   6
ATOM      6  C   UNL     1      -1.395  -2.887   7.982  1.00  0.00     0.273 C 
ATOM      7  N   UNL     1      -0.429  -3.557   8.690  1.00  0.00    -0.341 N 
ATOM      8  O   UNL     1      -1.756  -1.739   8.213  1.00  0.00    -0.267 OA
ATOM      9  H   UNL     1      -0.302  -4.534   8.446  1.00  0.00     0.164 HD
BRANCH   7  10
ATOM     10  C   UNL     1       0.127  -3.062   9.935  1.00  0.00     0.145 C 
BRANCH  10  11
ATOM     11  C   UNL     1      -0.862  -3.393  11.044  1.00  0.00     0.116 A 
ATOM     12  S   UNL     1      -0.914  -2.414  12.461  1.00  0.00    -0.124 S 
ATOM     13  C   UNL     1      -2.189  -3.376  13.069  1.00  0.00     0.101 A 
ATOM     14  N   UNL     1      -1.728  -4.392  11.015  1.00  0.00    -0.234 NA
ATOM     15  C   UNL     1      -2.508  -4.378  12.173  1.00  0.00     0.139 A 
BRANCH  15  16
ATOM     16  C   UNL     1      -3.579  -5.353  12.392  1.00  0.00     0.271 C 
ATOM     17  O   UNL     1      -3.862  -5.791  13.501  1.00  0.00    -0.267 OA
ATOM     18  N   UNL     1      -4.231  -5.724  11.235  1.00  0.00    -0.339 N 
ATOM     19  H   UNL     1      -3.830  -5.376  10.368  1.00  0.00     0.164 HD
BRANCH  18  20
ATOM     20  C   UNL     1      -5.279  -6.735  11.250  1.00  0.00     0.168 CG0
ATOM     21  C   UNL     1      -6.666  -6.098  11.362  1.00  0.00     0.041 C 
ATOM     22  G   UNL     1      -5.268  -7.621   9.994  1.00  0.00     0.000 G0
ENDBRANCH  18  20
ENDBRANCH  15  16
ENDBRANCH  10  11
BRANCH  10  23
ATOM     23  C   UNL     1       1.542  -3.634  10.213  1.00  0.00     0.015 C 
ATOM     24  C   UNL     1       1.552  -4.739  11.283  1.00  0.00     0.010 C 
BRANCH  23  25
ATOM     25  C   UNL     1       2.230  -4.174   8.939  1.00  0.00     0.002 C 
ATOM     26  C   UNL     1       3.283  -3.238   8.362  1.00  0.00     0.004 C 
ENDBRANCH  23  25
ENDBRANCH  10  23
ENDBRANCH   7  10
ENDBRANCH   4   6
BRANCH   3  27
ATOM     27  C   UNL     1      -4.694  -5.124   5.030  1.00  0.00     0.171 C 
BRANCH  27  28
ATOM     28  N   UNL     1      -5.432  -5.940   5.988  1.00  0.00    -0.342 N 
ATOM     29  C   UNL     1      -4.954  -7.137   6.473  1.00  0.00     0.245 C 
ATOM     30  O   UNL     1      -3.863  -7.600   6.146  1.00  0.00    -0.273 OA
ATOM     31  H   UNL     1      -6.290  -5.567   6.392  1.00  0.00     0.164 HD
BRANCH  29  32
ATOM     32  C   UNL     1      -5.814  -7.793   7.575  1.00  0.00     0.200 C 
BRANCH  32  33
ATOM     33  N   UNL     1      -5.644  -7.021   8.812  1.00  0.00    -0.340 N 
ATOM     34  C   UNL     1      -5.284  -7.635   9.994  1.00  0.00     0.243 CG0
ATOM     35  O   UNL     1      -5.153  -8.854  10.080  1.00  0.00    -0.273 OA
ATOM     36  H   UNL     1      -5.775  -6.017   8.780  1.00  0.00     0.164 HD
ATOM     37  G   UNL     1      -5.276  -6.731  11.238  1.00  0.00     0.000 G0
ENDBRANCH  32  33
BRANCH  32  38
ATOM     38  C   UNL     1      -7.293  -7.915   7.139  1.00  0.00     0.143 C 
ATOM     39  C   UNL     1      -8.207  -6.852   7.736  1.00  0.00     0.041 C 
BRANCH  38  40
ATOM     40  O   UNL     1      -7.390  -7.863   5.703  1.00  0.00    -0.391 OA
ATOM     41  H   UNL     1      -8.113  -7.241   5.494  1.00  0.00     0.211 HD
ENDBRANCH  38  40
ENDBRANCH  32  38
ENDBRANCH  29  32
ENDBRANCH  27  28
BRANCH  27  42
ATOM     42  C   UNL     1      -5.600  -4.046   4.385  1.00  0.00     0.015 C 
ATOM     43  C   UNL     1      -5.863  -4.216   2.884  1.00  0.00     0.010 C 
ATOM     44  C   UNL     1      -6.922  -3.881   5.141  1.00  0.00     0.010 C 
ENDBRANCH  27  42
ENDBRANCH   3  27
TORSDOF 5
ENDMDL
MODEL 10
REMARK VINA RESULT:    -5.955      2.346      6.756
REMARK INTER + INTRA:         -12.900
REMARK INTER:                 -10.650
REMARK INTRA:                  -2.250
REMARK UNBOUND:                -2.246
REMARK SMILES CC[C@H](C)[C@H]1NC(=O)c2coc(n2)[C@H](C(C)C)NC(=O)[C@H]([C@@H](C)O)NC(=O)[C@H](C)NC(=O)c2csc1n2
REMARK SMILES IDX 11 1 13 2 12 3 9 4 10 5 7 6 6 7 8 8 5 10 36 11 35 12 34 13
REMARK SMILES IDX 37 14 33 15 31 16 32 17 30 18 28 20 29 21 3 23 4 24 2 25
REMARK SMILES IDX 1 26 14 27 18 28 19 29 20 30 21 32 25 33 26 34 27 35 22 38
REMARK SMILES IDX 23 39 24 40 15 42 16 43 17 44
REMARK H PARENT 6 9 30 19 18 31 25 36 24 41
REMARK Flexibility Score:   94.900
ROOT
ATOM      1  O   UNL     1      -2.075  -1.671   8.616  1.00  0.00    -0.446 OA
ATOM      2  N   UNL     1      -1.969  -3.915   8.434  1.00  0.00    -0.207 NA
ATOM      3  C   UNL     1      -1.645  -2.855   9.153  1.00  0.00     0.217 A 
ATOM      4  C   UNL     1      -2.683  -3.397   7.368  1.00  0.00     0.167 A 
ATOM      5  C   UNL     1      -2.744  -2.030   7.485  1.00  0.00     0.231 A 
ENDROOT
BRANCH   4   6
ATOM      6  C   UNL     1      -3.229  -4.220   6.303  1.00  0.00     0.273 C 
ATOM      7  N   UNL     1      -4.588  -4.371   6.422  1.00  0.00    -0.341 N 
ATOM      8  O   UNL     1      -2.546  -4.734   5.425  1.00  0.00    -0.267 OA
ATOM      9  H   UNL     1      -5.005  -3.964   7.254  1.00  0.00     0.164 HD
BRANCH   7  10
ATOM     10  C   UNL     1      -5.348  -5.334   5.649  1.00  0.00     0.145 C 
BRANCH  10  11
ATOM     11  C   UNL     1      -5.959  -6.329   6.626  1.00  0.00     0.116 A 
ATOM     12  S   UNL     1      -6.647  -7.794   6.034  1.00  0.00    -0.124 S 
ATOM     13  C   UNL     1      -7.009  -8.262   7.638  1.00  0.00     0.101 A 
ATOM     14  N   UNL     1      -6.000  -6.174   7.939  1.00  0.00    -0.234 NA
ATOM     15  C   UNL     1      -6.590  -7.294   8.530  1.00  0.00     0.139 A 
BRANCH  15  16
ATOM     16  C   UNL     1      -6.733  -7.412   9.983  1.00  0.00     0.271 C 
ATOM     17  O   UNL     1      -7.818  -7.556  10.535  1.00  0.00    -0.267 OA
ATOM     18  N   UNL     1      -5.534  -7.346  10.661  1.00  0.00    -0.339 N 
ATOM     19  H   UNL     1      -4.718  -7.113  10.101  1.00  0.00     0.164 HD
BRANCH  18  20
ATOM     20  C   UNL     1      -5.488  -7.377  12.117  1.00  0.00     0.168 CG0
ATOM     21  C   UNL     1      -5.388  -8.812  12.640  1.00  0.00     0.041 C 
ATOM     22  G   UNL     1      -4.303  -6.584  12.691  1.00  0.00     0.000 G0
ENDBRANCH  18  20
ENDBRANCH  15  16
ENDBRANCH  10  11
BRANCH  10  23
ATOM     23  C   UNL     1      -6.416  -4.654   4.752  1.00  0.00     0.015 C 
ATOM     24  C   UNL     1      -6.473  -3.127   4.926  1.00  0.00     0.010 C 
BRANCH  23  25
ATOM     25  C   UNL     1      -6.229  -4.975   3.252  1.00  0.00     0.002 C 
ATOM     26  C   UNL     1      -5.140  -4.155   2.575  1.00  0.00     0.004 C 
ENDBRANCH  23  25
ENDBRANCH  10  23
ENDBRANCH   7  10
ENDBRANCH   4   6
BRANCH   3  27
ATOM     27  C   UNL     1      -0.835  -2.832  10.420  1.00  0.00     0.171 C 
BRANCH  27  28
ATOM     28  N   UNL     1      -0.951  -4.144  11.048  1.00  0.00    -0.342 N 
ATOM     29  C   UNL     1      -1.883  -4.427  12.021  1.00  0.00     0.245 C 
ATOM     30  O   UNL     1      -2.699  -3.598  12.423  1.00  0.00    -0.273 OA
ATOM     31  H   UNL     1      -0.387  -4.912  10.686  1.00  0.00     0.164 HD
BRANCH  29  32
ATOM     32  C   UNL     1      -1.939  -5.902  12.472  1.00  0.00     0.200 C 
BRANCH  32  33
ATOM     33  N   UNL     1      -3.173  -6.498  11.947  1.00  0.00    -0.340 N 
ATOM     34  C   UNL     1      -4.309  -6.595  12.724  1.00  0.00     0.243 CG0
ATOM     35  O   UNL     1      -4.320  -6.248  13.904  1.00  0.00    -0.273 OA
ATOM     36  H   UNL     1      -3.186  -6.822  10.987  1.00  0.00     0.164 HD
ATOM     37  G   UNL     1      -5.483  -7.363  12.096  1.00  0.00     0.000 G0
ENDBRANCH  32  33
BRANCH  32  38
ATOM     38  C   UNL     1      -0.668  -6.672  12.044  1.00  0.00     0.143 C 
ATOM     39  C   UNL     1       0.397  -6.768  13.131  1.00  0.00     0.041 C 
BRANCH  38  40
ATOM     40  O   UNL     1      -1.019  -8.002  11.615  1.00  0.00    -0.391 OA
ATOM     41  H   UNL     1      -1.956  -8.135  11.853  1.00  0.00     0.211 HD
ENDBRANCH  38  40
ENDBRANCH  32  38
ENDBRANCH  29  32
ENDBRANCH  27  28
BRANCH  27  42
ATOM     42  C   UNL     1       0.642  -2.379  10.315  1.00  0.00     0.015 C 
ATOM     43  C   UNL     1       1.258  -1.830  11.607  1.00  0.00     0.010 C 
ATOM     44  C   UNL     1       1.536  -3.474   9.724  1.00  0.00     0.010 C 
ENDBRANCH  27  42
ENDBRANCH   3  27
TORSDOF 5
ENDMDL
MODEL 11
REMARK VINA RESULT:    -5.899      3.946      6.661
REMARK INTER + INTRA:         -12.800
REMARK INTER:                 -10.311
REMARK INTRA:                  -2.489
REMARK UNBOUND:                -2.246
REMARK SMILES CC[C@H](C)[C@H]1NC(=O)c2coc(n2)[C@H](C(C)C)NC(=O)[C@H]([C@@H](C)O)NC(=O)[C@H](C)NC(=O)c2csc1n2
REMARK SMILES IDX 11 1 13 2 12 3 9 4 10 5 7 6 6 7 8 8 5 10 36 11 35 12 34 13
REMARK SMILES IDX 37 14 33 15 31 16 32 17 30 18 28 20 29 21 3 23 4 24 2 25
REMARK SMILES IDX 1 26 14 27 18 28 19 29 20 30 21 32 25 33 26 34 27 35 22 38
REMARK SMILES IDX 23 39 24 40 15 42 16 43 17 44
REMARK H PARENT 6 9 30 19 18 31 25 36 24 41
REMARK Flexibility Score:   94.900
ROOT
ATOM      1  O   UNL     1      -9.624  -2.061   8.479  1.00  0.00    -0.446 OA
ATOM      2  N   UNL     1      -7.657  -2.722   9.361  1.00  0.00    -0.207 NA
ATOM      3  C   UNL     1      -8.932  -2.462   9.591  1.00  0.00     0.217 A 
ATOM      4  C   UNL     1      -7.506  -2.504   8.003  1.00  0.00     0.167 A 
ATOM      5  C   UNL     1      -8.707  -2.102   7.471  1.00  0.00     0.231 A 
ENDROOT
BRANCH   4   6
ATOM      6  C   UNL     1      -6.239  -2.660   7.310  1.00  0.00     0.273 C 
ATOM      7  N   UNL     1      -6.334  -3.547   6.267  1.00  0.00    -0.341 N 
ATOM      8  O   UNL     1      -5.210  -2.084   7.641  1.00  0.00    -0.267 OA
ATOM      9  H   UNL     1      -7.229  -4.018   6.170  1.00  0.00     0.164 HD
BRANCH   7  10
ATOM     10  C   UNL     1      -5.179  -4.075   5.569  1.00  0.00     0.145 C 
BRANCH  10  11
ATOM     11  C   UNL     1      -4.707  -5.309   6.325  1.00  0.00     0.116 A 
ATOM     12  S   UNL     1      -3.310  -6.160   5.784  1.00  0.00    -0.124 S 
ATOM     13  C   UNL     1      -3.474  -7.246   7.094  1.00  0.00     0.101 A 
ATOM     14  N   UNL     1      -5.284  -5.799   7.410  1.00  0.00    -0.234 NA
ATOM     15  C   UNL     1      -4.567  -6.908   7.868  1.00  0.00     0.139 A 
BRANCH  15  16
ATOM     16  C   UNL     1      -4.959  -7.630   9.080  1.00  0.00     0.271 C 
ATOM     17  O   UNL     1      -4.436  -8.684   9.425  1.00  0.00    -0.267 OA
ATOM     18  N   UNL     1      -5.966  -7.010   9.790  1.00  0.00    -0.339 N 
ATOM     19  H   UNL     1      -6.392  -6.202   9.343  1.00  0.00     0.164 HD
BRANCH  18  20
ATOM     20  C   UNL     1      -6.531  -7.618  10.986  1.00  0.00     0.168 CG0
ATOM     21  C   UNL     1      -6.000  -6.947  12.255  1.00  0.00     0.041 C 
ATOM     22  G   UNL     1      -8.066  -7.544  11.023  1.00  0.00     0.000 G0
ENDBRANCH  18  20
ENDBRANCH  15  16
ENDBRANCH  10  11
BRANCH  10  23
ATOM     23  C   UNL     1      -5.483  -4.376   4.077  1.00  0.00     0.015 C 
ATOM     24  C   UNL     1      -6.537  -5.479   3.881  1.00  0.00     0.010 C 
BRANCH  23  25
ATOM     25  C   UNL     1      -5.928  -3.121   3.292  1.00  0.00     0.002 C 
ATOM     26  C   UNL     1      -5.384  -3.055   1.872  1.00  0.00     0.004 C 
ENDBRANCH  23  25
ENDBRANCH  10  23
ENDBRANCH   7  10
ENDBRANCH   4   6
BRANCH   3  27
ATOM     27  C   UNL     1      -9.643  -2.512  10.915  1.00  0.00     0.171 C 
BRANCH  27  28
ATOM     28  N   UNL     1      -9.469  -3.853  11.465  1.00  0.00    -0.342 N 
ATOM     29  C   UNL     1     -10.412  -4.846  11.324  1.00  0.00     0.245 C 
ATOM     30  O   UNL     1     -11.465  -4.682  10.711  1.00  0.00    -0.273 OA
ATOM     31  H   UNL     1      -8.574  -4.097  11.886  1.00  0.00     0.164 HD
BRANCH  29  32
ATOM     32  C   UNL     1      -9.995  -6.232  11.860  1.00  0.00     0.200 C 
BRANCH  32  33
ATOM     33  N   UNL     1      -8.554  -6.399  11.633  1.00  0.00    -0.340 N 
ATOM     34  C   UNL     1      -8.051  -7.533  11.029  1.00  0.00     0.243 CG0
ATOM     35  O   UNL     1      -8.774  -8.476  10.713  1.00  0.00    -0.273 OA
ATOM     36  H   UNL     1      -7.929  -5.652  11.911  1.00  0.00     0.164 HD
ATOM     37  G   UNL     1      -6.518  -7.637  10.979  1.00  0.00     0.000 G0
ENDBRANCH  32  33
BRANCH  32  38
ATOM     38  C   UNL     1     -10.397  -6.410  13.342  1.00  0.00     0.143 C 
ATOM     39  C   UNL     1      -9.215  -6.486  14.303  1.00  0.00     0.041 C 
BRANCH  38  40
ATOM     40  O   UNL     1     -11.262  -5.332  13.751  1.00  0.00    -0.391 OA
ATOM     41  H   UNL     1     -11.421  -5.449  14.707  1.00  0.00     0.211 HD
ENDBRANCH  38  40
ENDBRANCH  32  38
ENDBRANCH  29  32
ENDBRANCH  27  28
BRANCH  27  42
ATOM     42  C   UNL     1      -9.292  -1.420  11.956  1.00  0.00     0.015 C 
ATOM     43  C   UNL     1      -9.299   0.020  11.430  1.00  0.00     0.010 C 
ATOM     44  C   UNL     1     -10.156  -1.531  13.216  1.00  0.00     0.010 C 
ENDBRANCH  27  42
ENDBRANCH   3  27
TORSDOF 5
ENDMDL
MODEL 12
REMARK VINA RESULT:    -5.789      3.874      6.569
REMARK INTER + INTRA:         -12.604
REMARK INTER:                 -10.360
REMARK INTRA:                  -2.243
REMARK UNBOUND:                -2.246
REMARK SMILES CC[C@H](C)[C@H]1NC(=O)c2coc(n2)[C@H](C(C)C)NC(=O)[C@H]([C@@H](C)O)NC(=O)[C@H](C)NC(=O)c2csc1n2
REMARK SMILES IDX 11 1 13 2 12 3 9 4 10 5 7 6 6 7 8 8 5 10 36 11 35 12 34 13
REMARK SMILES IDX 37 14 33 15 31 16 32 17 30 18 28 20 29 21 3 23 4 24 2 25
REMARK SMILES IDX 1 26 14 27 18 28 19 29 20 30 21 32 25 33 26 34 27 35 22 38
REMARK SMILES IDX 23 39 24 40 15 42 16 43 17 44
REMARK H PARENT 6 9 30 19 18 31 25 36 24 41
REMARK Flexibility Score:   94.900
ROOT
ATOM      1  O   UNL     1      -6.165  -0.137   8.768  1.00  0.00    -0.446 OA
ATOM      2  N   UNL     1      -7.059  -2.132   8.220  1.00  0.00    -0.207 NA
ATOM      3  C   UNL     1      -6.117  -1.243   7.962  1.00  0.00     0.217 A 
ATOM      4  C   UNL     1      -7.758  -1.587   9.284  1.00  0.00     0.167 A 
ATOM      5  C   UNL     1      -7.208  -0.373   9.613  1.00  0.00     0.231 A 
ENDROOT
BRANCH   4   6
ATOM      6  C   UNL     1      -8.907  -2.234   9.893  1.00  0.00     0.273 C 
ATOM      7  N   UNL     1      -8.594  -2.792  11.106  1.00  0.00    -0.341 N 
ATOM      8  O   UNL     1     -10.011  -2.290   9.366  1.00  0.00    -0.267 OA
ATOM      9  H   UNL     1      -7.615  -2.747  11.373  1.00  0.00     0.164 HD
BRANCH   7  10
ATOM     10  C   UNL     1      -9.476  -3.703  11.810  1.00  0.00     0.145 C 
BRANCH  10  11
ATOM     11  C   UNL     1      -8.998  -5.119  11.524  1.00  0.00     0.116 A 
ATOM     12  S   UNL     1      -9.848  -6.459  12.197  1.00  0.00    -0.124 S 
ATOM     13  C   UNL     1      -8.770  -7.528  11.411  1.00  0.00     0.101 A 
ATOM     14  N   UNL     1      -7.960  -5.431  10.766  1.00  0.00    -0.234 NA
ATOM     15  C   UNL     1      -7.833  -6.819  10.683  1.00  0.00     0.139 A 
BRANCH  15  16
ATOM     16  C   UNL     1      -6.786  -7.449   9.875  1.00  0.00     0.271 C 
ATOM     17  O   UNL     1      -6.498  -8.638   9.969  1.00  0.00    -0.267 OA
ATOM     18  N   UNL     1      -6.164  -6.580   9.004  1.00  0.00    -0.339 N 
ATOM     19  H   UNL     1      -6.416  -5.599   9.100  1.00  0.00     0.164 HD
BRANCH  18  20
ATOM     20  C   UNL     1      -5.053  -7.014   8.169  1.00  0.00     0.168 CG0
ATOM     21  C   UNL     1      -5.452  -7.060   6.692  1.00  0.00     0.041 C 
ATOM     22  G   UNL     1      -3.822  -6.102   8.295  1.00  0.00     0.000 G0
ENDBRANCH  18  20
ENDBRANCH  15  16
ENDBRANCH  10  11
BRANCH  10  23
ATOM     23  C   UNL     1      -9.542  -3.396  13.330  1.00  0.00     0.015 C 
ATOM     24  C   UNL     1      -8.161  -3.356  14.004  1.00  0.00     0.010 C 
BRANCH  23  25
ATOM     25  C   UNL     1     -10.284  -2.077  13.642  1.00  0.00     0.002 C 
ATOM     26  C   UNL     1     -11.333  -2.202  14.738  1.00  0.00     0.004 C 
ENDBRANCH  23  25
ENDBRANCH  10  23
ENDBRANCH   7  10
ENDBRANCH   4   6
BRANCH   3  27
ATOM     27  C   UNL     1      -5.079  -1.311   6.876  1.00  0.00     0.171 C 
BRANCH  27  28
ATOM     28  N   UNL     1      -4.427  -2.614   6.962  1.00  0.00    -0.342 N 
ATOM     29  C   UNL     1      -3.062  -2.760   7.066  1.00  0.00     0.245 C 
ATOM     30  O   UNL     1      -2.291  -1.803   7.108  1.00  0.00    -0.273 OA
ATOM     31  H   UNL     1      -5.007  -3.447   7.049  1.00  0.00     0.164 HD
BRANCH  29  32
ATOM     32  C   UNL     1      -2.568  -4.207   7.277  1.00  0.00     0.200 C 
BRANCH  32  33
ATOM     33  N   UNL     1      -3.740  -5.089   7.347  1.00  0.00    -0.340 N 
ATOM     34  C   UNL     1      -3.825  -6.093   8.289  1.00  0.00     0.243 CG0
ATOM     35  O   UNL     1      -2.904  -6.335   9.066  1.00  0.00    -0.273 OA
ATOM     36  H   UNL     1      -4.503  -4.933   6.699  1.00  0.00     0.164 HD
ATOM     37  G   UNL     1      -5.041  -7.025   8.160  1.00  0.00     0.000 G0
ENDBRANCH  32  33
BRANCH  32  38
ATOM     38  C   UNL     1      -1.562  -4.627   6.180  1.00  0.00     0.143 C 
ATOM     39  C   UNL     1      -0.308  -5.309   6.714  1.00  0.00     0.041 C 
BRANCH  38  40
ATOM     40  O   UNL     1      -2.203  -5.503   5.233  1.00  0.00    -0.391 OA
ATOM     41  H   UNL     1      -1.842  -6.396   5.390  1.00  0.00     0.211 HD
ENDBRANCH  38  40
ENDBRANCH  32  38
ENDBRANCH  29  32
ENDBRANCH  27  28
BRANCH  27  42
ATOM     42  C   UNL     1      -5.538  -1.000   5.430  1.00  0.00     0.015 C 
ATOM     43  C   UNL     1      -6.157  -2.175   4.665  1.00  0.00     0.010 C 
ATOM     44  C   UNL     1      -6.466   0.218   5.374  1.00  0.00     0.010 C 
ENDBRANCH  27  42
ENDBRANCH   3  27
TORSDOF 5
ENDMDL
MODEL 13
REMARK VINA RESULT:    -5.720      3.088      4.988
REMARK INTER + INTRA:         -12.480
REMARK INTER:                 -10.356
REMARK INTRA:                  -2.124
REMARK UNBOUND:                -2.246
REMARK SMILES CC[C@H](C)[C@H]1NC(=O)c2coc(n2)[C@H](C(C)C)NC(=O)[C@H]([C@@H](C)O)NC(=O)[C@H](C)NC(=O)c2csc1n2
REMARK SMILES IDX 11 1 13 2 12 3 9 4 10 5 7 6 6 7 8 8 5 10 36 11 35 12 34 13
REMARK SMILES IDX 37 14 33 15 31 16 32 17 30 18 28 20 29 21 3 23 4 24 2 25
REMARK SMILES IDX 1 26 14 27 18 28 19 29 20 30 21 32 25 33 26 34 27 35 22 38
REMARK SMILES IDX 23 39 24 40 15 42 16 43 17 44
REMARK H PARENT 6 9 30 19 18 31 25 36 24 41
REMARK Flexibility Score:   94.900
ROOT
ATOM      1  O   UNL     1      -4.426  -0.121   9.337  1.00  0.00    -0.446 OA
ATOM      2  N   UNL     1      -5.375  -2.162   9.219  1.00  0.00    -0.207 NA
ATOM      3  C   UNL     1      -5.381  -0.920   8.768  1.00  0.00     0.217 A 
ATOM      4  C   UNL     1      -4.330  -2.188  10.127  1.00  0.00     0.167 A 
ATOM      5  C   UNL     1      -3.756  -0.942  10.193  1.00  0.00     0.231 A 
ENDROOT
BRANCH   4   6
ATOM      6  C   UNL     1      -3.967  -3.373  10.885  1.00  0.00     0.273 C 
ATOM      7  N   UNL     1      -3.039  -4.136  10.224  1.00  0.00    -0.341 N 
ATOM      8  O   UNL     1      -4.457  -3.659  11.971  1.00  0.00    -0.267 OA
ATOM      9  H   UNL     1      -2.794  -3.821   9.289  1.00  0.00     0.164 HD
BRANCH   7  10
ATOM     10  C   UNL     1      -2.687  -5.483  10.630  1.00  0.00     0.145 C 
BRANCH  10  11
ATOM     11  C   UNL     1      -3.540  -6.446   9.817  1.00  0.00     0.116 A 
ATOM     12  S   UNL     1      -3.837  -8.036  10.414  1.00  0.00    -0.124 S 
ATOM     13  C   UNL     1      -4.803  -8.362   9.042  1.00  0.00     0.101 A 
ATOM     14  N   UNL     1      -4.109  -6.162   8.657  1.00  0.00    -0.234 NA
ATOM     15  C   UNL     1      -4.853  -7.258   8.213  1.00  0.00     0.139 A 
BRANCH  15  16
ATOM     16  C   UNL     1      -5.623  -7.211   6.968  1.00  0.00     0.271 C 
ATOM     17  O   UNL     1      -6.209  -8.187   6.512  1.00  0.00    -0.267 OA
ATOM     18  N   UNL     1      -5.624  -5.970   6.367  1.00  0.00    -0.339 N 
ATOM     19  H   UNL     1      -5.010  -5.274   6.784  1.00  0.00     0.164 HD
BRANCH  18  20
ATOM     20  C   UNL     1      -6.281  -5.752   5.086  1.00  0.00     0.168 CG0
ATOM     21  C   UNL     1      -7.791  -5.568   5.259  1.00  0.00     0.041 C 
ATOM     22  G   UNL     1      -5.740  -4.521   4.342  1.00  0.00     0.000 G0
ENDBRANCH  18  20
ENDBRANCH  15  16
ENDBRANCH  10  11
BRANCH  10  23
ATOM     23  C   UNL     1      -1.168  -5.763  10.476  1.00  0.00     0.015 C 
ATOM     24  C   UNL     1      -0.545  -5.083   9.245  1.00  0.00     0.010 C 
BRANCH  23  25
ATOM     25  C   UNL     1      -0.356  -5.361  11.727  1.00  0.00     0.002 C 
ATOM     26  C   UNL     1      -1.133  -5.473  13.032  1.00  0.00     0.004 C 
ENDBRANCH  23  25
ENDBRANCH  10  23
ENDBRANCH   7  10
ENDBRANCH   4   6
BRANCH   3  27
ATOM     27  C   UNL     1      -6.335  -0.323   7.770  1.00  0.00     0.171 C 
BRANCH  27  28
ATOM     28  N   UNL     1      -6.324  -1.167   6.580  1.00  0.00    -0.342 N 
ATOM     29  C   UNL     1      -5.468  -0.957   5.523  1.00  0.00     0.245 C 
ATOM     30  O   UNL     1      -4.637  -0.050   5.509  1.00  0.00    -0.273 OA
ATOM     31  H   UNL     1      -6.904  -2.006   6.569  1.00  0.00     0.164 HD
BRANCH  29  32
ATOM     32  C   UNL     1      -5.515  -2.029   4.413  1.00  0.00     0.200 C 
BRANCH  32  33
ATOM     33  N   UNL     1      -5.929  -3.301   5.018  1.00  0.00    -0.340 N 
ATOM     34  C   UNL     1      -5.703  -4.503   4.382  1.00  0.00     0.243 CG0
ATOM     35  O   UNL     1      -5.206  -4.561   3.259  1.00  0.00    -0.273 OA
ATOM     36  H   UNL     1      -6.369  -3.283   5.931  1.00  0.00     0.164 HD
ATOM     37  G   UNL     1      -6.309  -5.742   5.062  1.00  0.00     0.000 G0
ENDBRANCH  32  33
BRANCH  32  38
ATOM     38  C   UNL     1      -6.427  -1.592   3.244  1.00  0.00     0.143 C 
ATOM     39  C   UNL     1      -6.637  -0.086   3.147  1.00  0.00     0.041 C 
BRANCH  38  40
ATOM     40  O   UNL     1      -5.890  -2.070   1.995  1.00  0.00    -0.391 OA
ATOM     41  H   UNL     1      -4.974  -2.355   2.175  1.00  0.00     0.211 HD
ENDBRANCH  38  40
ENDBRANCH  32  38
ENDBRANCH  29  32
ENDBRANCH  27  28
BRANCH  27  42
ATOM     42  C   UNL     1      -7.778  -0.032   8.249  1.00  0.00     0.015 C 
ATOM     43  C   UNL     1      -8.777  -1.182   8.072  1.00  0.00     0.010 C 
ATOM     44  C   UNL     1      -7.811   0.482   9.692  1.00  0.00     0.010 C 
ENDBRANCH  27  42
ENDBRANCH   3  27
TORSDOF 5
ENDMDL
MODEL 14
REMARK VINA RESULT:    -5.652      3.834      4.846
REMARK INTER + INTRA:         -12.358
REMARK INTER:                 -10.119
REMARK INTRA:                  -2.239
REMARK UNBOUND:                -2.246
REMARK SMILES CC[C@H](C)[C@H]1NC(=O)c2coc(n2)[C@H](C(C)C)NC(=O)[C@H]([C@@H](C)O)NC(=O)[C@H](C)NC(=O)c2csc1n2
REMARK SMILES IDX 11 1 13 2 12 3 9 4 10 5 7 6 6 7 8 8 5 10 36 11 35 12 34 13
REMARK SMILES IDX 37 14 33 15 31 16 32 17 30 18 28 20 29 21 3 23 4 24 2 25
REMARK SMILES IDX 1 26 14 27 18 28 19 29 20 30 21 32 25 33 26 34 27 35 22 38
REMARK SMILES IDX 23 39 24 40 15 42 16 43 17 44
REMARK H PARENT 6 9 30 19 18 31 25 36 24 41
REMARK Flexibility Score:   94.900
ROOT
ATOM      1  O   UNL     1      -5.340   0.232   9.737  1.00  0.00    -0.446 OA
ATOM      2  N   UNL     1      -5.384  -2.021   9.791  1.00  0.00    -0.207 NA
ATOM      3  C   UNL     1      -6.086  -0.912   9.640  1.00  0.00     0.217 A 
ATOM      4  C   UNL     1      -4.085  -1.578   9.972  1.00  0.00     0.167 A 
ATOM      5  C   UNL     1      -4.065  -0.205   9.937  1.00  0.00     0.231 A 
ENDROOT
BRANCH   4   6
ATOM      6  C   UNL     1      -2.964  -2.475  10.192  1.00  0.00     0.273 C 
ATOM      7  N   UNL     1      -2.826  -3.380   9.170  1.00  0.00    -0.341 N 
ATOM      8  O   UNL     1      -2.251  -2.437  11.188  1.00  0.00    -0.267 OA
ATOM      9  H   UNL     1      -3.549  -3.351   8.456  1.00  0.00     0.164 HD
BRANCH   7  10
ATOM     10  C   UNL     1      -1.956  -4.536   9.248  1.00  0.00     0.145 C 
BRANCH  10  11
ATOM     11  C   UNL     1      -2.767  -5.684   9.832  1.00  0.00     0.116 A 
ATOM     12  S   UNL     1      -2.097  -6.649  11.093  1.00  0.00    -0.124 S 
ATOM     13  C   UNL     1      -3.543  -7.558  11.156  1.00  0.00     0.101 A 
ATOM     14  N   UNL     1      -3.991  -6.015   9.456  1.00  0.00    -0.234 NA
ATOM     15  C   UNL     1      -4.451  -7.085  10.228  1.00  0.00     0.139 A 
BRANCH  15  16
ATOM     16  C   UNL     1      -5.797  -7.637  10.054  1.00  0.00     0.271 C 
ATOM     17  O   UNL     1      -6.006  -8.724   9.526  1.00  0.00    -0.267 OA
ATOM     18  N   UNL     1      -6.795  -6.819  10.540  1.00  0.00    -0.339 N 
ATOM     19  H   UNL     1      -6.501  -5.897  10.852  1.00  0.00     0.164 HD
BRANCH  18  20
ATOM     20  C   UNL     1      -8.200  -7.175  10.393  1.00  0.00     0.168 CG0
ATOM     21  C   UNL     1      -8.705  -7.959  11.606  1.00  0.00     0.041 C 
ATOM     22  G   UNL     1      -9.108  -5.947  10.216  1.00  0.00     0.000 G0
ENDBRANCH  18  20
ENDBRANCH  15  16
ENDBRANCH  10  11
BRANCH  10  23
ATOM     23  C   UNL     1      -1.331  -4.893   7.873  1.00  0.00     0.015 C 
ATOM     24  C   UNL     1      -2.267  -4.610   6.687  1.00  0.00     0.010 C 
BRANCH  23  25
ATOM     25  C   UNL     1       0.015  -4.175   7.624  1.00  0.00     0.002 C 
ATOM     26  C   UNL     1       1.228  -4.939   8.136  1.00  0.00     0.004 C 
ENDBRANCH  23  25
ENDBRANCH  10  23
ENDBRANCH   7  10
ENDBRANCH   4   6
BRANCH   3  27
ATOM     27  C   UNL     1      -7.572  -0.800   9.437  1.00  0.00     0.171 C 
BRANCH  27  28
ATOM     28  N   UNL     1      -8.220  -1.730  10.356  1.00  0.00    -0.342 N 
ATOM     29  C   UNL     1      -9.121  -2.684   9.941  1.00  0.00     0.245 C 
ATOM     30  O   UNL     1      -9.436  -2.834   8.761  1.00  0.00    -0.273 OA
ATOM     31  H   UNL     1      -7.923  -1.742  11.331  1.00  0.00     0.164 HD
BRANCH  29  32
ATOM     32  C   UNL     1      -9.602  -3.659  11.037  1.00  0.00     0.200 C 
BRANCH  32  33
ATOM     33  N   UNL     1      -8.751  -4.854  10.996  1.00  0.00    -0.340 N 
ATOM     34  C   UNL     1      -9.097  -5.953  10.237  1.00  0.00     0.243 CG0
ATOM     35  O   UNL     1     -10.156  -6.007   9.616  1.00  0.00    -0.273 OA
ATOM     36  H   UNL     1      -7.885  -4.852  11.522  1.00  0.00     0.164 HD
ATOM     37  G   UNL     1      -8.189  -7.184  10.394  1.00  0.00     0.000 G0
ENDBRANCH  32  33
BRANCH  32  38
ATOM     38  C   UNL     1      -9.622  -2.981  12.427  1.00  0.00     0.143 C 
ATOM     39  C   UNL     1     -10.785  -2.018  12.633  1.00  0.00     0.041 C 
BRANCH  38  40
ATOM     40  O   UNL     1      -9.655  -3.982  13.463  1.00  0.00    -0.391 OA
ATOM     41  H   UNL     1      -8.727  -4.210  13.660  1.00  0.00     0.211 HD
ENDBRANCH  38  40
ENDBRANCH  32  38
ENDBRANCH  29  32
ENDBRANCH  27  28
BRANCH  27  42
ATOM     42  C   UNL     1      -8.199   0.613   9.521  1.00  0.00     0.015 C 
ATOM     43  C   UNL     1      -8.894   1.105   8.246  1.00  0.00     0.010 C 
ATOM     44  C   UNL     1      -9.137   0.753  10.725  1.00  0.00     0.010 C 
ENDBRANCH  27  42
ENDBRANCH   3  27
TORSDOF 5
ENDMDL
MODEL 15
REMARK VINA RESULT:    -5.618      2.768      6.971
REMARK INTER + INTRA:         -12.297
REMARK INTER:                 -10.054
REMARK INTRA:                  -2.243
REMARK UNBOUND:                -2.246
REMARK SMILES CC[C@H](C)[C@H]1NC(=O)c2coc(n2)[C@H](C(C)C)NC(=O)[C@H]([C@@H](C)O)NC(=O)[C@H](C)NC(=O)c2csc1n2
REMARK SMILES IDX 11 1 13 2 12 3 9 4 10 5 7 6 6 7 8 8 5 10 36 11 35 12 34 13
REMARK SMILES IDX 37 14 33 15 31 16 32 17 30 18 28 20 29 21 3 23 4 24 2 25
REMARK SMILES IDX 1 26 14 27 18 28 19 29 20 30 21 32 25 33 26 34 27 35 22 38
REMARK SMILES IDX 23 39 24 40 15 42 16 43 17 44
REMARK H PARENT 6 9 30 19 18 31 25 36 24 41
REMARK Flexibility Score:   94.900
ROOT
ATOM      1  O   UNL     1      -1.269  -3.007   7.274  1.00  0.00    -0.446 OA
ATOM      2  N   UNL     1      -1.655  -5.100   8.015  1.00  0.00    -0.207 NA
ATOM      3  C   UNL     1      -1.047  -3.950   8.241  1.00  0.00     0.217 A 
ATOM      4  C   UNL     1      -2.345  -4.892   6.833  1.00  0.00     0.167 A 
ATOM      5  C   UNL     1      -2.106  -3.615   6.387  1.00  0.00     0.231 A 
ENDROOT
BRANCH   4   6
ATOM      6  C   UNL     1      -3.154  -5.916   6.196  1.00  0.00     0.273 C 
ATOM      7  N   UNL     1      -4.496  -5.685   6.364  1.00  0.00    -0.341 N 
ATOM      8  O   UNL     1      -2.683  -6.880   5.604  1.00  0.00    -0.267 OA
ATOM      9  H   UNL     1      -4.735  -4.895   6.957  1.00  0.00     0.164 HD
BRANCH   7  10
ATOM     10  C   UNL     1      -5.514  -6.667   6.049  1.00  0.00     0.145 C 
BRANCH  10  11
ATOM     11  C   UNL     1      -6.043  -7.220   7.365  1.00  0.00     0.116 A 
ATOM     12  S   UNL     1      -7.066  -8.607   7.360  1.00  0.00    -0.124 S 
ATOM     13  C   UNL     1      -7.133  -8.554   9.067  1.00  0.00     0.101 A 
ATOM     14  N   UNL     1      -5.768  -6.724   8.561  1.00  0.00    -0.234 NA
ATOM     15  C   UNL     1      -6.380  -7.500   9.548  1.00  0.00     0.139 A 
BRANCH  15  16
ATOM     16  C   UNL     1      -6.215  -7.203  10.973  1.00  0.00     0.271 C 
ATOM     17  O   UNL     1      -7.014  -7.574  11.826  1.00  0.00    -0.267 OA
ATOM     18  N   UNL     1      -5.080  -6.473  11.255  1.00  0.00    -0.339 N 
ATOM     19  H   UNL     1      -4.559  -6.132  10.451  1.00  0.00     0.164 HD
BRANCH  18  20
ATOM     20  C   UNL     1      -4.787  -6.028  12.611  1.00  0.00     0.168 CG0
ATOM     21  C   UNL     1      -3.636  -6.829  13.223  1.00  0.00     0.041 C 
ATOM     22  G   UNL     1      -4.411  -4.539  12.679  1.00  0.00     0.000 G0
ENDBRANCH  18  20
ENDBRANCH  15  16
ENDBRANCH  10  11
BRANCH  10  23
ATOM     23  C   UNL     1      -6.641  -6.078   5.160  1.00  0.00     0.015 C 
ATOM     24  C   UNL     1      -7.085  -4.670   5.592  1.00  0.00     0.010 C 
BRANCH  23  25
ATOM     25  C   UNL     1      -6.263  -6.040   3.662  1.00  0.00     0.002 C 
ATOM     26  C   UNL     1      -5.910  -4.651   3.149  1.00  0.00     0.004 C 
ENDBRANCH  23  25
ENDBRANCH  10  23
ENDBRANCH   7  10
ENDBRANCH   4   6
BRANCH   3  27
ATOM     27  C   UNL     1      -0.130  -3.619   9.387  1.00  0.00     0.171 C 
BRANCH  27  28
ATOM     28  N   UNL     1      -0.920  -3.646  10.613  1.00  0.00    -0.342 N 
ATOM     29  C   UNL     1      -1.753  -2.616  10.988  1.00  0.00     0.245 C 
ATOM     30  O   UNL     1      -1.905  -1.602  10.309  1.00  0.00    -0.273 OA
ATOM     31  H   UNL     1      -0.934  -4.501  11.169  1.00  0.00     0.164 HD
BRANCH  29  32
ATOM     32  C   UNL     1      -2.604  -2.881  12.249  1.00  0.00     0.200 C 
BRANCH  32  33
ATOM     33  N   UNL     1      -3.158  -4.237  12.153  1.00  0.00    -0.340 N 
ATOM     34  C   UNL     1      -4.400  -4.542  12.673  1.00  0.00     0.243 CG0
ATOM     35  O   UNL     1      -5.066  -3.714  13.291  1.00  0.00    -0.273 OA
ATOM     36  H   UNL     1      -2.618  -4.950  11.676  1.00  0.00     0.164 HD
ATOM     37  G   UNL     1      -4.796  -6.026  12.626  1.00  0.00     0.000 G0
ENDBRANCH  32  33
BRANCH  32  38
ATOM     38  C   UNL     1      -1.786  -2.654  13.541  1.00  0.00     0.143 C 
ATOM     39  C   UNL     1      -0.734  -1.557  13.427  1.00  0.00     0.041 C 
BRANCH  38  40
ATOM     40  O   UNL     1      -2.670  -2.341  14.635  1.00  0.00    -0.391 OA
ATOM     41  H   UNL     1      -3.516  -2.057  14.238  1.00  0.00     0.211 HD
ENDBRANCH  38  40
ENDBRANCH  32  38
ENDBRANCH  29  32
ENDBRANCH  27  28
BRANCH  27  42
ATOM     42  C   UNL     1       1.167  -4.453   9.527  1.00  0.00     0.015 C 
ATOM     43  C   UNL     1       2.457  -3.746   9.097  1.00  0.00     0.010 C 
ATOM     44  C   UNL     1       1.324  -5.036  10.935  1.00  0.00     0.010 C 
ENDBRANCH  27  42
ENDBRANCH   3  27
TORSDOF 5
ENDMDL
MODEL 16
REMARK VINA RESULT:    -5.604      2.210      3.147
REMARK INTER + INTRA:         -12.272
REMARK INTER:                 -10.163
REMARK INTRA:                  -2.109
REMARK UNBOUND:                -2.246
REMARK SMILES CC[C@H](C)[C@H]1NC(=O)c2coc(n2)[C@H](C(C)C)NC(=O)[C@H]([C@@H](C)O)NC(=O)[C@H](C)NC(=O)c2csc1n2
REMARK SMILES IDX 11 1 13 2 12 3 9 4 10 5 7 6 6 7 8 8 5 10 36 11 35 12 34 13
REMARK SMILES IDX 37 14 33 15 31 16 32 17 30 18 28 20 29 21 3 23 4 24 2 25
REMARK SMILES IDX 1 26 14 27 18 28 19 29 20 30 21 32 25 33 26 34 27 35 22 38
REMARK SMILES IDX 23 39 24 40 15 42 16 43 17 44
REMARK H PARENT 6 9 30 19 18 31 25 36 24 41
REMARK Flexibility Score:   94.900
ROOT
ATOM      1  O   UNL     1      -3.309  -0.343   8.344  1.00  0.00    -0.446 OA
ATOM      2  N   UNL     1      -4.059  -2.009   9.665  1.00  0.00    -0.207 NA
ATOM      3  C   UNL     1      -4.318  -1.222   8.636  1.00  0.00     0.217 A 
ATOM      4  C   UNL     1      -2.784  -1.642  10.060  1.00  0.00     0.167 A 
ATOM      5  C   UNL     1      -2.333  -0.627   9.252  1.00  0.00     0.231 A 
ENDROOT
BRANCH   4   6
ATOM      6  C   UNL     1      -2.096  -2.250  11.186  1.00  0.00     0.273 C 
ATOM      7  N   UNL     1      -1.163  -3.169  10.777  1.00  0.00    -0.341 N 
ATOM      8  O   UNL     1      -2.346  -1.986  12.356  1.00  0.00    -0.267 OA
ATOM      9  H   UNL     1      -1.132  -3.350   9.777  1.00  0.00     0.164 HD
BRANCH   7  10
ATOM     10  C   UNL     1      -0.513  -4.094  11.683  1.00  0.00     0.145 C 
BRANCH  10  11
ATOM     11  C   UNL     1      -1.328  -5.379  11.691  1.00  0.00     0.116 A 
ATOM     12  S   UNL     1      -1.241  -6.438  13.048  1.00  0.00    -0.124 S 
ATOM     13  C   UNL     1      -2.376  -7.476  12.302  1.00  0.00     0.101 A 
ATOM     14  N   UNL     1      -2.140  -5.768  10.722  1.00  0.00    -0.234 NA
ATOM     15  C   UNL     1      -2.761  -6.969  11.076  1.00  0.00     0.139 A 
BRANCH  15  16
ATOM     16  C   UNL     1      -3.744  -7.614  10.202  1.00  0.00     0.271 C 
ATOM     17  O   UNL     1      -4.122  -8.769  10.366  1.00  0.00    -0.267 OA
ATOM     18  N   UNL     1      -4.197  -6.798   9.187  1.00  0.00    -0.339 N 
ATOM     19  H   UNL     1      -3.726  -5.903   9.092  1.00  0.00     0.164 HD
BRANCH  18  20
ATOM     20  C   UNL     1      -5.128  -7.292   8.182  1.00  0.00     0.168 CG0
ATOM     21  C   UNL     1      -6.578  -7.156   8.650  1.00  0.00     0.041 C 
ATOM     22  G   UNL     1      -4.997  -6.557   6.838  1.00  0.00     0.000 G0
ENDBRANCH  18  20
ENDBRANCH  15  16
ENDBRANCH  10  11
BRANCH  10  23
ATOM     23  C   UNL     1       0.972  -4.338  11.306  1.00  0.00     0.015 C 
ATOM     24  C   UNL     1       1.244  -5.762  10.792  1.00  0.00     0.010 C 
BRANCH  23  25
ATOM     25  C   UNL     1       1.498  -3.327  10.262  1.00  0.00     0.002 C 
ATOM     26  C   UNL     1       1.872  -3.955   8.926  1.00  0.00     0.004 C 
ENDBRANCH  23  25
ENDBRANCH  10  23
ENDBRANCH   7  10
ENDBRANCH   4   6
BRANCH   3  27
ATOM     27  C   UNL     1      -5.586  -1.173   7.829  1.00  0.00     0.171 C 
BRANCH  27  28
ATOM     28  N   UNL     1      -5.787  -2.489   7.232  1.00  0.00    -0.342 N 
ATOM     29  C   UNL     1      -5.139  -2.898   6.088  1.00  0.00     0.245 C 
ATOM     30  O   UNL     1      -4.329  -2.189   5.493  1.00  0.00    -0.273 OA
ATOM     31  H   UNL     1      -6.355  -3.172   7.732  1.00  0.00     0.164 HD
BRANCH  29  32
ATOM     32  C   UNL     1      -5.380  -4.367   5.682  1.00  0.00     0.200 C 
BRANCH  32  33
ATOM     33  N   UNL     1      -5.347  -5.192   6.896  1.00  0.00    -0.340 N 
ATOM     34  C   UNL     1      -4.983  -6.522   6.847  1.00  0.00     0.243 CG0
ATOM     35  O   UNL     1      -4.736  -7.090   5.785  1.00  0.00    -0.273 OA
ATOM     36  H   UNL     1      -5.576  -4.760   7.783  1.00  0.00     0.164 HD
ATOM     37  G   UNL     1      -5.124  -7.300   8.166  1.00  0.00     0.000 G0
ENDBRANCH  32  33
BRANCH  32  38
ATOM     38  C   UNL     1      -6.695  -4.524   4.883  1.00  0.00     0.143 C 
ATOM     39  C   UNL     1      -7.800  -5.253   5.639  1.00  0.00     0.041 C 
BRANCH  38  40
ATOM     40  O   UNL     1      -7.182  -3.230   4.477  1.00  0.00    -0.391 OA
ATOM     41  H   UNL     1      -6.404  -2.642   4.425  1.00  0.00     0.211 HD
ENDBRANCH  38  40
ENDBRANCH  32  38
ENDBRANCH  29  32
ENDBRANCH  27  28
BRANCH  27  42
ATOM     42  C   UNL     1      -6.866  -0.669   8.541  1.00  0.00     0.015 C 
ATOM     43  C   UNL     1      -6.635   0.297   9.709  1.00  0.00     0.010 C 
ATOM     44  C   UNL     1      -7.875  -0.076   7.553  1.00  0.00     0.010 C 
ENDBRANCH  27  42
ENDBRANCH   3  27
TORSDOF 5
ENDMDL
MODEL 17
REMARK VINA RESULT:    -5.549      2.613      6.914
REMARK INTER + INTRA:         -12.174
REMARK INTER:                  -9.976
REMARK INTRA:                  -2.198
REMARK UNBOUND:                -2.246
REMARK SMILES CC[C@H](C)[C@H]1NC(=O)c2coc(n2)[C@H](C(C)C)NC(=O)[C@H]([C@@H](C)O)NC(=O)[C@H](C)NC(=O)c2csc1n2
REMARK SMILES IDX 11 1 13 2 12 3 9 4 10 5 7 6 6 7 8 8 5 10 36 11 35 12 34 13
REMARK SMILES IDX 37 14 33 15 31 16 32 17 30 18 28 20 29 21 3 23 4 24 2 25
REMARK SMILES IDX 1 26 14 27 18 28 19 29 20 30 21 32 25 33 26 34 27 35 22 38
REMARK SMILES IDX 23 39 24 40 15 42 16 43 17 44
REMARK H PARENT 6 9 30 19 18 31 25 36 24 41
REMARK Flexibility Score:   94.900
ROOT
ATOM      1  O   UNL     1      -1.440  -0.503   9.728  1.00  0.00    -0.446 OA
ATOM      2  N   UNL     1      -1.455  -2.730   9.384  1.00  0.00    -0.207 NA
ATOM      3  C   UNL     1      -1.179  -1.751  10.227  1.00  0.00     0.217 A 
ATOM      4  C   UNL     1      -1.955  -2.085   8.266  1.00  0.00     0.167 A 
ATOM      5  C   UNL     1      -1.944  -0.729   8.483  1.00  0.00     0.231 A 
ENDROOT
BRANCH   4   6
ATOM      6  C   UNL     1      -2.379  -2.787   7.068  1.00  0.00     0.273 C 
ATOM      7  N   UNL     1      -3.737  -2.713   6.886  1.00  0.00    -0.341 N 
ATOM      8  O   UNL     1      -1.611  -3.392   6.329  1.00  0.00    -0.267 OA
ATOM      9  H   UNL     1      -4.256  -2.256   7.631  1.00  0.00     0.164 HD
BRANCH   7  10
ATOM     10  C   UNL     1      -4.452  -3.522   5.920  1.00  0.00     0.145 C 
BRANCH  10  11
ATOM     11  C   UNL     1      -4.763  -4.858   6.578  1.00  0.00     0.116 A 
ATOM     12  S   UNL     1      -4.701  -6.306   5.645  1.00  0.00    -0.124 S 
ATOM     13  C   UNL     1      -5.099  -7.212   7.038  1.00  0.00     0.101 A 
ATOM     14  N   UNL     1      -5.075  -5.021   7.853  1.00  0.00    -0.234 NA
ATOM     15  C   UNL     1      -5.253  -6.379   8.129  1.00  0.00     0.139 A 
BRANCH  15  16
ATOM     16  C   UNL     1      -5.570  -6.855   9.477  1.00  0.00     0.271 C 
ATOM     17  O   UNL     1      -6.686  -7.248   9.798  1.00  0.00    -0.267 OA
ATOM     18  N   UNL     1      -4.496  -6.819  10.340  1.00  0.00    -0.339 N 
ATOM     19  H   UNL     1      -3.656  -6.370   9.986  1.00  0.00     0.164 HD
BRANCH  18  20
ATOM     20  C   UNL     1      -4.640  -7.192  11.741  1.00  0.00     0.168 CG0
ATOM     21  C   UNL     1      -4.396  -8.689  11.946  1.00  0.00     0.041 C 
ATOM     22  G   UNL     1      -3.676  -6.428  12.662  1.00  0.00     0.000 G0
ENDBRANCH  18  20
ENDBRANCH  15  16
ENDBRANCH  10  11
BRANCH  10  23
ATOM     23  C   UNL     1      -5.727  -2.813   5.390  1.00  0.00     0.015 C 
ATOM     24  C   UNL     1      -6.916  -3.767   5.191  1.00  0.00     0.010 C 
BRANCH  23  25
ATOM     25  C   UNL     1      -6.178  -1.641   6.292  1.00  0.00     0.002 C 
ATOM     26  C   UNL     1      -6.251  -0.301   5.574  1.00  0.00     0.004 C 
ENDBRANCH  23  25
ENDBRANCH  10  23
ENDBRANCH   7  10
ENDBRANCH   4   6
BRANCH   3  27
ATOM     27  C   UNL     1      -0.581  -1.879  11.601  1.00  0.00     0.171 C 
BRANCH  27  28
ATOM     28  N   UNL     1      -0.557  -3.296  11.947  1.00  0.00    -0.342 N 
ATOM     29  C   UNL     1      -1.534  -3.895  12.711  1.00  0.00     0.245 C 
ATOM     30  O   UNL     1      -2.508  -3.282  13.145  1.00  0.00    -0.273 OA
ATOM     31  H   UNL     1       0.157  -3.891  11.529  1.00  0.00     0.164 HD
BRANCH  29  32
ATOM     32  C   UNL     1      -1.406  -5.426  12.863  1.00  0.00     0.200 C 
BRANCH  32  33
ATOM     33  N   UNL     1      -2.471  -6.057  12.074  1.00  0.00    -0.340 N 
ATOM     34  C   UNL     1      -3.663  -6.438  12.655  1.00  0.00     0.243 CG0
ATOM     35  O   UNL     1      -3.862  -6.325  13.863  1.00  0.00    -0.273 OA
ATOM     36  H   UNL     1      -2.324  -6.192  11.081  1.00  0.00     0.164 HD
ATOM     37  G   UNL     1      -4.631  -7.210  11.745  1.00  0.00     0.000 G0
ENDBRANCH  32  33
BRANCH  32  38
ATOM     38  C   UNL     1       0.007  -5.917  12.472  1.00  0.00     0.143 C 
ATOM     39  C   UNL     1       0.454  -7.176  13.206  1.00  0.00     0.041 C 
BRANCH  38  40
ATOM     40  O   UNL     1       0.069  -6.157  11.052  1.00  0.00    -0.391 OA
ATOM     41  H   UNL     1      -0.808  -5.926  10.691  1.00  0.00     0.211 HD
ENDBRANCH  38  40
ENDBRANCH  32  38
ENDBRANCH  29  32
ENDBRANCH  27  28
BRANCH  27  42
ATOM     42  C   UNL     1       0.794  -1.210  11.845  1.00  0.00     0.015 C 
ATOM     43  C   UNL     1       1.068  -0.769  13.288  1.00  0.00     0.010 C 
ATOM     44  C   UNL     1       1.951  -2.071  11.325  1.00  0.00     0.010 C 
ENDBRANCH  27  42
ENDBRANCH   3  27
TORSDOF 5
ENDMDL
MODEL 18
REMARK VINA RESULT:    -5.521      4.020      6.268
REMARK INTER + INTRA:         -12.125
REMARK INTER:                 -10.157
REMARK INTRA:                  -1.967
REMARK UNBOUND:                -2.246
REMARK SMILES CC[C@H](C)[C@H]1NC(=O)c2coc(n2)[C@H](C(C)C)NC(=O)[C@H]([C@@H](C)O)NC(=O)[C@H](C)NC(=O)c2csc1n2
REMARK SMILES IDX 11 1 13 2 12 3 9 4 10 5 7 6 6 7 8 8 5 10 36 11 35 12 34 13
REMARK SMILES IDX 37 14 33 15 31 16 32 17 30 18 28 20 29 21 3 23 4 24 2 25
REMARK SMILES IDX 1 26 14 27 18 28 19 29 20 30 21 32 25 33 26 34 27 35 22 38
REMARK SMILES IDX 23 39 24 40 15 42 16 43 17 44
REMARK H PARENT 6 9 30 19 18 31 25 36 24 41
REMARK Flexibility Score:   94.900
ROOT
ATOM      1  O   UNL     1      -5.766  -0.681   6.366  1.00  0.00    -0.446 OA
ATOM      2  N   UNL     1      -6.864  -2.610   6.760  1.00  0.00    -0.207 NA
ATOM      3  C   UNL     1      -5.879  -2.021   6.106  1.00  0.00     0.217 A 
ATOM      4  C   UNL     1      -7.420  -1.596   7.520  1.00  0.00     0.167 A 
ATOM      5  C   UNL     1      -6.747  -0.424   7.276  1.00  0.00     0.231 A 
ENDROOT
BRANCH   4   6
ATOM      6  C   UNL     1      -8.560  -1.796   8.398  1.00  0.00     0.273 C 
ATOM      7  N   UNL     1      -8.260  -1.492   9.701  1.00  0.00    -0.341 N 
ATOM      8  O   UNL     1      -9.647  -2.211   8.013  1.00  0.00    -0.267 OA
ATOM      9  H   UNL     1      -7.291  -1.249   9.885  1.00  0.00     0.164 HD
BRANCH   7  10
ATOM     10  C   UNL     1      -9.126  -1.833  10.813  1.00  0.00     0.145 C 
BRANCH  10  11
ATOM     11  C   UNL     1      -8.860  -3.287  11.176  1.00  0.00     0.116 A 
ATOM     12  S   UNL     1     -10.086  -4.210  11.960  1.00  0.00    -0.124 S 
ATOM     13  C   UNL     1      -9.057  -5.575  11.945  1.00  0.00     0.101 A 
ATOM     14  N   UNL     1      -7.736  -3.938  10.922  1.00  0.00    -0.234 NA
ATOM     15  C   UNL     1      -7.850  -5.263  11.349  1.00  0.00     0.139 A 
BRANCH  15  16
ATOM     16  C   UNL     1      -6.764  -6.228  11.159  1.00  0.00     0.271 C 
ATOM     17  O   UNL     1      -6.574  -7.172  11.918  1.00  0.00    -0.267 OA
ATOM     18  N   UNL     1      -5.986  -5.971  10.050  1.00  0.00    -0.339 N 
ATOM     19  H   UNL     1      -6.177  -5.097   9.566  1.00  0.00     0.164 HD
BRANCH  18  20
ATOM     20  C   UNL     1      -4.820  -6.787   9.741  1.00  0.00     0.168 CG0
ATOM     21  C   UNL     1      -5.138  -7.828   8.666  1.00  0.00     0.041 C 
ATOM     22  G   UNL     1      -3.625  -5.953   9.249  1.00  0.00     0.000 G0
ENDBRANCH  18  20
ENDBRANCH  15  16
ENDBRANCH  10  11
BRANCH  10  23
ATOM     23  C   UNL     1      -8.932  -0.877  12.021  1.00  0.00     0.015 C 
ATOM     24  C   UNL     1      -9.883   0.331  11.999  1.00  0.00     0.010 C 
BRANCH  23  25
ATOM     25  C   UNL     1      -9.076  -1.596  13.381  1.00  0.00     0.002 C 
ATOM     26  C   UNL     1      -9.853  -0.801  14.421  1.00  0.00     0.004 C 
ENDBRANCH  23  25
ENDBRANCH  10  23
ENDBRANCH   7  10
ENDBRANCH   4   6
BRANCH   3  27
ATOM     27  C   UNL     1      -4.948  -2.653   5.107  1.00  0.00     0.171 C 
BRANCH  27  28
ATOM     28  N   UNL     1      -4.234  -3.731   5.782  1.00  0.00    -0.342 N 
ATOM     29  C   UNL     1      -3.137  -3.513   6.584  1.00  0.00     0.245 C 
ATOM     30  O   UNL     1      -2.686  -2.390   6.804  1.00  0.00    -0.273 OA
ATOM     31  H   UNL     1      -4.618  -4.675   5.739  1.00  0.00     0.164 HD
BRANCH  29  32
ATOM     32  C   UNL     1      -2.595  -4.761   7.315  1.00  0.00     0.200 C 
BRANCH  32  33
ATOM     33  N   UNL     1      -3.724  -5.442   7.961  1.00  0.00    -0.340 N 
ATOM     34  C   UNL     1      -3.618  -5.946   9.241  1.00  0.00     0.243 CG0
ATOM     35  O   UNL     1      -2.562  -5.905   9.870  1.00  0.00    -0.273 OA
ATOM     36  H   UNL     1      -4.598  -5.518   7.455  1.00  0.00     0.164 HD
ATOM     37  G   UNL     1      -4.826  -6.753   9.741  1.00  0.00     0.000 G0
ENDBRANCH  32  33
BRANCH  32  38
ATOM     38  C   UNL     1      -1.806  -5.680   6.354  1.00  0.00     0.143 C 
ATOM     39  C   UNL     1      -2.534  -6.969   5.988  1.00  0.00     0.041 C 
BRANCH  38  40
ATOM     40  O   UNL     1      -1.482  -4.967   5.144  1.00  0.00    -0.391 OA
ATOM     41  H   UNL     1      -2.160  -5.211   4.486  1.00  0.00     0.211 HD
ENDBRANCH  38  40
ENDBRANCH  32  38
ENDBRANCH  29  32
ENDBRANCH  27  28
BRANCH  27  42
ATOM     42  C   UNL     1      -5.558  -3.126   3.765  1.00  0.00     0.015 C 
ATOM     43  C   UNL     1      -6.047  -2.012   2.832  1.00  0.00     0.010 C 
ATOM     44  C   UNL     1      -4.619  -4.075   3.012  1.00  0.00     0.010 C 
ENDBRANCH  27  42
ENDBRANCH   3  27
TORSDOF 5
ENDMDL
MODEL 19
REMARK VINA RESULT:    -5.510      2.246      5.777
REMARK INTER + INTRA:         -12.105
REMARK INTER:                 -10.222
REMARK INTRA:                  -1.883
REMARK UNBOUND:                -2.246
REMARK SMILES CC[C@H](C)[C@H]1NC(=O)c2coc(n2)[C@H](C(C)C)NC(=O)[C@H]([C@@H](C)O)NC(=O)[C@H](C)NC(=O)c2csc1n2
REMARK SMILES IDX 11 1 13 2 12 3 9 4 10 5 7 6 6 7 8 8 5 10 36 11 35 12 34 13
REMARK SMILES IDX 37 14 33 15 31 16 32 17 30 18 28 20 29 21 3 23 4 24 2 25
REMARK SMILES IDX 1 26 14 27 18 28 19 29 20 30 21 32 25 33 26 34 27 35 22 38
REMARK SMILES IDX 23 39 24 40 15 42 16 43 17 44
REMARK H PARENT 6 9 30 19 18 31 25 36 24 41
REMARK Flexibility Score:   94.900
ROOT
ATOM      1  O   UNL     1      -5.184  -6.986  13.141  1.00  0.00    -0.446 OA
ATOM      2  N   UNL     1      -4.396  -6.926  11.030  1.00  0.00    -0.207 NA
ATOM      3  C   UNL     1      -5.467  -6.915  11.803  1.00  0.00     0.217 A 
ATOM      4  C   UNL     1      -3.337  -6.982  11.918  1.00  0.00     0.167 A 
ATOM      5  C   UNL     1      -3.823  -7.017  13.202  1.00  0.00     0.231 A 
ENDROOT
BRANCH   4   6
ATOM      6  C   UNL     1      -1.948  -7.026  11.496  1.00  0.00     0.273 C 
ATOM      7  N   UNL     1      -1.536  -5.828  10.971  1.00  0.00    -0.341 N 
ATOM      8  O   UNL     1      -1.246  -8.027  11.579  1.00  0.00    -0.267 OA
ATOM      9  H   UNL     1      -2.255  -5.116  10.881  1.00  0.00     0.164 HD
BRANCH   7  10
ATOM     10  C   UNL     1      -0.287  -5.665  10.252  1.00  0.00     0.145 C 
BRANCH  10  11
ATOM     11  C   UNL     1      -0.618  -5.109   8.875  1.00  0.00     0.116 A 
ATOM     12  S   UNL     1       0.510  -5.294   7.585  1.00  0.00    -0.124 S 
ATOM     13  C   UNL     1      -0.579  -4.504   6.530  1.00  0.00     0.101 A 
ATOM     14  N   UNL     1      -1.740  -4.484   8.559  1.00  0.00    -0.234 NA
ATOM     15  C   UNL     1      -1.731  -4.147   7.203  1.00  0.00     0.139 A 
BRANCH  15  16
ATOM     16  C   UNL     1      -2.868  -3.477   6.569  1.00  0.00     0.271 C 
ATOM     17  O   UNL     1      -2.988  -2.257   6.536  1.00  0.00    -0.267 OA
ATOM     18  N   UNL     1      -3.782  -4.349   6.015  1.00  0.00    -0.339 N 
ATOM     19  H   UNL     1      -3.626  -5.335   6.205  1.00  0.00     0.164 HD
BRANCH  18  20
ATOM     20  C   UNL     1      -5.010  -3.864   5.400  1.00  0.00     0.168 CG0
ATOM     21  C   UNL     1      -4.963  -4.004   3.877  1.00  0.00     0.041 C 
ATOM     22  G   UNL     1      -6.259  -4.608   5.902  1.00  0.00     0.000 G0
ENDBRANCH  18  20
ENDBRANCH  15  16
ENDBRANCH  10  11
BRANCH  10  23
ATOM     23  C   UNL     1       0.721  -4.773  11.024  1.00  0.00     0.015 C 
ATOM     24  C   UNL     1       0.044  -3.703  11.896  1.00  0.00     0.010 C 
BRANCH  23  25
ATOM     25  C   UNL     1       1.689  -5.592  11.907  1.00  0.00     0.002 C 
ATOM     26  C   UNL     1       0.993  -6.475  12.934  1.00  0.00     0.004 C 
ENDBRANCH  23  25
ENDBRANCH  10  23
ENDBRANCH   7  10
ENDBRANCH   4   6
BRANCH   3  27
ATOM     27  C   UNL     1      -6.905  -6.887  11.361  1.00  0.00     0.171 C 
BRANCH  27  28
ATOM     28  N   UNL     1      -6.927  -7.000   9.906  1.00  0.00    -0.342 N 
ATOM     29  C   UNL     1      -7.287  -5.958   9.082  1.00  0.00     0.245 C 
ATOM     30  O   UNL     1      -7.603  -4.849   9.510  1.00  0.00    -0.273 OA
ATOM     31  H   UNL     1      -6.568  -7.852   9.475  1.00  0.00     0.164 HD
BRANCH  29  32
ATOM     32  C   UNL     1      -7.125  -6.227   7.570  1.00  0.00     0.200 C 
BRANCH  32  33
ATOM     33  N   UNL     1      -6.065  -5.350   7.058  1.00  0.00    -0.340 N 
ATOM     34  C   UNL     1      -6.243  -4.607   5.910  1.00  0.00     0.243 CG0
ATOM     35  O   UNL     1      -7.266  -4.692   5.233  1.00  0.00    -0.273 OA
ATOM     36  H   UNL     1      -5.198  -5.282   7.578  1.00  0.00     0.164 HD
ATOM     37  G   UNL     1      -5.006  -3.841   5.413  1.00  0.00     0.000 G0
ENDBRANCH  32  33
BRANCH  32  38
ATOM     38  C   UNL     1      -6.859  -7.724   7.287  1.00  0.00     0.143 C 
ATOM     39  C   UNL     1      -7.043  -8.124   5.828  1.00  0.00     0.041 C 
BRANCH  38  40
ATOM     40  O   UNL     1      -5.524  -8.074   7.703  1.00  0.00    -0.391 OA
ATOM     41  H   UNL     1      -4.917  -7.689   7.044  1.00  0.00     0.211 HD
ENDBRANCH  38  40
ENDBRANCH  32  38
ENDBRANCH  29  32
ENDBRANCH  27  28
BRANCH  27  42
ATOM     42  C   UNL     1      -7.875  -7.895  12.025  1.00  0.00     0.015 C 
ATOM     43  C   UNL     1      -9.061  -7.276  12.773  1.00  0.00     0.010 C 
ATOM     44  C   UNL     1      -8.367  -8.955  11.034  1.00  0.00     0.010 C 
ENDBRANCH  27  42
ENDBRANCH   3  27
TORSDOF 5
ENDMDL
MODEL 20
REMARK VINA RESULT:    -5.464      3.538      6.326
REMARK INTER + INTRA:         -12.021
REMARK INTER:                  -9.906
REMARK INTRA:                  -2.115
REMARK UNBOUND:                -2.246
REMARK SMILES CC[C@H](C)[C@H]1NC(=O)c2coc(n2)[C@H](C(C)C)NC(=O)[C@H]([C@@H](C)O)NC(=O)[C@H](C)NC(=O)c2csc1n2
REMARK SMILES IDX 11 1 13 2 12 3 9 4 10 5 7 6 6 7 8 8 5 10 36 11 35 12 34 13
REMARK SMILES IDX 37 14 33 15 31 16 32 17 30 18 28 20 29 21 3 23 4 24 2 25
REMARK SMILES IDX 1 26 14 27 18 28 19 29 20 30 21 32 25 33 26 34 27 35 22 38
REMARK SMILES IDX 23 39 24 40 15 42 16 43 17 44
REMARK H PARENT 6 9 30 19 18 31 25 36 24 41
REMARK Flexibility Score:   94.900
ROOT
ATOM      1  O   UNL     1      -6.231  -0.239   8.768  1.00  0.00    -0.446 OA
ATOM      2  N   UNL     1      -6.750  -2.382   8.300  1.00  0.00    -0.207 NA
ATOM      3  C   UNL     1      -5.957  -1.360   8.031  1.00  0.00     0.217 A 
ATOM      4  C   UNL     1      -7.583  -1.912   9.299  1.00  0.00     0.167 A 
ATOM      5  C   UNL     1      -7.262  -0.606   9.580  1.00  0.00     0.231 A 
ENDROOT
BRANCH   4   6
ATOM      6  C   UNL     1      -8.638  -2.713   9.895  1.00  0.00     0.273 C 
ATOM      7  N   UNL     1      -8.266  -3.219  11.115  1.00  0.00    -0.341 N 
ATOM      8  O   UNL     1      -9.717  -2.924   9.354  1.00  0.00    -0.267 OA
ATOM      9  H   UNL     1      -7.307  -3.036  11.394  1.00  0.00     0.164 HD
BRANCH   7  10
ATOM     10  C   UNL     1      -9.020  -4.244  11.810  1.00  0.00     0.145 C 
BRANCH  10  11
ATOM     11  C   UNL     1      -8.482  -5.595  11.363  1.00  0.00     0.116 A 
ATOM     12  S   UNL     1      -9.414  -7.019  11.634  1.00  0.00    -0.124 S 
ATOM     13  C   UNL     1      -8.203  -7.949  10.866  1.00  0.00     0.101 A 
ATOM     14  N   UNL     1      -7.325  -5.785  10.750  1.00  0.00    -0.234 NA
ATOM     15  C   UNL     1      -7.166  -7.139  10.445  1.00  0.00     0.139 A 
BRANCH  15  16
ATOM     16  C   UNL     1      -5.989  -7.633   9.727  1.00  0.00     0.271 C 
ATOM     17  O   UNL     1      -5.608  -8.797   9.797  1.00  0.00    -0.267 OA
ATOM     18  N   UNL     1      -5.359  -6.668   8.971  1.00  0.00    -0.339 N 
ATOM     19  H   UNL     1      -5.706  -5.719   9.084  1.00  0.00     0.164 HD
BRANCH  18  20
ATOM     20  C   UNL     1      -4.132  -6.961   8.243  1.00  0.00     0.168 CG0
ATOM     21  C   UNL     1      -4.397  -7.111   6.743  1.00  0.00     0.041 C 
ATOM     22  G   UNL     1      -3.059  -5.875   8.425  1.00  0.00     0.000 G0
ENDBRANCH  18  20
ENDBRANCH  15  16
ENDBRANCH  10  11
BRANCH  10  23
ATOM     23  C   UNL     1      -8.967  -4.066  13.351  1.00  0.00     0.015 C 
ATOM     24  C   UNL     1     -10.269  -4.481  14.056  1.00  0.00     0.010 C 
BRANCH  23  25
ATOM     25  C   UNL     1      -7.789  -4.826  14.000  1.00  0.00     0.002 C 
ATOM     26  C   UNL     1      -6.583  -3.949  14.308  1.00  0.00     0.004 C 
ENDBRANCH  23  25
ENDBRANCH  10  23
ENDBRANCH   7  10
ENDBRANCH   4   6
BRANCH   3  27
ATOM     27  C   UNL     1      -4.868  -1.305   6.995  1.00  0.00     0.171 C 
BRANCH  27  28
ATOM     28  N   UNL     1      -4.062  -2.514   7.131  1.00  0.00    -0.342 N 
ATOM     29  C   UNL     1      -2.686  -2.494   7.168  1.00  0.00     0.245 C 
ATOM     30  O   UNL     1      -2.033  -1.453   7.106  1.00  0.00    -0.273 OA
ATOM     31  H   UNL     1      -4.534  -3.401   7.303  1.00  0.00     0.164 HD
BRANCH  29  32
ATOM     32  C   UNL     1      -2.014  -3.856   7.446  1.00  0.00     0.200 C 
BRANCH  32  33
ATOM     33  N   UNL     1      -3.057  -4.888   7.467  1.00  0.00    -0.340 N 
ATOM     34  C   UNL     1      -3.062  -5.881   8.426  1.00  0.00     0.243 CG0
ATOM     35  O   UNL     1      -2.165  -5.983   9.260  1.00  0.00    -0.273 OA
ATOM     36  H   UNL     1      -3.793  -4.848   6.773  1.00  0.00     0.164 HD
ATOM     37  G   UNL     1      -4.129  -6.973   8.248  1.00  0.00     0.000 G0
ENDBRANCH  32  33
BRANCH  32  38
ATOM     38  C   UNL     1      -0.893  -4.152   6.423  1.00  0.00     0.143 C 
ATOM     39  C   UNL     1       0.315  -4.870   7.013  1.00  0.00     0.041 C 
BRANCH  38  40
ATOM     40  O   UNL     1      -1.416  -4.936   5.332  1.00  0.00    -0.391 OA
ATOM     41  H   UNL     1      -0.697  -5.017   4.677  1.00  0.00     0.211 HD
ENDBRANCH  38  40
ENDBRANCH  32  38
ENDBRANCH  29  32
ENDBRANCH  27  28
BRANCH  27  42
ATOM     42  C   UNL     1      -5.292  -1.065   5.525  1.00  0.00     0.015 C 
ATOM     43  C   UNL     1      -5.939  -2.263   4.820  1.00  0.00     0.010 C 
ATOM     44  C   UNL     1      -6.176   0.178   5.380  1.00  0.00     0.010 C 
ENDBRANCH  27  42
ENDBRANCH   3  27
TORSDOF 5
ENDMDL
MODEL 21
REMARK VINA RESULT:    -5.426      3.440      7.274
REMARK INTER + INTRA:         -11.954
REMARK INTER:                  -9.606
REMARK INTRA:                  -2.348
REMARK UNBOUND:                -2.246
REMARK SMILES CC[C@H](C)[C@H]1NC(=O)c2coc(n2)[C@H](C(C)C)NC(=O)[C@H]([C@@H](C)O)NC(=O)[C@H](C)NC(=O)c2csc1n2
REMARK SMILES IDX 11 1 13 2 12 3 9 4 10 5 7 6 6 7 8 8 5 10 36 11 35 12 34 13
REMARK SMILES IDX 37 14 33 15 31 16 32 17 30 18 28 20 29 21 3 23 4 24 2 25
REMARK SMILES IDX 1 26 14 27 18 28 19 29 20 30 21 32 25 33 26 34 27 35 22 38
REMARK SMILES IDX 23 39 24 40 15 42 16 43 17 44
REMARK H PARENT 6 9 30 19 18 31 25 36 24 41
REMARK Flexibility Score:   94.900
ROOT
ATOM      1  O   UNL     1      -1.138  -0.885   9.521  1.00  0.00    -0.446 OA
ATOM      2  N   UNL     1      -3.160  -1.544  10.270  1.00  0.00    -0.207 NA
ATOM      3  C   UNL     1      -1.872  -1.433  10.540  1.00  0.00     0.217 A 
ATOM      4  C   UNL     1      -3.288  -1.008   9.000  1.00  0.00     0.167 A 
ATOM      5  C   UNL     1      -2.053  -0.609   8.550  1.00  0.00     0.231 A 
ENDROOT
BRANCH   4   6
ATOM      6  C   UNL     1      -4.554  -0.938   8.291  1.00  0.00     0.273 C 
ATOM      7  N   UNL     1      -5.622  -1.078   9.141  1.00  0.00    -0.341 N 
ATOM      8  O   UNL     1      -4.645  -0.797   7.078  1.00  0.00    -0.267 OA
ATOM      9  H   UNL     1      -5.391  -1.281  10.110  1.00  0.00     0.164 HD
BRANCH   7  10
ATOM     10  C   UNL     1      -6.979  -1.293   8.679  1.00  0.00     0.145 C 
BRANCH  10  11
ATOM     11  C   UNL     1      -7.176  -2.793   8.514  1.00  0.00     0.116 A 
ATOM     12  S   UNL     1      -7.918  -3.405   7.084  1.00  0.00    -0.124 S 
ATOM     13  C   UNL     1      -7.714  -4.998   7.668  1.00  0.00     0.101 A 
ATOM     14  N   UNL     1      -6.804  -3.708   9.394  1.00  0.00    -0.234 NA
ATOM     15  C   UNL     1      -7.096  -4.984   8.904  1.00  0.00     0.139 A 
BRANCH  15  16
ATOM     16  C   UNL     1      -6.757  -6.193   9.657  1.00  0.00     0.271 C 
ATOM     17  O   UNL     1      -7.534  -7.132   9.792  1.00  0.00    -0.267 OA
ATOM     18  N   UNL     1      -5.486  -6.171  10.192  1.00  0.00    -0.339 N 
ATOM     19  H   UNL     1      -4.983  -5.292  10.104  1.00  0.00     0.164 HD
BRANCH  18  20
ATOM     20  C   UNL     1      -5.000  -7.260  11.028  1.00  0.00     0.168 CG0
ATOM     21  C   UNL     1      -4.368  -8.369  10.185  1.00  0.00     0.041 C 
ATOM     22  G   UNL     1      -3.956  -6.798  12.057  1.00  0.00     0.000 G0
ENDBRANCH  18  20
ENDBRANCH  15  16
ENDBRANCH  10  11
BRANCH  10  23
ATOM     23  C   UNL     1      -8.029  -0.660   9.630  1.00  0.00     0.015 C 
ATOM     24  C   UNL     1      -7.918  -1.159  11.080  1.00  0.00     0.010 C 
BRANCH  23  25
ATOM     25  C   UNL     1      -7.978   0.885   9.633  1.00  0.00     0.002 C 
ATOM     26  C   UNL     1      -9.276   1.546  10.074  1.00  0.00     0.004 C 
ENDBRANCH  23  25
ENDBRANCH  10  23
ENDBRANCH   7  10
ENDBRANCH   4   6
BRANCH   3  27
ATOM     27  C   UNL     1      -1.165  -1.886  11.788  1.00  0.00     0.171 C 
BRANCH  27  28
ATOM     28  N   UNL     1      -1.094  -3.343  11.757  1.00  0.00    -0.342 N 
ATOM     29  C   UNL     1      -1.873  -4.146  12.560  1.00  0.00     0.245 C 
ATOM     30  O   UNL     1      -2.699  -3.694  13.352  1.00  0.00    -0.273 OA
ATOM     31  H   UNL     1      -0.517  -3.791  11.046  1.00  0.00     0.164 HD
BRANCH  29  32
ATOM     32  C   UNL     1      -1.752  -5.661  12.294  1.00  0.00     0.200 C 
BRANCH  32  33
ATOM     33  N   UNL     1      -2.900  -6.080  11.481  1.00  0.00    -0.340 N 
ATOM     34  C   UNL     1      -3.952  -6.780  12.035  1.00  0.00     0.243 CG0
ATOM     35  O   UNL     1      -3.946  -7.139  13.211  1.00  0.00    -0.273 OA
ATOM     36  H   UNL     1      -2.919  -5.826  10.501  1.00  0.00     0.164 HD
ATOM     37  G   UNL     1      -5.019  -7.274  11.045  1.00  0.00     0.000 G0
ENDBRANCH  32  33
BRANCH  32  38
ATOM     38  C   UNL     1      -0.393  -6.014  11.645  1.00  0.00     0.143 C 
ATOM     39  C   UNL     1       0.109  -7.415  11.974  1.00  0.00     0.041 C 
BRANCH  38  40
ATOM     40  O   UNL     1      -0.479  -5.872  10.214  1.00  0.00    -0.391 OA
ATOM     41  H   UNL     1      -1.401  -6.076   9.968  1.00  0.00     0.211 HD
ENDBRANCH  38  40
ENDBRANCH  32  38
ENDBRANCH  29  32
ENDBRANCH  27  28
BRANCH  27  42
ATOM     42  C   UNL     1       0.216  -1.255  12.094  1.00  0.00     0.015 C 
ATOM     43  C   UNL     1       0.440  -0.833  13.551  1.00  0.00     0.010 C 
ATOM     44  C   UNL     1       1.370  -2.141  11.614  1.00  0.00     0.010 C 
ENDBRANCH  27  42
ENDBRANCH   3  27
TORSDOF 5
ENDMDL
MODEL 22
REMARK VINA RESULT:    -5.389      4.071      7.233
REMARK INTER + INTRA:         -11.887
REMARK INTER:                  -9.440
REMARK INTRA:                  -2.447
REMARK UNBOUND:                -2.246
REMARK SMILES CC[C@H](C)[C@H]1NC(=O)c2coc(n2)[C@H](C(C)C)NC(=O)[C@H]([C@@H](C)O)NC(=O)[C@H](C)NC(=O)c2csc1n2
REMARK SMILES IDX 11 1 13 2 12 3 9 4 10 5 7 6 6 7 8 8 5 10 36 11 35 12 34 13
REMARK SMILES IDX 37 14 33 15 31 16 32 17 30 18 28 20 29 21 3 23 4 24 2 25
REMARK SMILES IDX 1 26 14 27 18 28 19 29 20 30 21 32 25 33 26 34 27 35 22 38
REMARK SMILES IDX 23 39 24 40 15 42 16 43 17 44
REMARK H PARENT 6 9 30 19 18 31 25 36 24 41
REMARK Flexibility Score:   94.900
ROOT
ATOM      1  O   UNL     1      -1.995  -2.666  12.464  1.00  0.00    -0.446 OA
ATOM      2  N   UNL     1      -3.355  -2.822  10.673  1.00  0.00    -0.207 NA
ATOM      3  C   UNL     1      -2.310  -3.325  11.305  1.00  0.00     0.217 A 
ATOM      4  C   UNL     1      -3.772  -1.779  11.482  1.00  0.00     0.167 A 
ATOM      5  C   UNL     1      -2.940  -1.690  12.571  1.00  0.00     0.231 A 
ENDROOT
BRANCH   4   6
ATOM      6  C   UNL     1      -4.902  -0.926  11.159  1.00  0.00     0.273 C 
ATOM      7  N   UNL     1      -6.094  -1.496  11.531  1.00  0.00    -0.341 N 
ATOM      8  O   UNL     1      -4.795   0.157  10.598  1.00  0.00    -0.267 OA
ATOM      9  H   UNL     1      -6.034  -2.440  11.901  1.00  0.00     0.164 HD
BRANCH   7  10
ATOM     10  C   UNL     1      -7.382  -0.983  11.109  1.00  0.00     0.145 C 
BRANCH  10  11
ATOM     11  C   UNL     1      -7.653  -1.512   9.708  1.00  0.00     0.116 A 
ATOM     12  S   UNL     1      -8.102  -0.419   8.453  1.00  0.00    -0.124 S 
ATOM     13  C   UNL     1      -8.157  -1.722   7.349  1.00  0.00     0.101 A 
ATOM     14  N   UNL     1      -7.559  -2.781   9.346  1.00  0.00    -0.234 NA
ATOM     15  C   UNL     1      -7.832  -2.907   7.982  1.00  0.00     0.139 A 
BRANCH  15  16
ATOM     16  C   UNL     1      -7.763  -4.201   7.299  1.00  0.00     0.271 C 
ATOM     17  O   UNL     1      -8.715  -4.971   7.238  1.00  0.00    -0.267 OA
ATOM     18  N   UNL     1      -6.532  -4.462   6.736  1.00  0.00    -0.339 N 
ATOM     19  H   UNL     1      -5.795  -3.796   6.951  1.00  0.00     0.164 HD
BRANCH  18  20
ATOM     20  C   UNL     1      -6.259  -5.730   6.074  1.00  0.00     0.168 CG0
ATOM     21  C   UNL     1      -6.458  -5.623   4.561  1.00  0.00     0.041 C 
ATOM     22  G   UNL     1      -4.829  -6.236   6.325  1.00  0.00     0.000 G0
ENDBRANCH  18  20
ENDBRANCH  15  16
ENDBRANCH  10  11
BRANCH  10  23
ATOM     23  C   UNL     1      -8.513  -1.347  12.108  1.00  0.00     0.015 C 
ATOM     24  C   UNL     1      -8.009  -1.569  13.543  1.00  0.00     0.010 C 
BRANCH  23  25
ATOM     25  C   UNL     1      -9.646  -0.296  12.138  1.00  0.00     0.002 C 
ATOM     26  C   UNL     1     -10.417  -0.256  13.450  1.00  0.00     0.004 C 
ENDBRANCH  23  25
ENDBRANCH  10  23
ENDBRANCH   7  10
ENDBRANCH   4   6
BRANCH   3  27
ATOM     27  C   UNL     1      -1.444  -4.470  10.857  1.00  0.00     0.171 C 
BRANCH  27  28
ATOM     28  N   UNL     1      -1.665  -4.664   9.428  1.00  0.00    -0.342 N 
ATOM     29  C   UNL     1      -2.424  -5.696   8.923  1.00  0.00     0.245 C 
ATOM     30  O   UNL     1      -2.986  -6.522   9.641  1.00  0.00    -0.273 OA
ATOM     31  H   UNL     1      -1.327  -3.955   8.779  1.00  0.00     0.164 HD
BRANCH  29  32
ATOM     32  C   UNL     1      -2.651  -5.662   7.397  1.00  0.00     0.200 C 
BRANCH  32  33
ATOM     33  N   UNL     1      -4.073  -5.398   7.147  1.00  0.00    -0.340 N 
ATOM     34  C   UNL     1      -4.825  -6.226   6.340  1.00  0.00     0.243 CG0
ATOM     35  O   UNL     1      -4.327  -7.180   5.745  1.00  0.00    -0.273 OA
ATOM     36  H   UNL     1      -4.505  -4.601   7.600  1.00  0.00     0.164 HD
ATOM     37  G   UNL     1      -6.260  -5.756   6.055  1.00  0.00     0.000 G0
ENDBRANCH  32  33
BRANCH  32  38
ATOM     38  C   UNL     1      -1.718  -4.638   6.709  1.00  0.00     0.143 C 
ATOM     39  C   UNL     1      -1.428  -4.946   5.245  1.00  0.00     0.041 C 
BRANCH  38  40
ATOM     40  O   UNL     1      -2.281  -3.316   6.806  1.00  0.00    -0.391 OA
ATOM     41  H   UNL     1      -1.850  -2.883   7.567  1.00  0.00     0.211 HD
ENDBRANCH  38  40
ENDBRANCH  32  38
ENDBRANCH  29  32
ENDBRANCH  27  28
BRANCH  27  42
ATOM     42  C   UNL     1       0.065  -4.397  11.195  1.00  0.00     0.015 C 
ATOM     43  C   UNL     1       0.859  -5.687  10.956  1.00  0.00     0.010 C 
ATOM     44  C   UNL     1       0.752  -3.216  10.501  1.00  0.00     0.010 C 
ENDBRANCH  27  42
ENDBRANCH   3  27
TORSDOF 5
ENDMDL
MODEL 23
REMARK VINA RESULT:    -5.358      2.438      2.920
REMARK INTER + INTRA:         -11.832
REMARK INTER:                  -9.295
REMARK INTRA:                  -2.537
REMARK UNBOUND:                -2.246
REMARK SMILES CC[C@H](C)[C@H]1NC(=O)c2coc(n2)[C@H](C(C)C)NC(=O)[C@H]([C@@H](C)O)NC(=O)[C@H](C)NC(=O)c2csc1n2
REMARK SMILES IDX 11 1 13 2 12 3 9 4 10 5 7 6 6 7 8 8 5 10 36 11 35 12 34 13
REMARK SMILES IDX 37 14 33 15 31 16 32 17 30 18 28 20 29 21 3 23 4 24 2 25
REMARK SMILES IDX 1 26 14 27 18 28 19 29 20 30 21 32 25 33 26 34 27 35 22 38
REMARK SMILES IDX 23 39 24 40 15 42 16 43 17 44
REMARK H PARENT 6 9 30 19 18 31 25 36 24 41
REMARK Flexibility Score:   94.900
ROOT
ATOM      1  O   UNL     1      -3.267  -0.191   7.549  1.00  0.00    -0.446 OA
ATOM      2  N   UNL     1      -3.001  -2.247   8.435  1.00  0.00    -0.207 NA
ATOM      3  C   UNL     1      -3.718  -1.482   7.631  1.00  0.00     0.217 A 
ATOM      4  C   UNL     1      -1.997  -1.411   8.892  1.00  0.00     0.167 A 
ATOM      5  C   UNL     1      -2.165  -0.161   8.348  1.00  0.00     0.231 A 
ENDROOT
BRANCH   4   6
ATOM      6  C   UNL     1      -0.972  -1.840   9.828  1.00  0.00     0.273 C 
ATOM      7  N   UNL     1      -0.432  -3.050   9.473  1.00  0.00    -0.341 N 
ATOM      8  O   UNL     1      -0.654  -1.202  10.824  1.00  0.00    -0.267 OA
ATOM      9  H   UNL     1      -0.860  -3.506   8.672  1.00  0.00     0.164 HD
BRANCH   7  10
ATOM     10  C   UNL     1       0.424  -3.823  10.351  1.00  0.00     0.145 C 
BRANCH  10  11
ATOM     11  C   UNL     1      -0.390  -5.000  10.869  1.00  0.00     0.116 A 
ATOM     12  S   UNL     1       0.404  -6.472  11.286  1.00  0.00    -0.124 S 
ATOM     13  C   UNL     1      -1.097  -7.140  11.755  1.00  0.00     0.101 A 
ATOM     14  N   UNL     1      -1.701  -4.994  11.050  1.00  0.00    -0.234 NA
ATOM     15  C   UNL     1      -2.112  -6.221  11.577  1.00  0.00     0.139 A 
BRANCH  15  16
ATOM     16  C   UNL     1      -3.514  -6.483  11.913  1.00  0.00     0.271 C 
ATOM     17  O   UNL     1      -3.902  -7.559  12.354  1.00  0.00    -0.267 OA
ATOM     18  N   UNL     1      -4.345  -5.405  11.687  1.00  0.00    -0.339 N 
ATOM     19  H   UNL     1      -3.922  -4.609  11.217  1.00  0.00     0.164 HD
BRANCH  18  20
ATOM     20  C   UNL     1      -5.782  -5.504  11.901  1.00  0.00     0.168 CG0
ATOM     21  C   UNL     1      -6.273  -4.436  12.881  1.00  0.00     0.041 C 
ATOM     22  G   UNL     1      -6.587  -5.355  10.600  1.00  0.00     0.000 G0
ENDBRANCH  18  20
ENDBRANCH  15  16
ENDBRANCH  10  11
BRANCH  10  23
ATOM     23  C   UNL     1       1.732  -4.273   9.648  1.00  0.00     0.015 C 
ATOM     24  C   UNL     1       1.583  -4.423   8.124  1.00  0.00     0.010 C 
BRANCH  23  25
ATOM     25  C   UNL     1       2.922  -3.330   9.938  1.00  0.00     0.002 C 
ATOM     26  C   UNL     1       2.657  -2.325  11.050  1.00  0.00     0.004 C 
ENDBRANCH  23  25
ENDBRANCH  10  23
ENDBRANCH   7  10
ENDBRANCH   4   6
BRANCH   3  27
ATOM     27  C   UNL     1      -4.958  -1.873   6.876  1.00  0.00     0.171 C 
BRANCH  27  28
ATOM     28  N   UNL     1      -5.971  -2.261   7.851  1.00  0.00    -0.342 N 
ATOM     29  C   UNL     1      -6.648  -3.459   7.789  1.00  0.00     0.245 C 
ATOM     30  O   UNL     1      -6.438  -4.297   6.914  1.00  0.00    -0.273 OA
ATOM     31  H   UNL     1      -6.117  -1.669   8.668  1.00  0.00     0.164 HD
BRANCH  29  32
ATOM     32  C   UNL     1      -7.586  -3.749   8.980  1.00  0.00     0.200 C 
BRANCH  32  33
ATOM     33  N   UNL     1      -6.760  -4.053  10.155  1.00  0.00    -0.340 N 
ATOM     34  C   UNL     1      -6.588  -5.349  10.593  1.00  0.00     0.243 CG0
ATOM     35  O   UNL     1      -7.166  -6.296  10.063  1.00  0.00    -0.273 OA
ATOM     36  H   UNL     1      -6.295  -3.289  10.631  1.00  0.00     0.164 HD
ATOM     37  G   UNL     1      -5.813  -5.510  11.911  1.00  0.00     0.000 G0
ENDBRANCH  32  33
BRANCH  32  38
ATOM     38  C   UNL     1      -8.571  -2.581   9.221  1.00  0.00     0.143 C 
ATOM     39  C   UNL     1      -9.707  -2.912  10.181  1.00  0.00     0.041 C 
BRANCH  38  40
ATOM     40  O   UNL     1      -7.859  -1.431   9.719  1.00  0.00    -0.391 OA
ATOM     41  H   UNL     1      -7.035  -1.765  10.121  1.00  0.00     0.211 HD
ENDBRANCH  38  40
ENDBRANCH  32  38
ENDBRANCH  29  32
ENDBRANCH  27  28
BRANCH  27  42
ATOM     42  C   UNL     1      -5.517  -0.858   5.848  1.00  0.00     0.015 C 
ATOM     43  C   UNL     1      -5.868  -1.436   4.472  1.00  0.00     0.010 C 
ATOM     44  C   UNL     1      -6.704  -0.068   6.410  1.00  0.00     0.010 C 
ENDBRANCH  27  42
ENDBRANCH   3  27
TORSDOF 5
ENDMDL
MODEL 24
REMARK VINA RESULT:    -5.355      4.395      7.952
REMARK INTER + INTRA:         -11.827
REMARK INTER:                  -9.235
REMARK INTRA:                  -2.592
REMARK UNBOUND:                -2.246
REMARK SMILES CC[C@H](C)[C@H]1NC(=O)c2coc(n2)[C@H](C(C)C)NC(=O)[C@H]([C@@H](C)O)NC(=O)[C@H](C)NC(=O)c2csc1n2
REMARK SMILES IDX 11 1 13 2 12 3 9 4 10 5 7 6 6 7 8 8 5 10 36 11 35 12 34 13
REMARK SMILES IDX 37 14 33 15 31 16 32 17 30 18 28 20 29 21 3 23 4 24 2 25
REMARK SMILES IDX 1 26 14 27 18 28 19 29 20 30 21 32 25 33 26 34 27 35 22 38
REMARK SMILES IDX 23 39 24 40 15 42 16 43 17 44
REMARK H PARENT 6 9 30 19 18 31 25 36 24 41
REMARK Flexibility Score:   94.900
ROOT
ATOM      1  O   UNL     1      -6.028  -7.089  11.251  1.00  0.00    -0.446 OA
ATOM      2  N   UNL     1      -5.388  -4.939  11.021  1.00  0.00    -0.207 NA
ATOM      3  C   UNL     1      -5.158  -6.196  10.683  1.00  0.00     0.217 A 
ATOM      4  C   UNL     1      -6.499  -5.007  11.844  1.00  0.00     0.167 A 
ATOM      5  C   UNL     1      -6.884  -6.319  11.979  1.00  0.00     0.231 A 
ENDROOT
BRANCH   4   6
ATOM      6  C   UNL     1      -7.098  -3.839  12.466  1.00  0.00     0.273 C 
ATOM      7  N   UNL     1      -8.398  -3.659  12.065  1.00  0.00    -0.341 N 
ATOM      8  O   UNL     1      -6.498  -3.097  13.234  1.00  0.00    -0.267 OA
ATOM      9  H   UNL     1      -8.732  -4.302  11.352  1.00  0.00     0.164 HD
BRANCH   7  10
ATOM     10  C   UNL     1      -9.149  -2.448  12.332  1.00  0.00     0.145 C 
BRANCH  10  11
ATOM     11  C   UNL     1      -8.920  -1.498  11.165  1.00  0.00     0.116 A 
ATOM     12  S   UNL     1      -9.373   0.158  11.311  1.00  0.00    -0.124 S 
ATOM     13  C   UNL     1      -8.782   0.451   9.734  1.00  0.00     0.101 A 
ATOM     14  N   UNL     1      -8.371  -1.835  10.010  1.00  0.00    -0.234 NA
ATOM     15  C   UNL     1      -8.273  -0.711   9.186  1.00  0.00     0.139 A 
BRANCH  15  16
ATOM     16  C   UNL     1      -7.668  -0.784   7.854  1.00  0.00     0.271 C 
ATOM     17  O   UNL     1      -7.868   0.059   6.986  1.00  0.00    -0.267 OA
ATOM     18  N   UNL     1      -6.856  -1.884   7.677  1.00  0.00    -0.339 N 
ATOM     19  H   UNL     1      -6.860  -2.565   8.432  1.00  0.00     0.164 HD
BRANCH  18  20
ATOM     20  C   UNL     1      -6.223  -2.157   6.394  1.00  0.00     0.168 CG0
ATOM     21  C   UNL     1      -4.758  -1.714   6.391  1.00  0.00     0.041 C 
ATOM     22  G   UNL     1      -6.265  -3.646   6.015  1.00  0.00     0.000 G0
ENDBRANCH  18  20
ENDBRANCH  15  16
ENDBRANCH  10  11
BRANCH  10  23
ATOM     23  C   UNL     1     -10.654  -2.734  12.576  1.00  0.00     0.015 C 
ATOM     24  C   UNL     1     -11.153  -4.010  11.877  1.00  0.00     0.010 C 
BRANCH  23  25
ATOM     25  C   UNL     1     -11.011  -2.820  14.077  1.00  0.00     0.002 C 
ATOM     26  C   UNL     1     -11.360  -1.479  14.708  1.00  0.00     0.004 C 
ENDBRANCH  23  25
ENDBRANCH  10  23
ENDBRANCH   7  10
ENDBRANCH   4   6
BRANCH   3  27
ATOM     27  C   UNL     1      -4.044  -6.712   9.815  1.00  0.00     0.171 C 
BRANCH  27  28
ATOM     28  N   UNL     1      -4.191  -6.109   8.494  1.00  0.00    -0.342 N 
ATOM     29  C   UNL     1      -4.937  -6.683   7.490  1.00  0.00     0.245 C 
ATOM     30  O   UNL     1      -5.549  -7.740   7.637  1.00  0.00    -0.273 OA
ATOM     31  H   UNL     1      -3.808  -5.178   8.336  1.00  0.00     0.164 HD
BRANCH  29  32
ATOM     32  C   UNL     1      -5.081  -5.835   6.208  1.00  0.00     0.200 C 
BRANCH  32  33
ATOM     33  N   UNL     1      -5.272  -4.434   6.602  1.00  0.00    -0.340 N 
ATOM     34  C   UNL     1      -6.238  -3.649   6.008  1.00  0.00     0.243 CG0
ATOM     35  O   UNL     1      -6.935  -4.064   5.084  1.00  0.00    -0.273 OA
ATOM     36  H   UNL     1      -4.691  -4.054   7.340  1.00  0.00     0.164 HD
ATOM     37  G   UNL     1      -6.237  -2.167   6.416  1.00  0.00     0.000 G0
ENDBRANCH  32  33
BRANCH  32  38
ATOM     38  C   UNL     1      -3.877  -6.036   5.259  1.00  0.00     0.143 C 
ATOM     39  C   UNL     1      -2.903  -4.864   5.233  1.00  0.00     0.041 C 
BRANCH  38  40
ATOM     40  O   UNL     1      -3.159  -7.233   5.621  1.00  0.00    -0.391 OA
ATOM     41  H   UNL     1      -3.263  -7.340   6.585  1.00  0.00     0.211 HD
ENDBRANCH  38  40
ENDBRANCH  32  38
ENDBRANCH  29  32
ENDBRANCH  27  28
BRANCH  27  42
ATOM     42  C   UNL     1      -2.598  -6.567  10.349  1.00  0.00     0.015 C 
ATOM     43  C   UNL     1      -1.929  -5.212  10.087  1.00  0.00     0.010 C 
ATOM     44  C   UNL     1      -2.496  -6.931  11.834  1.00  0.00     0.010 C 
ENDBRANCH  27  42
ENDBRANCH   3  27
TORSDOF 5
ENDMDL
MODEL 25
REMARK VINA RESULT:    -5.346      2.557      3.533
REMARK INTER + INTRA:         -11.810
REMARK INTER:                  -9.664
REMARK INTRA:                  -2.146
REMARK UNBOUND:                -2.246
REMARK SMILES CC[C@H](C)[C@H]1NC(=O)c2coc(n2)[C@H](C(C)C)NC(=O)[C@H]([C@@H](C)O)NC(=O)[C@H](C)NC(=O)c2csc1n2
REMARK SMILES IDX 11 1 13 2 12 3 9 4 10 5 7 6 6 7 8 8 5 10 36 11 35 12 34 13
REMARK SMILES IDX 37 14 33 15 31 16 32 17 30 18 28 20 29 21 3 23 4 24 2 25
REMARK SMILES IDX 1 26 14 27 18 28 19 29 20 30 21 32 25 33 26 34 27 35 22 38
REMARK SMILES IDX 23 39 24 40 15 42 16 43 17 44
REMARK H PARENT 6 9 30 19 18 31 25 36 24 41
REMARK Flexibility Score:   94.900
ROOT
ATOM      1  O   UNL     1      -3.541  -6.795   5.963  1.00  0.00    -0.446 OA
ATOM      2  N   UNL     1      -3.960  -4.768   6.856  1.00  0.00    -0.207 NA
ATOM      3  C   UNL     1      -4.478  -5.882   6.370  1.00  0.00     0.217 A 
ATOM      4  C   UNL     1      -2.593  -4.970   6.787  1.00  0.00     0.167 A 
ATOM      5  C   UNL     1      -2.344  -6.207   6.243  1.00  0.00     0.231 A 
ENDROOT
BRANCH   4   6
ATOM      6  C   UNL     1      -1.621  -3.977   7.211  1.00  0.00     0.273 C 
ATOM      7  N   UNL     1      -0.822  -4.445   8.223  1.00  0.00    -0.341 N 
ATOM      8  O   UNL     1      -1.551  -2.852   6.733  1.00  0.00    -0.267 OA
ATOM      9  H   UNL     1      -1.058  -5.366   8.581  1.00  0.00     0.164 HD
BRANCH   7  10
ATOM     10  C   UNL     1       0.058  -3.591   8.996  1.00  0.00     0.145 C 
BRANCH  10  11
ATOM     11  C   UNL     1      -0.738  -3.063  10.181  1.00  0.00     0.116 A 
ATOM     12  S   UNL     1      -0.117  -1.752  11.111  1.00  0.00    -0.124 S 
ATOM     13  C   UNL     1      -1.519  -1.790  12.088  1.00  0.00     0.101 A 
ATOM     14  N   UNL     1      -1.915  -3.524  10.570  1.00  0.00    -0.234 NA
ATOM     15  C   UNL     1      -2.379  -2.783  11.659  1.00  0.00     0.139 A 
BRANCH  15  16
ATOM     16  C   UNL     1      -3.681  -3.051  12.275  1.00  0.00     0.271 C 
ATOM     17  O   UNL     1      -3.953  -2.722  13.424  1.00  0.00    -0.267 OA
ATOM     18  N   UNL     1      -4.561  -3.704  11.438  1.00  0.00    -0.339 N 
ATOM     19  H   UNL     1      -4.179  -4.021  10.551  1.00  0.00     0.164 HD
BRANCH  18  20
ATOM     20  C   UNL     1      -5.880  -4.113  11.902  1.00  0.00     0.168 CG0
ATOM     21  C   UNL     1      -6.973  -3.196  11.350  1.00  0.00     0.041 C 
ATOM     22  G   UNL     1      -6.229  -5.556  11.502  1.00  0.00     0.000 G0
ENDBRANCH  18  20
ENDBRANCH  15  16
ENDBRANCH  10  11
BRANCH  10  23
ATOM     23  C   UNL     1       1.352  -4.327   9.434  1.00  0.00     0.015 C 
ATOM     24  C   UNL     1       2.604  -3.435   9.388  1.00  0.00     0.010 C 
BRANCH  23  25
ATOM     25  C   UNL     1       1.239  -4.948  10.845  1.00  0.00     0.002 C 
ATOM     26  C   UNL     1       0.531  -6.296  10.872  1.00  0.00     0.004 C 
ENDBRANCH  23  25
ENDBRANCH  10  23
ENDBRANCH   7  10
ENDBRANCH   4   6
BRANCH   3  27
ATOM     27  C   UNL     1      -5.936  -6.199   6.184  1.00  0.00     0.171 C 
BRANCH  27  28
ATOM     28  N   UNL     1      -6.572  -6.162   7.497  1.00  0.00    -0.342 N 
ATOM     29  C   UNL     1      -6.641  -7.259   8.325  1.00  0.00     0.245 C 
ATOM     30  O   UNL     1      -6.158  -8.350   8.026  1.00  0.00    -0.273 OA
ATOM     31  H   UNL     1      -6.893  -5.265   7.860  1.00  0.00     0.164 HD
BRANCH  29  32
ATOM     32  C   UNL     1      -7.236  -6.993   9.724  1.00  0.00     0.200 C 
BRANCH  32  33
ATOM     33  N   UNL     1      -6.730  -5.700  10.202  1.00  0.00    -0.340 N 
ATOM     34  C   UNL     1      -6.226  -5.556  11.478  1.00  0.00     0.243 CG0
ATOM     35  O   UNL     1      -6.236  -6.479  12.289  1.00  0.00    -0.273 OA
ATOM     36  H   UNL     1      -6.737  -4.912   9.565  1.00  0.00     0.164 HD
ATOM     37  G   UNL     1      -5.860  -4.121  11.891  1.00  0.00     0.000 G0
ENDBRANCH  32  33
BRANCH  32  38
ATOM     38  C   UNL     1      -8.780  -7.067   9.706  1.00  0.00     0.143 C 
ATOM     39  C   UNL     1      -9.408  -7.319  11.072  1.00  0.00     0.041 C 
BRANCH  38  40
ATOM     40  O   UNL     1      -9.325  -5.851   9.159  1.00  0.00    -0.391 OA
ATOM     41  H   UNL     1      -9.719  -6.084   8.297  1.00  0.00     0.211 HD
ENDBRANCH  38  40
ENDBRANCH  32  38
ENDBRANCH  29  32
ENDBRANCH  27  28
BRANCH  27  42
ATOM     42  C   UNL     1      -6.722  -5.361   5.147  1.00  0.00     0.015 C 
ATOM     43  C   UNL     1      -7.258  -4.017   5.653  1.00  0.00     0.010 C 
ATOM     44  C   UNL     1      -5.928  -5.162   3.852  1.00  0.00     0.010 C 
ENDBRANCH  27  42
ENDBRANCH   3  27
TORSDOF 5
ENDMDL
MODEL 26
REMARK VINA RESULT:    -5.244      2.637      3.111
REMARK INTER + INTRA:         -11.628
REMARK INTER:                  -9.811
REMARK INTRA:                  -1.818
REMARK UNBOUND:                -2.246
REMARK SMILES CC[C@H](C)[C@H]1NC(=O)c2coc(n2)[C@H](C(C)C)NC(=O)[C@H]([C@@H](C)O)NC(=O)[C@H](C)NC(=O)c2csc1n2
REMARK SMILES IDX 11 1 13 2 12 3 9 4 10 5 7 6 6 7 8 8 5 10 36 11 35 12 34 13
REMARK SMILES IDX 37 14 33 15 31 16 32 17 30 18 28 20 29 21 3 23 4 24 2 25
REMARK SMILES IDX 1 26 14 27 18 28 19 29 20 30 21 32 25 33 26 34 27 35 22 38
REMARK SMILES IDX 23 39 24 40 15 42 16 43 17 44
REMARK H PARENT 6 9 30 19 18 31 25 36 24 41
REMARK Flexibility Score:   94.900
ROOT
ATOM      1  O   UNL     1      -2.953  -1.967   6.735  1.00  0.00    -0.446 OA
ATOM      2  N   UNL     1      -4.840  -2.099   7.961  1.00  0.00    -0.207 NA
ATOM      3  C   UNL     1      -4.295  -2.235   6.765  1.00  0.00     0.217 A 
ATOM      4  C   UNL     1      -3.780  -1.744   8.778  1.00  0.00     0.167 A 
ATOM      5  C   UNL     1      -2.634  -1.665   8.025  1.00  0.00     0.231 A 
ENDROOT
BRANCH   4   6
ATOM      6  C   UNL     1      -3.928  -1.476  10.198  1.00  0.00     0.273 C 
ATOM      7  N   UNL     1      -2.939  -2.076  10.935  1.00  0.00    -0.341 N 
ATOM      8  O   UNL     1      -4.844  -0.814  10.671  1.00  0.00    -0.267 OA
ATOM      9  H   UNL     1      -2.300  -2.670  10.415  1.00  0.00     0.164 HD
BRANCH   7  10
ATOM     10  C   UNL     1      -2.982  -2.180  12.380  1.00  0.00     0.145 C 
BRANCH  10  11
ATOM     11  C   UNL     1      -4.022  -3.233  12.735  1.00  0.00     0.116 A 
ATOM     12  S   UNL     1      -4.598  -3.353  14.355  1.00  0.00    -0.124 S 
ATOM     13  C   UNL     1      -5.643  -4.619  13.882  1.00  0.00     0.101 A 
ATOM     14  N   UNL     1      -4.556  -4.089  11.880  1.00  0.00    -0.234 NA
ATOM     15  C   UNL     1      -5.505  -4.881  12.532  1.00  0.00     0.139 A 
BRANCH  15  16
ATOM     16  C   UNL     1      -6.284  -5.894  11.817  1.00  0.00     0.271 C 
ATOM     17  O   UNL     1      -6.934  -6.761  12.391  1.00  0.00    -0.267 OA
ATOM     18  N   UNL     1      -6.215  -5.775  10.445  1.00  0.00    -0.339 N 
ATOM     19  H   UNL     1      -5.555  -5.087  10.091  1.00  0.00     0.164 HD
BRANCH  18  20
ATOM     20  C   UNL     1      -6.871  -6.737   9.570  1.00  0.00     0.168 CG0
ATOM     21  C   UNL     1      -8.276  -6.270   9.185  1.00  0.00     0.041 C 
ATOM     22  G   UNL     1      -6.088  -6.991   8.272  1.00  0.00     0.000 G0
ENDBRANCH  18  20
ENDBRANCH  15  16
ENDBRANCH  10  11
BRANCH  10  23
ATOM     23  C   UNL     1      -1.589  -2.497  12.986  1.00  0.00     0.015 C 
ATOM     24  C   UNL     1      -1.011  -3.842  12.515  1.00  0.00     0.010 C 
BRANCH  23  25
ATOM     25  C   UNL     1      -0.549  -1.388  12.709  1.00  0.00     0.002 C 
ATOM     26  C   UNL     1       0.680  -1.868  11.950  1.00  0.00     0.004 C 
ENDBRANCH  23  25
ENDBRANCH  10  23
ENDBRANCH   7  10
ENDBRANCH   4   6
BRANCH   3  27
ATOM     27  C   UNL     1      -4.999  -2.588   5.483  1.00  0.00     0.171 C 
BRANCH  27  28
ATOM     28  N   UNL     1      -5.659  -3.875   5.676  1.00  0.00    -0.342 N 
ATOM     29  C   UNL     1      -5.012  -5.079   5.507  1.00  0.00     0.245 C 
ATOM     30  O   UNL     1      -3.825  -5.159   5.196  1.00  0.00    -0.273 OA
ATOM     31  H   UNL     1      -6.609  -3.888   6.045  1.00  0.00     0.164 HD
BRANCH  29  32
ATOM     32  C   UNL     1      -5.837  -6.328   5.881  1.00  0.00     0.200 C 
BRANCH  32  33
ATOM     33  N   UNL     1      -6.401  -6.124   7.221  1.00  0.00    -0.340 N 
ATOM     34  C   UNL     1      -6.093  -6.972   8.264  1.00  0.00     0.243 CG0
ATOM     35  O   UNL     1      -5.389  -7.968   8.107  1.00  0.00    -0.273 OA
ATOM     36  H   UNL     1      -7.010  -5.329   7.375  1.00  0.00     0.164 HD
ATOM     37  G   UNL     1      -6.859  -6.724   9.574  1.00  0.00     0.000 G0
ENDBRANCH  32  33
BRANCH  32  38
ATOM     38  C   UNL     1      -6.913  -6.636   4.814  1.00  0.00     0.143 C 
ATOM     39  C   UNL     1      -6.580  -6.107   3.424  1.00  0.00     0.041 C 
BRANCH  38  40
ATOM     40  O   UNL     1      -7.135  -8.057   4.733  1.00  0.00    -0.391 OA
ATOM     41  H   UNL     1      -6.341  -8.440   4.315  1.00  0.00     0.211 HD
ENDBRANCH  38  40
ENDBRANCH  32  38
ENDBRANCH  29  32
ENDBRANCH  27  28
BRANCH  27  42
ATOM     42  C   UNL     1      -5.966  -1.536   4.887  1.00  0.00     0.015 C 
ATOM     43  C   UNL     1      -5.551  -0.073   5.080  1.00  0.00     0.010 C 
ATOM     44  C   UNL     1      -6.271  -1.810   3.411  1.00  0.00     0.010 C 
ENDBRANCH  27  42
ENDBRANCH   3  27
TORSDOF 5
ENDMDL
MODEL 27
REMARK VINA RESULT:    -5.238      2.606      3.888
REMARK INTER + INTRA:         -11.618
REMARK INTER:                  -9.410
REMARK INTRA:                  -2.208
REMARK UNBOUND:                -2.246
REMARK SMILES CC[C@H](C)[C@H]1NC(=O)c2coc(n2)[C@H](C(C)C)NC(=O)[C@H]([C@@H](C)O)NC(=O)[C@H](C)NC(=O)c2csc1n2
REMARK SMILES IDX 11 1 13 2 12 3 9 4 10 5 7 6 6 7 8 8 5 10 36 11 35 12 34 13
REMARK SMILES IDX 37 14 33 15 31 16 32 17 30 18 28 20 29 21 3 23 4 24 2 25
REMARK SMILES IDX 1 26 14 27 18 28 19 29 20 30 21 32 25 33 26 34 27 35 22 38
REMARK SMILES IDX 23 39 24 40 15 42 16 43 17 44
REMARK H PARENT 6 9 30 19 18 31 25 36 24 41
REMARK Flexibility Score:   94.900
ROOT
ATOM      1  O   UNL     1      -5.268  -4.677   6.612  1.00  0.00    -0.446 OA
ATOM      2  N   UNL     1      -3.634  -5.265   8.049  1.00  0.00    -0.207 NA
ATOM      3  C   UNL     1      -4.736  -5.641   7.426  1.00  0.00     0.217 A 
ATOM      4  C   UNL     1      -3.411  -3.977   7.596  1.00  0.00     0.167 A 
ATOM      5  C   UNL     1      -4.410  -3.624   6.721  1.00  0.00     0.231 A 
ENDROOT
BRANCH   4   6
ATOM      6  C   UNL     1      -2.294  -3.161   8.040  1.00  0.00     0.273 C 
ATOM      7  N   UNL     1      -1.468  -3.850   8.892  1.00  0.00    -0.341 N 
ATOM      8  O   UNL     1      -2.133  -1.993   7.708  1.00  0.00    -0.267 OA
ATOM      9  H   UNL     1      -1.779  -4.782   9.150  1.00  0.00     0.164 HD
BRANCH   7  10
ATOM     10  C   UNL     1      -0.426  -3.212   9.673  1.00  0.00     0.145 C 
BRANCH  10  11
ATOM     11  C   UNL     1      -0.999  -2.916  11.051  1.00  0.00     0.116 A 
ATOM     12  S   UNL     1      -0.196  -1.800  12.090  1.00  0.00    -0.124 S 
ATOM     13  C   UNL     1      -1.417  -2.025  13.264  1.00  0.00     0.101 A 
ATOM     14  N   UNL     1      -2.108  -3.447  11.541  1.00  0.00    -0.234 NA
ATOM     15  C   UNL     1      -2.364  -2.924  12.811  1.00  0.00     0.139 A 
BRANCH  15  16
ATOM     16  C   UNL     1      -3.552  -3.308  13.576  1.00  0.00     0.271 C 
ATOM     17  O   UNL     1      -3.796  -2.863  14.692  1.00  0.00    -0.267 OA
ATOM     18  N   UNL     1      -4.362  -4.210  12.920  1.00  0.00    -0.339 N 
ATOM     19  H   UNL     1      -3.994  -4.586  12.050  1.00  0.00     0.164 HD
BRANCH  18  20
ATOM     20  C   UNL     1      -5.553  -4.756  13.556  1.00  0.00     0.168 CG0
ATOM     21  C   UNL     1      -6.769  -3.855  13.327  1.00  0.00     0.041 C 
ATOM     22  G   UNL     1      -5.908  -6.162  13.045  1.00  0.00     0.000 G0
ENDBRANCH  18  20
ENDBRANCH  15  16
ENDBRANCH  10  11
BRANCH  10  23
ATOM     23  C   UNL     1       0.865  -4.070   9.740  1.00  0.00     0.015 C 
ATOM     24  C   UNL     1       0.918  -5.175   8.672  1.00  0.00     0.010 C 
BRANCH  23  25
ATOM     25  C   UNL     1       2.153  -3.222   9.640  1.00  0.00     0.002 C 
ATOM     26  C   UNL     1       3.123  -3.432  10.794  1.00  0.00     0.004 C 
ENDBRANCH  23  25
ENDBRANCH  10  23
ENDBRANCH   7  10
ENDBRANCH   4   6
BRANCH   3  27
ATOM     27  C   UNL     1      -5.454  -6.956   7.567  1.00  0.00     0.171 C 
BRANCH  27  28
ATOM     28  N   UNL     1      -6.182  -6.934   8.831  1.00  0.00    -0.342 N 
ATOM     29  C   UNL     1      -5.935  -7.825   9.851  1.00  0.00     0.245 C 
ATOM     30  O   UNL     1      -5.071  -8.698   9.777  1.00  0.00    -0.273 OA
ATOM     31  H   UNL     1      -6.832  -6.169   9.009  1.00  0.00     0.164 HD
BRANCH  29  32
ATOM     32  C   UNL     1      -6.713  -7.565  11.158  1.00  0.00     0.200 C 
BRANCH  32  33
ATOM     33  N   UNL     1      -6.258  -6.286  11.717  1.00  0.00    -0.340 N 
ATOM     34  C   UNL     1      -5.889  -6.175  13.042  1.00  0.00     0.243 CG0
ATOM     35  O   UNL     1      -5.984  -7.118  13.824  1.00  0.00    -0.273 OA
ATOM     36  H   UNL     1      -6.199  -5.482  11.104  1.00  0.00     0.164 HD
ATOM     37  G   UNL     1      -5.567  -4.752  13.527  1.00  0.00     0.000 G0
ENDBRANCH  32  33
BRANCH  32  38
ATOM     38  C   UNL     1      -8.241  -7.612  10.925  1.00  0.00     0.143 C 
ATOM     39  C   UNL     1      -8.900  -6.240  10.841  1.00  0.00     0.041 C 
BRANCH  38  40
ATOM     40  O   UNL     1      -8.533  -8.346   9.720  1.00  0.00    -0.391 OA
ATOM     41  H   UNL     1      -8.449  -7.714   8.981  1.00  0.00     0.211 HD
ENDBRANCH  38  40
ENDBRANCH  32  38
ENDBRANCH  29  32
ENDBRANCH  27  28
BRANCH  27  42
ATOM     42  C   UNL     1      -6.363  -7.402   6.395  1.00  0.00     0.015 C 
ATOM     43  C   UNL     1      -5.669  -7.533   5.034  1.00  0.00     0.010 C 
ATOM     44  C   UNL     1      -7.134  -8.684   6.724  1.00  0.00     0.010 C 
ENDBRANCH  27  42
ENDBRANCH   3  27
TORSDOF 5
ENDMDL
MODEL 28
REMARK VINA RESULT:    -5.222      4.581      7.091
REMARK INTER + INTRA:         -11.588
REMARK INTER:                  -9.294
REMARK INTRA:                  -2.295
REMARK UNBOUND:                -2.246
REMARK SMILES CC[C@H](C)[C@H]1NC(=O)c2coc(n2)[C@H](C(C)C)NC(=O)[C@H]([C@@H](C)O)NC(=O)[C@H](C)NC(=O)c2csc1n2
REMARK SMILES IDX 11 1 13 2 12 3 9 4 10 5 7 6 6 7 8 8 5 10 36 11 35 12 34 13
REMARK SMILES IDX 37 14 33 15 31 16 32 17 30 18 28 20 29 21 3 23 4 24 2 25
REMARK SMILES IDX 1 26 14 27 18 28 19 29 20 30 21 32 25 33 26 34 27 35 22 38
REMARK SMILES IDX 23 39 24 40 15 42 16 43 17 44
REMARK H PARENT 6 9 30 19 18 31 25 36 24 41
REMARK Flexibility Score:   94.900
ROOT
ATOM      1  O   UNL     1     -10.048  -0.893  10.016  1.00  0.00    -0.446 OA
ATOM      2  N   UNL     1      -8.008  -1.395  10.835  1.00  0.00    -0.207 NA
ATOM      3  C   UNL     1      -9.313  -1.440  11.035  1.00  0.00     0.217 A 
ATOM      4  C   UNL     1      -7.876  -0.804   9.591  1.00  0.00     0.167 A 
ATOM      5  C   UNL     1      -9.121  -0.501   9.097  1.00  0.00     0.231 A 
ENDROOT
BRANCH   4   6
ATOM      6  C   UNL     1      -6.589  -0.540   8.970  1.00  0.00     0.273 C 
ATOM      7  N   UNL     1      -6.496  -1.112   7.727  1.00  0.00    -0.341 N 
ATOM      8  O   UNL     1      -5.693   0.095   9.512  1.00  0.00    -0.267 OA
ATOM      9  H   UNL     1      -7.285  -1.688   7.447  1.00  0.00     0.164 HD
BRANCH   7  10
ATOM     10  C   UNL     1      -5.249  -1.218   6.995  1.00  0.00     0.145 C 
BRANCH  10  11
ATOM     11  C   UNL     1      -4.574  -2.514   7.420  1.00  0.00     0.116 A 
ATOM     12  S   UNL     1      -2.893  -2.742   7.115  1.00  0.00    -0.124 S 
ATOM     13  C   UNL     1      -2.971  -4.272   7.874  1.00  0.00     0.101 A 
ATOM     14  N   UNL     1      -5.178  -3.516   8.038  1.00  0.00    -0.234 NA
ATOM     15  C   UNL     1      -4.255  -4.526   8.318  1.00  0.00     0.139 A 
BRANCH  15  16
ATOM     16  C   UNL     1      -4.640  -5.744   9.034  1.00  0.00     0.271 C 
ATOM     17  O   UNL     1      -4.026  -6.800   8.928  1.00  0.00    -0.267 OA
ATOM     18  N   UNL     1      -5.752  -5.584   9.834  1.00  0.00    -0.339 N 
ATOM     19  H   UNL     1      -6.235  -4.694   9.750  1.00  0.00     0.164 HD
BRANCH  18  20
ATOM     20  C   UNL     1      -6.320  -6.706  10.569  1.00  0.00     0.168 CG0
ATOM     21  C   UNL     1      -5.836  -6.723  12.021  1.00  0.00     0.041 C 
ATOM     22  G   UNL     1      -7.857  -6.687  10.586  1.00  0.00     0.000 G0
ENDBRANCH  18  20
ENDBRANCH  15  16
ENDBRANCH  10  11
BRANCH  10  23
ATOM     23  C   UNL     1      -5.462  -1.137   5.460  1.00  0.00     0.015 C 
ATOM     24  C   UNL     1      -6.142  -2.385   4.873  1.00  0.00     0.010 C 
BRANCH  23  25
ATOM     25  C   UNL     1      -6.265   0.112   5.032  1.00  0.00     0.002 C 
ATOM     26  C   UNL     1      -5.846   0.686   3.686  1.00  0.00     0.004 C 
ENDBRANCH  23  25
ENDBRANCH  10  23
ENDBRANCH   7  10
ENDBRANCH   4   6
BRANCH   3  27
ATOM     27  C   UNL     1     -10.027  -1.965  12.250  1.00  0.00     0.171 C 
BRANCH  27  28
ATOM     28  N   UNL     1      -9.773  -3.399  12.333  1.00  0.00    -0.342 N 
ATOM     29  C   UNL     1     -10.396  -4.317  11.518  1.00  0.00     0.245 C 
ATOM     30  O   UNL     1     -11.203  -3.994  10.648  1.00  0.00    -0.273 OA
ATOM     31  H   UNL     1      -9.033  -3.730  12.951  1.00  0.00     0.164 HD
BRANCH  29  32
ATOM     32  C   UNL     1      -9.903  -5.772  11.666  1.00  0.00     0.200 C 
BRANCH  32  33
ATOM     33  N   UNL     1      -8.450  -5.789  11.457  1.00  0.00    -0.340 N 
ATOM     34  C   UNL     1      -7.862  -6.689  10.592  1.00  0.00     0.243 CG0
ATOM     35  O   UNL     1      -8.515  -7.552  10.009  1.00  0.00    -0.273 OA
ATOM     36  H   UNL     1      -7.881  -5.109  11.947  1.00  0.00     0.164 HD
ATOM     37  G   UNL     1      -6.324  -6.688  10.573  1.00  0.00     0.000 G0
ENDBRANCH  32  33
BRANCH  32  38
ATOM     38  C   UNL     1     -10.324  -6.376  13.025  1.00  0.00     0.143 C 
ATOM     39  C   UNL     1      -9.251  -6.289  14.104  1.00  0.00     0.041 C 
BRANCH  38  40
ATOM     40  O   UNL     1     -11.520  -5.731  13.502  1.00  0.00    -0.391 OA
ATOM     41  H   UNL     1     -11.422  -5.639  14.469  1.00  0.00     0.211 HD
ENDBRANCH  38  40
ENDBRANCH  32  38
ENDBRANCH  29  32
ENDBRANCH  27  28
BRANCH  27  42
ATOM     42  C   UNL     1      -9.751  -1.258  13.600  1.00  0.00     0.015 C 
ATOM     43  C   UNL     1     -10.993  -0.816  14.382  1.00  0.00     0.010 C 
ATOM     44  C   UNL     1      -8.823  -2.082  14.499  1.00  0.00     0.010 C 
ENDBRANCH  27  42
ENDBRANCH   3  27
TORSDOF 5
ENDMDL
MODEL 29
REMARK VINA RESULT:    -5.052      4.019      6.379
REMARK INTER + INTRA:         -11.285
REMARK INTER:                  -9.111
REMARK INTRA:                  -2.175
REMARK UNBOUND:                -2.246
REMARK SMILES CC[C@H](C)[C@H]1NC(=O)c2coc(n2)[C@H](C(C)C)NC(=O)[C@H]([C@@H](C)O)NC(=O)[C@H](C)NC(=O)c2csc1n2
REMARK SMILES IDX 11 1 13 2 12 3 9 4 10 5 7 6 6 7 8 8 5 10 36 11 35 12 34 13
REMARK SMILES IDX 37 14 33 15 31 16 32 17 30 18 28 20 29 21 3 23 4 24 2 25
REMARK SMILES IDX 1 26 14 27 18 28 19 29 20 30 21 32 25 33 26 34 27 35 22 38
REMARK SMILES IDX 23 39 24 40 15 42 16 43 17 44
REMARK H PARENT 6 9 30 19 18 31 25 36 24 41
REMARK Flexibility Score:   94.900
ROOT
ATOM      1  O   UNL     1      -7.767  -1.639   7.199  1.00  0.00    -0.446 OA
ATOM      2  N   UNL     1      -7.976  -3.530   8.407  1.00  0.00    -0.207 NA
ATOM      3  C   UNL     1      -7.416  -2.952   7.359  1.00  0.00     0.217 A 
ATOM      4  C   UNL     1      -8.725  -2.523   8.990  1.00  0.00     0.167 A 
ATOM      5  C   UNL     1      -8.593  -1.373   8.250  1.00  0.00     0.231 A 
ENDROOT
BRANCH   4   6
ATOM      6  C   UNL     1      -9.532  -2.722  10.181  1.00  0.00     0.273 C 
ATOM      7  N   UNL     1      -8.761  -2.786  11.314  1.00  0.00    -0.341 N 
ATOM      8  O   UNL     1     -10.751  -2.842  10.162  1.00  0.00    -0.267 OA
ATOM      9  H   UNL     1      -7.756  -2.763  11.165  1.00  0.00     0.164 HD
BRANCH   7  10
ATOM     10  C   UNL     1      -9.274  -3.221  12.598  1.00  0.00     0.145 C 
BRANCH  10  11
ATOM     11  C   UNL     1      -8.566  -4.518  12.962  1.00  0.00     0.116 A 
ATOM     12  S   UNL     1      -9.237  -5.549  14.169  1.00  0.00    -0.124 S 
ATOM     13  C   UNL     1      -7.960  -6.657  13.922  1.00  0.00     0.101 A 
ATOM     14  N   UNL     1      -7.447  -4.953  12.406  1.00  0.00    -0.234 NA
ATOM     15  C   UNL     1      -7.101  -6.195  12.944  1.00  0.00     0.139 A 
BRANCH  15  16
ATOM     16  C   UNL     1      -5.922  -6.931  12.484  1.00  0.00     0.271 C 
ATOM     17  O   UNL     1      -5.282  -7.684  13.210  1.00  0.00    -0.267 OA
ATOM     18  N   UNL     1      -5.607  -6.696  11.162  1.00  0.00    -0.339 N 
ATOM     19  H   UNL     1      -6.146  -5.969  10.699  1.00  0.00     0.164 HD
BRANCH  18  20
ATOM     20  C   UNL     1      -4.426  -7.290  10.550  1.00  0.00     0.168 CG0
ATOM     21  C   UNL     1      -4.809  -8.316   9.481  1.00  0.00     0.041 C 
ATOM     22  G   UNL     1      -3.508  -6.247   9.893  1.00  0.00     0.000 G0
ENDBRANCH  18  20
ENDBRANCH  15  16
ENDBRANCH  10  11
BRANCH  10  23
ATOM     23  C   UNL     1      -9.114  -2.133  13.693  1.00  0.00     0.015 C 
ATOM     24  C   UNL     1      -7.667  -1.976  14.187  1.00  0.00     0.010 C 
BRANCH  23  25
ATOM     25  C   UNL     1      -9.636  -0.750  13.242  1.00  0.00     0.002 C 
ATOM     26  C   UNL     1     -11.146  -0.688  13.058  1.00  0.00     0.004 C 
ENDBRANCH  23  25
ENDBRANCH  10  23
ENDBRANCH   7  10
ENDBRANCH   4   6
BRANCH   3  27
ATOM     27  C   UNL     1      -6.512  -3.596   6.344  1.00  0.00     0.171 C 
BRANCH  27  28
ATOM     28  N   UNL     1      -5.463  -4.308   7.068  1.00  0.00    -0.342 N 
ATOM     29  C   UNL     1      -4.132  -3.968   6.981  1.00  0.00     0.245 C 
ATOM     30  O   UNL     1      -3.729  -3.028   6.298  1.00  0.00    -0.273 OA
ATOM     31  H   UNL     1      -5.733  -5.024   7.742  1.00  0.00     0.164 HD
BRANCH  29  32
ATOM     32  C   UNL     1      -3.188  -4.752   7.917  1.00  0.00     0.200 C 
BRANCH  32  33
ATOM     33  N   UNL     1      -3.996  -5.692   8.704  1.00  0.00    -0.340 N 
ATOM     34  C   UNL     1      -3.527  -6.223   9.888  1.00  0.00     0.243 CG0
ATOM     35  O   UNL     1      -2.395  -5.985  10.303  1.00  0.00    -0.273 OA
ATOM     36  H   UNL     1      -4.923  -5.932   8.371  1.00  0.00     0.164 HD
ATOM     37  G   UNL     1      -4.416  -7.297  10.535  1.00  0.00     0.000 G0
ENDBRANCH  32  33
BRANCH  32  38
ATOM     38  C   UNL     1      -2.055  -5.446   7.126  1.00  0.00     0.143 C 
ATOM     39  C   UNL     1      -2.545  -6.413   6.056  1.00  0.00     0.041 C 
BRANCH  38  40
ATOM     40  O   UNL     1      -1.208  -4.457   6.510  1.00  0.00    -0.391 OA
ATOM     41  H   UNL     1      -1.311  -4.563   5.545  1.00  0.00     0.211 HD
ENDBRANCH  38  40
ENDBRANCH  32  38
ENDBRANCH  29  32
ENDBRANCH  27  28
BRANCH  27  42
ATOM     42  C   UNL     1      -7.171  -4.494   5.269  1.00  0.00     0.015 C 
ATOM     43  C   UNL     1      -6.202  -5.281   4.379  1.00  0.00     0.010 C 
ATOM     44  C   UNL     1      -8.221  -5.434   5.872  1.00  0.00     0.010 C 
ENDBRANCH  27  42
ENDBRANCH   3  27
TORSDOF 5
ENDMDL
MODEL 30
REMARK VINA RESULT:    -5.021      3.943      7.553
REMARK INTER + INTRA:         -11.230
REMARK INTER:                  -8.695
REMARK INTRA:                  -2.535
REMARK UNBOUND:                -2.246
REMARK SMILES CC[C@H](C)[C@H]1NC(=O)c2coc(n2)[C@H](C(C)C)NC(=O)[C@H]([C@@H](C)O)NC(=O)[C@H](C)NC(=O)c2csc1n2
REMARK SMILES IDX 11 1 13 2 12 3 9 4 10 5 7 6 6 7 8 8 5 10 36 11 35 12 34 13
REMARK SMILES IDX 37 14 33 15 31 16 32 17 30 18 28 20 29 21 3 23 4 24 2 25
REMARK SMILES IDX 1 26 14 27 18 28 19 29 20 30 21 32 25 33 26 34 27 35 22 38
REMARK SMILES IDX 23 39 24 40 15 42 16 43 17 44
REMARK H PARENT 6 9 30 19 18 31 25 36 24 41
REMARK Flexibility Score:   94.900
ROOT
ATOM      1  O   UNL     1      -3.062  -0.752  10.427  1.00  0.00    -0.446 OA
ATOM      2  N   UNL     1      -4.539  -1.986  11.602  1.00  0.00    -0.207 NA
ATOM      3  C   UNL     1      -3.270  -1.660  11.432  1.00  0.00     0.217 A 
ATOM      4  C   UNL     1      -5.214  -1.223  10.665  1.00  0.00     0.167 A 
ATOM      5  C   UNL     1      -4.309  -0.473   9.954  1.00  0.00     0.231 A 
ENDROOT
BRANCH   4   6
ATOM      6  C   UNL     1      -6.654  -1.275  10.488  1.00  0.00     0.273 C 
ATOM      7  N   UNL     1      -7.242  -2.165  11.351  1.00  0.00    -0.341 N 
ATOM      8  O   UNL     1      -7.258  -0.619   9.647  1.00  0.00    -0.267 OA
ATOM      9  H   UNL     1      -6.604  -2.706  11.928  1.00  0.00     0.164 HD
BRANCH   7  10
ATOM     10  C   UNL     1      -8.620  -2.596  11.227  1.00  0.00     0.145 C 
BRANCH  10  11
ATOM     11  C   UNL     1      -8.617  -4.110  11.070  1.00  0.00     0.116 A 
ATOM     12  S   UNL     1     -10.069  -5.000  11.330  1.00  0.00    -0.124 S 
ATOM     13  C   UNL     1      -9.245  -6.445  10.939  1.00  0.00     0.101 A 
ATOM     14  N   UNL     1      -7.564  -4.833  10.725  1.00  0.00    -0.234 NA
ATOM     15  C   UNL     1      -7.924  -6.180  10.631  1.00  0.00     0.139 A 
BRANCH  15  16
ATOM     16  C   UNL     1      -6.962  -7.208  10.228  1.00  0.00     0.271 C 
ATOM     17  O   UNL     1      -7.288  -8.363   9.978  1.00  0.00    -0.267 OA
ATOM     18  N   UNL     1      -5.663  -6.749  10.157  1.00  0.00    -0.339 N 
ATOM     19  H   UNL     1      -5.507  -5.803  10.496  1.00  0.00     0.164 HD
BRANCH  18  20
ATOM     20  C   UNL     1      -4.562  -7.647   9.838  1.00  0.00     0.168 CG0
ATOM     21  C   UNL     1      -4.038  -7.404   8.421  1.00  0.00     0.041 C 
ATOM     22  G   UNL     1      -3.378  -7.504  10.808  1.00  0.00     0.000 G0
ENDBRANCH  18  20
ENDBRANCH  15  16
ENDBRANCH  10  11
BRANCH  10  23
ATOM     23  C   UNL     1      -9.491  -2.128  12.423  1.00  0.00     0.015 C 
ATOM     24  C   UNL     1      -8.665  -1.602  13.609  1.00  0.00     0.010 C 
BRANCH  23  25
ATOM     25  C   UNL     1     -10.526  -1.051  12.024  1.00  0.00     0.002 C 
ATOM     26  C   UNL     1      -9.915   0.309  11.716  1.00  0.00     0.004 C 
ENDBRANCH  23  25
ENDBRANCH  10  23
ENDBRANCH   7  10
ENDBRANCH   4   6
BRANCH   3  27
ATOM     27  C   UNL     1      -2.084  -2.213  12.173  1.00  0.00     0.171 C 
BRANCH  27  28
ATOM     28  N   UNL     1      -1.834  -3.561  11.674  1.00  0.00    -0.342 N 
ATOM     29  C   UNL     1      -1.780  -4.664  12.496  1.00  0.00     0.245 C 
ATOM     30  O   UNL     1      -1.954  -4.597  13.712  1.00  0.00    -0.273 OA
ATOM     31  H   UNL     1      -1.795  -3.711  10.667  1.00  0.00     0.164 HD
BRANCH  29  32
ATOM     32  C   UNL     1      -1.636  -6.020  11.773  1.00  0.00     0.200 C 
BRANCH  32  33
ATOM     33  N   UNL     1      -2.844  -6.245  10.970  1.00  0.00    -0.340 N 
ATOM     34  C   UNL     1      -3.374  -7.509  10.813  1.00  0.00     0.243 CG0
ATOM     35  O   UNL     1      -2.827  -8.506  11.281  1.00  0.00    -0.273 OA
ATOM     36  H   UNL     1      -3.301  -5.446  10.547  1.00  0.00     0.164 HD
ATOM     37  G   UNL     1      -4.557  -7.620   9.838  1.00  0.00     0.000 G0
ENDBRANCH  32  33
BRANCH  32  38
ATOM     38  C   UNL     1      -0.337  -6.078  10.935  1.00  0.00     0.143 C 
ATOM     39  C   UNL     1      -0.493  -5.568   9.507  1.00  0.00     0.041 C 
BRANCH  38  40
ATOM     40  O   UNL     1       0.705  -5.326  11.588  1.00  0.00    -0.391 OA
ATOM     41  H   UNL     1       1.551  -5.644  11.221  1.00  0.00     0.211 HD
ENDBRANCH  38  40
ENDBRANCH  32  38
ENDBRANCH  29  32
ENDBRANCH  27  28
BRANCH  27  42
ATOM     42  C   UNL     1      -0.791  -1.362  12.187  1.00  0.00     0.015 C 
ATOM     43  C   UNL     1      -0.130  -1.185  13.559  1.00  0.00     0.010 C 
ATOM     44  C   UNL     1       0.235  -1.863  11.165  1.00  0.00     0.010 C 
ENDBRANCH  27  42
ENDBRANCH   3  27
TORSDOF 5
ENDMDL
MODEL 31
REMARK VINA RESULT:    -5.013      4.311      6.399
REMARK INTER + INTRA:         -11.215
REMARK INTER:                  -9.128
REMARK INTRA:                  -2.087
REMARK UNBOUND:                -2.246
REMARK SMILES CC[C@H](C)[C@H]1NC(=O)c2coc(n2)[C@H](C(C)C)NC(=O)[C@H]([C@@H](C)O)NC(=O)[C@H](C)NC(=O)c2csc1n2
REMARK SMILES IDX 11 1 13 2 12 3 9 4 10 5 7 6 6 7 8 8 5 10 36 11 35 12 34 13
REMARK SMILES IDX 37 14 33 15 31 16 32 17 30 18 28 20 29 21 3 23 4 24 2 25
REMARK SMILES IDX 1 26 14 27 18 28 19 29 20 30 21 32 25 33 26 34 27 35 22 38
REMARK SMILES IDX 23 39 24 40 15 42 16 43 17 44
REMARK H PARENT 6 9 30 19 18 31 25 36 24 41
REMARK Flexibility Score:   94.900
ROOT
ATOM      1  O   UNL     1      -5.668  -0.171   8.694  1.00  0.00    -0.446 OA
ATOM      2  N   UNL     1      -7.343  -1.667   8.502  1.00  0.00    -0.207 NA
ATOM      3  C   UNL     1      -6.221  -1.201   7.982  1.00  0.00     0.217 A 
ATOM      4  C   UNL     1      -7.525  -0.911   9.647  1.00  0.00     0.167 A 
ATOM      5  C   UNL     1      -6.501  -0.002   9.758  1.00  0.00     0.231 A 
ENDROOT
BRANCH   4   6
ATOM      6  C   UNL     1      -8.662  -1.079  10.535  1.00  0.00     0.273 C 
ATOM      7  N   UNL     1      -8.279  -1.521  11.776  1.00  0.00    -0.341 N 
ATOM      8  O   UNL     1      -9.822  -0.872  10.199  1.00  0.00    -0.267 OA
ATOM      9  H   UNL     1      -7.292  -1.737  11.881  1.00  0.00     0.164 HD
BRANCH   7  10
ATOM     10  C   UNL     1      -9.217  -2.004  12.770  1.00  0.00     0.145 C 
BRANCH  10  11
ATOM     11  C   UNL     1      -9.482  -3.473  12.476  1.00  0.00     0.116 A 
ATOM     12  S   UNL     1     -10.819  -4.266  13.221  1.00  0.00    -0.124 S 
ATOM     13  C   UNL     1     -10.423  -5.703  12.385  1.00  0.00     0.101 A 
ATOM     14  N   UNL     1      -8.762  -4.225  11.660  1.00  0.00    -0.234 NA
ATOM     15  C   UNL     1      -9.310  -5.509  11.589  1.00  0.00     0.139 A 
BRANCH  15  16
ATOM     16  C   UNL     1      -8.736  -6.544  10.727  1.00  0.00     0.271 C 
ATOM     17  O   UNL     1      -8.987  -7.737  10.863  1.00  0.00    -0.267 OA
ATOM     18  N   UNL     1      -7.894  -6.047   9.755  1.00  0.00    -0.339 N 
ATOM     19  H   UNL     1      -7.680  -5.055   9.817  1.00  0.00     0.164 HD
BRANCH  18  20
ATOM     20  C   UNL     1      -7.180  -6.936   8.849  1.00  0.00     0.168 CG0
ATOM     21  C   UNL     1      -7.886  -7.035   7.495  1.00  0.00     0.041 C 
ATOM     22  G   UNL     1      -5.732  -6.486   8.593  1.00  0.00     0.000 G0
ENDBRANCH  18  20
ENDBRANCH  15  16
ENDBRANCH  10  11
BRANCH  10  23
ATOM     23  C   UNL     1      -8.709  -1.772  14.218  1.00  0.00     0.015 C 
ATOM     24  C   UNL     1      -9.837  -1.462  15.216  1.00  0.00     0.010 C 
BRANCH  23  25
ATOM     25  C   UNL     1      -7.883  -2.961  14.759  1.00  0.00     0.002 C 
ATOM     26  C   UNL     1      -7.106  -2.646  16.030  1.00  0.00     0.004 C 
ENDBRANCH  23  25
ENDBRANCH  10  23
ENDBRANCH   7  10
ENDBRANCH   4   6
BRANCH   3  27
ATOM     27  C   UNL     1      -5.560  -1.646   6.706  1.00  0.00     0.171 C 
BRANCH  27  28
ATOM     28  N   UNL     1      -5.393  -3.094   6.771  1.00  0.00    -0.342 N 
ATOM     29  C   UNL     1      -4.163  -3.699   6.898  1.00  0.00     0.245 C 
ATOM     30  O   UNL     1      -3.114  -3.063   6.982  1.00  0.00    -0.273 OA
ATOM     31  H   UNL     1      -6.224  -3.681   6.823  1.00  0.00     0.164 HD
BRANCH  29  32
ATOM     32  C   UNL     1      -4.197  -5.231   7.080  1.00  0.00     0.200 C 
BRANCH  32  33
ATOM     33  N   UNL     1      -5.543  -5.612   7.527  1.00  0.00    -0.340 N 
ATOM     34  C   UNL     1      -5.727  -6.488   8.577  1.00  0.00     0.243 CG0
ATOM     35  O   UNL     1      -4.781  -7.036   9.140  1.00  0.00    -0.273 OA
ATOM     36  H   UNL     1      -6.343  -5.200   7.062  1.00  0.00     0.164 HD
ATOM     37  G   UNL     1      -7.181  -6.905   8.849  1.00  0.00     0.000 G0
ENDBRANCH  32  33
BRANCH  32  38
ATOM     38  C   UNL     1      -3.761  -5.964   5.790  1.00  0.00     0.143 C 
ATOM     39  C   UNL     1      -4.612  -7.180   5.447  1.00  0.00     0.041 C 
BRANCH  38  40
ATOM     40  O   UNL     1      -3.778  -5.051   4.675  1.00  0.00    -0.391 OA
ATOM     41  H   UNL     1      -3.107  -4.368   4.863  1.00  0.00     0.211 HD
ENDBRANCH  38  40
ENDBRANCH  32  38
ENDBRANCH  29  32
ENDBRANCH  27  28
BRANCH  27  42
ATOM     42  C   UNL     1      -6.214  -1.207   5.373  1.00  0.00     0.015 C 
ATOM     43  C   UNL     1      -6.031   0.269   5.001  1.00  0.00     0.010 C 
ATOM     44  C   UNL     1      -5.793  -2.106   4.205  1.00  0.00     0.010 C 
ENDBRANCH  27  42
ENDBRANCH   3  27
TORSDOF 5
ENDMDL
MODEL 32
REMARK VINA RESULT:    -4.966      2.446      3.055
REMARK INTER + INTRA:         -11.132
REMARK INTER:                  -8.815
REMARK INTRA:                  -2.317
REMARK UNBOUND:                -2.246
REMARK SMILES CC[C@H](C)[C@H]1NC(=O)c2coc(n2)[C@H](C(C)C)NC(=O)[C@H]([C@@H](C)O)NC(=O)[C@H](C)NC(=O)c2csc1n2
REMARK SMILES IDX 11 1 13 2 12 3 9 4 10 5 7 6 6 7 8 8 5 10 36 11 35 12 34 13
REMARK SMILES IDX 37 14 33 15 31 16 32 17 30 18 28 20 29 21 3 23 4 24 2 25
REMARK SMILES IDX 1 26 14 27 18 28 19 29 20 30 21 32 25 33 26 34 27 35 22 38
REMARK SMILES IDX 23 39 24 40 15 42 16 43 17 44
REMARK H PARENT 6 9 30 19 18 31 25 36 24 41
REMARK Flexibility Score:   94.900
ROOT
ATOM      1  O   UNL     1      -4.072  -3.349   6.001  1.00  0.00    -0.446 OA
ATOM      2  N   UNL     1      -4.710  -3.571   8.151  1.00  0.00    -0.207 NA
ATOM      3  C   UNL     1      -4.820  -4.036   6.919  1.00  0.00     0.217 A 
ATOM      4  C   UNL     1      -3.809  -2.526   8.040  1.00  0.00     0.167 A 
ATOM      5  C   UNL     1      -3.424  -2.397   6.728  1.00  0.00     0.231 A 
ENDROOT
BRANCH   4   6
ATOM      6  C   UNL     1      -3.400  -1.708   9.169  1.00  0.00     0.273 C 
ATOM      7  N   UNL     1      -2.253  -2.184   9.753  1.00  0.00    -0.341 N 
ATOM      8  O   UNL     1      -4.024  -0.729   9.558  1.00  0.00    -0.267 OA
ATOM      9  H   UNL     1      -1.898  -3.059   9.379  1.00  0.00     0.164 HD
BRANCH   7  10
ATOM     10  C   UNL     1      -1.764  -1.714  11.034  1.00  0.00     0.145 C 
BRANCH  10  11
ATOM     11  C   UNL     1      -2.255  -2.683  12.099  1.00  0.00     0.116 A 
ATOM     12  S   UNL     1      -2.744  -2.085  13.640  1.00  0.00    -0.124 S 
ATOM     13  C   UNL     1      -3.138  -3.676  14.124  1.00  0.00     0.101 A 
ATOM     14  N   UNL     1      -2.360  -3.993  11.942  1.00  0.00    -0.234 NA
ATOM     15  C   UNL     1      -2.885  -4.569  13.101  1.00  0.00     0.139 A 
BRANCH  15  16
ATOM     16  C   UNL     1      -3.144  -6.008  13.196  1.00  0.00     0.271 C 
ATOM     17  O   UNL     1      -2.303  -6.811  13.584  1.00  0.00    -0.267 OA
ATOM     18  N   UNL     1      -4.419  -6.364  12.810  1.00  0.00    -0.339 N 
ATOM     19  H   UNL     1      -4.984  -5.622  12.404  1.00  0.00     0.164 HD
BRANCH  18  20
ATOM     20  C   UNL     1      -4.835  -7.760  12.774  1.00  0.00     0.168 CG0
ATOM     21  C   UNL     1      -5.556  -8.158  14.063  1.00  0.00     0.041 C 
ATOM     22  G   UNL     1      -5.771  -8.071  11.595  1.00  0.00     0.000 G0
ENDBRANCH  18  20
ENDBRANCH  15  16
ENDBRANCH  10  11
BRANCH  10  23
ATOM     23  C   UNL     1      -0.220  -1.552  11.048  1.00  0.00     0.015 C 
ATOM     24  C   UNL     1       0.369  -1.461  12.465  1.00  0.00     0.010 C 
BRANCH  23  25
ATOM     25  C   UNL     1       0.506  -2.681  10.282  1.00  0.00     0.002 C 
ATOM     26  C   UNL     1       1.242  -3.664  11.182  1.00  0.00     0.004 C 
ENDBRANCH  23  25
ENDBRANCH  10  23
ENDBRANCH   7  10
ENDBRANCH   4   6
BRANCH   3  27
ATOM     27  C   UNL     1      -5.696  -5.165   6.451  1.00  0.00     0.171 C 
BRANCH  27  28
ATOM     28  N   UNL     1      -6.375  -5.717   7.619  1.00  0.00    -0.342 N 
ATOM     29  C   UNL     1      -6.044  -6.935   8.170  1.00  0.00     0.245 C 
ATOM     30  O   UNL     1      -5.139  -7.641   7.727  1.00  0.00    -0.273 OA
ATOM     31  H   UNL     1      -7.057  -5.138   8.108  1.00  0.00     0.164 HD
BRANCH  29  32
ATOM     32  C   UNL     1      -6.784  -7.291   9.477  1.00  0.00     0.200 C 
BRANCH  32  33
ATOM     33  N   UNL     1      -5.842  -7.145  10.594  1.00  0.00    -0.340 N 
ATOM     34  C   UNL     1      -5.768  -8.091  11.595  1.00  0.00     0.243 CG0
ATOM     35  O   UNL     1      -6.526  -9.059  11.632  1.00  0.00    -0.273 OA
ATOM     36  H   UNL     1      -5.226  -6.342  10.607  1.00  0.00     0.164 HD
ATOM     37  G   UNL     1      -4.840  -7.746  12.771  1.00  0.00     0.000 G0
ENDBRANCH  32  33
BRANCH  32  38
ATOM     38  C   UNL     1      -8.063  -6.440   9.652  1.00  0.00     0.143 C 
ATOM     39  C   UNL     1      -9.125  -7.086  10.534  1.00  0.00     0.041 C 
BRANCH  38  40
ATOM     40  O   UNL     1      -7.725  -5.149  10.196  1.00  0.00    -0.391 OA
ATOM     41  H   UNL     1      -8.366  -4.513   9.825  1.00  0.00     0.211 HD
ENDBRANCH  38  40
ENDBRANCH  32  38
ENDBRANCH  29  32
ENDBRANCH  27  28
BRANCH  27  42
ATOM     42  C   UNL     1      -6.691  -4.868   5.302  1.00  0.00     0.015 C 
ATOM     43  C   UNL     1      -6.398  -5.576   3.975  1.00  0.00     0.010 C 
ATOM     44  C   UNL     1      -8.143  -5.110   5.725  1.00  0.00     0.010 C 
ENDBRANCH  27  42
ENDBRANCH   3  27
TORSDOF 5
ENDMDL
MODEL 33
REMARK VINA RESULT:    -4.943      3.848      6.694
REMARK INTER + INTRA:         -11.090
REMARK INTER:                  -9.009
REMARK INTRA:                  -2.081
REMARK UNBOUND:                -2.246
REMARK SMILES CC[C@H](C)[C@H]1NC(=O)c2coc(n2)[C@H](C(C)C)NC(=O)[C@H]([C@@H](C)O)NC(=O)[C@H](C)NC(=O)c2csc1n2
REMARK SMILES IDX 11 1 13 2 12 3 9 4 10 5 7 6 6 7 8 8 5 10 36 11 35 12 34 13
REMARK SMILES IDX 37 14 33 15 31 16 32 17 30 18 28 20 29 21 3 23 4 24 2 25
REMARK SMILES IDX 1 26 14 27 18 28 19 29 20 30 21 32 25 33 26 34 27 35 22 38
REMARK SMILES IDX 23 39 24 40 15 42 16 43 17 44
REMARK H PARENT 6 9 30 19 18 31 25 36 24 41
REMARK Flexibility Score:   94.900
ROOT
ATOM      1  O   UNL     1      -5.033  -1.728   6.145  1.00  0.00    -0.446 OA
ATOM      2  N   UNL     1      -6.098  -3.547   6.944  1.00  0.00    -0.207 NA
ATOM      3  C   UNL     1      -5.000  -3.077   6.380  1.00  0.00     0.217 A 
ATOM      4  C   UNL     1      -6.896  -2.430   7.117  1.00  0.00     0.167 A 
ATOM      5  C   UNL     1      -6.242  -1.325   6.629  1.00  0.00     0.231 A 
ENDROOT
BRANCH   4   6
ATOM      6  C   UNL     1      -8.225  -2.486   7.701  1.00  0.00     0.273 C 
ATOM      7  N   UNL     1      -8.257  -1.923   8.952  1.00  0.00    -0.341 N 
ATOM      8  O   UNL     1      -9.188  -3.000   7.145  1.00  0.00    -0.267 OA
ATOM      9  H   UNL     1      -7.360  -1.621   9.321  1.00  0.00     0.164 HD
BRANCH   7  10
ATOM     10  C   UNL     1      -9.382  -2.063   9.855  1.00  0.00     0.145 C 
BRANCH  10  11
ATOM     11  C   UNL     1      -9.103  -3.256  10.757  1.00  0.00     0.116 A 
ATOM     12  S   UNL     1     -10.414  -4.083  11.511  1.00  0.00    -0.124 S 
ATOM     13  C   UNL     1      -9.308  -5.179  12.216  1.00  0.00     0.101 A 
ATOM     14  N   UNL     1      -7.902  -3.747  11.016  1.00  0.00    -0.234 NA
ATOM     15  C   UNL     1      -8.014  -4.867  11.843  1.00  0.00     0.139 A 
BRANCH  15  16
ATOM     16  C   UNL     1      -6.840  -5.636  12.261  1.00  0.00     0.271 C 
ATOM     17  O   UNL     1      -6.830  -6.341  13.265  1.00  0.00    -0.267 OA
ATOM     18  N   UNL     1      -5.758  -5.490  11.420  1.00  0.00    -0.339 N 
ATOM     19  H   UNL     1      -5.856  -4.793  10.686  1.00  0.00     0.164 HD
BRANCH  18  20
ATOM     20  C   UNL     1      -4.482  -6.127  11.714  1.00  0.00     0.168 CG0
ATOM     21  C   UNL     1      -4.378  -7.500  11.046  1.00  0.00     0.041 C 
ATOM     22  G   UNL     1      -3.278  -5.288  11.255  1.00  0.00     0.000 G0
ENDBRANCH  18  20
ENDBRANCH  15  16
ENDBRANCH  10  11
BRANCH  10  23
ATOM     23  C   UNL     1      -9.653  -0.764  10.659  1.00  0.00     0.015 C 
ATOM     24  C   UNL     1     -11.149  -0.441  10.808  1.00  0.00     0.010 C 
BRANCH  23  25
ATOM     25  C   UNL     1      -9.009  -0.785  12.064  1.00  0.00     0.002 C 
ATOM     26  C   UNL     1      -9.991  -0.530  13.198  1.00  0.00     0.004 C 
ENDBRANCH  23  25
ENDBRANCH  10  23
ENDBRANCH   7  10
ENDBRANCH   4   6
BRANCH   3  27
ATOM     27  C   UNL     1      -3.796  -3.866   5.943  1.00  0.00     0.171 C 
BRANCH  27  28
ATOM     28  N   UNL     1      -3.184  -4.443   7.135  1.00  0.00    -0.342 N 
ATOM     29  C   UNL     1      -2.448  -3.700   8.031  1.00  0.00     0.245 C 
ATOM     30  O   UNL     1      -2.265  -2.491   7.901  1.00  0.00    -0.273 OA
ATOM     31  H   UNL     1      -3.387  -5.414   7.369  1.00  0.00     0.164 HD
BRANCH  29  32
ATOM     32  C   UNL     1      -1.990  -4.457   9.295  1.00  0.00     0.200 C 
BRANCH  32  33
ATOM     33  N   UNL     1      -3.158  -5.126   9.880  1.00  0.00    -0.340 N 
ATOM     34  C   UNL     1      -3.287  -5.278  11.245  1.00  0.00     0.243 CG0
ATOM     35  O   UNL     1      -2.407  -4.919  12.025  1.00  0.00    -0.273 OA
ATOM     36  H   UNL     1      -3.886  -5.460   9.260  1.00  0.00     0.164 HD
ATOM     37  G   UNL     1      -4.488  -6.116  11.712  1.00  0.00     0.000 G0
ENDBRANCH  32  33
BRANCH  32  38
ATOM     38  C   UNL     1      -0.831  -5.432   8.982  1.00  0.00     0.143 C 
ATOM     39  C   UNL     1       0.354  -4.783   8.274  1.00  0.00     0.041 C 
BRANCH  38  40
ATOM     40  O   UNL     1      -0.366  -6.052  10.197  1.00  0.00    -0.391 OA
ATOM     41  H   UNL     1      -1.154  -6.196  10.755  1.00  0.00     0.211 HD
ENDBRANCH  38  40
ENDBRANCH  32  38
ENDBRANCH  29  32
ENDBRANCH  27  28
BRANCH  27  42
ATOM     42  C   UNL     1      -4.003  -4.929   4.837  1.00  0.00     0.015 C 
ATOM     43  C   UNL     1      -4.472  -6.306   5.323  1.00  0.00     0.010 C 
ATOM     44  C   UNL     1      -4.918  -4.421   3.717  1.00  0.00     0.010 C 
ENDBRANCH  27  42
ENDBRANCH   3  27
TORSDOF 5
ENDMDL
MODEL 34
REMARK VINA RESULT:    -4.941      2.575      5.858
REMARK INTER + INTRA:         -11.086
REMARK INTER:                  -8.596
REMARK INTRA:                  -2.489
REMARK UNBOUND:                -2.246
REMARK SMILES CC[C@H](C)[C@H]1NC(=O)c2coc(n2)[C@H](C(C)C)NC(=O)[C@H]([C@@H](C)O)NC(=O)[C@H](C)NC(=O)c2csc1n2
REMARK SMILES IDX 11 1 13 2 12 3 9 4 10 5 7 6 6 7 8 8 5 10 36 11 35 12 34 13
REMARK SMILES IDX 37 14 33 15 31 16 32 17 30 18 28 20 29 21 3 23 4 24 2 25
REMARK SMILES IDX 1 26 14 27 18 28 19 29 20 30 21 32 25 33 26 34 27 35 22 38
REMARK SMILES IDX 23 39 24 40 15 42 16 43 17 44
REMARK H PARENT 6 9 30 19 18 31 25 36 24 41
REMARK Flexibility Score:   94.900
ROOT
ATOM      1  O   UNL     1      -3.599  -7.343  13.104  1.00  0.00    -0.446 OA
ATOM      2  N   UNL     1      -3.064  -5.402  12.089  1.00  0.00    -0.207 NA
ATOM      3  C   UNL     1      -3.983  -6.075  12.759  1.00  0.00     0.217 A 
ATOM      4  C   UNL     1      -1.994  -6.277  12.012  1.00  0.00     0.167 A 
ATOM      5  C   UNL     1      -2.325  -7.456  12.632  1.00  0.00     0.231 A 
ENDROOT
BRANCH   4   6
ATOM      6  C   UNL     1      -0.750  -5.950  11.336  1.00  0.00     0.273 C 
ATOM      7  N   UNL     1      -0.938  -5.024  10.342  1.00  0.00    -0.341 N 
ATOM      8  O   UNL     1       0.327  -6.466  11.612  1.00  0.00    -0.267 OA
ATOM      9  H   UNL     1      -1.902  -4.756  10.166  1.00  0.00     0.164 HD
BRANCH   7  10
ATOM     10  C   UNL     1       0.075  -4.705   9.355  1.00  0.00     0.145 C 
BRANCH  10  11
ATOM     11  C   UNL     1      -0.568  -4.823   7.981  1.00  0.00     0.116 A 
ATOM     12  S   UNL     1       0.428  -4.935   6.578  1.00  0.00    -0.124 S 
ATOM     13  C   UNL     1      -0.971  -5.064   5.605  1.00  0.00     0.101 A 
ATOM     14  N   UNL     1      -1.870  -4.864   7.754  1.00  0.00    -0.234 NA
ATOM     15  C   UNL     1      -2.110  -5.020   6.386  1.00  0.00     0.139 A 
BRANCH  15  16
ATOM     16  C   UNL     1      -3.468  -5.134   5.851  1.00  0.00     0.271 C 
ATOM     17  O   UNL     1      -3.799  -4.656   4.771  1.00  0.00    -0.267 OA
ATOM     18  N   UNL     1      -4.329  -5.828   6.675  1.00  0.00    -0.339 N 
ATOM     19  H   UNL     1      -3.963  -6.077   7.590  1.00  0.00     0.164 HD
BRANCH  18  20
ATOM     20  C   UNL     1      -5.737  -5.983   6.337  1.00  0.00     0.168 CG0
ATOM     21  C   UNL     1      -6.088  -7.448   6.069  1.00  0.00     0.041 C 
ATOM     22  G   UNL     1      -6.673  -5.469   7.442  1.00  0.00     0.000 G0
ENDBRANCH  18  20
ENDBRANCH  15  16
ENDBRANCH  10  11
BRANCH  10  23
ATOM     23  C   UNL     1       0.707  -3.308   9.594  1.00  0.00     0.015 C 
ATOM     24  C   UNL     1       0.065  -2.541  10.762  1.00  0.00     0.010 C 
BRANCH  23  25
ATOM     25  C   UNL     1       2.234  -3.375   9.826  1.00  0.00     0.002 C 
ATOM     26  C   UNL     1       2.628  -3.802  11.233  1.00  0.00     0.004 C 
ENDBRANCH  23  25
ENDBRANCH  10  23
ENDBRANCH   7  10
ENDBRANCH   4   6
BRANCH   3  27
ATOM     27  C   UNL     1      -5.370  -5.610  13.110  1.00  0.00     0.171 C 
BRANCH  27  28
ATOM     28  N   UNL     1      -6.241  -5.907  11.978  1.00  0.00    -0.342 N 
ATOM     29  C   UNL     1      -6.499  -4.999  10.975  1.00  0.00     0.245 C 
ATOM     30  O   UNL     1      -6.001  -3.875  10.952  1.00  0.00    -0.273 OA
ATOM     31  H   UNL     1      -6.597  -6.856  11.869  1.00  0.00     0.164 HD
BRANCH  29  32
ATOM     32  C   UNL     1      -7.338  -5.538   9.798  1.00  0.00     0.200 C 
BRANCH  32  33
ATOM     33  N   UNL     1      -6.427  -5.869   8.696  1.00  0.00    -0.340 N 
ATOM     34  C   UNL     1      -6.690  -5.466   7.403  1.00  0.00     0.243 CG0
ATOM     35  O   UNL     1      -7.724  -4.870   7.106  1.00  0.00    -0.273 OA
ATOM     36  H   UNL     1      -5.581  -6.386   8.905  1.00  0.00     0.164 HD
ATOM     37  G   UNL     1      -5.727  -5.998   6.330  1.00  0.00     0.000 G0
ENDBRANCH  32  33
BRANCH  32  38
ATOM     38  C   UNL     1      -8.220  -6.732  10.231  1.00  0.00     0.143 C 
ATOM     39  C   UNL     1      -9.561  -6.810   9.511  1.00  0.00     0.041 C 
BRANCH  38  40
ATOM     40  O   UNL     1      -7.508  -7.969  10.029  1.00  0.00    -0.391 OA
ATOM     41  H   UNL     1      -7.747  -8.285   9.137  1.00  0.00     0.211 HD
ENDBRANCH  38  40
ENDBRANCH  32  38
ENDBRANCH  29  32
ENDBRANCH  27  28
BRANCH  27  42
ATOM     42  C   UNL     1      -5.975  -6.116  14.442  1.00  0.00     0.015 C 
ATOM     43  C   UNL     1      -6.771  -5.079  15.243  1.00  0.00     0.010 C 
ATOM     44  C   UNL     1      -6.807  -7.388  14.247  1.00  0.00     0.010 C 
ENDBRANCH  27  42
ENDBRANCH   3  27
TORSDOF 5
ENDMDL
MODEL 35
REMARK VINA RESULT:    -4.939      1.703      2.072
REMARK INTER + INTRA:         -11.083
REMARK INTER:                  -9.684
REMARK INTRA:                  -1.398
REMARK UNBOUND:                -2.246
REMARK SMILES CC[C@H](C)[C@H]1NC(=O)c2coc(n2)[C@H](C(C)C)NC(=O)[C@H]([C@@H](C)O)NC(=O)[C@H](C)NC(=O)c2csc1n2
REMARK SMILES IDX 11 1 13 2 12 3 9 4 10 5 7 6 6 7 8 8 5 10 36 11 35 12 34 13
REMARK SMILES IDX 37 14 33 15 31 16 32 17 30 18 28 20 29 21 3 23 4 24 2 25
REMARK SMILES IDX 1 26 14 27 18 28 19 29 20 30 21 32 25 33 26 34 27 35 22 38
REMARK SMILES IDX 23 39 24 40 15 42 16 43 17 44
REMARK H PARENT 6 9 30 19 18 31 25 36 24 41
REMARK Flexibility Score:   94.900
ROOT
ATOM      1  O   UNL     1      -4.584  -3.760   5.628  1.00  0.00    -0.446 OA
ATOM      2  N   UNL     1      -3.878  -5.071   7.320  1.00  0.00    -0.207 NA
ATOM      3  C   UNL     1      -4.675  -4.965   6.272  1.00  0.00     0.217 A 
ATOM      4  C   UNL     1      -3.197  -3.867   7.351  1.00  0.00     0.167 A 
ATOM      5  C   UNL     1      -3.631  -3.073   6.318  1.00  0.00     0.231 A 
ENDROOT
BRANCH   4   6
ATOM      6  C   UNL     1      -2.210  -3.540   8.366  1.00  0.00     0.273 C 
ATOM      7  N   UNL     1      -1.506  -4.646   8.768  1.00  0.00    -0.341 N 
ATOM      8  O   UNL     1      -2.052  -2.412   8.819  1.00  0.00    -0.267 OA
ATOM      9  H   UNL     1      -1.810  -5.530   8.371  1.00  0.00     0.164 HD
BRANCH   7  10
ATOM     10  C   UNL     1      -0.642  -4.655   9.932  1.00  0.00     0.145 C 
BRANCH  10  11
ATOM     11  C   UNL     1      -1.328  -5.483  11.009  1.00  0.00     0.116 A 
ATOM     12  S   UNL     1      -0.827  -5.334  12.651  1.00  0.00    -0.124 S 
ATOM     13  C   UNL     1      -2.027  -6.461  13.112  1.00  0.00     0.101 A 
ATOM     14  N   UNL     1      -2.321  -6.330  10.796  1.00  0.00    -0.234 NA
ATOM     15  C   UNL     1      -2.741  -6.885  12.007  1.00  0.00     0.139 A 
BRANCH  15  16
ATOM     16  C   UNL     1      -3.856  -7.832  12.075  1.00  0.00     0.271 C 
ATOM     17  O   UNL     1      -3.731  -9.026  11.822  1.00  0.00    -0.267 OA
ATOM     18  N   UNL     1      -5.049  -7.252  12.452  1.00  0.00    -0.339 N 
ATOM     19  H   UNL     1      -5.046  -6.238  12.525  1.00  0.00     0.164 HD
BRANCH  18  20
ATOM     20  C   UNL     1      -6.280  -8.028  12.508  1.00  0.00     0.168 CG0
ATOM     21  C   UNL     1      -7.315  -7.364  13.419  1.00  0.00     0.041 C 
ATOM     22  G   UNL     1      -6.925  -8.220  11.125  1.00  0.00     0.000 G0
ENDBRANCH  18  20
ENDBRANCH  15  16
ENDBRANCH  10  11
BRANCH  10  23
ATOM     23  C   UNL     1       0.781  -5.177   9.602  1.00  0.00     0.015 C 
ATOM     24  C   UNL     1       1.042  -5.321   8.093  1.00  0.00     0.010 C 
BRANCH  23  25
ATOM     25  C   UNL     1       1.897  -4.301  10.215  1.00  0.00     0.002 C 
ATOM     26  C   UNL     1       1.418  -2.941  10.704  1.00  0.00     0.004 C 
ENDBRANCH  23  25
ENDBRANCH  10  23
ENDBRANCH   7  10
ENDBRANCH   4   6
BRANCH   3  27
ATOM     27  C   UNL     1      -5.668  -5.983   5.781  1.00  0.00     0.171 C 
BRANCH  27  28
ATOM     28  N   UNL     1      -6.631  -6.220   6.852  1.00  0.00    -0.342 N 
ATOM     29  C   UNL     1      -6.460  -7.196   7.808  1.00  0.00     0.245 C 
ATOM     30  O   UNL     1      -5.475  -7.931   7.839  1.00  0.00    -0.273 OA
ATOM     31  H   UNL     1      -7.414  -5.576   6.958  1.00  0.00     0.164 HD
BRANCH  29  32
ATOM     32  C   UNL     1      -7.517  -7.210   8.932  1.00  0.00     0.200 C 
BRANCH  32  33
ATOM     33  N   UNL     1      -6.817  -7.200  10.223  1.00  0.00    -0.340 N 
ATOM     34  C   UNL     1      -6.964  -8.233  11.125  1.00  0.00     0.243 CG0
ATOM     35  O   UNL     1      -7.730  -9.171  10.919  1.00  0.00    -0.273 OA
ATOM     36  H   UNL     1      -6.201  -6.423  10.434  1.00  0.00     0.164 HD
ATOM     37  G   UNL     1      -6.285  -8.028  12.489  1.00  0.00     0.000 G0
ENDBRANCH  32  33
BRANCH  32  38
ATOM     38  C   UNL     1      -8.520  -6.043   8.780  1.00  0.00     0.143 C 
ATOM     39  C   UNL     1      -9.961  -6.414   9.110  1.00  0.00     0.041 C 
BRANCH  38  40
ATOM     40  O   UNL     1      -8.119  -4.938   9.613  1.00  0.00    -0.391 OA
ATOM     41  H   UNL     1      -8.936  -4.464   9.861  1.00  0.00     0.211 HD
ENDBRANCH  38  40
ENDBRANCH  32  38
ENDBRANCH  29  32
ENDBRANCH  27  28
BRANCH  27  42
ATOM     42  C   UNL     1      -6.375  -5.698   4.433  1.00  0.00     0.015 C 
ATOM     43  C   UNL     1      -5.535  -4.948   3.393  1.00  0.00     0.010 C 
ATOM     44  C   UNL     1      -6.971  -6.968   3.819  1.00  0.00     0.010 C 
ENDBRANCH  27  42
ENDBRANCH   3  27
TORSDOF 5
ENDMDL
MODEL 36
REMARK VINA RESULT:    -4.937      4.753      8.477
REMARK INTER + INTRA:         -11.079
REMARK INTER:                  -8.636
REMARK INTRA:                  -2.443
REMARK UNBOUND:                -2.246
REMARK SMILES CC[C@H](C)[C@H]1NC(=O)c2coc(n2)[C@H](C(C)C)NC(=O)[C@H]([C@@H](C)O)NC(=O)[C@H](C)NC(=O)c2csc1n2
REMARK SMILES IDX 11 1 13 2 12 3 9 4 10 5 7 6 6 7 8 8 5 10 36 11 35 12 34 13
REMARK SMILES IDX 37 14 33 15 31 16 32 17 30 18 28 20 29 21 3 23 4 24 2 25
REMARK SMILES IDX 1 26 14 27 18 28 19 29 20 30 21 32 25 33 26 34 27 35 22 38
REMARK SMILES IDX 23 39 24 40 15 42 16 43 17 44
REMARK H PARENT 6 9 30 19 18 31 25 36 24 41
REMARK Flexibility Score:   94.900
ROOT
ATOM      1  O   UNL     1      -4.412  -5.025  13.513  1.00  0.00    -0.446 OA
ATOM      2  N   UNL     1      -5.831  -4.201  11.968  1.00  0.00    -0.207 NA
ATOM      3  C   UNL     1      -4.915  -5.112  12.243  1.00  0.00     0.217 A 
ATOM      4  C   UNL     1      -5.959  -3.483  13.144  1.00  0.00     0.167 A 
ATOM      5  C   UNL     1      -5.092  -3.990  14.081  1.00  0.00     0.231 A 
ENDROOT
BRANCH   4   6
ATOM      6  C   UNL     1      -6.863  -2.356  13.291  1.00  0.00     0.273 C 
ATOM      7  N   UNL     1      -7.820  -2.338  12.308  1.00  0.00    -0.341 N 
ATOM      8  O   UNL     1      -6.759  -1.514  14.176  1.00  0.00    -0.267 OA
ATOM      9  H   UNL     1      -7.725  -3.049  11.588  1.00  0.00     0.164 HD
BRANCH   7  10
ATOM     10  C   UNL     1      -8.689  -1.203  12.070  1.00  0.00     0.145 C 
BRANCH  10  11
ATOM     11  C   UNL     1      -8.411  -0.697  10.662  1.00  0.00     0.116 A 
ATOM     12  S   UNL     1      -9.531   0.366   9.898  1.00  0.00    -0.124 S 
ATOM     13  C   UNL     1      -8.512   0.444   8.528  1.00  0.00     0.101 A 
ATOM     14  N   UNL     1      -7.340  -0.999   9.946  1.00  0.00    -0.234 NA
ATOM     15  C   UNL     1      -7.384  -0.330   8.720  1.00  0.00     0.139 A 
BRANCH  15  16
ATOM     16  C   UNL     1      -6.304  -0.450   7.738  1.00  0.00     0.271 C 
ATOM     17  O   UNL     1      -6.465  -0.230   6.543  1.00  0.00    -0.267 OA
ATOM     18  N   UNL     1      -5.099  -0.830   8.289  1.00  0.00    -0.339 N 
ATOM     19  H   UNL     1      -5.121  -1.090   9.272  1.00  0.00     0.164 HD
BRANCH  18  20
ATOM     20  C   UNL     1      -3.928  -1.065   7.455  1.00  0.00     0.168 CG0
ATOM     21  C   UNL     1      -2.675  -0.430   8.062  1.00  0.00     0.041 C 
ATOM     22  G   UNL     1      -3.642  -2.560   7.240  1.00  0.00     0.000 G0
ENDBRANCH  18  20
ENDBRANCH  15  16
ENDBRANCH  10  11
BRANCH  10  23
ATOM     23  C   UNL     1     -10.185  -1.554  12.287  1.00  0.00     0.015 C 
ATOM     24  C   UNL     1     -10.469  -3.064  12.237  1.00  0.00     0.010 C 
BRANCH  23  25
ATOM     25  C   UNL     1     -10.746  -0.988  13.612  1.00  0.00     0.002 C 
ATOM     26  C   UNL     1     -10.613  -1.938  14.795  1.00  0.00     0.004 C 
ENDBRANCH  23  25
ENDBRANCH  10  23
ENDBRANCH   7  10
ENDBRANCH   4   6
BRANCH   3  27
ATOM     27  C   UNL     1      -4.363  -6.154  11.308  1.00  0.00     0.171 C 
BRANCH  27  28
ATOM     28  N   UNL     1      -3.472  -5.483  10.368  1.00  0.00    -0.342 N 
ATOM     29  C   UNL     1      -3.668  -5.506   9.006  1.00  0.00     0.245 C 
ATOM     30  O   UNL     1      -4.620  -6.082   8.480  1.00  0.00    -0.273 OA
ATOM     31  H   UNL     1      -2.728  -4.891  10.736  1.00  0.00     0.164 HD
BRANCH  29  32
ATOM     32  C   UNL     1      -2.697  -4.633   8.184  1.00  0.00     0.200 C 
BRANCH  32  33
ATOM     33  N   UNL     1      -3.124  -3.233   8.301  1.00  0.00    -0.340 N 
ATOM     34  C   UNL     1      -3.643  -2.550   7.220  1.00  0.00     0.243 CG0
ATOM     35  O   UNL     1      -3.711  -3.058   6.103  1.00  0.00    -0.273 OA
ATOM     36  H   UNL     1      -3.051  -2.778   9.203  1.00  0.00     0.164 HD
ATOM     37  G   UNL     1      -3.920  -1.055   7.447  1.00  0.00     0.000 G0
ENDBRANCH  32  33
BRANCH  32  38
ATOM     38  C   UNL     1      -1.230  -4.854   8.621  1.00  0.00     0.143 C 
ATOM     39  C   UNL     1      -0.250  -4.998   7.463  1.00  0.00     0.041 C 
BRANCH  38  40
ATOM     40  O   UNL     1      -0.799  -3.769   9.466  1.00  0.00    -0.391 OA
ATOM     41  H   UNL     1      -0.869  -4.087  10.386  1.00  0.00     0.211 HD
ENDBRANCH  38  40
ENDBRANCH  32  38
ENDBRANCH  29  32
ENDBRANCH  27  28
BRANCH  27  42
ATOM     42  C   UNL     1      -3.691  -7.397  11.942  1.00  0.00     0.015 C 
ATOM     43  C   UNL     1      -4.431  -8.724  11.739  1.00  0.00     0.010 C 
ATOM     44  C   UNL     1      -2.226  -7.535  11.517  1.00  0.00     0.010 C 
ENDBRANCH  27  42
ENDBRANCH   3  27
TORSDOF 5
ENDMDL
MODEL 37
REMARK VINA RESULT:    -4.891      3.275      7.414
REMARK INTER + INTRA:         -10.997
REMARK INTER:                  -9.104
REMARK INTRA:                  -1.893
REMARK UNBOUND:                -2.246
REMARK SMILES CC[C@H](C)[C@H]1NC(=O)c2coc(n2)[C@H](C(C)C)NC(=O)[C@H]([C@@H](C)O)NC(=O)[C@H](C)NC(=O)c2csc1n2
REMARK SMILES IDX 11 1 13 2 12 3 9 4 10 5 7 6 6 7 8 8 5 10 36 11 35 12 34 13
REMARK SMILES IDX 37 14 33 15 31 16 32 17 30 18 28 20 29 21 3 23 4 24 2 25
REMARK SMILES IDX 1 26 14 27 18 28 19 29 20 30 21 32 25 33 26 34 27 35 22 38
REMARK SMILES IDX 23 39 24 40 15 42 16 43 17 44
REMARK H PARENT 6 9 30 19 18 31 25 36 24 41
REMARK Flexibility Score:   94.900
ROOT
ATOM      1  O   UNL     1      -0.691  -3.660   7.036  1.00  0.00    -0.446 OA
ATOM      2  N   UNL     1      -2.279  -5.008   7.897  1.00  0.00    -0.207 NA
ATOM      3  C   UNL     1      -1.216  -4.264   8.147  1.00  0.00     0.217 A 
ATOM      4  C   UNL     1      -2.483  -4.862   6.536  1.00  0.00     0.167 A 
ATOM      5  C   UNL     1      -1.512  -4.039   6.018  1.00  0.00     0.231 A 
ENDROOT
BRANCH   4   6
ATOM      6  C   UNL     1      -3.555  -5.528   5.818  1.00  0.00     0.273 C 
ATOM      7  N   UNL     1      -4.238  -4.662   5.003  1.00  0.00    -0.341 N 
ATOM      8  O   UNL     1      -3.825  -6.716   5.952  1.00  0.00    -0.267 OA
ATOM      9  H   UNL     1      -3.960  -3.686   5.065  1.00  0.00     0.164 HD
BRANCH   7  10
ATOM     10  C   UNL     1      -5.497  -4.998   4.367  1.00  0.00     0.145 C 
BRANCH  10  11
ATOM     11  C   UNL     1      -6.554  -5.088   5.458  1.00  0.00     0.116 A 
ATOM     12  S   UNL     1      -7.922  -6.113   5.240  1.00  0.00    -0.124 S 
ATOM     13  C   UNL     1      -8.488  -5.675   6.792  1.00  0.00     0.101 A 
ATOM     14  N   UNL     1      -6.512  -4.438   6.610  1.00  0.00    -0.234 NA
ATOM     15  C   UNL     1      -7.617  -4.786   7.391  1.00  0.00     0.139 A 
BRANCH  15  16
ATOM     16  C   UNL     1      -7.809  -4.243   8.738  1.00  0.00     0.271 C 
ATOM     17  O   UNL     1      -8.891  -4.262   9.314  1.00  0.00    -0.267 OA
ATOM     18  N   UNL     1      -6.660  -3.715   9.287  1.00  0.00    -0.339 N 
ATOM     19  H   UNL     1      -5.856  -3.659   8.667  1.00  0.00     0.164 HD
BRANCH  18  20
ATOM     20  C   UNL     1      -6.675  -3.070  10.593  1.00  0.00     0.168 CG0
ATOM     21  C   UNL     1      -6.603  -4.100  11.723  1.00  0.00     0.041 C 
ATOM     22  G   UNL     1      -5.512  -2.083  10.782  1.00  0.00     0.000 G0
ENDBRANCH  18  20
ENDBRANCH  15  16
ENDBRANCH  10  11
BRANCH  10  23
ATOM     23  C   UNL     1      -5.880  -3.987   3.254  1.00  0.00     0.015 C 
ATOM     24  C   UNL     1      -6.188  -2.579   3.791  1.00  0.00     0.010 C 
BRANCH  23  25
ATOM     25  C   UNL     1      -4.802  -3.872   2.153  1.00  0.00     0.002 C 
ATOM     26  C   UNL     1      -5.235  -3.051   0.946  1.00  0.00     0.004 C 
ENDBRANCH  23  25
ENDBRANCH  10  23
ENDBRANCH   7  10
ENDBRANCH   4   6
BRANCH   3  27
ATOM     27  C   UNL     1      -0.532  -4.077   9.474  1.00  0.00     0.171 C 
BRANCH  27  28
ATOM     28  N   UNL     1      -1.509  -3.522  10.405  1.00  0.00    -0.342 N 
ATOM     29  C   UNL     1      -1.942  -2.216  10.343  1.00  0.00     0.245 C 
ATOM     30  O   UNL     1      -1.550  -1.425   9.487  1.00  0.00    -0.273 OA
ATOM     31  H   UNL     1      -1.964  -4.148  11.068  1.00  0.00     0.164 HD
BRANCH  29  32
ATOM     32  C   UNL     1      -3.071  -1.849  11.329  1.00  0.00     0.200 C 
BRANCH  32  33
ATOM     33  N   UNL     1      -4.248  -2.666  11.007  1.00  0.00    -0.340 N 
ATOM     34  C   UNL     1      -5.478  -2.088  10.771  1.00  0.00     0.243 CG0
ATOM     35  O   UNL     1      -5.659  -0.877  10.882  1.00  0.00    -0.273 OA
ATOM     36  H   UNL     1      -4.137  -3.670  10.939  1.00  0.00     0.164 HD
ATOM     37  G   UNL     1      -6.649  -3.066  10.583  1.00  0.00     0.000 G0
ENDBRANCH  32  33
BRANCH  32  38
ATOM     38  C   UNL     1      -2.612  -2.004  12.797  1.00  0.00     0.143 C 
ATOM     39  C   UNL     1      -3.182  -3.231  13.501  1.00  0.00     0.041 C 
BRANCH  38  40
ATOM     40  O   UNL     1      -1.174  -2.055  12.861  1.00  0.00    -0.391 OA
ATOM     41  H   UNL     1      -0.947  -2.478  13.711  1.00  0.00     0.211 HD
ENDBRANCH  38  40
ENDBRANCH  32  38
ENDBRANCH  29  32
ENDBRANCH  27  28
BRANCH  27  42
ATOM     42  C   UNL     1       0.200  -5.300  10.078  1.00  0.00     0.015 C 
ATOM     43  C   UNL     1       1.437  -4.978  10.924  1.00  0.00     0.010 C 
ATOM     44  C   UNL     1      -0.754  -6.211  10.857  1.00  0.00     0.010 C 
ENDBRANCH  27  42
ENDBRANCH   3  27
TORSDOF 5
ENDMDL
MODEL 38
REMARK VINA RESULT:    -4.866      2.134      2.467
REMARK INTER + INTRA:         -10.952
REMARK INTER:                  -9.300
REMARK INTRA:                  -1.652
REMARK UNBOUND:                -2.246
REMARK SMILES CC[C@H](C)[C@H]1NC(=O)c2coc(n2)[C@H](C(C)C)NC(=O)[C@H]([C@@H](C)O)NC(=O)[C@H](C)NC(=O)c2csc1n2
REMARK SMILES IDX 11 1 13 2 12 3 9 4 10 5 7 6 6 7 8 8 5 10 36 11 35 12 34 13
REMARK SMILES IDX 37 14 33 15 31 16 32 17 30 18 28 20 29 21 3 23 4 24 2 25
REMARK SMILES IDX 1 26 14 27 18 28 19 29 20 30 21 32 25 33 26 34 27 35 22 38
REMARK SMILES IDX 23 39 24 40 15 42 16 43 17 44
REMARK H PARENT 6 9 30 19 18 31 25 36 24 41
REMARK Flexibility Score:   94.900
ROOT
ATOM      1  O   UNL     1      -4.136  -1.917   6.532  1.00  0.00    -0.446 OA
ATOM      2  N   UNL     1      -3.841  -3.310   8.280  1.00  0.00    -0.207 NA
ATOM      3  C   UNL     1      -4.237  -3.191   7.025  1.00  0.00     0.217 A 
ATOM      4  C   UNL     1      -3.428  -2.036   8.628  1.00  0.00     0.167 A 
ATOM      5  C   UNL     1      -3.610  -1.193   7.559  1.00  0.00     0.231 A 
ENDROOT
BRANCH   4   6
ATOM      6  C   UNL     1      -2.921  -1.699   9.946  1.00  0.00     0.273 C 
ATOM      7  N   UNL     1      -1.693  -2.265  10.180  1.00  0.00    -0.341 N 
ATOM      8  O   UNL     1      -3.535  -1.012  10.753  1.00  0.00    -0.267 OA
ATOM      9  H   UNL     1      -1.349  -2.886   9.454  1.00  0.00     0.164 HD
BRANCH   7  10
ATOM     10  C   UNL     1      -1.074  -2.299  11.491  1.00  0.00     0.145 C 
BRANCH  10  11
ATOM     11  C   UNL     1      -2.042  -2.990  12.440  1.00  0.00     0.116 A 
ATOM     12  S   UNL     1      -2.138  -2.479  14.083  1.00  0.00    -0.124 S 
ATOM     13  C   UNL     1      -3.363  -3.637  14.364  1.00  0.00     0.101 A 
ATOM     14  N   UNL     1      -2.858  -3.976  12.106  1.00  0.00    -0.234 NA
ATOM     15  C   UNL     1      -3.635  -4.342  13.207  1.00  0.00     0.139 A 
BRANCH  15  16
ATOM     16  C   UNL     1      -4.656  -5.388  13.114  1.00  0.00     0.271 C 
ATOM     17  O   UNL     1      -4.850  -6.209  14.004  1.00  0.00    -0.267 OA
ATOM     18  N   UNL     1      -5.373  -5.356  11.936  1.00  0.00    -0.339 N 
ATOM     19  H   UNL     1      -5.043  -4.699  11.234  1.00  0.00     0.164 HD
BRANCH  18  20
ATOM     20  C   UNL     1      -6.384  -6.361  11.640  1.00  0.00     0.168 CG0
ATOM     21  C   UNL     1      -7.724  -5.715  11.283  1.00  0.00     0.041 C 
ATOM     22  G   UNL     1      -5.982  -7.283  10.477  1.00  0.00     0.000 G0
ENDBRANCH  18  20
ENDBRANCH  15  16
ENDBRANCH  10  11
BRANCH  10  23
ATOM     23  C   UNL     1       0.318  -2.984  11.463  1.00  0.00     0.015 C 
ATOM     24  C   UNL     1       0.424  -4.106  10.417  1.00  0.00     0.010 C 
BRANCH  23  25
ATOM     25  C   UNL     1       1.473  -1.983  11.234  1.00  0.00     0.002 C 
ATOM     26  C   UNL     1       1.646  -0.970  12.357  1.00  0.00     0.004 C 
ENDBRANCH  23  25
ENDBRANCH  10  23
ENDBRANCH   7  10
ENDBRANCH   4   6
BRANCH   3  27
ATOM     27  C   UNL     1      -4.812  -4.270   6.149  1.00  0.00     0.171 C 
BRANCH  27  28
ATOM     28  N   UNL     1      -5.393  -5.288   7.018  1.00  0.00    -0.342 N 
ATOM     29  C   UNL     1      -5.060  -6.621   6.934  1.00  0.00     0.245 C 
ATOM     30  O   UNL     1      -4.234  -7.051   6.130  1.00  0.00    -0.273 OA
ATOM     31  H   UNL     1      -5.998  -4.992   7.783  1.00  0.00     0.164 HD
BRANCH  29  32
ATOM     32  C   UNL     1      -5.680  -7.526   8.020  1.00  0.00     0.200 C 
BRANCH  32  33
ATOM     33  N   UNL     1      -5.923  -6.710   9.216  1.00  0.00    -0.340 N 
ATOM     34  C   UNL     1      -5.973  -7.278  10.472  1.00  0.00     0.243 CG0
ATOM     35  O   UNL     1      -5.882  -8.492  10.640  1.00  0.00    -0.273 OA
ATOM     36  H   UNL     1      -6.033  -5.709   9.106  1.00  0.00     0.164 HD
ATOM     37  G   UNL     1      -6.371  -6.331  11.616  1.00  0.00     0.000 G0
ENDBRANCH  32  33
BRANCH  32  38
ATOM     38  C   UNL     1      -6.954  -8.235   7.505  1.00  0.00     0.143 C 
ATOM     39  C   UNL     1      -7.053  -8.310   5.986  1.00  0.00     0.041 C 
BRANCH  38  40
ATOM     40  O   UNL     1      -7.027  -9.569   8.045  1.00  0.00    -0.391 OA
ATOM     41  H   UNL     1      -7.173 -10.169   7.288  1.00  0.00     0.211 HD
ENDBRANCH  38  40
ENDBRANCH  32  38
ENDBRANCH  29  32
ENDBRANCH  27  28
BRANCH  27  42
ATOM     42  C   UNL     1      -5.801  -3.836   5.039  1.00  0.00     0.015 C 
ATOM     43  C   UNL     1      -5.426  -4.264   3.615  1.00  0.00     0.010 C 
ATOM     44  C   UNL     1      -7.240  -4.256   5.358  1.00  0.00     0.010 C 
ENDBRANCH  27  42
ENDBRANCH   3  27
TORSDOF 5
ENDMDL
MODEL 39
REMARK VINA RESULT:    -4.862      3.965      6.785
REMARK INTER + INTRA:         -10.945
REMARK INTER:                  -8.543
REMARK INTRA:                  -2.402
REMARK UNBOUND:                -2.246
REMARK SMILES CC[C@H](C)[C@H]1NC(=O)c2coc(n2)[C@H](C(C)C)NC(=O)[C@H]([C@@H](C)O)NC(=O)[C@H](C)NC(=O)c2csc1n2
REMARK SMILES IDX 11 1 13 2 12 3 9 4 10 5 7 6 6 7 8 8 5 10 36 11 35 12 34 13
REMARK SMILES IDX 37 14 33 15 31 16 32 17 30 18 28 20 29 21 3 23 4 24 2 25
REMARK SMILES IDX 1 26 14 27 18 28 19 29 20 30 21 32 25 33 26 34 27 35 22 38
REMARK SMILES IDX 23 39 24 40 15 42 16 43 17 44
REMARK H PARENT 6 9 30 19 18 31 25 36 24 41
REMARK Flexibility Score:   94.900
ROOT
ATOM      1  O   UNL     1      -4.832  -8.986  11.192  1.00  0.00    -0.446 OA
ATOM      2  N   UNL     1      -5.316  -6.891  10.514  1.00  0.00    -0.207 NA
ATOM      3  C   UNL     1      -5.746  -7.967  11.149  1.00  0.00     0.217 A 
ATOM      4  C   UNL     1      -4.023  -7.213  10.138  1.00  0.00     0.167 A 
ATOM      5  C   UNL     1      -3.735  -8.490  10.554  1.00  0.00     0.231 A 
ENDROOT
BRANCH   4   6
ATOM      6  C   UNL     1      -3.166  -6.310   9.390  1.00  0.00     0.273 C 
ATOM      7  N   UNL     1      -2.153  -5.808  10.168  1.00  0.00    -0.341 N 
ATOM      8  O   UNL     1      -3.349  -6.019   8.215  1.00  0.00    -0.267 OA
ATOM      9  H   UNL     1      -2.182  -6.067  11.150  1.00  0.00     0.164 HD
BRANCH   7  10
ATOM     10  C   UNL     1      -1.308  -4.706   9.753  1.00  0.00     0.145 C 
BRANCH  10  11
ATOM     11  C   UNL     1      -1.621  -3.520  10.655  1.00  0.00     0.116 A 
ATOM     12  S   UNL     1      -0.744  -2.049  10.467  1.00  0.00    -0.124 S 
ATOM     13  C   UNL     1      -1.677  -1.343  11.713  1.00  0.00     0.101 A 
ATOM     14  N   UNL     1      -2.550  -3.509  11.596  1.00  0.00    -0.234 NA
ATOM     15  C   UNL     1      -2.599  -2.250  12.200  1.00  0.00     0.139 A 
BRANCH  15  16
ATOM     16  C   UNL     1      -3.565  -1.939  13.256  1.00  0.00     0.271 C 
ATOM     17  O   UNL     1      -3.383  -1.053  14.084  1.00  0.00    -0.267 OA
ATOM     18  N   UNL     1      -4.690  -2.735  13.224  1.00  0.00    -0.339 N 
ATOM     19  H   UNL     1      -4.672  -3.505  12.560  1.00  0.00     0.164 HD
BRANCH  18  20
ATOM     20  C   UNL     1      -5.729  -2.615  14.238  1.00  0.00     0.168 CG0
ATOM     21  C   UNL     1      -7.074  -2.235  13.615  1.00  0.00     0.041 C 
ATOM     22  G   UNL     1      -5.931  -3.911  15.039  1.00  0.00     0.000 G0
ENDBRANCH  18  20
ENDBRANCH  15  16
ENDBRANCH  10  11
BRANCH  10  23
ATOM     23  C   UNL     1       0.197  -5.082   9.772  1.00  0.00     0.015 C 
ATOM     24  C   UNL     1       0.545  -6.148  10.825  1.00  0.00     0.010 C 
BRANCH  23  25
ATOM     25  C   UNL     1       0.712  -5.560   8.396  1.00  0.00     0.002 C 
ATOM     26  C   UNL     1       0.962  -4.432   7.404  1.00  0.00     0.004 C 
ENDBRANCH  23  25
ENDBRANCH  10  23
ENDBRANCH   7  10
ENDBRANCH   4   6
BRANCH   3  27
ATOM     27  C   UNL     1      -7.107  -8.180  11.751  1.00  0.00     0.171 C 
BRANCH  27  28
ATOM     28  N   UNL     1      -7.264  -7.230  12.847  1.00  0.00    -0.342 N 
ATOM     29  C   UNL     1      -6.677  -7.407  14.080  1.00  0.00     0.245 C 
ATOM     30  O   UNL     1      -5.962  -8.373  14.344  1.00  0.00    -0.273 OA
ATOM     31  H   UNL     1      -7.747  -6.350  12.668  1.00  0.00     0.164 HD
BRANCH  29  32
ATOM     32  C   UNL     1      -6.850  -6.234  15.068  1.00  0.00     0.200 C 
BRANCH  32  33
ATOM     33  N   UNL     1      -6.501  -4.990  14.372  1.00  0.00    -0.340 N 
ATOM     34  C   UNL     1      -5.941  -3.925  15.047  1.00  0.00     0.243 CG0
ATOM     35  O   UNL     1      -5.768  -3.945  16.264  1.00  0.00    -0.273 OA
ATOM     36  H   UNL     1      -6.660  -4.932  13.373  1.00  0.00     0.164 HD
ATOM     37  G   UNL     1      -5.754  -2.639  14.225  1.00  0.00     0.000 G0
ENDBRANCH  32  33
BRANCH  32  38
ATOM     38  C   UNL     1      -8.274  -6.209  15.671  1.00  0.00     0.143 C 
ATOM     39  C   UNL     1      -9.205  -5.190  15.025  1.00  0.00     0.041 C 
BRANCH  38  40
ATOM     40  O   UNL     1      -8.873  -7.516  15.576  1.00  0.00    -0.391 OA
ATOM     41  H   UNL     1      -8.462  -8.063  16.271  1.00  0.00     0.211 HD
ENDBRANCH  38  40
ENDBRANCH  32  38
ENDBRANCH  29  32
ENDBRANCH  27  28
BRANCH  27  42
ATOM     42  C   UNL     1      -8.324  -8.151  10.794  1.00  0.00     0.015 C 
ATOM     43  C   UNL     1      -9.244  -9.376  10.856  1.00  0.00     0.010 C 
ATOM     44  C   UNL     1      -9.142  -6.864  10.946  1.00  0.00     0.010 C 
ENDBRANCH  27  42
ENDBRANCH   3  27
TORSDOF 5
ENDMDL
MODEL 40
REMARK VINA RESULT:    -4.821      6.992     10.032
REMARK INTER + INTRA:         -10.871
REMARK INTER:                  -8.681
REMARK INTRA:                  -2.190
REMARK UNBOUND:                -2.246
REMARK SMILES CC[C@H](C)[C@H]1NC(=O)c2coc(n2)[C@H](C(C)C)NC(=O)[C@H]([C@@H](C)O)NC(=O)[C@H](C)NC(=O)c2csc1n2
REMARK SMILES IDX 11 1 13 2 12 3 9 4 10 5 7 6 6 7 8 8 5 10 36 11 35 12 34 13
REMARK SMILES IDX 37 14 33 15 31 16 32 17 30 18 28 20 29 21 3 23 4 24 2 25
REMARK SMILES IDX 1 26 14 27 18 28 19 29 20 30 21 32 25 33 26 34 27 35 22 38
REMARK SMILES IDX 23 39 24 40 15 42 16 43 17 44
REMARK H PARENT 6 9 30 19 18 31 25 36 24 41
REMARK Flexibility Score:   94.900
ROOT
ATOM      1  O   UNL     1      -8.979  -5.395  17.586  1.00  0.00    -0.446 OA
ATOM      2  N   UNL     1      -6.739  -5.168  17.473  1.00  0.00    -0.207 NA
ATOM      3  C   UNL     1      -7.779  -5.943  17.219  1.00  0.00     0.217 A 
ATOM      4  C   UNL     1      -7.295  -4.024  18.019  1.00  0.00     0.167 A 
ATOM      5  C   UNL     1      -8.659  -4.168  18.084  1.00  0.00     0.231 A 
ENDROOT
BRANCH   4   6
ATOM      6  C   UNL     1      -6.501  -2.892  18.465  1.00  0.00     0.273 C 
ATOM      7  N   UNL     1      -6.976  -1.707  17.962  1.00  0.00    -0.341 N 
ATOM      8  O   UNL     1      -5.514  -2.997  19.183  1.00  0.00    -0.267 OA
ATOM      9  H   UNL     1      -7.748  -1.784  17.306  1.00  0.00     0.164 HD
BRANCH   7  10
ATOM     10  C   UNL     1      -6.240  -0.461  18.043  1.00  0.00     0.145 C 
BRANCH  10  11
ATOM     11  C   UNL     1      -5.089  -0.542  17.050  1.00  0.00     0.116 A 
ATOM     12  S   UNL     1      -3.745   0.526  17.211  1.00  0.00    -0.124 S 
ATOM     13  C   UNL     1      -3.005  -0.215  15.860  1.00  0.00     0.101 A 
ATOM     14  N   UNL     1      -5.013  -1.398  16.045  1.00  0.00    -0.234 NA
ATOM     15  C   UNL     1      -3.806  -1.226  15.364  1.00  0.00     0.139 A 
BRANCH  15  16
ATOM     16  C   UNL     1      -3.437  -2.068  14.224  1.00  0.00     0.271 C 
ATOM     17  O   UNL     1      -2.615  -1.725  13.382  1.00  0.00    -0.267 OA
ATOM     18  N   UNL     1      -4.102  -3.276  14.195  1.00  0.00    -0.339 N 
ATOM     19  H   UNL     1      -4.838  -3.395  14.886  1.00  0.00     0.164 HD
BRANCH  18  20
ATOM     20  C   UNL     1      -3.913  -4.215  13.098  1.00  0.00     0.168 CG0
ATOM     21  C   UNL     1      -2.941  -5.333  13.483  1.00  0.00     0.041 C 
ATOM     22  G   UNL     1      -5.227  -4.871  12.644  1.00  0.00     0.000 G0
ENDBRANCH  18  20
ENDBRANCH  15  16
ENDBRANCH  10  11
BRANCH  10  23
ATOM     23  C   UNL     1      -7.147   0.774  17.796  1.00  0.00     0.015 C 
ATOM     24  C   UNL     1      -8.531   0.409  17.233  1.00  0.00     0.010 C 
BRANCH  23  25
ATOM     25  C   UNL     1      -7.341   1.636  19.064  1.00  0.00     0.002 C 
ATOM     26  C   UNL     1      -6.072   2.331  19.539  1.00  0.00     0.004 C 
ENDBRANCH  23  25
ENDBRANCH  10  23
ENDBRANCH   7  10
ENDBRANCH   4   6
BRANCH   3  27
ATOM     27  C   UNL     1      -7.755  -7.331  16.640  1.00  0.00     0.171 C 
BRANCH  27  28
ATOM     28  N   UNL     1      -7.050  -7.270  15.363  1.00  0.00    -0.342 N 
ATOM     29  C   UNL     1      -7.679  -6.966  14.177  1.00  0.00     0.245 C 
ATOM     30  O   UNL     1      -8.879  -6.708  14.107  1.00  0.00    -0.273 OA
ATOM     31  H   UNL     1      -6.035  -7.359  15.360  1.00  0.00     0.164 HD
BRANCH  29  32
ATOM     32  C   UNL     1      -6.747  -6.822  12.955  1.00  0.00     0.200 C 
BRANCH  32  33
ATOM     33  N   UNL     1      -5.589  -6.012  13.351  1.00  0.00    -0.340 N 
ATOM     34  C   UNL     1      -5.230  -4.882  12.646  1.00  0.00     0.243 CG0
ATOM     35  O   UNL     1      -5.820  -4.540  11.623  1.00  0.00    -0.273 OA
ATOM     36  H   UNL     1      -5.063  -6.286  14.173  1.00  0.00     0.164 HD
ATOM     37  G   UNL     1      -3.920  -4.209  13.086  1.00  0.00     0.000 G0
ENDBRANCH  32  33
BRANCH  32  38
ATOM     38  C   UNL     1      -6.349  -8.202  12.382  1.00  0.00     0.143 C 
ATOM     39  C   UNL     1      -5.616  -8.134  11.047  1.00  0.00     0.041 C 
BRANCH  38  40
ATOM     40  O   UNL     1      -5.529  -8.912  13.330  1.00  0.00    -0.391 OA
ATOM     41  H   UNL     1      -5.951  -9.781  13.468  1.00  0.00     0.211 HD
ENDBRANCH  38  40
ENDBRANCH  32  38
ENDBRANCH  29  32
ENDBRANCH  27  28
BRANCH  27  42
ATOM     42  C   UNL     1      -7.210  -8.469  17.537  1.00  0.00     0.015 C 
ATOM     43  C   UNL     1      -5.741  -8.842  17.312  1.00  0.00     0.010 C 
ATOM     44  C   UNL     1      -7.469  -8.200  19.023  1.00  0.00     0.010 C 
ENDBRANCH  27  42
ENDBRANCH   3  27
TORSDOF 5
ENDMDL
MODEL 41
REMARK VINA RESULT:    -4.765      3.171      6.798
REMARK INTER + INTRA:         -10.771
REMARK INTER:                  -8.248
REMARK INTRA:                  -2.523
REMARK UNBOUND:                -2.246
REMARK SMILES CC[C@H](C)[C@H]1NC(=O)c2coc(n2)[C@H](C(C)C)NC(=O)[C@H]([C@@H](C)O)NC(=O)[C@H](C)NC(=O)c2csc1n2
REMARK SMILES IDX 11 1 13 2 12 3 9 4 10 5 7 6 6 7 8 8 5 10 36 11 35 12 34 13
REMARK SMILES IDX 37 14 33 15 31 16 32 17 30 18 28 20 29 21 3 23 4 24 2 25
REMARK SMILES IDX 1 26 14 27 18 28 19 29 20 30 21 32 25 33 26 34 27 35 22 38
REMARK SMILES IDX 23 39 24 40 15 42 16 43 17 44
REMARK H PARENT 6 9 30 19 18 31 25 36 24 41
REMARK Flexibility Score:   94.900
ROOT
ATOM      1  O   UNL     1      -2.375  -1.955   8.912  1.00  0.00    -0.446 OA
ATOM      2  N   UNL     1      -2.816  -4.161   9.058  1.00  0.00    -0.207 NA
ATOM      3  C   UNL     1      -2.555  -3.047   9.719  1.00  0.00     0.217 A 
ATOM      4  C   UNL     1      -2.836  -3.771   7.730  1.00  0.00     0.167 A 
ATOM      5  C   UNL     1      -2.567  -2.427   7.648  1.00  0.00     0.231 A 
ENDROOT
BRANCH   4   6
ATOM      6  C   UNL     1      -3.076  -4.695   6.636  1.00  0.00     0.273 C 
ATOM      7  N   UNL     1      -4.355  -4.589   6.150  1.00  0.00    -0.341 N 
ATOM      8  O   UNL     1      -2.239  -5.487   6.221  1.00  0.00    -0.267 OA
ATOM      9  H   UNL     1      -4.966  -3.953   6.655  1.00  0.00     0.164 HD
BRANCH   7  10
ATOM     10  C   UNL     1      -4.937  -5.550   5.235  1.00  0.00     0.145 C 
BRANCH  10  11
ATOM     11  C   UNL     1      -5.834  -6.475   6.047  1.00  0.00     0.116 A 
ATOM     12  S   UNL     1      -6.410  -7.939   5.345  1.00  0.00    -0.124 S 
ATOM     13  C   UNL     1      -7.208  -8.318   6.808  1.00  0.00     0.101 A 
ATOM     14  N   UNL     1      -6.215  -6.257   7.294  1.00  0.00    -0.234 NA
ATOM     15  C   UNL     1      -6.995  -7.325   7.746  1.00  0.00     0.139 A 
BRANCH  15  16
ATOM     16  C   UNL     1      -7.524  -7.369   9.110  1.00  0.00     0.271 C 
ATOM     17  O   UNL     1      -8.389  -8.164   9.463  1.00  0.00    -0.267 OA
ATOM     18  N   UNL     1      -6.956  -6.436   9.952  1.00  0.00    -0.339 N 
ATOM     19  H   UNL     1      -6.333  -5.763   9.513  1.00  0.00     0.164 HD
BRANCH  18  20
ATOM     20  C   UNL     1      -7.408  -6.288  11.329  1.00  0.00     0.168 CG0
ATOM     21  C   UNL     1      -6.541  -7.104  12.289  1.00  0.00     0.041 C 
ATOM     22  G   UNL     1      -7.390  -4.827  11.806  1.00  0.00     0.000 G0
ENDBRANCH  18  20
ENDBRANCH  15  16
ENDBRANCH  10  11
BRANCH  10  23
ATOM     23  C   UNL     1      -5.696  -4.864   4.069  1.00  0.00     0.015 C 
ATOM     24  C   UNL     1      -6.776  -3.877   4.543  1.00  0.00     0.010 C 
BRANCH  23  25
ATOM     25  C   UNL     1      -4.752  -4.132   3.089  1.00  0.00     0.002 C 
ATOM     26  C   UNL     1      -5.475  -3.296   2.042  1.00  0.00     0.004 C 
ENDBRANCH  23  25
ENDBRANCH  10  23
ENDBRANCH   7  10
ENDBRANCH   4   6
BRANCH   3  27
ATOM     27  C   UNL     1      -2.391  -2.892  11.206  1.00  0.00     0.171 C 
BRANCH  27  28
ATOM     28  N   UNL     1      -3.653  -3.267  11.835  1.00  0.00    -0.342 N 
ATOM     29  C   UNL     1      -4.668  -2.367  12.071  1.00  0.00     0.245 C 
ATOM     30  O   UNL     1      -4.592  -1.181  11.754  1.00  0.00    -0.273 OA
ATOM     31  H   UNL     1      -3.833  -4.253  12.021  1.00  0.00     0.164 HD
BRANCH  29  32
ATOM     32  C   UNL     1      -5.973  -2.975  12.626  1.00  0.00     0.200 C 
BRANCH  32  33
ATOM     33  N   UNL     1      -6.142  -4.312  12.045  1.00  0.00    -0.340 N 
ATOM     34  C   UNL     1      -7.396  -4.837  11.809  1.00  0.00     0.243 CG0
ATOM     35  O   UNL     1      -8.421  -4.241  12.132  1.00  0.00    -0.273 OA
ATOM     36  H   UNL     1      -5.314  -4.841  11.797  1.00  0.00     0.164 HD
ATOM     37  G   UNL     1      -7.427  -6.297  11.328  1.00  0.00     0.000 G0
ENDBRANCH  32  33
BRANCH  32  38
ATOM     38  C   UNL     1      -5.980  -2.984  14.172  1.00  0.00     0.143 C 
ATOM     39  C   UNL     1      -5.688  -4.347  14.788  1.00  0.00     0.041 C 
BRANCH  38  40
ATOM     40  O   UNL     1      -5.024  -2.030  14.675  1.00  0.00    -0.391 OA
ATOM     41  H   UNL     1      -4.177  -2.222  14.230  1.00  0.00     0.211 HD
ENDBRANCH  38  40
ENDBRANCH  32  38
ENDBRANCH  29  32
ENDBRANCH  27  28
BRANCH  27  42
ATOM     42  C   UNL     1      -1.189  -3.606  11.869  1.00  0.00     0.015 C 
ATOM     43  C   UNL     1      -1.459  -5.030  12.369  1.00  0.00     0.010 C 
ATOM     44  C   UNL     1       0.055  -3.585  10.975  1.00  0.00     0.010 C 
ENDBRANCH  27  42
ENDBRANCH   3  27
TORSDOF 5
ENDMDL
MODEL 42
REMARK VINA RESULT:    -4.753      3.945      6.827
REMARK INTER + INTRA:         -10.749
REMARK INTER:                  -8.545
REMARK INTRA:                  -2.204
REMARK UNBOUND:                -2.246
REMARK SMILES CC[C@H](C)[C@H]1NC(=O)c2coc(n2)[C@H](C(C)C)NC(=O)[C@H]([C@@H](C)O)NC(=O)[C@H](C)NC(=O)c2csc1n2
REMARK SMILES IDX 11 1 13 2 12 3 9 4 10 5 7 6 6 7 8 8 5 10 36 11 35 12 34 13
REMARK SMILES IDX 37 14 33 15 31 16 32 17 30 18 28 20 29 21 3 23 4 24 2 25
REMARK SMILES IDX 1 26 14 27 18 28 19 29 20 30 21 32 25 33 26 34 27 35 22 38
REMARK SMILES IDX 23 39 24 40 15 42 16 43 17 44
REMARK H PARENT 6 9 30 19 18 31 25 36 24 41
REMARK Flexibility Score:   94.900
ROOT
ATOM      1  O   UNL     1      -3.534  -7.107   9.980  1.00  0.00    -0.446 OA
ATOM      2  N   UNL     1      -4.291  -4.984   9.993  1.00  0.00    -0.207 NA
ATOM      3  C   UNL     1      -3.777  -5.962   9.269  1.00  0.00     0.217 A 
ATOM      4  C   UNL     1      -4.419  -5.530  11.259  1.00  0.00     0.167 A 
ATOM      5  C   UNL     1      -3.956  -6.823  11.244  1.00  0.00     0.231 A 
ENDROOT
BRANCH   4   6
ATOM      6  C   UNL     1      -4.938  -4.787  12.394  1.00  0.00     0.273 C 
ATOM      7  N   UNL     1      -6.187  -5.223  12.759  1.00  0.00    -0.341 N 
ATOM      8  O   UNL     1      -4.336  -3.869  12.936  1.00  0.00    -0.267 OA
ATOM      9  H   UNL     1      -6.600  -5.931  12.159  1.00  0.00     0.164 HD
BRANCH   7  10
ATOM     10  C   UNL     1      -7.035  -4.504  13.690  1.00  0.00     0.145 C 
BRANCH  10  11
ATOM     11  C   UNL     1      -7.775  -3.431  12.905  1.00  0.00     0.116 A 
ATOM     12  S   UNL     1      -8.445  -2.076  13.732  1.00  0.00    -0.124 S 
ATOM     13  C   UNL     1      -8.985  -1.441  12.240  1.00  0.00     0.101 A 
ATOM     14  N   UNL     1      -7.947  -3.434  11.593  1.00  0.00    -0.234 NA
ATOM     15  C   UNL     1      -8.630  -2.280  11.201  1.00  0.00     0.139 A 
BRANCH  15  16
ATOM     16  C   UNL     1      -8.925  -2.001   9.794  1.00  0.00     0.271 C 
ATOM     17  O   UNL     1      -9.946  -1.428   9.430  1.00  0.00    -0.267 OA
ATOM     18  N   UNL     1      -7.947  -2.442   8.928  1.00  0.00    -0.339 N 
ATOM     19  H   UNL     1      -7.205  -2.999   9.343  1.00  0.00     0.164 HD
BRANCH  18  20
ATOM     20  C   UNL     1      -8.102  -2.311   7.486  1.00  0.00     0.168 CG0
ATOM     21  C   UNL     1      -7.013  -1.418   6.888  1.00  0.00     0.041 C 
ATOM     22  G   UNL     1      -8.052  -3.664   6.758  1.00  0.00     0.000 G0
ENDBRANCH  18  20
ENDBRANCH  15  16
ENDBRANCH  10  11
BRANCH  10  23
ATOM     23  C   UNL     1      -8.000  -5.450  14.453  1.00  0.00     0.015 C 
ATOM     24  C   UNL     1      -8.209  -5.050  15.923  1.00  0.00     0.010 C 
BRANCH  23  25
ATOM     25  C   UNL     1      -9.383  -5.570  13.772  1.00  0.00     0.002 C 
ATOM     26  C   UNL     1      -9.622  -6.911  13.091  1.00  0.00     0.004 C 
ENDBRANCH  23  25
ENDBRANCH  10  23
ENDBRANCH   7  10
ENDBRANCH   4   6
BRANCH   3  27
ATOM     27  C   UNL     1      -3.403  -5.913   7.813  1.00  0.00     0.171 C 
BRANCH  27  28
ATOM     28  N   UNL     1      -4.528  -5.338   7.083  1.00  0.00    -0.342 N 
ATOM     29  C   UNL     1      -5.328  -6.076   6.239  1.00  0.00     0.245 C 
ATOM     30  O   UNL     1      -5.163  -7.280   6.051  1.00  0.00    -0.273 OA
ATOM     31  H   UNL     1      -4.796  -4.373   7.276  1.00  0.00     0.164 HD
BRANCH  29  32
ATOM     32  C   UNL     1      -6.543  -5.325   5.657  1.00  0.00     0.200 C 
BRANCH  32  33
ATOM     33  N   UNL     1      -6.762  -4.113   6.457  1.00  0.00    -0.340 N 
ATOM     34  C   UNL     1      -8.035  -3.669   6.752  1.00  0.00     0.243 CG0
ATOM     35  O   UNL     1      -9.036  -4.228   6.308  1.00  0.00    -0.273 OA
ATOM     36  H   UNL     1      -5.955  -3.613   6.811  1.00  0.00     0.164 HD
ATOM     37  G   UNL     1      -8.118  -2.317   7.477  1.00  0.00     0.000 G0
ENDBRANCH  32  33
BRANCH  32  38
ATOM     38  C   UNL     1      -6.357  -5.028   4.151  1.00  0.00     0.143 C 
ATOM     39  C   UNL     1      -4.996  -4.440   3.797  1.00  0.00     0.041 C 
BRANCH  38  40
ATOM     40  O   UNL     1      -6.561  -6.230   3.383  1.00  0.00    -0.391 OA
ATOM     41  H   UNL     1      -5.858  -6.854   3.649  1.00  0.00     0.211 HD
ENDBRANCH  38  40
ENDBRANCH  32  38
ENDBRANCH  29  32
ENDBRANCH  27  28
BRANCH  27  42
ATOM     42  C   UNL     1      -2.069  -5.220   7.442  1.00  0.00     0.015 C 
ATOM     43  C   UNL     1      -0.912  -5.448   8.422  1.00  0.00     0.010 C 
ATOM     44  C   UNL     1      -1.629  -5.553   6.013  1.00  0.00     0.010 C 
ENDBRANCH  27  42
ENDBRANCH   3  27
TORSDOF 5
ENDMDL
MODEL 43
REMARK VINA RESULT:    -4.752      3.531      7.049
REMARK INTER + INTRA:         -10.748
REMARK INTER:                  -8.349
REMARK INTRA:                  -2.399
REMARK UNBOUND:                -2.246
REMARK SMILES CC[C@H](C)[C@H]1NC(=O)c2coc(n2)[C@H](C(C)C)NC(=O)[C@H]([C@@H](C)O)NC(=O)[C@H](C)NC(=O)c2csc1n2
REMARK SMILES IDX 11 1 13 2 12 3 9 4 10 5 7 6 6 7 8 8 5 10 36 11 35 12 34 13
REMARK SMILES IDX 37 14 33 15 31 16 32 17 30 18 28 20 29 21 3 23 4 24 2 25
REMARK SMILES IDX 1 26 14 27 18 28 19 29 20 30 21 32 25 33 26 34 27 35 22 38
REMARK SMILES IDX 23 39 24 40 15 42 16 43 17 44
REMARK H PARENT 6 9 30 19 18 31 25 36 24 41
REMARK Flexibility Score:   94.900
ROOT
ATOM      1  O   UNL     1      -2.514  -2.950  13.453  1.00  0.00    -0.446 OA
ATOM      2  N   UNL     1      -3.544  -4.916  13.057  1.00  0.00    -0.207 NA
ATOM      3  C   UNL     1      -2.535  -4.123  12.745  1.00  0.00     0.217 A 
ATOM      4  C   UNL     1      -4.218  -4.232  14.054  1.00  0.00     0.167 A 
ATOM      5  C   UNL     1      -3.585  -3.036  14.291  1.00  0.00     0.231 A 
ENDROOT
BRANCH   4   6
ATOM      6  C   UNL     1      -5.421  -4.739  14.690  1.00  0.00     0.273 C 
ATOM      7  N   UNL     1      -5.611  -6.073  14.433  1.00  0.00    -0.341 N 
ATOM      8  O   UNL     1      -6.182  -4.044  15.353  1.00  0.00    -0.267 OA
ATOM      9  H   UNL     1      -4.947  -6.497  13.790  1.00  0.00     0.164 HD
BRANCH   7  10
ATOM     10  C   UNL     1      -6.846  -6.770  14.732  1.00  0.00     0.145 C 
BRANCH  10  11
ATOM     11  C   UNL     1      -7.533  -7.079  13.410  1.00  0.00     0.116 A 
ATOM     12  S   UNL     1      -9.234  -6.850  13.256  1.00  0.00    -0.124 S 
ATOM     13  C   UNL     1      -9.145  -7.342  11.622  1.00  0.00     0.101 A 
ATOM     14  N   UNL     1      -6.920  -7.511  12.320  1.00  0.00    -0.234 NA
ATOM     15  C   UNL     1      -7.842  -7.649  11.280  1.00  0.00     0.139 A 
BRANCH  15  16
ATOM     16  C   UNL     1      -7.433  -8.078   9.940  1.00  0.00     0.271 C 
ATOM     17  O   UNL     1      -7.746  -9.164   9.465  1.00  0.00    -0.267 OA
ATOM     18  N   UNL     1      -6.668  -7.144   9.273  1.00  0.00    -0.339 N 
ATOM     19  H   UNL     1      -6.385  -6.332   9.815  1.00  0.00     0.164 HD
BRANCH  18  20
ATOM     20  C   UNL     1      -6.115  -7.425   7.955  1.00  0.00     0.168 CG0
ATOM     21  C   UNL     1      -6.955  -6.781   6.850  1.00  0.00     0.041 C 
ATOM     22  G   UNL     1      -4.670  -6.926   7.798  1.00  0.00     0.000 G0
ENDBRANCH  18  20
ENDBRANCH  15  16
ENDBRANCH  10  11
BRANCH  10  23
ATOM     23  C   UNL     1      -6.609  -8.043  15.587  1.00  0.00     0.015 C 
ATOM     24  C   UNL     1      -5.162  -8.176  16.092  1.00  0.00     0.010 C 
BRANCH  23  25
ATOM     25  C   UNL     1      -7.565  -8.138  16.797  1.00  0.00     0.002 C 
ATOM     26  C   UNL     1      -7.477  -6.954  17.750  1.00  0.00     0.004 C 
ENDBRANCH  23  25
ENDBRANCH  10  23
ENDBRANCH   7  10
ENDBRANCH   4   6
BRANCH   3  27
ATOM     27  C   UNL     1      -1.487  -4.360  11.692  1.00  0.00     0.171 C 
BRANCH  27  28
ATOM     28  N   UNL     1      -2.137  -4.275  10.389  1.00  0.00    -0.342 N 
ATOM     29  C   UNL     1      -2.226  -5.346   9.528  1.00  0.00     0.245 C 
ATOM     30  O   UNL     1      -1.779  -6.458   9.801  1.00  0.00    -0.273 OA
ATOM     31  H   UNL     1      -2.631  -3.418  10.142  1.00  0.00     0.164 HD
BRANCH  29  32
ATOM     32  C   UNL     1      -3.061  -5.099   8.253  1.00  0.00     0.200 C 
BRANCH  32  33
ATOM     33  N   UNL     1      -4.366  -5.750   8.425  1.00  0.00    -0.340 N 
ATOM     34  C   UNL     1      -4.666  -6.934   7.783  1.00  0.00     0.243 CG0
ATOM     35  O   UNL     1      -3.884  -7.461   6.994  1.00  0.00    -0.273 OA
ATOM     36  H   UNL     1      -5.044  -5.323   9.045  1.00  0.00     0.164 HD
ATOM     37  G   UNL     1      -6.112  -7.431   7.941  1.00  0.00     0.000 G0
ENDBRANCH  32  33
BRANCH  32  38
ATOM     38  C   UNL     1      -3.177  -3.590   7.936  1.00  0.00     0.143 C 
ATOM     39  C   UNL     1      -2.027  -3.040   7.101  1.00  0.00     0.041 C 
BRANCH  38  40
ATOM     40  O   UNL     1      -4.418  -3.324   7.255  1.00  0.00    -0.391 OA
ATOM     41  H   UNL     1      -4.785  -2.510   7.651  1.00  0.00     0.211 HD
ENDBRANCH  38  40
ENDBRANCH  32  38
ENDBRANCH  29  32
ENDBRANCH  27  28
BRANCH  27  42
ATOM     42  C   UNL     1      -0.209  -3.488  11.749  1.00  0.00     0.015 C 
ATOM     43  C   UNL     1       1.112  -4.236  11.535  1.00  0.00     0.010 C 
ATOM     44  C   UNL     1      -0.295  -2.282  10.807  1.00  0.00     0.010 C 
ENDBRANCH  27  42
ENDBRANCH   3  27
TORSDOF 5
ENDMDL
MODEL 44
REMARK VINA RESULT:    -4.746      3.035      6.448
REMARK INTER + INTRA:         -10.737
REMARK INTER:                  -8.365
REMARK INTRA:                  -2.372
REMARK UNBOUND:                -2.246
REMARK SMILES CC[C@H](C)[C@H]1NC(=O)c2coc(n2)[C@H](C(C)C)NC(=O)[C@H]([C@@H](C)O)NC(=O)[C@H](C)NC(=O)c2csc1n2
REMARK SMILES IDX 11 1 13 2 12 3 9 4 10 5 7 6 6 7 8 8 5 10 36 11 35 12 34 13
REMARK SMILES IDX 37 14 33 15 31 16 32 17 30 18 28 20 29 21 3 23 4 24 2 25
REMARK SMILES IDX 1 26 14 27 18 28 19 29 20 30 21 32 25 33 26 34 27 35 22 38
REMARK SMILES IDX 23 39 24 40 15 42 16 43 17 44
REMARK H PARENT 6 9 30 19 18 31 25 36 24 41
REMARK Flexibility Score:   94.900
ROOT
ATOM      1  O   UNL     1      -4.345  -5.432  14.174  1.00  0.00    -0.446 OA
ATOM      2  N   UNL     1      -4.869  -3.931  12.576  1.00  0.00    -0.207 NA
ATOM      3  C   UNL     1      -5.328  -4.771  13.486  1.00  0.00     0.217 A 
ATOM      4  C   UNL     1      -3.493  -4.025  12.690  1.00  0.00     0.167 A 
ATOM      5  C   UNL     1      -3.180  -4.940  13.666  1.00  0.00     0.231 A 
ENDROOT
BRANCH   4   6
ATOM      6  C   UNL     1      -2.574  -3.271  11.856  1.00  0.00     0.273 C 
ATOM      7  N   UNL     1      -3.162  -2.869  10.684  1.00  0.00    -0.341 N 
ATOM      8  O   UNL     1      -1.408  -3.049  12.161  1.00  0.00    -0.267 OA
ATOM      9  H   UNL     1      -4.108  -3.206  10.527  1.00  0.00     0.164 HD
BRANCH   7  10
ATOM     10  C   UNL     1      -2.414  -2.321   9.569  1.00  0.00     0.145 C 
BRANCH  10  11
ATOM     11  C   UNL     1      -2.762  -3.140   8.334  1.00  0.00     0.116 A 
ATOM     12  S   UNL     1      -1.543  -3.486   7.167  1.00  0.00    -0.124 S 
ATOM     13  C   UNL     1      -2.679  -4.381   6.256  1.00  0.00     0.101 A 
ATOM     14  N   UNL     1      -3.957  -3.643   8.070  1.00  0.00    -0.234 NA
ATOM     15  C   UNL     1      -3.912  -4.374   6.881  1.00  0.00     0.139 A 
BRANCH  15  16
ATOM     16  C   UNL     1      -5.088  -5.076   6.363  1.00  0.00     0.271 C 
ATOM     17  O   UNL     1      -5.432  -5.020   5.187  1.00  0.00    -0.267 OA
ATOM     18  N   UNL     1      -5.765  -5.799   7.322  1.00  0.00    -0.339 N 
ATOM     19  H   UNL     1      -5.445  -5.675   8.280  1.00  0.00     0.164 HD
BRANCH  18  20
ATOM     20  C   UNL     1      -6.998  -6.506   7.005  1.00  0.00     0.168 CG0
ATOM     21  C   UNL     1      -6.715  -7.939   6.548  1.00  0.00     0.041 C 
ATOM     22  G   UNL     1      -7.967  -6.575   8.196  1.00  0.00     0.000 G0
ENDBRANCH  18  20
ENDBRANCH  15  16
ENDBRANCH  10  11
BRANCH  10  23
ATOM     23  C   UNL     1      -2.685  -0.806   9.370  1.00  0.00     0.015 C 
ATOM     24  C   UNL     1      -2.804  -0.398   7.892  1.00  0.00     0.010 C 
BRANCH  23  25
ATOM     25  C   UNL     1      -3.945  -0.320  10.121  1.00  0.00     0.002 C 
ATOM     26  C   UNL     1      -5.228  -0.423   9.307  1.00  0.00     0.004 C 
ENDBRANCH  23  25
ENDBRANCH  10  23
ENDBRANCH   7  10
ENDBRANCH   4   6
BRANCH   3  27
ATOM     27  C   UNL     1      -6.768  -5.091  13.782  1.00  0.00     0.171 C 
BRANCH  27  28
ATOM     28  N   UNL     1      -7.221  -6.062  12.792  1.00  0.00    -0.342 N 
ATOM     29  C   UNL     1      -7.899  -5.703  11.648  1.00  0.00     0.245 C 
ATOM     30  O   UNL     1      -8.158  -4.534  11.368  1.00  0.00    -0.273 OA
ATOM     31  H   UNL     1      -6.943  -7.037  12.899  1.00  0.00     0.164 HD
BRANCH  29  32
ATOM     32  C   UNL     1      -8.182  -6.855  10.661  1.00  0.00     0.200 C 
BRANCH  32  33
ATOM     33  N   UNL     1      -7.379  -6.633   9.452  1.00  0.00    -0.340 N 
ATOM     34  C   UNL     1      -7.961  -6.598   8.202  1.00  0.00     0.243 CG0
ATOM     35  O   UNL     1      -9.160  -6.813   8.037  1.00  0.00    -0.273 OA
ATOM     36  H   UNL     1      -6.382  -6.483   9.553  1.00  0.00     0.164 HD
ATOM     37  G   UNL     1      -6.988  -6.496   7.016  1.00  0.00     0.000 G0
ENDBRANCH  32  33
BRANCH  32  38
ATOM     38  C   UNL     1      -7.925  -8.234  11.311  1.00  0.00     0.143 C 
ATOM     39  C   UNL     1      -8.898  -9.321  10.870  1.00  0.00     0.041 C 
BRANCH  38  40
ATOM     40  O   UNL     1      -6.580  -8.668  11.030  1.00  0.00    -0.391 OA
ATOM     41  H   UNL     1      -6.624  -9.206  10.217  1.00  0.00     0.211 HD
ENDBRANCH  38  40
ENDBRANCH  32  38
ENDBRANCH  29  32
ENDBRANCH  27  28
BRANCH  27  42
ATOM     42  C   UNL     1      -7.118  -5.538  15.222  1.00  0.00     0.015 C 
ATOM     43  C   UNL     1      -8.180  -4.695  15.936  1.00  0.00     0.010 C 
ATOM     44  C   UNL     1      -7.488  -7.024  15.286  1.00  0.00     0.010 C 
ENDBRANCH  27  42
ENDBRANCH   3  27
TORSDOF 5
ENDMDL
MODEL 45
REMARK VINA RESULT:    -4.710      5.160      6.798
REMARK INTER + INTRA:         -10.673
REMARK INTER:                  -8.655
REMARK INTRA:                  -2.019
REMARK UNBOUND:                -2.246
REMARK SMILES CC[C@H](C)[C@H]1NC(=O)c2coc(n2)[C@H](C(C)C)NC(=O)[C@H]([C@@H](C)O)NC(=O)[C@H](C)NC(=O)c2csc1n2
REMARK SMILES IDX 11 1 13 2 12 3 9 4 10 5 7 6 6 7 8 8 5 10 36 11 35 12 34 13
REMARK SMILES IDX 37 14 33 15 31 16 32 17 30 18 28 20 29 21 3 23 4 24 2 25
REMARK SMILES IDX 1 26 14 27 18 28 19 29 20 30 21 32 25 33 26 34 27 35 22 38
REMARK SMILES IDX 23 39 24 40 15 42 16 43 17 44
REMARK H PARENT 6 9 30 19 18 31 25 36 24 41
REMARK Flexibility Score:   94.900
ROOT
ATOM      1  O   UNL     1      -9.643  -2.422   8.828  1.00  0.00    -0.446 OA
ATOM      2  N   UNL     1      -8.213  -2.085  10.538  1.00  0.00    -0.207 NA
ATOM      3  C   UNL     1      -9.476  -2.107  10.150  1.00  0.00     0.217 A 
ATOM      4  C   UNL     1      -7.504  -2.435   9.402  1.00  0.00     0.167 A 
ATOM      5  C   UNL     1      -8.380  -2.640   8.365  1.00  0.00     0.231 A 
ENDROOT
BRANCH   4   6
ATOM      6  C   UNL     1      -6.054  -2.523   9.367  1.00  0.00     0.273 C 
ATOM      7  N   UNL     1      -5.628  -3.793   9.069  1.00  0.00    -0.341 N 
ATOM      8  O   UNL     1      -5.312  -1.578   9.603  1.00  0.00    -0.267 OA
ATOM      9  H   UNL     1      -6.357  -4.496   8.990  1.00  0.00     0.164 HD
BRANCH   7  10
ATOM     10  C   UNL     1      -4.249  -4.219   9.211  1.00  0.00     0.145 C 
BRANCH  10  11
ATOM     11  C   UNL     1      -4.080  -4.769  10.620  1.00  0.00     0.116 A 
ATOM     12  S   UNL     1      -2.498  -4.979  11.271  1.00  0.00    -0.124 S 
ATOM     13  C   UNL     1      -3.182  -5.533  12.736  1.00  0.00     0.101 A 
ATOM     14  N   UNL     1      -5.073  -5.101  11.428  1.00  0.00    -0.234 NA
ATOM     15  C   UNL     1      -4.562  -5.527  12.657  1.00  0.00     0.139 A 
BRANCH  15  16
ATOM     16  C   UNL     1      -5.440  -5.921  13.761  1.00  0.00     0.271 C 
ATOM     17  O   UNL     1      -5.060  -6.613  14.699  1.00  0.00    -0.267 OA
ATOM     18  N   UNL     1      -6.727  -5.439  13.640  1.00  0.00    -0.339 N 
ATOM     19  H   UNL     1      -6.946  -4.973  12.764  1.00  0.00     0.164 HD
BRANCH  18  20
ATOM     20  C   UNL     1      -7.756  -5.787  14.610  1.00  0.00     0.168 CG0
ATOM     21  C   UNL     1      -7.906  -4.700  15.676  1.00  0.00     0.041 C 
ATOM     22  G   UNL     1      -9.134  -6.002  13.962  1.00  0.00     0.000 G0
ENDBRANCH  18  20
ENDBRANCH  15  16
ENDBRANCH  10  11
BRANCH  10  23
ATOM     23  C   UNL     1      -3.838  -5.245   8.122  1.00  0.00     0.015 C 
ATOM     24  C   UNL     1      -2.382  -5.085   7.654  1.00  0.00     0.010 C 
BRANCH  23  25
ATOM     25  C   UNL     1      -4.057  -6.709   8.566  1.00  0.00     0.002 C 
ATOM     26  C   UNL     1      -4.330  -7.669   7.417  1.00  0.00     0.004 C 
ENDBRANCH  23  25
ENDBRANCH  10  23
ENDBRANCH   7  10
ENDBRANCH   4   6
BRANCH   3  27
ATOM     27  C   UNL     1     -10.685  -1.778  10.982  1.00  0.00     0.171 C 
BRANCH  27  28
ATOM     28  N   UNL     1     -10.767  -2.758  12.059  1.00  0.00    -0.342 N 
ATOM     29  C   UNL     1     -11.317  -4.009  11.891  1.00  0.00     0.245 C 
ATOM     30  O   UNL     1     -11.766  -4.399  10.814  1.00  0.00    -0.273 OA
ATOM     31  H   UNL     1     -10.312  -2.549  12.947  1.00  0.00     0.164 HD
BRANCH  29  32
ATOM     32  C   UNL     1     -11.197  -4.952  13.107  1.00  0.00     0.200 C 
BRANCH  32  33
ATOM     33  N   UNL     1      -9.822  -4.874  13.616  1.00  0.00    -0.340 N 
ATOM     34  C   UNL     1      -9.114  -6.012  13.942  1.00  0.00     0.243 CG0
ATOM     35  O   UNL     1      -9.620  -7.131  13.882  1.00  0.00    -0.273 OA
ATOM     36  H   UNL     1      -9.389  -3.962  13.705  1.00  0.00     0.164 HD
ATOM     37  G   UNL     1      -7.740  -5.779  14.591  1.00  0.00     0.000 G0
ENDBRANCH  32  33
BRANCH  32  38
ATOM     38  C   UNL     1     -12.258  -4.624  14.183  1.00  0.00     0.143 C 
ATOM     39  C   UNL     1     -11.702  -3.904  15.406  1.00  0.00     0.041 C 
BRANCH  38  40
ATOM     40  O   UNL     1     -13.311  -3.824  13.609  1.00  0.00    -0.391 OA
ATOM     41  H   UNL     1     -13.632  -3.235  14.318  1.00  0.00     0.211 HD
ENDBRANCH  38  40
ENDBRANCH  32  38
ENDBRANCH  29  32
ENDBRANCH  27  28
BRANCH  27  42
ATOM     42  C   UNL     1     -10.809  -0.330  11.518  1.00  0.00     0.015 C 
ATOM     43  C   UNL     1     -11.017  -0.202  13.032  1.00  0.00     0.010 C 
ATOM     44  C   UNL     1      -9.639   0.550  11.067  1.00  0.00     0.010 C 
ENDBRANCH  27  42
ENDBRANCH   3  27
TORSDOF 5
ENDMDL
MODEL 46
REMARK VINA RESULT:    -4.697      2.072      3.339
REMARK INTER + INTRA:         -10.649
REMARK INTER:                  -8.459
REMARK INTRA:                  -2.190
REMARK UNBOUND:                -2.246
REMARK SMILES CC[C@H](C)[C@H]1NC(=O)c2coc(n2)[C@H](C(C)C)NC(=O)[C@H]([C@@H](C)O)NC(=O)[C@H](C)NC(=O)c2csc1n2
REMARK SMILES IDX 11 1 13 2 12 3 9 4 10 5 7 6 6 7 8 8 5 10 36 11 35 12 34 13
REMARK SMILES IDX 37 14 33 15 31 16 32 17 30 18 28 20 29 21 3 23 4 24 2 25
REMARK SMILES IDX 1 26 14 27 18 28 19 29 20 30 21 32 25 33 26 34 27 35 22 38
REMARK SMILES IDX 23 39 24 40 15 42 16 43 17 44
REMARK H PARENT 6 9 30 19 18 31 25 36 24 41
REMARK Flexibility Score:   94.900
ROOT
ATOM      1  O   UNL     1      -6.001  -3.731   7.052  1.00  0.00    -0.446 OA
ATOM      2  N   UNL     1      -4.196  -4.994   7.528  1.00  0.00    -0.207 NA
ATOM      3  C   UNL     1      -5.486  -4.986   7.244  1.00  0.00     0.217 A 
ATOM      4  C   UNL     1      -3.832  -3.659   7.495  1.00  0.00     0.167 A 
ATOM      5  C   UNL     1      -4.936  -2.896   7.204  1.00  0.00     0.231 A 
ENDROOT
BRANCH   4   6
ATOM      6  C   UNL     1      -2.482  -3.198   7.768  1.00  0.00     0.273 C 
ATOM      7  N   UNL     1      -1.652  -4.231   8.126  1.00  0.00    -0.341 N 
ATOM      8  O   UNL     1      -2.143  -2.022   7.708  1.00  0.00    -0.267 OA
ATOM      9  H   UNL     1      -2.097  -5.139   8.222  1.00  0.00     0.164 HD
BRANCH   7  10
ATOM     10  C   UNL     1      -0.331  -4.027   8.686  1.00  0.00     0.145 C 
BRANCH  10  11
ATOM     11  C   UNL     1      -0.304  -4.692  10.054  1.00  0.00     0.116 A 
ATOM     12  S   UNL     1       1.140  -4.656  10.994  1.00  0.00    -0.124 S 
ATOM     13  C   UNL     1       0.339  -5.502  12.244  1.00  0.00     0.101 A 
ATOM     14  N   UNL     1      -1.330  -5.308  10.618  1.00  0.00    -0.234 NA
ATOM     15  C   UNL     1      -0.970  -5.763  11.889  1.00  0.00     0.139 A 
BRANCH  15  16
ATOM     16  C   UNL     1      -1.926  -6.451  12.760  1.00  0.00     0.271 C 
ATOM     17  O   UNL     1      -1.599  -6.989  13.812  1.00  0.00    -0.267 OA
ATOM     18  N   UNL     1      -3.219  -6.433  12.281  1.00  0.00    -0.339 N 
ATOM     19  H   UNL     1      -3.341  -6.054  11.345  1.00  0.00     0.164 HD
BRANCH  18  20
ATOM     20  C   UNL     1      -4.293  -7.126  12.980  1.00  0.00     0.168 CG0
ATOM     21  C   UNL     1      -5.123  -6.157  13.824  1.00  0.00     0.041 C 
ATOM     22  G   UNL     1      -5.250  -7.856  12.024  1.00  0.00     0.000 G0
ENDBRANCH  18  20
ENDBRANCH  15  16
ENDBRANCH  10  11
BRANCH  10  23
ATOM     23  C   UNL     1       0.789  -4.553   7.750  1.00  0.00     0.015 C 
ATOM     24  C   UNL     1       0.678  -6.058   7.454  1.00  0.00     0.010 C 
BRANCH  23  25
ATOM     25  C   UNL     1       0.857  -3.789   6.409  1.00  0.00     0.002 C 
ATOM     26  C   UNL     1       0.277  -4.557   5.229  1.00  0.00     0.004 C 
ENDBRANCH  23  25
ENDBRANCH  10  23
ENDBRANCH   7  10
ENDBRANCH   4   6
BRANCH   3  27
ATOM     27  C   UNL     1      -6.406  -6.173   7.170  1.00  0.00     0.171 C 
BRANCH  27  28
ATOM     28  N   UNL     1      -6.914  -6.428   8.514  1.00  0.00    -0.342 N 
ATOM     29  C   UNL     1      -6.809  -7.654   9.132  1.00  0.00     0.245 C 
ATOM     30  O   UNL     1      -6.264  -8.622   8.603  1.00  0.00    -0.273 OA
ATOM     31  H   UNL     1      -7.275  -5.646   9.058  1.00  0.00     0.164 HD
BRANCH  29  32
ATOM     32  C   UNL     1      -7.287  -7.696  10.599  1.00  0.00     0.200 C 
BRANCH  32  33
ATOM     33  N   UNL     1      -6.248  -7.091  11.440  1.00  0.00    -0.340 N 
ATOM     34  C   UNL     1      -5.250  -7.857  12.007  1.00  0.00     0.243 CG0
ATOM     35  O   UNL     1      -5.222  -9.080  11.887  1.00  0.00    -0.273 OA
ATOM     36  H   UNL     1      -6.262  -6.088  11.583  1.00  0.00     0.164 HD
ATOM     37  G   UNL     1      -4.311  -7.118  12.974  1.00  0.00     0.000 G0
ENDBRANCH  32  33
BRANCH  32  38
ATOM     38  C   UNL     1      -8.667  -7.017  10.763  1.00  0.00     0.143 C 
ATOM     39  C   UNL     1      -9.432  -7.455  12.007  1.00  0.00     0.041 C 
BRANCH  38  40
ATOM     40  O   UNL     1      -8.512  -5.585  10.790  1.00  0.00    -0.391 OA
ATOM     41  H   UNL     1      -8.864  -5.282  11.647  1.00  0.00     0.211 HD
ENDBRANCH  38  40
ENDBRANCH  32  38
ENDBRANCH  29  32
ENDBRANCH  27  28
BRANCH  27  42
ATOM     42  C   UNL     1      -7.550  -6.125   6.128  1.00  0.00     0.015 C 
ATOM     43  C   UNL     1      -8.629  -5.065   6.380  1.00  0.00     0.010 C 
ATOM     44  C   UNL     1      -7.017  -6.010   4.696  1.00  0.00     0.010 C 
ENDBRANCH  27  42
ENDBRANCH   3  27
TORSDOF 5
ENDMDL
MODEL 47
REMARK VINA RESULT:    -4.676      4.497      8.056
REMARK INTER + INTRA:         -10.611
REMARK INTER:                  -8.501
REMARK INTRA:                  -2.111
REMARK UNBOUND:                -2.246
REMARK SMILES CC[C@H](C)[C@H]1NC(=O)c2coc(n2)[C@H](C(C)C)NC(=O)[C@H]([C@@H](C)O)NC(=O)[C@H](C)NC(=O)c2csc1n2
REMARK SMILES IDX 11 1 13 2 12 3 9 4 10 5 7 6 6 7 8 8 5 10 36 11 35 12 34 13
REMARK SMILES IDX 37 14 33 15 31 16 32 17 30 18 28 20 29 21 3 23 4 24 2 25
REMARK SMILES IDX 1 26 14 27 18 28 19 29 20 30 21 32 25 33 26 34 27 35 22 38
REMARK SMILES IDX 23 39 24 40 15 42 16 43 17 44
REMARK H PARENT 6 9 30 19 18 31 25 36 24 41
REMARK Flexibility Score:   94.900
ROOT
ATOM      1  O   UNL     1     -11.403  -4.380  12.022  1.00  0.00    -0.446 OA
ATOM      2  N   UNL     1      -9.229  -4.138  12.564  1.00  0.00    -0.207 NA
ATOM      3  C   UNL     1     -10.293  -4.919  12.614  1.00  0.00     0.217 A 
ATOM      4  C   UNL     1      -9.660  -3.022  11.869  1.00  0.00     0.167 A 
ATOM      5  C   UNL     1     -10.985  -3.175  11.541  1.00  0.00     0.231 A 
ENDROOT
BRANCH   4   6
ATOM      6  C   UNL     1      -8.805  -1.882  11.590  1.00  0.00     0.273 C 
ATOM      7  N   UNL     1      -8.384  -1.868  10.284  1.00  0.00    -0.341 N 
ATOM      8  O   UNL     1      -8.483  -1.053  12.433  1.00  0.00    -0.267 OA
ATOM      9  H   UNL     1      -8.656  -2.671   9.725  1.00  0.00     0.164 HD
BRANCH   7  10
ATOM     10  C   UNL     1      -7.334  -0.993   9.799  1.00  0.00     0.145 C 
BRANCH  10  11
ATOM     11  C   UNL     1      -6.384  -1.835   8.961  1.00  0.00     0.116 A 
ATOM     12  S   UNL     1      -4.989  -1.106   8.259  1.00  0.00    -0.124 S 
ATOM     13  C   UNL     1      -4.534  -2.620   7.608  1.00  0.00     0.101 A 
ATOM     14  N   UNL     1      -6.526  -3.129   8.722  1.00  0.00    -0.234 NA
ATOM     15  C   UNL     1      -5.453  -3.591   7.957  1.00  0.00     0.139 A 
BRANCH  15  16
ATOM     16  C   UNL     1      -5.331  -5.000   7.574  1.00  0.00     0.271 C 
ATOM     17  O   UNL     1      -5.046  -5.357   6.436  1.00  0.00    -0.267 OA
ATOM     18  N   UNL     1      -5.564  -5.875   8.614  1.00  0.00    -0.339 N 
ATOM     19  H   UNL     1      -5.900  -5.458   9.479  1.00  0.00     0.164 HD
BRANCH  18  20
ATOM     20  C   UNL     1      -5.553  -7.316   8.404  1.00  0.00     0.168 CG0
ATOM     21  C   UNL     1      -4.141  -7.888   8.542  1.00  0.00     0.041 C 
ATOM     22  G   UNL     1      -6.463  -8.067   9.389  1.00  0.00     0.000 G0
ENDBRANCH  18  20
ENDBRANCH  15  16
ENDBRANCH  10  11
BRANCH  10  23
ATOM     23  C   UNL     1      -7.899   0.220   9.014  1.00  0.00     0.015 C 
ATOM     24  C   UNL     1      -8.911  -0.176   7.926  1.00  0.00     0.010 C 
BRANCH  23  25
ATOM     25  C   UNL     1      -8.550   1.278   9.934  1.00  0.00     0.002 C 
ATOM     26  C   UNL     1      -8.542   2.687   9.359  1.00  0.00     0.004 C 
ENDBRANCH  23  25
ENDBRANCH  10  23
ENDBRANCH   7  10
ENDBRANCH   4   6
BRANCH   3  27
ATOM     27  C   UNL     1     -10.401  -6.263  13.282  1.00  0.00     0.171 C 
BRANCH  27  28
ATOM     28  N   UNL     1      -9.160  -6.987  13.032  1.00  0.00    -0.342 N 
ATOM     29  C   UNL     1      -8.808  -7.459  11.787  1.00  0.00     0.245 C 
ATOM     30  O   UNL     1      -9.509  -7.291  10.790  1.00  0.00    -0.273 OA
ATOM     31  H   UNL     1      -8.477  -7.064  13.785  1.00  0.00     0.164 HD
BRANCH  29  32
ATOM     32  C   UNL     1      -7.401  -8.085  11.692  1.00  0.00     0.200 C 
BRANCH  32  33
ATOM     33  N   UNL     1      -6.675  -7.423  10.602  1.00  0.00    -0.340 N 
ATOM     34  C   UNL     1      -6.457  -8.060   9.397  1.00  0.00     0.243 CG0
ATOM     35  O   UNL     1      -6.802  -9.224   9.205  1.00  0.00    -0.273 OA
ATOM     36  H   UNL     1      -6.351  -6.474  10.741  1.00  0.00     0.164 HD
ATOM     37  G   UNL     1      -5.566  -7.305   8.397  1.00  0.00     0.000 G0
ENDBRANCH  32  33
BRANCH  32  38
ATOM     38  C   UNL     1      -6.656  -8.010  13.045  1.00  0.00     0.143 C 
ATOM     39  C   UNL     1      -5.573  -9.068  13.219  1.00  0.00     0.041 C 
BRANCH  38  40
ATOM     40  O   UNL     1      -6.067  -6.706  13.212  1.00  0.00    -0.391 OA
ATOM     41  H   UNL     1      -6.444  -6.138  12.513  1.00  0.00     0.211 HD
ENDBRANCH  38  40
ENDBRANCH  32  38
ENDBRANCH  29  32
ENDBRANCH  27  28
BRANCH  27  42
ATOM     42  C   UNL     1     -10.780  -6.284  14.784  1.00  0.00     0.015 C 
ATOM     43  C   UNL     1     -11.848  -7.310  15.181  1.00  0.00     0.010 C 
ATOM     44  C   UNL     1      -9.548  -6.424  15.683  1.00  0.00     0.010 C 
ENDBRANCH  27  42
ENDBRANCH   3  27
TORSDOF 5
ENDMDL
MODEL 48
REMARK VINA RESULT:    -4.661      5.047      7.617
REMARK INTER + INTRA:         -10.586
REMARK INTER:                  -8.334
REMARK INTRA:                  -2.252
REMARK UNBOUND:                -2.246
REMARK SMILES CC[C@H](C)[C@H]1NC(=O)c2coc(n2)[C@H](C(C)C)NC(=O)[C@H]([C@@H](C)O)NC(=O)[C@H](C)NC(=O)c2csc1n2
REMARK SMILES IDX 11 1 13 2 12 3 9 4 10 5 7 6 6 7 8 8 5 10 36 11 35 12 34 13
REMARK SMILES IDX 37 14 33 15 31 16 32 17 30 18 28 20 29 21 3 23 4 24 2 25
REMARK SMILES IDX 1 26 14 27 18 28 19 29 20 30 21 32 25 33 26 34 27 35 22 38
REMARK SMILES IDX 23 39 24 40 15 42 16 43 17 44
REMARK H PARENT 6 9 30 19 18 31 25 36 24 41
REMARK Flexibility Score:   94.900
ROOT
ATOM      1  O   UNL     1      -7.340   0.757   9.384  1.00  0.00    -0.446 OA
ATOM      2  N   UNL     1      -7.869  -1.421   9.625  1.00  0.00    -0.207 NA
ATOM      3  C   UNL     1      -7.022  -0.547   9.112  1.00  0.00     0.217 A 
ATOM      4  C   UNL     1      -8.791  -0.642  10.303  1.00  0.00     0.167 A 
ATOM      5  C   UNL     1      -8.462   0.683  10.153  1.00  0.00     0.231 A 
ENDROOT
BRANCH   4   6
ATOM      6  C   UNL     1      -9.928  -1.198  11.016  1.00  0.00     0.273 C 
ATOM      7  N   UNL     1      -9.692  -1.281  12.366  1.00  0.00    -0.341 N 
ATOM      8  O   UNL     1     -10.958  -1.568  10.467  1.00  0.00    -0.267 OA
ATOM      9  H   UNL     1      -8.756  -1.022  12.666  1.00  0.00     0.164 HD
BRANCH   7  10
ATOM     10  C   UNL     1     -10.547  -2.017  13.275  1.00  0.00     0.145 C 
BRANCH  10  11
ATOM     11  C   UNL     1     -10.074  -3.463  13.283  1.00  0.00     0.116 A 
ATOM     12  S   UNL     1     -11.149  -4.711  13.789  1.00  0.00    -0.124 S 
ATOM     13  C   UNL     1      -9.937  -5.874  13.472  1.00  0.00     0.101 A 
ATOM     14  N   UNL     1      -8.872  -3.870  12.909  1.00  0.00    -0.234 NA
ATOM     15  C   UNL     1      -8.792  -5.262  12.999  1.00  0.00     0.139 A 
BRANCH  15  16
ATOM     16  C   UNL     1      -7.583  -5.991  12.610  1.00  0.00     0.271 C 
ATOM     17  O   UNL     1      -7.340  -7.129  12.995  1.00  0.00    -0.267 OA
ATOM     18  N   UNL     1      -6.754  -5.274  11.774  1.00  0.00    -0.339 N 
ATOM     19  H   UNL     1      -7.011  -4.303  11.618  1.00  0.00     0.164 HD
BRANCH  18  20
ATOM     20  C   UNL     1      -5.472  -5.813  11.338  1.00  0.00     0.168 CG0
ATOM     21  C   UNL     1      -5.571  -6.418   9.936  1.00  0.00     0.041 C 
ATOM     22  G   UNL     1      -4.358  -4.754  11.316  1.00  0.00     0.000 G0
ENDBRANCH  18  20
ENDBRANCH  15  16
ENDBRANCH  10  11
BRANCH  10  23
ATOM     23  C   UNL     1     -10.566  -1.394  14.696  1.00  0.00     0.015 C 
ATOM     24  C   UNL     1     -11.955  -1.424  15.356  1.00  0.00     0.010 C 
BRANCH  23  25
ATOM     25  C   UNL     1      -9.549  -2.055  15.653  1.00  0.00     0.002 C 
ATOM     26  C   UNL     1      -8.347  -1.179  15.980  1.00  0.00     0.004 C 
ENDBRANCH  23  25
ENDBRANCH  10  23
ENDBRANCH   7  10
ENDBRANCH   4   6
BRANCH   3  27
ATOM     27  C   UNL     1      -5.826  -0.843   8.249  1.00  0.00     0.171 C 
BRANCH  27  28
ATOM     28  N   UNL     1      -5.091  -1.942   8.866  1.00  0.00    -0.342 N 
ATOM     29  C   UNL     1      -3.737  -1.891   9.110  1.00  0.00     0.245 C 
ATOM     30  O   UNL     1      -3.048  -0.909   8.839  1.00  0.00    -0.273 OA
ATOM     31  H   UNL     1      -5.613  -2.742   9.221  1.00  0.00     0.164 HD
BRANCH  29  32
ATOM     32  C   UNL     1      -3.161  -3.095   9.886  1.00  0.00     0.200 C 
BRANCH  32  33
ATOM     33  N   UNL     1      -4.243  -4.061  10.107  1.00  0.00    -0.340 N 
ATOM     34  C   UNL     1      -4.366  -4.738  11.303  1.00  0.00     0.243 CG0
ATOM     35  O   UNL     1      -3.543  -4.612  12.208  1.00  0.00    -0.273 OA
ATOM     36  H   UNL     1      -4.920  -4.210   9.367  1.00  0.00     0.164 HD
ATOM     37  G   UNL     1      -5.459  -5.818  11.349  1.00  0.00     0.000 G0
ENDBRANCH  32  33
BRANCH  32  38
ATOM     38  C   UNL     1      -1.944  -3.709   9.154  1.00  0.00     0.143 C 
ATOM     39  C   UNL     1      -2.251  -4.207   7.747  1.00  0.00     0.041 C 
BRANCH  38  40
ATOM     40  O   UNL     1      -0.873  -2.748   9.087  1.00  0.00    -0.391 OA
ATOM     41  H   UNL     1      -1.138  -2.081   8.425  1.00  0.00     0.211 HD
ENDBRANCH  38  40
ENDBRANCH  32  38
ENDBRANCH  29  32
ENDBRANCH  27  28
BRANCH  27  42
ATOM     42  C   UNL     1      -6.079  -1.102   6.743  1.00  0.00     0.015 C 
ATOM     43  C   UNL     1      -5.537  -0.032   5.788  1.00  0.00     0.010 C 
ATOM     44  C   UNL     1      -5.599  -2.492   6.312  1.00  0.00     0.010 C 
ENDBRANCH  27  42
ENDBRANCH   3  27
TORSDOF 5
ENDMDL
MODEL 49
REMARK VINA RESULT:    -4.592      3.612      6.609
REMARK INTER + INTRA:         -10.461
REMARK INTER:                  -8.221
REMARK INTRA:                  -2.240
REMARK UNBOUND:                -2.246
REMARK SMILES CC[C@H](C)[C@H]1NC(=O)c2coc(n2)[C@H](C(C)C)NC(=O)[C@H]([C@@H](C)O)NC(=O)[C@H](C)NC(=O)c2csc1n2
REMARK SMILES IDX 11 1 13 2 12 3 9 4 10 5 7 6 6 7 8 8 5 10 36 11 35 12 34 13
REMARK SMILES IDX 37 14 33 15 31 16 32 17 30 18 28 20 29 21 3 23 4 24 2 25
REMARK SMILES IDX 1 26 14 27 18 28 19 29 20 30 21 32 25 33 26 34 27 35 22 38
REMARK SMILES IDX 23 39 24 40 15 42 16 43 17 44
REMARK H PARENT 6 9 30 19 18 31 25 36 24 41
REMARK Flexibility Score:   94.900
ROOT
ATOM      1  O   UNL     1      -5.145  -8.717  11.044  1.00  0.00    -0.446 OA
ATOM      2  N   UNL     1      -5.466  -6.790   9.919  1.00  0.00    -0.207 NA
ATOM      3  C   UNL     1      -5.957  -7.641  10.802  1.00  0.00     0.217 A 
ATOM      4  C   UNL     1      -4.237  -7.327   9.577  1.00  0.00     0.167 A 
ATOM      5  C   UNL     1      -4.047  -8.500  10.266  1.00  0.00     0.231 A 
ENDROOT
BRANCH   4   6
ATOM      6  C   UNL     1      -3.345  -6.715   8.608  1.00  0.00     0.273 C 
ATOM      7  N   UNL     1      -2.294  -6.074   9.216  1.00  0.00    -0.341 N 
ATOM      8  O   UNL     1      -3.532  -6.750   7.398  1.00  0.00    -0.267 OA
ATOM      9  H   UNL     1      -2.321  -6.050  10.231  1.00  0.00     0.164 HD
BRANCH   7  10
ATOM     10  C   UNL     1      -1.399  -5.178   8.511  1.00  0.00     0.145 C 
BRANCH  10  11
ATOM     11  C   UNL     1      -2.051  -3.804   8.482  1.00  0.00     0.116 A 
ATOM     12  S   UNL     1      -1.629  -2.684   7.242  1.00  0.00    -0.124 S 
ATOM     13  C   UNL     1      -2.744  -1.560   7.888  1.00  0.00     0.101 A 
ATOM     14  N   UNL     1      -2.959  -3.377   9.344  1.00  0.00    -0.234 NA
ATOM     15  C   UNL     1      -3.375  -2.089   8.997  1.00  0.00     0.139 A 
BRANCH  15  16
ATOM     16  C   UNL     1      -4.406  -1.382   9.760  1.00  0.00     0.271 C 
ATOM     17  O   UNL     1      -4.370  -0.173   9.964  1.00  0.00    -0.267 OA
ATOM     18  N   UNL     1      -5.412  -2.204  10.220  1.00  0.00    -0.339 N 
ATOM     19  H   UNL     1      -5.270  -3.201  10.080  1.00  0.00     0.164 HD
BRANCH  18  20
ATOM     20  C   UNL     1      -6.488  -1.686  11.055  1.00  0.00     0.168 CG0
ATOM     21  C   UNL     1      -7.840  -1.787  10.346  1.00  0.00     0.041 C 
ATOM     22  G   UNL     1      -6.604  -2.423  12.399  1.00  0.00     0.000 G0
ENDBRANCH  18  20
ENDBRANCH  15  16
ENDBRANCH  10  11
BRANCH  10  23
ATOM     23  C   UNL     1       0.017  -5.147   9.145  1.00  0.00     0.015 C 
ATOM     24  C   UNL     1       1.147  -5.032   8.108  1.00  0.00     0.010 C 
BRANCH  23  25
ATOM     25  C   UNL     1       0.183  -4.015  10.185  1.00  0.00     0.002 C 
ATOM     26  C   UNL     1       1.379  -4.194  11.109  1.00  0.00     0.004 C 
ENDBRANCH  23  25
ENDBRANCH  10  23
ENDBRANCH   7  10
ENDBRANCH   4   6
BRANCH   3  27
ATOM     27  C   UNL     1      -7.292  -7.564  11.490  1.00  0.00     0.171 C 
BRANCH  27  28
ATOM     28  N   UNL     1      -7.468  -6.198  11.971  1.00  0.00    -0.342 N 
ATOM     29  C   UNL     1      -7.477  -5.872  13.309  1.00  0.00     0.245 C 
ATOM     30  O   UNL     1      -7.321  -6.707  14.198  1.00  0.00    -0.273 OA
ATOM     31  H   UNL     1      -7.488  -5.438  11.292  1.00  0.00     0.164 HD
BRANCH  29  32
ATOM     32  C   UNL     1      -7.545  -4.362  13.620  1.00  0.00     0.200 C 
BRANCH  32  33
ATOM     33  N   UNL     1      -7.277  -3.624  12.379  1.00  0.00    -0.340 N 
ATOM     34  C   UNL     1      -6.580  -2.434  12.390  1.00  0.00     0.243 CG0
ATOM     35  O   UNL     1      -6.209  -1.908  13.438  1.00  0.00    -0.273 OA
ATOM     36  H   UNL     1      -7.598  -4.017  11.502  1.00  0.00     0.164 HD
ATOM     37  G   UNL     1      -6.492  -1.700  11.042  1.00  0.00     0.000 G0
ENDBRANCH  32  33
BRANCH  32  38
ATOM     38  C   UNL     1      -8.894  -3.979  14.270  1.00  0.00     0.143 C 
ATOM     39  C   UNL     1     -10.112  -4.288  13.406  1.00  0.00     0.041 C 
BRANCH  38  40
ATOM     40  O   UNL     1      -9.038  -4.649  15.538  1.00  0.00    -0.391 OA
ATOM     41  H   UNL     1      -9.566  -5.453  15.370  1.00  0.00     0.211 HD
ENDBRANCH  38  40
ENDBRANCH  32  38
ENDBRANCH  29  32
ENDBRANCH  27  28
BRANCH  27  42
ATOM     42  C   UNL     1      -8.531  -8.054  10.701  1.00  0.00     0.015 C 
ATOM     43  C   UNL     1      -9.643  -8.688  11.544  1.00  0.00     0.010 C 
ATOM     44  C   UNL     1      -9.107  -6.956   9.801  1.00  0.00     0.010 C 
ENDBRANCH  27  42
ENDBRANCH   3  27
TORSDOF 5
ENDMDL
MODEL 50
REMARK VINA RESULT:    -4.520      4.408      7.294
REMARK INTER + INTRA:         -10.333
REMARK INTER:                  -8.138
REMARK INTRA:                  -2.195
REMARK UNBOUND:                -2.246
REMARK SMILES CC[C@H](C)[C@H]1NC(=O)c2coc(n2)[C@H](C(C)C)NC(=O)[C@H]([C@@H](C)O)NC(=O)[C@H](C)NC(=O)c2csc1n2
REMARK SMILES IDX 11 1 13 2 12 3 9 4 10 5 7 6 6 7 8 8 5 10 36 11 35 12 34 13
REMARK SMILES IDX 37 14 33 15 31 16 32 17 30 18 28 20 29 21 3 23 4 24 2 25
REMARK SMILES IDX 1 26 14 27 18 28 19 29 20 30 21 32 25 33 26 34 27 35 22 38
REMARK SMILES IDX 23 39 24 40 15 42 16 43 17 44
REMARK H PARENT 6 9 30 19 18 31 25 36 24 41
REMARK Flexibility Score:   94.900
ROOT
ATOM      1  O   UNL     1      -0.778  -3.488  12.107  1.00  0.00    -0.446 OA
ATOM      2  N   UNL     1      -2.948  -4.080  12.263  1.00  0.00    -0.207 NA
ATOM      3  C   UNL     1      -1.755  -4.393  11.789  1.00  0.00     0.217 A 
ATOM      4  C   UNL     1      -2.736  -2.904  12.962  1.00  0.00     0.167 A 
ATOM      5  C   UNL     1      -1.413  -2.550  12.864  1.00  0.00     0.231 A 
ENDROOT
BRANCH   4   6
ATOM      6  C   UNL     1      -3.798  -2.186  13.646  1.00  0.00     0.273 C 
ATOM      7  N   UNL     1      -5.038  -2.655  13.296  1.00  0.00    -0.341 N 
ATOM      8  O   UNL     1      -3.598  -1.258  14.420  1.00  0.00    -0.267 OA
ATOM      9  H   UNL     1      -5.052  -3.368  12.572  1.00  0.00     0.164 HD
BRANCH   7  10
ATOM     10  C   UNL     1      -6.269  -1.967  13.633  1.00  0.00     0.145 C 
BRANCH  10  11
ATOM     11  C   UNL     1      -7.187  -2.046  12.421  1.00  0.00     0.116 A 
ATOM     12  S   UNL     1      -8.895  -1.954  12.636  1.00  0.00    -0.124 S 
ATOM     13  C   UNL     1      -9.106  -2.069  10.943  1.00  0.00     0.101 A 
ATOM     14  N   UNL     1      -6.780  -2.170  11.169  1.00  0.00    -0.234 NA
ATOM     15  C   UNL     1      -7.882  -2.167  10.309  1.00  0.00     0.139 A 
BRANCH  15  16
ATOM     16  C   UNL     1      -7.724  -2.252   8.856  1.00  0.00     0.271 C 
ATOM     17  O   UNL     1      -8.623  -1.969   8.072  1.00  0.00    -0.267 OA
ATOM     18  N   UNL     1      -6.474  -2.679   8.462  1.00  0.00    -0.339 N 
ATOM     19  H   UNL     1      -5.855  -2.989   9.206  1.00  0.00     0.164 HD
BRANCH  18  20
ATOM     20  C   UNL     1      -6.156  -2.889   7.056  1.00  0.00     0.168 CG0
ATOM     21  C   UNL     1      -5.425  -1.682   6.464  1.00  0.00     0.041 C 
ATOM     22  G   UNL     1      -5.280  -4.130   6.823  1.00  0.00     0.000 G0
ENDBRANCH  18  20
ENDBRANCH  15  16
ENDBRANCH  10  11
BRANCH  10  23
ATOM     23  C   UNL     1      -6.930  -2.541  14.914  1.00  0.00     0.015 C 
ATOM     24  C   UNL     1      -6.425  -3.946  15.282  1.00  0.00     0.010 C 
BRANCH  23  25
ATOM     25  C   UNL     1      -6.759  -1.616  16.141  1.00  0.00     0.002 C 
ATOM     26  C   UNL     1      -8.004  -0.811  16.486  1.00  0.00     0.004 C 
ENDBRANCH  23  25
ENDBRANCH  10  23
ENDBRANCH   7  10
ENDBRANCH   4   6
BRANCH   3  27
ATOM     27  C   UNL     1      -1.405  -5.573  10.924  1.00  0.00     0.171 C 
BRANCH  27  28
ATOM     28  N   UNL     1      -1.796  -5.256   9.555  1.00  0.00    -0.342 N 
ATOM     29  C   UNL     1      -2.857  -5.862   8.921  1.00  0.00     0.245 C 
ATOM     30  O   UNL     1      -3.564  -6.707   9.468  1.00  0.00    -0.273 OA
ATOM     31  H   UNL     1      -1.329  -4.485   9.078  1.00  0.00     0.164 HD
BRANCH  29  32
ATOM     32  C   UNL     1      -3.197  -5.304   7.523  1.00  0.00     0.200 C 
BRANCH  32  33
ATOM     33  N   UNL     1      -4.187  -4.232   7.683  1.00  0.00    -0.340 N 
ATOM     34  C   UNL     1      -5.278  -4.134   6.844  1.00  0.00     0.243 CG0
ATOM     35  O   UNL     1      -5.435  -4.895   5.891  1.00  0.00    -0.273 OA
ATOM     36  H   UNL     1      -4.068  -3.571   8.442  1.00  0.00     0.164 HD
ATOM     37  G   UNL     1      -6.158  -2.889   7.037  1.00  0.00     0.000 G0
ENDBRANCH  32  33
BRANCH  32  38
ATOM     38  C   UNL     1      -1.925  -4.842   6.774  1.00  0.00     0.143 C 
ATOM     39  C   UNL     1      -2.028  -4.934   5.256  1.00  0.00     0.041 C 
BRANCH  38  40
ATOM     40  O   UNL     1      -1.603  -3.485   7.139  1.00  0.00    -0.391 OA
ATOM     41  H   UNL     1      -0.875  -3.204   6.553  1.00  0.00     0.211 HD
ENDBRANCH  38  40
ENDBRANCH  32  38
ENDBRANCH  29  32
ENDBRANCH  27  28
BRANCH  27  42
ATOM     42  C   UNL     1       0.049  -6.101  10.993  1.00  0.00     0.015 C 
ATOM     43  C   UNL     1       1.104  -5.226  10.307  1.00  0.00     0.010 C 
ATOM     44  C   UNL     1       0.476  -6.418  12.431  1.00  0.00     0.010 C 
ENDBRANCH  27  42
ENDBRANCH   3  27
TORSDOF 5
ENDMDL
