MODEL 1
REMARK VINA RESULT:    -6.609      0.000      0.000
REMARK INTER + INTRA:         -13.670
REMARK INTER:                 -11.825
REMARK INTRA:                  -1.845
REMARK UNBOUND:                -1.845
REMARK SMILES CC[C@H](C)[C@H]1NC(=O)c2coc(n2)[C@H](C(C)C)NC(=O)[C@H]([C@@H](C)O)NC(=O)[C@H](C)NC(=O)c2csc1n2
REMARK SMILES IDX 11 1 13 2 12 3 9 4 10 5 7 6 6 7 8 8 5 10 36 11 35 12 34 13
REMARK SMILES IDX 37 14 33 15 31 16 32 17 30 18 28 20 29 21 3 23 4 24 2 25
REMARK SMILES IDX 1 26 14 27 18 28 19 29 20 30 21 32 25 33 26 34 27 35 22 38
REMARK SMILES IDX 23 39 24 40 15 42 16 43 17 44
REMARK H PARENT 6 9 30 19 18 31 25 36 24 41
REMARK Flexibility Score:   94.900
ROOT
ATOM      1  O   UNL     1     -13.016 -13.169   6.919  1.00  0.00    -0.446 OA
ATOM      2  N   UNL     1     -14.335 -11.435   6.338  1.00  0.00    -0.207 NA
ATOM      3  C   UNL     1     -14.123 -12.735   6.239  1.00  0.00     0.217 A 
ATOM      4  C   UNL     1     -13.315 -10.987   7.160  1.00  0.00     0.167 A 
ATOM      5  C   UNL     1     -12.516 -12.048   7.511  1.00  0.00     0.231 A 
ENDROOT
BRANCH   4   6
ATOM      6  C   UNL     1     -13.149  -9.592   7.531  1.00  0.00     0.273 C 
ATOM      7  N   UNL     1     -14.222  -8.831   7.143  1.00  0.00    -0.341 N 
ATOM      8  O   UNL     1     -12.155  -9.156   8.098  1.00  0.00    -0.267 OA
ATOM      9  H   UNL     1     -14.931  -9.314   6.598  1.00  0.00     0.164 HD
BRANCH   7  10
ATOM     10  C   UNL     1     -14.213  -7.381   7.163  1.00  0.00     0.145 C 
BRANCH  10  11
ATOM     11  C   UNL     1     -14.994  -6.899   5.950  1.00  0.00     0.116 A 
ATOM     12  S   UNL     1     -15.886  -5.426   6.037  1.00  0.00    -0.124 S 
ATOM     13  C   UNL     1     -16.355  -5.622   4.405  1.00  0.00     0.101 A 
ATOM     14  N   UNL     1     -15.044  -7.521   4.783  1.00  0.00    -0.234 NA
ATOM     15  C   UNL     1     -15.813  -6.781   3.883  1.00  0.00     0.139 A 
BRANCH  15  16
ATOM     16  C   UNL     1     -16.008  -7.216   2.498  1.00  0.00     0.271 C 
ATOM     17  O   UNL     1     -16.735  -6.620   1.710  1.00  0.00    -0.267 OA
ATOM     18  N   UNL     1     -15.298  -8.352   2.172  1.00  0.00    -0.339 N 
ATOM     19  H   UNL     1     -14.821  -8.814   2.942  1.00  0.00     0.164 HD
BRANCH  18  20
ATOM     20  C   UNL     1     -15.421  -8.968   0.858  1.00  0.00     0.168 CG0
ATOM     21  C   UNL     1     -14.103  -8.898   0.084  1.00  0.00     0.041 C 
ATOM     22  G   UNL     1     -15.845 -10.444   0.932  1.00  0.00     0.000 G0
ENDBRANCH  18  20
ENDBRANCH  15  16
ENDBRANCH  10  11
BRANCH  10  23
ATOM     23  C   UNL     1     -14.774  -6.811   8.493  1.00  0.00     0.015 C 
ATOM     24  C   UNL     1     -15.339  -7.892   9.429  1.00  0.00     0.010 C 
BRANCH  23  25
ATOM     25  C   UNL     1     -13.732  -5.977   9.272  1.00  0.00     0.002 C 
ATOM     26  C   UNL     1     -13.237  -4.747   8.523  1.00  0.00     0.004 C 
ENDBRANCH  23  25
ENDBRANCH  10  23
ENDBRANCH   7  10
ENDBRANCH   4   6
BRANCH   3  27
ATOM     27  C   UNL     1     -14.923 -13.725   5.437  1.00  0.00     0.171 C 
BRANCH  27  28
ATOM     28  N   UNL     1     -14.677 -13.457   4.024  1.00  0.00    -0.342 N 
ATOM     29  C   UNL     1     -15.673 -13.082   3.151  1.00  0.00     0.245 C 
ATOM     30  O   UNL     1     -16.843 -12.929   3.502  1.00  0.00    -0.273 OA
ATOM     31  H   UNL     1     -13.716 -13.452   3.686  1.00  0.00     0.164 HD
BRANCH  29  32
ATOM     32  C   UNL     1     -15.200 -12.717   1.728  1.00  0.00     0.200 C 
BRANCH  32  33
ATOM     33  N   UNL     1     -14.988 -11.266   1.671  1.00  0.00    -0.340 N 
ATOM     34  C   UNL     1     -15.830 -10.446   0.948  1.00  0.00     0.243 CG0
ATOM     35  O   UNL     1     -16.752 -10.898   0.272  1.00  0.00    -0.273 OA
ATOM     36  H   UNL     1     -14.217 -10.867   2.194  1.00  0.00     0.164 HD
ATOM     37  G   UNL     1     -15.412  -8.970   0.862  1.00  0.00     0.000 G0
ENDBRANCH  32  33
BRANCH  32  38
ATOM     38  C   UNL     1     -13.946 -13.526   1.325  1.00  0.00     0.143 C 
ATOM     39  C   UNL     1     -12.630 -12.895   1.764  1.00  0.00     0.041 C 
BRANCH  38  40
ATOM     40  O   UNL     1     -14.027 -14.861   1.862  1.00  0.00    -0.391 OA
ATOM     41  H   UNL     1     -14.769 -15.301   1.406  1.00  0.00     0.211 HD
ENDBRANCH  38  40
ENDBRANCH  32  38
ENDBRANCH  29  32
ENDBRANCH  27  28
BRANCH  27  42
ATOM     42  C   UNL     1     -14.742 -15.226   5.772  1.00  0.00     0.015 C 
ATOM     43  C   UNL     1     -16.002 -16.089   5.640  1.00  0.00     0.010 C 
ATOM     44  C   UNL     1     -13.584 -15.852   4.989  1.00  0.00     0.010 C 
ENDBRANCH  27  42
ENDBRANCH   3  27
TORSDOF 5
ENDMDL
MODEL 2
REMARK VINA RESULT:    -6.486      3.057      6.534
REMARK INTER + INTRA:         -13.449
REMARK INTER:                 -11.575
REMARK INTRA:                  -1.874
REMARK UNBOUND:                -1.845
REMARK SMILES CC[C@H](C)[C@H]1NC(=O)c2coc(n2)[C@H](C(C)C)NC(=O)[C@H]([C@@H](C)O)NC(=O)[C@H](C)NC(=O)c2csc1n2
REMARK SMILES IDX 11 1 13 2 12 3 9 4 10 5 7 6 6 7 8 8 5 10 36 11 35 12 34 13
REMARK SMILES IDX 37 14 33 15 31 16 32 17 30 18 28 20 29 21 3 23 4 24 2 25
REMARK SMILES IDX 1 26 14 27 18 28 19 29 20 30 21 32 25 33 26 34 27 35 22 38
REMARK SMILES IDX 23 39 24 40 15 42 16 43 17 44
REMARK H PARENT 6 9 30 19 18 31 25 36 24 41
REMARK Flexibility Score:   94.900
ROOT
ATOM      1  O   UNL     1     -12.588 -10.783  -0.217  1.00  0.00    -0.446 OA
ATOM      2  N   UNL     1     -13.153  -9.712   1.685  1.00  0.00    -0.207 NA
ATOM      3  C   UNL     1     -12.212 -10.374   1.035  1.00  0.00     0.217 A 
ATOM      4  C   UNL     1     -14.209  -9.661   0.793  1.00  0.00     0.167 A 
ATOM      5  C   UNL     1     -13.859 -10.314  -0.364  1.00  0.00     0.231 A 
ENDROOT
BRANCH   4   6
ATOM      6  C   UNL     1     -15.479  -9.027   1.102  1.00  0.00     0.273 C 
ATOM      7  N   UNL     1     -15.307  -7.782   1.653  1.00  0.00    -0.341 N 
ATOM      8  O   UNL     1     -16.566  -9.560   0.914  1.00  0.00    -0.267 OA
ATOM      9  H   UNL     1     -14.345  -7.510   1.835  1.00  0.00     0.164 HD
BRANCH   7  10
ATOM     10  C   UNL     1     -16.382  -7.038   2.279  1.00  0.00     0.145 C 
BRANCH  10  11
ATOM     11  C   UNL     1     -15.992  -6.798   3.730  1.00  0.00     0.116 A 
ATOM     12  S   UNL     1     -16.357  -5.288   4.475  1.00  0.00    -0.124 S 
ATOM     13  C   UNL     1     -15.680  -5.854   5.939  1.00  0.00     0.101 A 
ATOM     14  N   UNL     1     -15.388  -7.681   4.509  1.00  0.00    -0.234 NA
ATOM     15  C   UNL     1     -15.220  -7.149   5.789  1.00  0.00     0.139 A 
BRANCH  15  16
ATOM     16  C   UNL     1     -14.610  -7.924   6.872  1.00  0.00     0.271 C 
ATOM     17  O   UNL     1     -14.665  -7.582   8.048  1.00  0.00    -0.267 OA
ATOM     18  N   UNL     1     -13.976  -9.069   6.439  1.00  0.00    -0.339 N 
ATOM     19  H   UNL     1     -13.905  -9.184   5.431  1.00  0.00     0.164 HD
BRANCH  18  20
ATOM     20  C   UNL     1     -13.255  -9.930   7.367  1.00  0.00     0.168 CG0
ATOM     21  C   UNL     1     -14.066 -11.181   7.709  1.00  0.00     0.041 C 
ATOM     22  G   UNL     1     -11.894 -10.387   6.819  1.00  0.00     0.000 G0
ENDBRANCH  18  20
ENDBRANCH  15  16
ENDBRANCH  10  11
BRANCH  10  23
ATOM     23  C   UNL     1     -16.697  -5.718   1.526  1.00  0.00     0.015 C 
ATOM     24  C   UNL     1     -16.473  -5.816   0.007  1.00  0.00     0.010 C 
BRANCH  23  25
ATOM     25  C   UNL     1     -18.134  -5.211   1.783  1.00  0.00     0.002 C 
ATOM     26  C   UNL     1     -18.835  -4.682   0.539  1.00  0.00     0.004 C 
ENDBRANCH  23  25
ENDBRANCH  10  23
ENDBRANCH   7  10
ENDBRANCH   4   6
BRANCH   3  27
ATOM     27  C   UNL     1     -10.847 -10.745   1.546  1.00  0.00     0.171 C 
BRANCH  27  28
ATOM     28  N   UNL     1     -11.020 -11.445   2.815  1.00  0.00    -0.342 N 
ATOM     29  C   UNL     1     -10.303 -11.127   3.947  1.00  0.00     0.245 C 
ATOM     30  O   UNL     1      -9.474 -10.220   3.976  1.00  0.00    -0.273 OA
ATOM     31  H   UNL     1     -11.769 -12.131   2.898  1.00  0.00     0.164 HD
BRANCH  29  32
ATOM     32  C   UNL     1     -10.717 -11.889   5.224  1.00  0.00     0.200 C 
BRANCH  32  33
ATOM     33  N   UNL     1     -11.937 -11.269   5.755  1.00  0.00    -0.340 N 
ATOM     34  C   UNL     1     -11.891 -10.402   6.828  1.00  0.00     0.243 CG0
ATOM     35  O   UNL     1     -10.844 -10.161   7.424  1.00  0.00    -0.273 OA
ATOM     36  H   UNL     1     -12.821 -11.473   5.304  1.00  0.00     0.164 HD
ATOM     37  G   UNL     1     -13.253  -9.936   7.366  1.00  0.00     0.000 G0
ENDBRANCH  32  33
BRANCH  32  38
ATOM     38  C   UNL     1     -10.878 -13.402   4.953  1.00  0.00     0.143 C 
ATOM     39  C   UNL     1      -9.575 -14.117   4.613  1.00  0.00     0.041 C 
BRANCH  38  40
ATOM     40  O   UNL     1     -11.481 -14.046   6.092  1.00  0.00    -0.391 OA
ATOM     41  H   UNL     1     -11.931 -14.844   5.757  1.00  0.00     0.211 HD
ENDBRANCH  38  40
ENDBRANCH  32  38
ENDBRANCH  29  32
ENDBRANCH  27  28
BRANCH  27  42
ATOM     42  C   UNL     1      -9.915 -11.527   0.588  1.00  0.00     0.015 C 
ATOM     43  C   UNL     1      -8.420 -11.212   0.715  1.00  0.00     0.010 C 
ATOM     44  C   UNL     1     -10.147 -13.040   0.670  1.00  0.00     0.010 C 
ENDBRANCH  27  42
ENDBRANCH   3  27
TORSDOF 5
ENDMDL
MODEL 3
REMARK VINA RESULT:    -6.167      2.661      6.360
REMARK INTER + INTRA:         -12.879
REMARK INTER:                 -11.404
REMARK INTRA:                  -1.476
REMARK UNBOUND:                -1.845
REMARK SMILES CC[C@H](C)[C@H]1NC(=O)c2coc(n2)[C@H](C(C)C)NC(=O)[C@H]([C@@H](C)O)NC(=O)[C@H](C)NC(=O)c2csc1n2
REMARK SMILES IDX 11 1 13 2 12 3 9 4 10 5 7 6 6 7 8 8 5 10 36 11 35 12 34 13
REMARK SMILES IDX 37 14 33 15 31 16 32 17 30 18 28 20 29 21 3 23 4 24 2 25
REMARK SMILES IDX 1 26 14 27 18 28 19 29 20 30 21 32 25 33 26 34 27 35 22 38
REMARK SMILES IDX 23 39 24 40 15 42 16 43 17 44
REMARK H PARENT 6 9 30 19 18 31 25 36 24 41
REMARK Flexibility Score:   94.900
ROOT
ATOM      1  O   UNL     1     -12.629 -10.322   0.326  1.00  0.00    -0.446 OA
ATOM      2  N   UNL     1     -14.177 -10.318   1.965  1.00  0.00    -0.207 NA
ATOM      3  C   UNL     1     -13.028 -10.813   1.541  1.00  0.00     0.217 A 
ATOM      4  C   UNL     1     -14.546  -9.423   0.975  1.00  0.00     0.167 A 
ATOM      5  C   UNL     1     -13.599  -9.430  -0.019  1.00  0.00     0.231 A 
ENDROOT
BRANCH   4   6
ATOM      6  C   UNL     1     -15.775  -8.650   1.024  1.00  0.00     0.273 C 
ATOM      7  N   UNL     1     -15.617  -7.486   1.733  1.00  0.00    -0.341 N 
ATOM      8  O   UNL     1     -16.826  -9.015   0.511  1.00  0.00    -0.267 OA
ATOM      9  H   UNL     1     -14.713  -7.361   2.179  1.00  0.00     0.164 HD
BRANCH   7  10
ATOM     10  C   UNL     1     -16.730  -6.653   2.146  1.00  0.00     0.145 C 
BRANCH  10  11
ATOM     11  C   UNL     1     -16.365  -6.029   3.485  1.00  0.00     0.116 A 
ATOM     12  S   UNL     1     -16.968  -4.466   3.892  1.00  0.00    -0.124 S 
ATOM     13  C   UNL     1     -16.185  -4.567   5.408  1.00  0.00     0.101 A 
ATOM     14  N   UNL     1     -15.610  -6.601   4.408  1.00  0.00    -0.234 NA
ATOM     15  C   UNL     1     -15.516  -5.770   5.527  1.00  0.00     0.139 A 
BRANCH  15  16
ATOM     16  C   UNL     1     -14.769  -6.170   6.722  1.00  0.00     0.271 C 
ATOM     17  O   UNL     1     -14.261  -5.360   7.490  1.00  0.00    -0.267 OA
ATOM     18  N   UNL     1     -14.698  -7.536   6.896  1.00  0.00    -0.339 N 
ATOM     19  H   UNL     1     -15.063  -8.100   6.133  1.00  0.00     0.164 HD
BRANCH  18  20
ATOM     20  C   UNL     1     -13.938  -8.118   7.993  1.00  0.00     0.168 CG0
ATOM     21  C   UNL     1     -14.785  -8.224   9.263  1.00  0.00     0.041 C 
ATOM     22  G   UNL     1     -13.404  -9.522   7.667  1.00  0.00     0.000 G0
ENDBRANCH  18  20
ENDBRANCH  15  16
ENDBRANCH  10  11
BRANCH  10  23
ATOM     23  C   UNL     1     -17.094  -5.589   1.077  1.00  0.00     0.015 C 
ATOM     24  C   UNL     1     -16.290  -5.735  -0.226  1.00  0.00     0.010 C 
BRANCH  23  25
ATOM     25  C   UNL     1     -18.600  -5.581   0.731  1.00  0.00     0.002 C 
ATOM     26  C   UNL     1     -18.954  -6.384  -0.513  1.00  0.00     0.004 C 
ENDBRANCH  23  25
ENDBRANCH  10  23
ENDBRANCH   7  10
ENDBRANCH   4   6
BRANCH   3  27
ATOM     27  C   UNL     1     -12.186 -11.859   2.219  1.00  0.00     0.171 C 
BRANCH  27  28
ATOM     28  N   UNL     1     -12.568 -11.896   3.626  1.00  0.00    -0.342 N 
ATOM     29  C   UNL     1     -12.028 -11.051   4.570  1.00  0.00     0.245 C 
ATOM     30  O   UNL     1     -11.194 -10.191   4.293  1.00  0.00    -0.273 OA
ATOM     31  H   UNL     1     -13.336 -12.504   3.909  1.00  0.00     0.164 HD
BRANCH  29  32
ATOM     32  C   UNL     1     -12.650 -11.153   5.979  1.00  0.00     0.200 C 
BRANCH  32  33
ATOM     33  N   UNL     1     -13.084  -9.812   6.389  1.00  0.00    -0.340 N 
ATOM     34  C   UNL     1     -13.380  -9.526   7.706  1.00  0.00     0.243 CG0
ATOM     35  O   UNL     1     -13.355 -10.391   8.579  1.00  0.00    -0.273 OA
ATOM     36  H   UNL     1     -13.144  -9.085   5.685  1.00  0.00     0.164 HD
ATOM     37  G   UNL     1     -13.953  -8.125   7.971  1.00  0.00     0.000 G0
ENDBRANCH  32  33
BRANCH  32  38
ATOM     38  C   UNL     1     -13.792 -12.195   6.019  1.00  0.00     0.143 C 
ATOM     39  C   UNL     1     -13.578 -13.314   7.032  1.00  0.00     0.041 C 
BRANCH  38  40
ATOM     40  O   UNL     1     -15.045 -11.542   6.301  1.00  0.00    -0.391 OA
ATOM     41  H   UNL     1     -15.748 -12.189   6.100  1.00  0.00     0.211 HD
ENDBRANCH  38  40
ENDBRANCH  32  38
ENDBRANCH  29  32
ENDBRANCH  27  28
BRANCH  27  42
ATOM     42  C   UNL     1     -12.170 -13.276   1.595  1.00  0.00     0.015 C 
ATOM     43  C   UNL     1     -10.793 -13.791   1.161  1.00  0.00     0.010 C 
ATOM     44  C   UNL     1     -12.863 -14.305   2.493  1.00  0.00     0.010 C 
ENDBRANCH  27  42
ENDBRANCH   3  27
TORSDOF 5
ENDMDL
MODEL 4
REMARK VINA RESULT:    -5.877      4.660      6.099
REMARK INTER + INTRA:         -12.359
REMARK INTER:                  -9.940
REMARK INTRA:                  -2.419
REMARK UNBOUND:                -1.845
REMARK SMILES CC[C@H](C)[C@H]1NC(=O)c2coc(n2)[C@H](C(C)C)NC(=O)[C@H]([C@@H](C)O)NC(=O)[C@H](C)NC(=O)c2csc1n2
REMARK SMILES IDX 11 1 13 2 12 3 9 4 10 5 7 6 6 7 8 8 5 10 36 11 35 12 34 13
REMARK SMILES IDX 37 14 33 15 31 16 32 17 30 18 28 20 29 21 3 23 4 24 2 25
REMARK SMILES IDX 1 26 14 27 18 28 19 29 20 30 21 32 25 33 26 34 27 35 22 38
REMARK SMILES IDX 23 39 24 40 15 42 16 43 17 44
REMARK H PARENT 6 9 30 19 18 31 25 36 24 41
REMARK Flexibility Score:   94.900
ROOT
ATOM      1  O   UNL     1      -8.824 -13.432   8.214  1.00  0.00    -0.446 OA
ATOM      2  N   UNL     1     -10.590 -13.248   6.825  1.00  0.00    -0.207 NA
ATOM      3  C   UNL     1      -9.655 -14.043   7.313  1.00  0.00     0.217 A 
ATOM      4  C   UNL     1     -10.377 -12.040   7.466  1.00  0.00     0.167 A 
ATOM      5  C   UNL     1      -9.301 -12.159   8.311  1.00  0.00     0.231 A 
ENDROOT
BRANCH   4   6
ATOM      6  C   UNL     1     -11.181 -10.856   7.217  1.00  0.00     0.273 C 
ATOM      7  N   UNL     1     -12.366 -11.166   6.599  1.00  0.00    -0.341 N 
ATOM      8  O   UNL     1     -10.822  -9.721   7.505  1.00  0.00    -0.267 OA
ATOM      9  H   UNL     1     -12.485 -12.141   6.338  1.00  0.00     0.164 HD
BRANCH   7  10
ATOM     10  C   UNL     1     -13.240 -10.167   6.016  1.00  0.00     0.145 C 
BRANCH  10  11
ATOM     11  C   UNL     1     -12.978 -10.144   4.517  1.00  0.00     0.116 A 
ATOM     12  S   UNL     1     -13.835  -9.033   3.517  1.00  0.00    -0.124 S 
ATOM     13  C   UNL     1     -12.978  -9.610   2.155  1.00  0.00     0.101 A 
ATOM     14  N   UNL     1     -12.109 -10.918   3.888  1.00  0.00    -0.234 NA
ATOM     15  C   UNL     1     -12.092 -10.604   2.527  1.00  0.00     0.139 A 
BRANCH  15  16
ATOM     16  C   UNL     1     -11.192 -11.281   1.591  1.00  0.00     0.271 C 
ATOM     17  O   UNL     1     -11.301 -11.183   0.374  1.00  0.00    -0.267 OA
ATOM     18  N   UNL     1     -10.217 -12.033   2.212  1.00  0.00    -0.339 N 
ATOM     19  H   UNL     1     -10.300 -12.123   3.221  1.00  0.00     0.164 HD
BRANCH  18  20
ATOM     20  C   UNL     1      -9.273 -12.831   1.440  1.00  0.00     0.168 CG0
ATOM     21  C   UNL     1      -7.850 -12.283   1.564  1.00  0.00     0.041 C 
ATOM     22  G   UNL     1      -9.249 -14.305   1.873  1.00  0.00     0.000 G0
ENDBRANCH  18  20
ENDBRANCH  15  16
ENDBRANCH  10  11
BRANCH  10  23
ATOM     23  C   UNL     1     -14.732 -10.426   6.352  1.00  0.00     0.015 C 
ATOM     24  C   UNL     1     -15.154 -11.892   6.157  1.00  0.00     0.010 C 
BRANCH  23  25
ATOM     25  C   UNL     1     -15.108  -9.990   7.786  1.00  0.00     0.002 C 
ATOM     26  C   UNL     1     -14.416  -8.713   8.245  1.00  0.00     0.004 C 
ENDBRANCH  23  25
ENDBRANCH  10  23
ENDBRANCH   7  10
ENDBRANCH   4   6
BRANCH   3  27
ATOM     27  C   UNL     1      -9.402 -15.479   6.942  1.00  0.00     0.171 C 
BRANCH  27  28
ATOM     28  N   UNL     1      -8.632 -15.491   5.703  1.00  0.00    -0.342 N 
ATOM     29  C   UNL     1      -9.021 -16.199   4.588  1.00  0.00     0.245 C 
ATOM     30  O   UNL     1     -10.057 -16.862   4.549  1.00  0.00    -0.273 OA
ATOM     31  H   UNL     1      -7.824 -14.875   5.622  1.00  0.00     0.164 HD
BRANCH  29  32
ATOM     32  C   UNL     1      -8.149 -15.986   3.333  1.00  0.00     0.200 C 
BRANCH  32  33
ATOM     33  N   UNL     1      -8.335 -14.605   2.871  1.00  0.00    -0.340 N 
ATOM     34  C   UNL     1      -9.264 -14.296   1.899  1.00  0.00     0.243 CG0
ATOM     35  O   UNL     1      -9.927 -15.163   1.334  1.00  0.00    -0.273 OA
ATOM     36  H   UNL     1      -7.781 -13.872   3.296  1.00  0.00     0.164 HD
ATOM     37  G   UNL     1      -9.258 -12.837   1.412  1.00  0.00     0.000 G0
ENDBRANCH  32  33
BRANCH  32  38
ATOM     38  C   UNL     1      -6.667 -16.334   3.609  1.00  0.00     0.143 C 
ATOM     39  C   UNL     1      -6.285 -17.763   3.243  1.00  0.00     0.041 C 
BRANCH  38  40
ATOM     40  O   UNL     1      -5.806 -15.423   2.899  1.00  0.00    -0.391 OA
ATOM     41  H   UNL     1      -6.383 -14.736   2.515  1.00  0.00     0.211 HD
ENDBRANCH  38  40
ENDBRANCH  32  38
ENDBRANCH  29  32
ENDBRANCH  27  28
BRANCH  27  42
ATOM     42  C   UNL     1      -8.763 -16.391   8.018  1.00  0.00     0.015 C 
ATOM     43  C   UNL     1      -9.412 -17.770   8.185  1.00  0.00     0.010 C 
ATOM     44  C   UNL     1      -7.251 -16.536   7.822  1.00  0.00     0.010 C 
ENDBRANCH  27  42
ENDBRANCH   3  27
TORSDOF 5
ENDMDL
MODEL 5
REMARK VINA RESULT:    -5.785      4.191      7.607
REMARK INTER + INTRA:         -12.195
REMARK INTER:                  -9.836
REMARK INTRA:                  -2.359
REMARK UNBOUND:                -1.845
REMARK SMILES CC[C@H](C)[C@H]1NC(=O)c2coc(n2)[C@H](C(C)C)NC(=O)[C@H]([C@@H](C)O)NC(=O)[C@H](C)NC(=O)c2csc1n2
REMARK SMILES IDX 11 1 13 2 12 3 9 4 10 5 7 6 6 7 8 8 5 10 36 11 35 12 34 13
REMARK SMILES IDX 37 14 33 15 31 16 32 17 30 18 28 20 29 21 3 23 4 24 2 25
REMARK SMILES IDX 1 26 14 27 18 28 19 29 20 30 21 32 25 33 26 34 27 35 22 38
REMARK SMILES IDX 23 39 24 40 15 42 16 43 17 44
REMARK H PARENT 6 9 30 19 18 31 25 36 24 41
REMARK Flexibility Score:   94.900
ROOT
ATOM      1  O   UNL     1     -12.889 -10.147   5.850  1.00  0.00    -0.446 OA
ATOM      2  N   UNL     1     -11.876 -10.720   3.919  1.00  0.00    -0.207 NA
ATOM      3  C   UNL     1     -12.972 -10.248   4.486  1.00  0.00     0.217 A 
ATOM      4  C   UNL     1     -11.005 -10.917   4.976  1.00  0.00     0.167 A 
ATOM      5  C   UNL     1     -11.628 -10.566   6.149  1.00  0.00     0.231 A 
ENDROOT
BRANCH   4   6
ATOM      6  C   UNL     1      -9.663 -11.448   4.810  1.00  0.00     0.273 C 
ATOM      7  N   UNL     1      -9.466 -11.949   3.548  1.00  0.00    -0.341 N 
ATOM      8  O   UNL     1      -8.825 -11.464   5.704  1.00  0.00    -0.267 OA
ATOM      9  H   UNL     1     -10.281 -11.951   2.942  1.00  0.00     0.164 HD
BRANCH   7  10
ATOM     10  C   UNL     1      -8.316 -12.754   3.187  1.00  0.00     0.145 C 
BRANCH  10  11
ATOM     11  C   UNL     1      -8.782 -14.199   3.075  1.00  0.00     0.116 A 
ATOM     12  S   UNL     1      -7.623 -15.475   3.098  1.00  0.00    -0.124 S 
ATOM     13  C   UNL     1      -8.890 -16.616   2.981  1.00  0.00     0.101 A 
ATOM     14  N   UNL     1     -10.043 -14.582   2.972  1.00  0.00    -0.234 NA
ATOM     15  C   UNL     1     -10.114 -15.977   2.935  1.00  0.00     0.139 A 
BRANCH  15  16
ATOM     16  C   UNL     1     -11.396 -16.681   2.860  1.00  0.00     0.271 C 
ATOM     17  O   UNL     1     -11.481 -17.887   2.653  1.00  0.00    -0.267 OA
ATOM     18  N   UNL     1     -12.487 -15.859   3.046  1.00  0.00    -0.339 N 
ATOM     19  H   UNL     1     -12.290 -14.863   3.098  1.00  0.00     0.164 HD
BRANCH  18  20
ATOM     20  C   UNL     1     -13.846 -16.373   2.939  1.00  0.00     0.168 CG0
ATOM     21  C   UNL     1     -14.446 -16.653   4.319  1.00  0.00     0.041 C 
ATOM     22  G   UNL     1     -14.790 -15.409   2.203  1.00  0.00     0.000 G0
ENDBRANCH  18  20
ENDBRANCH  15  16
ENDBRANCH  10  11
BRANCH  10  23
ATOM     23  C   UNL     1      -7.633 -12.251   1.887  1.00  0.00     0.015 C 
ATOM     24  C   UNL     1      -8.350 -12.708   0.606  1.00  0.00     0.010 C 
BRANCH  23  25
ATOM     25  C   UNL     1      -7.481 -10.714   1.848  1.00  0.00     0.002 C 
ATOM     26  C   UNL     1      -6.618 -10.148   2.967  1.00  0.00     0.004 C 
ENDBRANCH  23  25
ENDBRANCH  10  23
ENDBRANCH   7  10
ENDBRANCH   4   6
BRANCH   3  27
ATOM     27  C   UNL     1     -14.261  -9.882   3.803  1.00  0.00     0.171 C 
BRANCH  27  28
ATOM     28  N   UNL     1     -14.980 -11.118   3.513  1.00  0.00    -0.342 N 
ATOM     29  C   UNL     1     -14.980 -11.708   2.269  1.00  0.00     0.245 C 
ATOM     30  O   UNL     1     -14.361 -11.244   1.313  1.00  0.00    -0.273 OA
ATOM     31  H   UNL     1     -15.421 -11.620   4.283  1.00  0.00     0.164 HD
BRANCH  29  32
ATOM     32  C   UNL     1     -15.689 -13.076   2.188  1.00  0.00     0.200 C 
BRANCH  32  33
ATOM     33  N   UNL     1     -14.770 -14.102   2.698  1.00  0.00    -0.340 N 
ATOM     34  C   UNL     1     -14.797 -15.393   2.212  1.00  0.00     0.243 CG0
ATOM     35  O   UNL     1     -15.628 -15.757   1.383  1.00  0.00    -0.273 OA
ATOM     36  H   UNL     1     -14.093 -13.839   3.405  1.00  0.00     0.164 HD
ATOM     37  G   UNL     1     -13.878 -16.394   2.929  1.00  0.00     0.000 G0
ENDBRANCH  32  33
BRANCH  32  38
ATOM     38  C   UNL     1     -17.043 -13.056   2.934  1.00  0.00     0.143 C 
ATOM     39  C   UNL     1     -16.945 -13.412   4.413  1.00  0.00     0.041 C 
BRANCH  38  40
ATOM     40  O   UNL     1     -17.658 -11.760   2.805  1.00  0.00    -0.391 OA
ATOM     41  H   UNL     1     -18.623 -11.908   2.795  1.00  0.00     0.211 HD
ENDBRANCH  38  40
ENDBRANCH  32  38
ENDBRANCH  29  32
ENDBRANCH  27  28
BRANCH  27  42
ATOM     42  C   UNL     1     -15.171  -8.845   4.507  1.00  0.00     0.015 C 
ATOM     43  C   UNL     1     -15.667  -7.695   3.623  1.00  0.00     0.010 C 
ATOM     44  C   UNL     1     -16.350  -9.511   5.224  1.00  0.00     0.010 C 
ENDBRANCH  27  42
ENDBRANCH   3  27
TORSDOF 5
ENDMDL
MODEL 6
REMARK VINA RESULT:    -5.486      3.675      5.621
REMARK INTER + INTRA:         -11.660
REMARK INTER:                  -9.517
REMARK INTRA:                  -2.142
REMARK UNBOUND:                -1.845
REMARK SMILES CC[C@H](C)[C@H]1NC(=O)c2coc(n2)[C@H](C(C)C)NC(=O)[C@H]([C@@H](C)O)NC(=O)[C@H](C)NC(=O)c2csc1n2
REMARK SMILES IDX 11 1 13 2 12 3 9 4 10 5 7 6 6 7 8 8 5 10 36 11 35 12 34 13
REMARK SMILES IDX 37 14 33 15 31 16 32 17 30 18 28 20 29 21 3 23 4 24 2 25
REMARK SMILES IDX 1 26 14 27 18 28 19 29 20 30 21 32 25 33 26 34 27 35 22 38
REMARK SMILES IDX 23 39 24 40 15 42 16 43 17 44
REMARK H PARENT 6 9 30 19 18 31 25 36 24 41
REMARK Flexibility Score:   94.900
ROOT
ATOM      1  O   UNL     1     -10.942 -12.761   7.383  1.00  0.00    -0.446 OA
ATOM      2  N   UNL     1     -12.415 -13.080   5.707  1.00  0.00    -0.207 NA
ATOM      3  C   UNL     1     -11.373 -13.563   6.360  1.00  0.00     0.217 A 
ATOM      4  C   UNL     1     -12.705 -11.895   6.359  1.00  0.00     0.167 A 
ATOM      5  C   UNL     1     -11.805 -11.706   7.379  1.00  0.00     0.231 A 
ENDROOT
BRANCH   4   6
ATOM      6  C   UNL     1     -13.788 -11.013   5.959  1.00  0.00     0.273 C 
ATOM      7  N   UNL     1     -14.723 -11.667   5.197  1.00  0.00    -0.341 N 
ATOM      8  O   UNL     1     -13.836  -9.824   6.250  1.00  0.00    -0.267 OA
ATOM      9  H   UNL     1     -14.502 -12.629   4.959  1.00  0.00     0.164 HD
BRANCH   7  10
ATOM     10  C   UNL     1     -15.768 -10.980   4.464  1.00  0.00     0.145 C 
BRANCH  10  11
ATOM     11  C   UNL     1     -15.159 -10.467   3.167  1.00  0.00     0.116 A 
ATOM     12  S   UNL     1     -15.605  -8.913   2.569  1.00  0.00    -0.124 S 
ATOM     13  C   UNL     1     -14.533  -9.119   1.254  1.00  0.00     0.101 A 
ATOM     14  N   UNL     1     -14.274 -11.122   2.433  1.00  0.00    -0.234 NA
ATOM     15  C   UNL     1     -13.896 -10.343   1.337  1.00  0.00     0.139 A 
BRANCH  15  16
ATOM     16  C   UNL     1     -12.896 -10.806   0.372  1.00  0.00     0.271 C 
ATOM     17  O   UNL     1     -13.034 -10.680  -0.840  1.00  0.00    -0.267 OA
ATOM     18  N   UNL     1     -11.794 -11.389   0.959  1.00  0.00    -0.339 N 
ATOM     19  H   UNL     1     -11.849 -11.534   1.964  1.00  0.00     0.164 HD
BRANCH  18  20
ATOM     20  C   UNL     1     -10.728 -11.969   0.153  1.00  0.00     0.168 CG0
ATOM     21  C   UNL     1      -9.489 -11.070   0.139  1.00  0.00     0.041 C 
ATOM     22  G   UNL     1     -10.295 -13.358   0.649  1.00  0.00     0.000 G0
ENDBRANCH  18  20
ENDBRANCH  15  16
ENDBRANCH  10  11
BRANCH  10  23
ATOM     23  C   UNL     1     -17.004 -11.884   4.220  1.00  0.00     0.015 C 
ATOM     24  C   UNL     1     -17.400 -11.987   2.737  1.00  0.00     0.010 C 
BRANCH  23  25
ATOM     25  C   UNL     1     -16.822 -13.312   4.783  1.00  0.00     0.002 C 
ATOM     26  C   UNL     1     -16.354 -14.329   3.751  1.00  0.00     0.004 C 
ENDBRANCH  23  25
ENDBRANCH  10  23
ENDBRANCH   7  10
ENDBRANCH   4   6
BRANCH   3  27
ATOM     27  C   UNL     1     -10.622 -14.830   6.058  1.00  0.00     0.171 C 
BRANCH  27  28
ATOM     28  N   UNL     1      -9.814 -14.597   4.865  1.00  0.00    -0.342 N 
ATOM     29  C   UNL     1     -10.117 -15.147   3.639  1.00  0.00     0.245 C 
ATOM     30  O   UNL     1     -11.099 -15.863   3.455  1.00  0.00    -0.273 OA
ATOM     31  H   UNL     1      -9.051 -13.923   4.914  1.00  0.00     0.164 HD
BRANCH  29  32
ATOM     32  C   UNL     1      -9.223 -14.683   2.470  1.00  0.00     0.200 C 
BRANCH  32  33
ATOM     33  N   UNL     1      -9.778 -13.435   1.932  1.00  0.00    -0.340 N 
ATOM     34  C   UNL     1     -10.296 -13.373   0.655  1.00  0.00     0.243 CG0
ATOM     35  O   UNL     1     -10.258 -14.336  -0.108  1.00  0.00    -0.273 OA
ATOM     36  H   UNL     1      -9.795 -12.615   2.528  1.00  0.00     0.164 HD
ATOM     37  G   UNL     1     -10.717 -11.976   0.173  1.00  0.00     0.000 G0
ENDBRANCH  32  33
BRANCH  32  38
ATOM     38  C   UNL     1      -7.746 -14.546   2.908  1.00  0.00     0.143 C 
ATOM     39  C   UNL     1      -7.080 -15.868   3.274  1.00  0.00     0.041 C 
BRANCH  38  40
ATOM     40  O   UNL     1      -6.980 -13.911   1.865  1.00  0.00    -0.391 OA
ATOM     41  H   UNL     1      -6.065 -13.838   2.196  1.00  0.00     0.211 HD
ENDBRANCH  38  40
ENDBRANCH  32  38
ENDBRANCH  29  32
ENDBRANCH  27  28
BRANCH  27  42
ATOM     42  C   UNL     1      -9.782 -15.451   7.201  1.00  0.00     0.015 C 
ATOM     43  C   UNL     1     -10.564 -16.303   8.208  1.00  0.00     0.010 C 
ATOM     44  C   UNL     1      -8.577 -16.233   6.668  1.00  0.00     0.010 C 
ENDBRANCH  27  42
ENDBRANCH   3  27
TORSDOF 5
ENDMDL
MODEL 7
REMARK VINA RESULT:    -5.448      2.208      3.219
REMARK INTER + INTRA:         -11.592
REMARK INTER:                  -8.967
REMARK INTRA:                  -2.625
REMARK UNBOUND:                -1.845
REMARK SMILES CC[C@H](C)[C@H]1NC(=O)c2coc(n2)[C@H](C(C)C)NC(=O)[C@H]([C@@H](C)O)NC(=O)[C@H](C)NC(=O)c2csc1n2
REMARK SMILES IDX 11 1 13 2 12 3 9 4 10 5 7 6 6 7 8 8 5 10 36 11 35 12 34 13
REMARK SMILES IDX 37 14 33 15 31 16 32 17 30 18 28 20 29 21 3 23 4 24 2 25
REMARK SMILES IDX 1 26 14 27 18 28 19 29 20 30 21 32 25 33 26 34 27 35 22 38
REMARK SMILES IDX 23 39 24 40 15 42 16 43 17 44
REMARK H PARENT 6 9 30 19 18 31 25 36 24 41
REMARK Flexibility Score:   94.900
ROOT
ATOM      1  O   UNL     1     -10.433 -13.446   6.932  1.00  0.00    -0.446 OA
ATOM      2  N   UNL     1     -12.448 -12.618   7.512  1.00  0.00    -0.207 NA
ATOM      3  C   UNL     1     -11.728 -13.705   7.293  1.00  0.00     0.217 A 
ATOM      4  C   UNL     1     -11.560 -11.577   7.307  1.00  0.00     0.167 A 
ATOM      5  C   UNL     1     -10.335 -12.087   6.954  1.00  0.00     0.231 A 
ENDROOT
BRANCH   4   6
ATOM      6  C   UNL     1     -11.935 -10.179   7.428  1.00  0.00     0.273 C 
ATOM      7  N   UNL     1     -13.248  -9.971   7.086  1.00  0.00    -0.341 N 
ATOM      8  O   UNL     1     -11.158  -9.296   7.772  1.00  0.00    -0.267 OA
ATOM      9  H   UNL     1     -13.744 -10.784   6.732  1.00  0.00     0.164 HD
BRANCH   7  10
ATOM     10  C   UNL     1     -13.813  -8.653   6.879  1.00  0.00     0.145 C 
BRANCH  10  11
ATOM     11  C   UNL     1     -14.526  -8.663   5.535  1.00  0.00     0.116 A 
ATOM     12  S   UNL     1     -15.001  -7.174   4.808  1.00  0.00    -0.124 S 
ATOM     13  C   UNL     1     -15.615  -8.034   3.465  1.00  0.00     0.101 A 
ATOM     14  N   UNL     1     -14.813  -9.749   4.837  1.00  0.00    -0.234 NA
ATOM     15  C   UNL     1     -15.427  -9.393   3.634  1.00  0.00     0.139 A 
BRANCH  15  16
ATOM     16  C   UNL     1     -15.821 -10.397   2.644  1.00  0.00     0.271 C 
ATOM     17  O   UNL     1     -16.587 -10.153   1.717  1.00  0.00    -0.267 OA
ATOM     18  N   UNL     1     -15.249 -11.633   2.855  1.00  0.00    -0.339 N 
ATOM     19  H   UNL     1     -14.722 -11.737   3.718  1.00  0.00     0.164 HD
BRANCH  18  20
ATOM     20  C   UNL     1     -15.579 -12.772   2.009  1.00  0.00     0.168 CG0
ATOM     21  C   UNL     1     -14.558 -12.943   0.882  1.00  0.00     0.041 C 
ATOM     22  G   UNL     1     -15.641 -14.095   2.791  1.00  0.00     0.000 G0
ENDBRANCH  18  20
ENDBRANCH  15  16
ENDBRANCH  10  11
BRANCH  10  23
ATOM     23  C   UNL     1     -14.750  -8.228   8.042  1.00  0.00     0.015 C 
ATOM     24  C   UNL     1     -15.358  -9.420   8.799  1.00  0.00     0.010 C 
BRANCH  23  25
ATOM     25  C   UNL     1     -14.054  -7.297   9.060  1.00  0.00     0.002 C 
ATOM     26  C   UNL     1     -13.488  -6.023   8.448  1.00  0.00     0.004 C 
ENDBRANCH  23  25
ENDBRANCH  10  23
ENDBRANCH   7  10
ENDBRANCH   4   6
BRANCH   3  27
ATOM     27  C   UNL     1     -12.201 -15.131   7.351  1.00  0.00     0.171 C 
BRANCH  27  28
ATOM     28  N   UNL     1     -12.735 -15.478   6.038  1.00  0.00    -0.342 N 
ATOM     29  C   UNL     1     -14.077 -15.413   5.736  1.00  0.00     0.245 C 
ATOM     30  O   UNL     1     -14.924 -15.043   6.548  1.00  0.00    -0.273 OA
ATOM     31  H   UNL     1     -12.083 -15.684   5.282  1.00  0.00     0.164 HD
BRANCH  29  32
ATOM     32  C   UNL     1     -14.436 -15.693   4.262  1.00  0.00     0.200 C 
BRANCH  32  33
ATOM     33  N   UNL     1     -14.537 -14.407   3.560  1.00  0.00    -0.340 N 
ATOM     34  C   UNL     1     -15.648 -14.089   2.806  1.00  0.00     0.243 CG0
ATOM     35  O   UNL     1     -16.568 -14.887   2.635  1.00  0.00    -0.273 OA
ATOM     36  H   UNL     1     -13.780 -13.741   3.657  1.00  0.00     0.164 HD
ATOM     37  G   UNL     1     -15.562 -12.773   2.017  1.00  0.00     0.000 G0
ENDBRANCH  32  33
BRANCH  32  38
ATOM     38  C   UNL     1     -13.421 -16.659   3.606  1.00  0.00     0.143 C 
ATOM     39  C   UNL     1     -14.042 -17.632   2.611  1.00  0.00     0.041 C 
BRANCH  38  40
ATOM     40  O   UNL     1     -12.385 -15.909   2.943  1.00  0.00    -0.391 OA
ATOM     41  H   UNL     1     -11.608 -16.497   2.887  1.00  0.00     0.211 HD
ENDBRANCH  38  40
ENDBRANCH  32  38
ENDBRANCH  29  32
ENDBRANCH  27  28
BRANCH  27  42
ATOM     42  C   UNL     1     -11.195 -16.196   7.855  1.00  0.00     0.015 C 
ATOM     43  C   UNL     1     -11.738 -17.171   8.906  1.00  0.00     0.010 C 
ATOM     44  C   UNL     1     -10.548 -16.966   6.700  1.00  0.00     0.010 C 
ENDBRANCH  27  42
ENDBRANCH   3  27
TORSDOF 5
ENDMDL
MODEL 8
REMARK VINA RESULT:    -5.434      4.590      8.336
REMARK INTER + INTRA:         -11.567
REMARK INTER:                  -9.076
REMARK INTRA:                  -2.491
REMARK UNBOUND:                -1.845
REMARK SMILES CC[C@H](C)[C@H]1NC(=O)c2coc(n2)[C@H](C(C)C)NC(=O)[C@H]([C@@H](C)O)NC(=O)[C@H](C)NC(=O)c2csc1n2
REMARK SMILES IDX 11 1 13 2 12 3 9 4 10 5 7 6 6 7 8 8 5 10 36 11 35 12 34 13
REMARK SMILES IDX 37 14 33 15 31 16 32 17 30 18 28 20 29 21 3 23 4 24 2 25
REMARK SMILES IDX 1 26 14 27 18 28 19 29 20 30 21 32 25 33 26 34 27 35 22 38
REMARK SMILES IDX 23 39 24 40 15 42 16 43 17 44
REMARK H PARENT 6 9 30 19 18 31 25 36 24 41
REMARK Flexibility Score:   94.900
ROOT
ATOM      1  O   UNL     1      -7.926 -12.511   0.347  1.00  0.00    -0.446 OA
ATOM      2  N   UNL     1      -9.156 -14.253   1.077  1.00  0.00    -0.207 NA
ATOM      3  C   UNL     1      -9.020 -13.313   0.159  1.00  0.00     0.217 A 
ATOM      4  C   UNL     1      -8.064 -14.075   1.909  1.00  0.00     0.167 A 
ATOM      5  C   UNL     1      -7.319 -13.013   1.459  1.00  0.00     0.231 A 
ENDROOT
BRANCH   4   6
ATOM      6  C   UNL     1      -7.818 -14.896   3.082  1.00  0.00     0.273 C 
ATOM      7  N   UNL     1      -8.985 -15.363   3.631  1.00  0.00    -0.341 N 
ATOM      8  O   UNL     1      -6.700 -15.117   3.531  1.00  0.00    -0.267 OA
ATOM      9  H   UNL     1      -9.841 -15.021   3.204  1.00  0.00     0.164 HD
BRANCH   7  10
ATOM     10  C   UNL     1      -9.050 -15.994   4.935  1.00  0.00     0.145 C 
BRANCH  10  11
ATOM     11  C   UNL     1     -10.057 -15.219   5.772  1.00  0.00     0.116 A 
ATOM     12  S   UNL     1      -9.917 -15.213   7.490  1.00  0.00    -0.124 S 
ATOM     13  C   UNL     1     -11.277 -14.182   7.590  1.00  0.00     0.101 A 
ATOM     14  N   UNL     1     -11.062 -14.510   5.284  1.00  0.00    -0.234 NA
ATOM     15  C   UNL     1     -11.759 -13.895   6.327  1.00  0.00     0.139 A 
BRANCH  15  16
ATOM     16  C   UNL     1     -12.903 -13.015   6.075  1.00  0.00     0.271 C 
ATOM     17  O   UNL     1     -13.789 -12.824   6.900  1.00  0.00    -0.267 OA
ATOM     18  N   UNL     1     -12.880 -12.427   4.828  1.00  0.00    -0.339 N 
ATOM     19  H   UNL     1     -12.152 -12.751   4.197  1.00  0.00     0.164 HD
BRANCH  18  20
ATOM     20  C   UNL     1     -13.971 -11.573   4.377  1.00  0.00     0.168 CG0
ATOM     21  C   UNL     1     -13.714 -10.107   4.734  1.00  0.00     0.041 C 
ATOM     22  G   UNL     1     -14.200 -11.654   2.859  1.00  0.00     0.000 G0
ENDBRANCH  18  20
ENDBRANCH  15  16
ENDBRANCH  10  11
BRANCH  10  23
ATOM     23  C   UNL     1      -9.396 -17.503   4.839  1.00  0.00     0.015 C 
ATOM     24  C   UNL     1      -9.995 -17.905   3.481  1.00  0.00     0.010 C 
BRANCH  23  25
ATOM     25  C   UNL     1      -8.184 -18.415   5.135  1.00  0.00     0.002 C 
ATOM     26  C   UNL     1      -7.648 -18.290   6.555  1.00  0.00     0.004 C 
ENDBRANCH  23  25
ENDBRANCH  10  23
ENDBRANCH   7  10
ENDBRANCH   4   6
BRANCH   3  27
ATOM     27  C   UNL     1      -9.948 -13.026  -0.989  1.00  0.00     0.171 C 
BRANCH  27  28
ATOM     28  N   UNL     1     -11.011 -12.155  -0.497  1.00  0.00    -0.342 N 
ATOM     29  C   UNL     1     -12.185 -12.637   0.037  1.00  0.00     0.245 C 
ATOM     30  O   UNL     1     -12.418 -13.839   0.153  1.00  0.00    -0.273 OA
ATOM     31  H   UNL     1     -10.841 -11.151  -0.455  1.00  0.00     0.164 HD
BRANCH  29  32
ATOM     32  C   UNL     1     -13.132 -11.568   0.622  1.00  0.00     0.200 C 
BRANCH  32  33
ATOM     33  N   UNL     1     -13.060 -11.640   2.086  1.00  0.00    -0.340 N 
ATOM     34  C   UNL     1     -14.202 -11.644   2.860  1.00  0.00     0.243 CG0
ATOM     35  O   UNL     1     -15.321 -11.523   2.366  1.00  0.00    -0.273 OA
ATOM     36  H   UNL     1     -12.149 -11.709   2.524  1.00  0.00     0.164 HD
ATOM     37  G   UNL     1     -13.977 -11.583   4.379  1.00  0.00     0.000 G0
ENDBRANCH  32  33
BRANCH  32  38
ATOM     38  C   UNL     1     -12.805 -10.161   0.070  1.00  0.00     0.143 C 
ATOM     39  C   UNL     1     -14.023  -9.262  -0.103  1.00  0.00     0.041 C 
BRANCH  38  40
ATOM     40  O   UNL     1     -11.856  -9.502   0.932  1.00  0.00    -0.391 OA
ATOM     41  H   UNL     1     -12.368  -9.120   1.670  1.00  0.00     0.211 HD
ENDBRANCH  38  40
ENDBRANCH  32  38
ENDBRANCH  29  32
ENDBRANCH  27  28
BRANCH  27  42
ATOM     42  C   UNL     1      -9.321 -12.476  -2.294  1.00  0.00     0.015 C 
ATOM     43  C   UNL     1      -8.183 -13.318  -2.885  1.00  0.00     0.010 C 
ATOM     44  C   UNL     1     -10.380 -12.190  -3.363  1.00  0.00     0.010 C 
ENDBRANCH  27  42
ENDBRANCH   3  27
TORSDOF 5
ENDMDL
MODEL 9
REMARK VINA RESULT:    -5.112      7.389     10.382
REMARK INTER + INTRA:         -10.990
REMARK INTER:                  -8.686
REMARK INTRA:                  -2.305
REMARK UNBOUND:                -1.845
REMARK SMILES CC[C@H](C)[C@H]1NC(=O)c2coc(n2)[C@H](C(C)C)NC(=O)[C@H]([C@@H](C)O)NC(=O)[C@H](C)NC(=O)c2csc1n2
REMARK SMILES IDX 11 1 13 2 12 3 9 4 10 5 7 6 6 7 8 8 5 10 36 11 35 12 34 13
REMARK SMILES IDX 37 14 33 15 31 16 32 17 30 18 28 20 29 21 3 23 4 24 2 25
REMARK SMILES IDX 1 26 14 27 18 28 19 29 20 30 21 32 25 33 26 34 27 35 22 38
REMARK SMILES IDX 23 39 24 40 15 42 16 43 17 44
REMARK H PARENT 6 9 30 19 18 31 25 36 24 41
REMARK Flexibility Score:   94.900
ROOT
ATOM      1  O   UNL     1      -8.521 -10.527   8.763  1.00  0.00    -0.446 OA
ATOM      2  N   UNL     1      -8.465 -12.777   8.636  1.00  0.00    -0.207 NA
ATOM      3  C   UNL     1      -8.921 -11.658   8.102  1.00  0.00     0.217 A 
ATOM      4  C   UNL     1      -7.692 -12.353   9.703  1.00  0.00     0.167 A 
ATOM      5  C   UNL     1      -7.730 -10.982   9.774  1.00  0.00     0.231 A 
ENDROOT
BRANCH   4   6
ATOM      6  C   UNL     1      -6.998 -13.268  10.593  1.00  0.00     0.273 C 
ATOM      7  N   UNL     1      -6.127 -14.080   9.912  1.00  0.00    -0.341 N 
ATOM      8  O   UNL     1      -7.195 -13.316  11.801  1.00  0.00    -0.267 OA
ATOM      9  H   UNL     1      -6.139 -13.988   8.900  1.00  0.00     0.164 HD
BRANCH   7  10
ATOM     10  C   UNL     1      -5.495 -15.240  10.509  1.00  0.00     0.145 C 
BRANCH  10  11
ATOM     11  C   UNL     1      -5.587 -16.381   9.506  1.00  0.00     0.116 A 
ATOM     12  S   UNL     1      -5.014 -17.948   9.940  1.00  0.00    -0.124 S 
ATOM     13  C   UNL     1      -5.495 -18.538   8.409  1.00  0.00     0.101 A 
ATOM     14  N   UNL     1      -6.097 -16.282   8.289  1.00  0.00    -0.234 NA
ATOM     15  C   UNL     1      -6.062 -17.527   7.658  1.00  0.00     0.139 A 
BRANCH  15  16
ATOM     16  C   UNL     1      -6.599 -17.721   6.309  1.00  0.00     0.271 C 
ATOM     17  O   UNL     1      -6.495 -18.779   5.697  1.00  0.00    -0.267 OA
ATOM     18  N   UNL     1      -7.230 -16.605   5.802  1.00  0.00    -0.339 N 
ATOM     19  H   UNL     1      -7.153 -15.759   6.360  1.00  0.00     0.164 HD
BRANCH  18  20
ATOM     20  C   UNL     1      -7.766 -16.591   4.447  1.00  0.00     0.168 CG0
ATOM     21  C   UNL     1      -9.248 -16.973   4.431  1.00  0.00     0.041 C 
ATOM     22  G   UNL     1      -7.626 -15.220   3.767  1.00  0.00     0.000 G0
ENDBRANCH  18  20
ENDBRANCH  15  16
ENDBRANCH  10  11
BRANCH  10  23
ATOM     23  C   UNL     1      -4.035 -14.952  10.946  1.00  0.00     0.015 C 
ATOM     24  C   UNL     1      -3.478 -13.636  10.378  1.00  0.00     0.010 C 
BRANCH  23  25
ATOM     25  C   UNL     1      -3.861 -14.941  12.482  1.00  0.00     0.002 C 
ATOM     26  C   UNL     1      -4.949 -15.695  13.233  1.00  0.00     0.004 C 
ENDBRANCH  23  25
ENDBRANCH  10  23
ENDBRANCH   7  10
ENDBRANCH   4   6
BRANCH   3  27
ATOM     27  C   UNL     1      -9.842 -11.527   6.920  1.00  0.00     0.171 C 
BRANCH  27  28
ATOM     28  N   UNL     1      -9.320 -12.372   5.851  1.00  0.00    -0.342 N 
ATOM     29  C   UNL     1      -9.215 -11.945   4.546  1.00  0.00     0.245 C 
ATOM     30  O   UNL     1      -9.538 -10.814   4.188  1.00  0.00    -0.273 OA
ATOM     31  H   UNL     1      -8.927 -13.280   6.093  1.00  0.00     0.164 HD
BRANCH  29  32
ATOM     32  C   UNL     1      -8.520 -12.932   3.584  1.00  0.00     0.200 C 
BRANCH  32  33
ATOM     33  N   UNL     1      -8.463 -14.247   4.235  1.00  0.00    -0.340 N 
ATOM     34  C   UNL     1      -7.633 -15.243   3.764  1.00  0.00     0.243 CG0
ATOM     35  O   UNL     1      -6.956 -15.098   2.748  1.00  0.00    -0.273 OA
ATOM     36  H   UNL     1      -9.033 -14.406   5.057  1.00  0.00     0.164 HD
ATOM     37  G   UNL     1      -7.774 -16.609   4.454  1.00  0.00     0.000 G0
ENDBRANCH  32  33
BRANCH  32  38
ATOM     38  C   UNL     1      -9.225 -12.970   2.208  1.00  0.00     0.143 C 
ATOM     39  C   UNL     1     -10.668 -13.457   2.262  1.00  0.00     0.041 C 
BRANCH  38  40
ATOM     40  O   UNL     1      -9.195 -11.663   1.602  1.00  0.00    -0.391 OA
ATOM     41  H   UNL     1      -8.693 -11.086   2.209  1.00  0.00     0.211 HD
ENDBRANCH  38  40
ENDBRANCH  32  38
ENDBRANCH  29  32
ENDBRANCH  27  28
BRANCH  27  42
ATOM     42  C   UNL     1     -11.351 -11.780   7.161  1.00  0.00     0.015 C 
ATOM     43  C   UNL     1     -12.301 -11.113   6.159  1.00  0.00     0.010 C 
ATOM     44  C   UNL     1     -11.669 -13.274   7.280  1.00  0.00     0.010 C 
ENDBRANCH  27  42
ENDBRANCH   3  27
TORSDOF 5
ENDMDL
MODEL 10
REMARK VINA RESULT:    -5.075      3.965      7.688
REMARK INTER + INTRA:         -10.925
REMARK INTER:                  -8.708
REMARK INTRA:                  -2.216
REMARK UNBOUND:                -1.845
REMARK SMILES CC[C@H](C)[C@H]1NC(=O)c2coc(n2)[C@H](C(C)C)NC(=O)[C@H]([C@@H](C)O)NC(=O)[C@H](C)NC(=O)c2csc1n2
REMARK SMILES IDX 11 1 13 2 12 3 9 4 10 5 7 6 6 7 8 8 5 10 36 11 35 12 34 13
REMARK SMILES IDX 37 14 33 15 31 16 32 17 30 18 28 20 29 21 3 23 4 24 2 25
REMARK SMILES IDX 1 26 14 27 18 28 19 29 20 30 21 32 25 33 26 34 27 35 22 38
REMARK SMILES IDX 23 39 24 40 15 42 16 43 17 44
REMARK H PARENT 6 9 30 19 18 31 25 36 24 41
REMARK Flexibility Score:   94.900
ROOT
ATOM      1  O   UNL     1     -10.682 -10.404   6.770  1.00  0.00    -0.446 OA
ATOM      2  N   UNL     1     -11.760 -12.338   6.348  1.00  0.00    -0.207 NA
ATOM      3  C   UNL     1     -11.829 -11.019   6.344  1.00  0.00     0.217 A 
ATOM      4  C   UNL     1     -10.473 -12.609   6.780  1.00  0.00     0.167 A 
ATOM      5  C   UNL     1      -9.822 -11.427   7.035  1.00  0.00     0.231 A 
ENDROOT
BRANCH   4   6
ATOM      6  C   UNL     1      -9.961 -13.958   6.950  1.00  0.00     0.273 C 
ATOM      7  N   UNL     1      -9.242 -14.371   5.856  1.00  0.00    -0.341 N 
ATOM      8  O   UNL     1     -10.172 -14.644   7.943  1.00  0.00    -0.267 OA
ATOM      9  H   UNL     1      -9.230 -13.729   5.069  1.00  0.00     0.164 HD
BRANCH   7  10
ATOM     10  C   UNL     1      -8.832 -15.746   5.652  1.00  0.00     0.145 C 
BRANCH  10  11
ATOM     11  C   UNL     1      -9.997 -16.485   5.009  1.00  0.00     0.116 A 
ATOM     12  S   UNL     1     -10.127 -18.194   5.185  1.00  0.00    -0.124 S 
ATOM     13  C   UNL     1     -11.581 -18.168   4.287  1.00  0.00     0.101 A 
ATOM     14  N   UNL     1     -10.965 -15.913   4.313  1.00  0.00    -0.234 NA
ATOM     15  C   UNL     1     -11.891 -16.877   3.907  1.00  0.00     0.139 A 
BRANCH  15  16
ATOM     16  C   UNL     1     -13.092 -16.519   3.148  1.00  0.00     0.271 C 
ATOM     17  O   UNL     1     -13.750 -17.341   2.519  1.00  0.00    -0.267 OA
ATOM     18  N   UNL     1     -13.405 -15.178   3.213  1.00  0.00    -0.339 N 
ATOM     19  H   UNL     1     -12.721 -14.583   3.673  1.00  0.00     0.164 HD
BRANCH  18  20
ATOM     20  C   UNL     1     -14.528 -14.628   2.465  1.00  0.00     0.168 CG0
ATOM     21  C   UNL     1     -15.803 -14.609   3.310  1.00  0.00     0.041 C 
ATOM     22  G   UNL     1     -14.269 -13.196   1.972  1.00  0.00     0.000 G0
ENDBRANCH  18  20
ENDBRANCH  15  16
ENDBRANCH  10  11
BRANCH  10  23
ATOM     23  C   UNL     1      -7.530 -15.851   4.814  1.00  0.00     0.015 C 
ATOM     24  C   UNL     1      -6.600 -16.987   5.272  1.00  0.00     0.010 C 
BRANCH  23  25
ATOM     25  C   UNL     1      -7.804 -16.016   3.302  1.00  0.00     0.002 C 
ATOM     26  C   UNL     1      -7.771 -14.709   2.522  1.00  0.00     0.004 C 
ENDBRANCH  23  25
ENDBRANCH  10  23
ENDBRANCH   7  10
ENDBRANCH   4   6
BRANCH   3  27
ATOM     27  C   UNL     1     -13.019 -10.174   5.982  1.00  0.00     0.171 C 
BRANCH  27  28
ATOM     28  N   UNL     1     -13.631 -10.753   4.790  1.00  0.00    -0.342 N 
ATOM     29  C   UNL     1     -14.049  -9.993   3.721  1.00  0.00     0.245 C 
ATOM     30  O   UNL     1     -13.922  -8.770   3.684  1.00  0.00    -0.273 OA
ATOM     31  H   UNL     1     -13.664 -11.768   4.700  1.00  0.00     0.164 HD
BRANCH  29  32
ATOM     32  C   UNL     1     -14.552 -10.792   2.500  1.00  0.00     0.200 C 
BRANCH  32  33
ATOM     33  N   UNL     1     -14.622 -12.210   2.875  1.00  0.00    -0.340 N 
ATOM     34  C   UNL     1     -14.267 -13.203   1.986  1.00  0.00     0.243 CG0
ATOM     35  O   UNL     1     -13.940 -12.953   0.828  1.00  0.00    -0.273 OA
ATOM     36  H   UNL     1     -14.918 -12.449   3.813  1.00  0.00     0.164 HD
ATOM     37  G   UNL     1     -14.519 -14.643   2.461  1.00  0.00     0.000 G0
ENDBRANCH  32  33
BRANCH  32  38
ATOM     38  C   UNL     1     -15.898 -10.239   1.978  1.00  0.00     0.143 C 
ATOM     39  C   UNL     1     -15.983 -10.139   0.459  1.00  0.00     0.041 C 
BRANCH  38  40
ATOM     40  O   UNL     1     -16.985 -11.057   2.454  1.00  0.00    -0.391 OA
ATOM     41  H   UNL     1     -16.912 -11.079   3.427  1.00  0.00     0.211 HD
ENDBRANCH  38  40
ENDBRANCH  32  38
ENDBRANCH  29  32
ENDBRANCH  27  28
BRANCH  27  42
ATOM     42  C   UNL     1     -14.069  -9.908   7.089  1.00  0.00     0.015 C 
ATOM     43  C   UNL     1     -14.689  -8.506   7.089  1.00  0.00     0.010 C 
ATOM     44  C   UNL     1     -15.169 -10.975   7.104  1.00  0.00     0.010 C 
ENDBRANCH  27  42
ENDBRANCH   3  27
TORSDOF 5
ENDMDL
MODEL 11
REMARK VINA RESULT:    -5.048      4.451      7.367
REMARK INTER + INTRA:         -10.876
REMARK INTER:                  -8.704
REMARK INTRA:                  -2.172
REMARK UNBOUND:                -1.845
REMARK SMILES CC[C@H](C)[C@H]1NC(=O)c2coc(n2)[C@H](C(C)C)NC(=O)[C@H]([C@@H](C)O)NC(=O)[C@H](C)NC(=O)c2csc1n2
REMARK SMILES IDX 11 1 13 2 12 3 9 4 10 5 7 6 6 7 8 8 5 10 36 11 35 12 34 13
REMARK SMILES IDX 37 14 33 15 31 16 32 17 30 18 28 20 29 21 3 23 4 24 2 25
REMARK SMILES IDX 1 26 14 27 18 28 19 29 20 30 21 32 25 33 26 34 27 35 22 38
REMARK SMILES IDX 23 39 24 40 15 42 16 43 17 44
REMARK H PARENT 6 9 30 19 18 31 25 36 24 41
REMARK Flexibility Score:   94.900
ROOT
ATOM      1  O   UNL     1     -13.715 -11.619   6.743  1.00  0.00    -0.446 OA
ATOM      2  N   UNL     1     -13.354 -13.204   5.181  1.00  0.00    -0.207 NA
ATOM      3  C   UNL     1     -13.962 -12.068   5.473  1.00  0.00     0.217 A 
ATOM      4  C   UNL     1     -12.639 -13.510   6.326  1.00  0.00     0.167 A 
ATOM      5  C   UNL     1     -12.862 -12.540   7.273  1.00  0.00     0.231 A 
ENDROOT
BRANCH   4   6
ATOM      6  C   UNL     1     -11.822 -14.704   6.457  1.00  0.00     0.273 C 
ATOM      7  N   UNL     1     -10.515 -14.398   6.743  1.00  0.00    -0.341 N 
ATOM      8  O   UNL     1     -12.253 -15.840   6.302  1.00  0.00    -0.267 OA
ATOM      9  H   UNL     1     -10.285 -13.409   6.750  1.00  0.00     0.164 HD
BRANCH   7  10
ATOM     10  C   UNL     1      -9.443 -15.372   6.682  1.00  0.00     0.145 C 
BRANCH  10  11
ATOM     11  C   UNL     1      -8.912 -15.384   5.256  1.00  0.00     0.116 A 
ATOM     12  S   UNL     1      -7.735 -16.554   4.792  1.00  0.00    -0.124 S 
ATOM     13  C   UNL     1      -7.749 -15.926   3.202  1.00  0.00     0.101 A 
ATOM     14  N   UNL     1      -9.294 -14.555   4.298  1.00  0.00    -0.234 NA
ATOM     15  C   UNL     1      -8.639 -14.874   3.106  1.00  0.00     0.139 A 
BRANCH  15  16
ATOM     16  C   UNL     1      -8.900 -14.141   1.865  1.00  0.00     0.271 C 
ATOM     17  O   UNL     1      -8.047 -13.975   0.999  1.00  0.00    -0.267 OA
ATOM     18  N   UNL     1     -10.189 -13.662   1.769  1.00  0.00    -0.339 N 
ATOM     19  H   UNL     1     -10.766 -13.768   2.599  1.00  0.00     0.164 HD
BRANCH  18  20
ATOM     20  C   UNL     1     -10.610 -12.851   0.634  1.00  0.00     0.168 CG0
ATOM     21  C   UNL     1     -11.834 -13.454  -0.057  1.00  0.00     0.041 C 
ATOM     22  G   UNL     1     -10.959 -11.407   1.032  1.00  0.00     0.000 G0
ENDBRANCH  18  20
ENDBRANCH  15  16
ENDBRANCH  10  11
BRANCH  10  23
ATOM     23  C   UNL     1      -8.331 -15.085   7.725  1.00  0.00     0.015 C 
ATOM     24  C   UNL     1      -8.653 -13.898   8.648  1.00  0.00     0.010 C 
BRANCH  23  25
ATOM     25  C   UNL     1      -7.999 -16.316   8.600  1.00  0.00     0.002 C 
ATOM     26  C   UNL     1      -6.557 -16.789   8.479  1.00  0.00     0.004 C 
ENDBRANCH  23  25
ENDBRANCH  10  23
ENDBRANCH   7  10
ENDBRANCH   4   6
BRANCH   3  27
ATOM     27  C   UNL     1     -14.900 -11.290   4.592  1.00  0.00     0.171 C 
BRANCH  27  28
ATOM     28  N   UNL     1     -14.217 -11.032   3.329  1.00  0.00    -0.342 N 
ATOM     29  C   UNL     1     -13.499  -9.882   3.088  1.00  0.00     0.245 C 
ATOM     30  O   UNL     1     -13.368  -8.992   3.927  1.00  0.00    -0.273 OA
ATOM     31  H   UNL     1     -14.185 -11.773   2.629  1.00  0.00     0.164 HD
BRANCH  29  32
ATOM     32  C   UNL     1     -12.740  -9.847   1.745  1.00  0.00     0.200 C 
BRANCH  32  33
ATOM     33  N   UNL     1     -12.249 -11.200   1.458  1.00  0.00    -0.340 N 
ATOM     34  C   UNL     1     -10.952 -11.417   1.040  1.00  0.00     0.243 CG0
ATOM     35  O   UNL     1     -10.174 -10.489   0.828  1.00  0.00    -0.273 OA
ATOM     36  H   UNL     1     -12.877 -11.984   1.593  1.00  0.00     0.164 HD
ATOM     37  G   UNL     1     -10.612 -12.863   0.644  1.00  0.00     0.000 G0
ENDBRANCH  32  33
BRANCH  32  38
ATOM     38  C   UNL     1     -13.623  -9.274   0.612  1.00  0.00     0.143 C 
ATOM     39  C   UNL     1     -13.961 -10.278  -0.484  1.00  0.00     0.041 C 
BRANCH  38  40
ATOM     40  O   UNL     1     -14.849  -8.750   1.159  1.00  0.00    -0.391 OA
ATOM     41  H   UNL     1     -14.608  -8.267   1.972  1.00  0.00     0.211 HD
ENDBRANCH  38  40
ENDBRANCH  32  38
ENDBRANCH  29  32
ENDBRANCH  27  28
BRANCH  27  42
ATOM     42  C   UNL     1     -16.316 -11.875   4.365  1.00  0.00     0.015 C 
ATOM     43  C   UNL     1     -16.909 -11.648   2.970  1.00  0.00     0.010 C 
ATOM     44  C   UNL     1     -16.388 -13.359   4.738  1.00  0.00     0.010 C 
ENDBRANCH  27  42
ENDBRANCH   3  27
TORSDOF 5
ENDMDL
MODEL 12
REMARK VINA RESULT:    -5.037      1.763      2.235
REMARK INTER + INTRA:         -10.856
REMARK INTER:                  -9.311
REMARK INTRA:                  -1.545
REMARK UNBOUND:                -1.845
REMARK SMILES CC[C@H](C)[C@H]1NC(=O)c2coc(n2)[C@H](C(C)C)NC(=O)[C@H]([C@@H](C)O)NC(=O)[C@H](C)NC(=O)c2csc1n2
REMARK SMILES IDX 11 1 13 2 12 3 9 4 10 5 7 6 6 7 8 8 5 10 36 11 35 12 34 13
REMARK SMILES IDX 37 14 33 15 31 16 32 17 30 18 28 20 29 21 3 23 4 24 2 25
REMARK SMILES IDX 1 26 14 27 18 28 19 29 20 30 21 32 25 33 26 34 27 35 22 38
REMARK SMILES IDX 23 39 24 40 15 42 16 43 17 44
REMARK H PARENT 6 9 30 19 18 31 25 36 24 41
REMARK Flexibility Score:   94.900
ROOT
ATOM      1  O   UNL     1     -11.277 -13.496   6.934  1.00  0.00    -0.446 OA
ATOM      2  N   UNL     1     -12.928 -12.112   6.271  1.00  0.00    -0.207 NA
ATOM      3  C   UNL     1     -12.451 -13.344   6.245  1.00  0.00     0.217 A 
ATOM      4  C   UNL     1     -12.023 -11.414   7.051  1.00  0.00     0.167 A 
ATOM      5  C   UNL     1     -11.020 -12.263   7.452  1.00  0.00     0.231 A 
ENDROOT
BRANCH   4   6
ATOM      6  C   UNL     1     -12.151  -9.996   7.337  1.00  0.00     0.273 C 
ATOM      7  N   UNL     1     -13.404  -9.526   7.037  1.00  0.00    -0.341 N 
ATOM      8  O   UNL     1     -11.235  -9.307   7.770  1.00  0.00    -0.267 OA
ATOM      9  H   UNL     1     -14.031 -10.194   6.597  1.00  0.00     0.164 HD
BRANCH   7  10
ATOM     10  C   UNL     1     -13.731  -8.114   6.991  1.00  0.00     0.145 C 
BRANCH  10  11
ATOM     11  C   UNL     1     -14.528  -7.867   5.718  1.00  0.00     0.116 A 
ATOM     12  S   UNL     1     -15.499  -6.450   5.579  1.00  0.00    -0.124 S 
ATOM     13  C   UNL     1     -15.944  -6.920   3.997  1.00  0.00     0.101 A 
ATOM     14  N   UNL     1     -14.535  -8.663   4.661  1.00  0.00    -0.234 NA
ATOM     15  C   UNL     1     -15.337  -8.114   3.658  1.00  0.00     0.139 A 
BRANCH  15  16
ATOM     16  C   UNL     1     -15.498  -8.767   2.357  1.00  0.00     0.271 C 
ATOM     17  O   UNL     1     -16.354  -8.432   1.546  1.00  0.00    -0.267 OA
ATOM     18  N   UNL     1     -14.595  -9.786   2.137  1.00  0.00    -0.339 N 
ATOM     19  H   UNL     1     -14.010 -10.040   2.929  1.00  0.00     0.164 HD
BRANCH  18  20
ATOM     20  C   UNL     1     -14.649 -10.592   0.925  1.00  0.00     0.168 CG0
ATOM     21  C   UNL     1     -13.783  -9.989  -0.183  1.00  0.00     0.041 C 
ATOM     22  G   UNL     1     -14.180 -12.039   1.153  1.00  0.00     0.000 G0
ENDBRANCH  18  20
ENDBRANCH  15  16
ENDBRANCH  10  11
BRANCH  10  23
ATOM     23  C   UNL     1     -14.486  -7.645   8.262  1.00  0.00     0.015 C 
ATOM     24  C   UNL     1     -14.881  -8.801   9.197  1.00  0.00     0.010 C 
BRANCH  23  25
ATOM     25  C   UNL     1     -13.694  -6.599   9.077  1.00  0.00     0.002 C 
ATOM     26  C   UNL     1     -13.717  -5.200   8.477  1.00  0.00     0.004 C 
ENDBRANCH  23  25
ENDBRANCH  10  23
ENDBRANCH   7  10
ENDBRANCH   4   6
BRANCH   3  27
ATOM     27  C   UNL     1     -13.028 -14.525   5.514  1.00  0.00     0.171 C 
BRANCH  27  28
ATOM     28  N   UNL     1     -13.136 -14.167   4.103  1.00  0.00    -0.342 N 
ATOM     29  C   UNL     1     -12.059 -13.752   3.353  1.00  0.00     0.245 C 
ATOM     30  O   UNL     1     -10.921 -13.667   3.812  1.00  0.00    -0.273 OA
ATOM     31  H   UNL     1     -14.023 -14.322   3.625  1.00  0.00     0.164 HD
BRANCH  29  32
ATOM     32  C   UNL     1     -12.343 -13.543   1.850  1.00  0.00     0.200 C 
BRANCH  32  33
ATOM     33  N   UNL     1     -12.921 -12.205   1.673  1.00  0.00    -0.340 N 
ATOM     34  C   UNL     1     -14.196 -12.037   1.174  1.00  0.00     0.243 CG0
ATOM     35  O   UNL     1     -14.878 -12.988   0.799  1.00  0.00    -0.273 OA
ATOM     36  H   UNL     1     -12.370 -11.399   1.945  1.00  0.00     0.164 HD
ATOM     37  G   UNL     1     -14.622 -10.583   0.911  1.00  0.00     0.000 G0
ENDBRANCH  32  33
BRANCH  32  38
ATOM     38  C   UNL     1     -11.073 -13.769   0.998  1.00  0.00     0.143 C 
ATOM     39  C   UNL     1     -11.309 -13.683  -0.506  1.00  0.00     0.041 C 
BRANCH  38  40
ATOM     40  O   UNL     1     -10.056 -12.818   1.367  1.00  0.00    -0.391 OA
ATOM     41  H   UNL     1     -10.508 -11.964   1.501  1.00  0.00     0.211 HD
ENDBRANCH  38  40
ENDBRANCH  32  38
ENDBRANCH  29  32
ENDBRANCH  27  28
BRANCH  27  42
ATOM     42  C   UNL     1     -12.327 -15.893   5.702  1.00  0.00     0.015 C 
ATOM     43  C   UNL     1     -12.174 -16.362   7.153  1.00  0.00     0.010 C 
ATOM     44  C   UNL     1     -12.977 -16.991   4.854  1.00  0.00     0.010 C 
ENDBRANCH  27  42
ENDBRANCH   3  27
TORSDOF 5
ENDMDL
MODEL 13
REMARK VINA RESULT:    -4.942     12.831     15.966
REMARK INTER + INTRA:         -10.687
REMARK INTER:                  -8.160
REMARK INTRA:                  -2.527
REMARK UNBOUND:                -1.845
REMARK SMILES CC[C@H](C)[C@H]1NC(=O)c2coc(n2)[C@H](C(C)C)NC(=O)[C@H]([C@@H](C)O)NC(=O)[C@H](C)NC(=O)c2csc1n2
REMARK SMILES IDX 11 1 13 2 12 3 9 4 10 5 7 6 6 7 8 8 5 10 36 11 35 12 34 13
REMARK SMILES IDX 37 14 33 15 31 16 32 17 30 18 28 20 29 21 3 23 4 24 2 25
REMARK SMILES IDX 1 26 14 27 18 28 19 29 20 30 21 32 25 33 26 34 27 35 22 38
REMARK SMILES IDX 23 39 24 40 15 42 16 43 17 44
REMARK H PARENT 6 9 30 19 18 31 25 36 24 41
REMARK Flexibility Score:   94.900
ROOT
ATOM      1  O   UNL     1       0.283  -6.965  11.497  1.00  0.00    -0.446 OA
ATOM      2  N   UNL     1      -0.821  -8.279  10.035  1.00  0.00    -0.207 NA
ATOM      3  C   UNL     1      -0.844  -7.165  10.746  1.00  0.00     0.217 A 
ATOM      4  C   UNL     1       0.414  -8.836  10.318  1.00  0.00     0.167 A 
ATOM      5  C   UNL     1       1.082  -8.030  11.208  1.00  0.00     0.231 A 
ENDROOT
BRANCH   4   6
ATOM      6  C   UNL     1       0.864 -10.096   9.754  1.00  0.00     0.273 C 
ATOM      7  N   UNL     1      -0.188 -10.872   9.335  1.00  0.00    -0.341 N 
ATOM      8  O   UNL     1       2.041 -10.428   9.688  1.00  0.00    -0.267 OA
ATOM      9  H   UNL     1      -1.114 -10.505   9.539  1.00  0.00     0.164 HD
BRANCH   7  10
ATOM     10  C   UNL     1      -0.046 -12.266   8.966  1.00  0.00     0.145 C 
BRANCH  10  11
ATOM     11  C   UNL     1      -1.096 -13.055   9.734  1.00  0.00     0.116 A 
ATOM     12  S   UNL     1      -0.784 -14.693  10.172  1.00  0.00    -0.124 S 
ATOM     13  C   UNL     1      -2.303 -14.767  10.951  1.00  0.00     0.101 A 
ATOM     14  N   UNL     1      -2.267 -12.579  10.125  1.00  0.00    -0.234 NA
ATOM     15  C   UNL     1      -2.961 -13.557  10.842  1.00  0.00     0.139 A 
BRANCH  15  16
ATOM     16  C   UNL     1      -4.276 -13.292  11.430  1.00  0.00     0.271 C 
ATOM     17  O   UNL     1      -5.220 -14.068  11.326  1.00  0.00    -0.267 OA
ATOM     18  N   UNL     1      -4.346 -12.092  12.106  1.00  0.00    -0.339 N 
ATOM     19  H   UNL     1      -3.531 -11.489  12.026  1.00  0.00     0.164 HD
BRANCH  18  20
ATOM     20  C   UNL     1      -5.594 -11.630  12.698  1.00  0.00     0.168 CG0
ATOM     21  C   UNL     1      -5.635 -11.910  14.202  1.00  0.00     0.041 C 
ATOM     22  G   UNL     1      -5.827 -10.125  12.493  1.00  0.00     0.000 G0
ENDBRANCH  18  20
ENDBRANCH  15  16
ENDBRANCH  10  11
BRANCH  10  23
ATOM     23  C   UNL     1      -0.151 -12.479   7.432  1.00  0.00     0.015 C 
ATOM     24  C   UNL     1      -1.078 -11.467   6.739  1.00  0.00     0.010 C 
BRANCH  23  25
ATOM     25  C   UNL     1       1.225 -12.453   6.729  1.00  0.00     0.002 C 
ATOM     26  C   UNL     1       1.384 -13.506   5.641  1.00  0.00     0.004 C 
ENDBRANCH  23  25
ENDBRANCH  10  23
ENDBRANCH   7  10
ENDBRANCH   4   6
BRANCH   3  27
ATOM     27  C   UNL     1      -1.970  -6.172  10.838  1.00  0.00     0.171 C 
BRANCH  27  28
ATOM     28  N   UNL     1      -2.895  -6.640  11.865  1.00  0.00    -0.342 N 
ATOM     29  C   UNL     1      -4.054  -7.323  11.572  1.00  0.00     0.245 C 
ATOM     30  O   UNL     1      -4.388  -7.603  10.422  1.00  0.00    -0.273 OA
ATOM     31  H   UNL     1      -2.628  -6.546  12.845  1.00  0.00     0.164 HD
BRANCH  29  32
ATOM     32  C   UNL     1      -4.837  -7.849  12.793  1.00  0.00     0.200 C 
BRANCH  32  33
ATOM     33  N   UNL     1      -4.726  -9.313  12.816  1.00  0.00    -0.340 N 
ATOM     34  C   UNL     1      -5.799 -10.117  12.491  1.00  0.00     0.243 CG0
ATOM     35  O   UNL     1      -6.906  -9.650  12.233  1.00  0.00    -0.273 OA
ATOM     36  H   UNL     1      -3.833  -9.728  13.055  1.00  0.00     0.164 HD
ATOM     37  G   UNL     1      -5.584 -11.626  12.690  1.00  0.00     0.000 G0
ENDBRANCH  32  33
BRANCH  32  38
ATOM     38  C   UNL     1      -4.351  -7.187  14.104  1.00  0.00     0.143 C 
ATOM     39  C   UNL     1      -5.410  -7.124  15.198  1.00  0.00     0.041 C 
BRANCH  38  40
ATOM     40  O   UNL     1      -3.197  -7.885  14.610  1.00  0.00    -0.391 OA
ATOM     41  H   UNL     1      -3.531  -8.575  15.215  1.00  0.00     0.211 HD
ENDBRANCH  38  40
ENDBRANCH  32  38
ENDBRANCH  29  32
ENDBRANCH  27  28
BRANCH  27  42
ATOM     42  C   UNL     1      -1.594  -4.684  11.046  1.00  0.00     0.015 C 
ATOM     43  C   UNL     1      -1.765  -3.782   9.819  1.00  0.00     0.010 C 
ATOM     44  C   UNL     1      -2.310  -4.076  12.257  1.00  0.00     0.010 C 
ENDBRANCH  27  42
ENDBRANCH   3  27
TORSDOF 5
ENDMDL
MODEL 14
REMARK VINA RESULT:    -4.940      3.117      6.888
REMARK INTER + INTRA:         -10.682
REMARK INTER:                  -9.598
REMARK INTRA:                  -1.084
REMARK UNBOUND:                -1.845
REMARK SMILES CC[C@H](C)[C@H]1NC(=O)c2coc(n2)[C@H](C(C)C)NC(=O)[C@H]([C@@H](C)O)NC(=O)[C@H](C)NC(=O)c2csc1n2
REMARK SMILES IDX 11 1 13 2 12 3 9 4 10 5 7 6 6 7 8 8 5 10 36 11 35 12 34 13
REMARK SMILES IDX 37 14 33 15 31 16 32 17 30 18 28 20 29 21 3 23 4 24 2 25
REMARK SMILES IDX 1 26 14 27 18 28 19 29 20 30 21 32 25 33 26 34 27 35 22 38
REMARK SMILES IDX 23 39 24 40 15 42 16 43 17 44
REMARK H PARENT 6 9 30 19 18 31 25 36 24 41
REMARK Flexibility Score:   94.900
ROOT
ATOM      1  O   UNL     1     -10.841  -9.493   7.776  1.00  0.00    -0.446 OA
ATOM      2  N   UNL     1     -11.991 -11.009   6.567  1.00  0.00    -0.207 NA
ATOM      3  C   UNL     1     -12.036  -9.859   7.216  1.00  0.00     0.217 A 
ATOM      4  C   UNL     1     -10.673 -11.414   6.686  1.00  0.00     0.167 A 
ATOM      5  C   UNL     1      -9.978 -10.486   7.422  1.00  0.00     0.231 A 
ENDROOT
BRANCH   4   6
ATOM      6  C   UNL     1     -10.170 -12.656   6.123  1.00  0.00     0.273 C 
ATOM      7  N   UNL     1     -10.038 -12.581   4.760  1.00  0.00    -0.341 N 
ATOM      8  O   UNL     1      -9.922 -13.651   6.793  1.00  0.00    -0.267 OA
ATOM      9  H   UNL     1     -10.370 -11.722   4.331  1.00  0.00     0.164 HD
BRANCH   7  10
ATOM     10  C   UNL     1      -9.796 -13.740   3.923  1.00  0.00     0.145 C 
BRANCH  10  11
ATOM     11  C   UNL     1     -10.977 -13.876   2.973  1.00  0.00     0.116 A 
ATOM     12  S   UNL     1     -11.202 -15.341   2.093  1.00  0.00    -0.124 S 
ATOM     13  C   UNL     1     -12.623 -14.695   1.396  1.00  0.00     0.101 A 
ATOM     14  N   UNL     1     -11.891 -12.943   2.761  1.00  0.00    -0.234 NA
ATOM     15  C   UNL     1     -12.853 -13.416   1.865  1.00  0.00     0.139 A 
BRANCH  15  16
ATOM     16  C   UNL     1     -14.008 -12.604   1.477  1.00  0.00     0.271 C 
ATOM     17  O   UNL     1     -14.589 -12.743   0.406  1.00  0.00    -0.267 OA
ATOM     18  N   UNL     1     -14.375 -11.677   2.429  1.00  0.00    -0.339 N 
ATOM     19  H   UNL     1     -13.748 -11.585   3.224  1.00  0.00     0.164 HD
BRANCH  18  20
ATOM     20  C   UNL     1     -15.460 -10.736   2.188  1.00  0.00     0.168 CG0
ATOM     21  C   UNL     1     -16.707 -11.105   2.996  1.00  0.00     0.041 C 
ATOM     22  G   UNL     1     -15.082  -9.289   2.542  1.00  0.00     0.000 G0
ENDBRANCH  18  20
ENDBRANCH  15  16
ENDBRANCH  10  11
BRANCH  10  23
ATOM     23  C   UNL     1      -8.441 -13.649   3.173  1.00  0.00     0.015 C 
ATOM     24  C   UNL     1      -7.754 -15.013   2.989  1.00  0.00     0.010 C 
BRANCH  23  25
ATOM     25  C   UNL     1      -8.566 -12.967   1.792  1.00  0.00     0.002 C 
ATOM     26  C   UNL     1      -8.356 -11.460   1.825  1.00  0.00     0.004 C 
ENDBRANCH  23  25
ENDBRANCH  10  23
ENDBRANCH   7  10
ENDBRANCH   4   6
BRANCH   3  27
ATOM     27  C   UNL     1     -13.241  -8.986   7.429  1.00  0.00     0.171 C 
BRANCH  27  28
ATOM     28  N   UNL     1     -13.889  -8.794   6.136  1.00  0.00    -0.342 N 
ATOM     29  C   UNL     1     -14.475  -7.606   5.763  1.00  0.00     0.245 C 
ATOM     30  O   UNL     1     -14.483  -6.611   6.487  1.00  0.00    -0.273 OA
ATOM     31  H   UNL     1     -13.821  -9.536   5.440  1.00  0.00     0.164 HD
BRANCH  29  32
ATOM     32  C   UNL     1     -14.994  -7.554   4.310  1.00  0.00     0.200 C 
BRANCH  32  33
ATOM     33  N   UNL     1     -15.244  -8.929   3.860  1.00  0.00    -0.340 N 
ATOM     34  C   UNL     1     -15.065  -9.294   2.542  1.00  0.00     0.243 CG0
ATOM     35  O   UNL     1     -14.753  -8.478   1.678  1.00  0.00    -0.273 OA
ATOM     36  H   UNL     1     -15.532  -9.618   4.545  1.00  0.00     0.164 HD
ATOM     37  G   UNL     1     -15.493 -10.727   2.184  1.00  0.00     0.000 G0
ENDBRANCH  32  33
BRANCH  32  38
ATOM     38  C   UNL     1     -16.238  -6.644   4.186  1.00  0.00     0.143 C 
ATOM     39  C   UNL     1     -16.210  -5.423   5.099  1.00  0.00     0.041 C 
BRANCH  38  40
ATOM     40  O   UNL     1     -16.394  -6.204   2.823  1.00  0.00    -0.391 OA
ATOM     41  H   UNL     1     -15.791  -5.446   2.703  1.00  0.00     0.211 HD
ENDBRANCH  38  40
ENDBRANCH  32  38
ENDBRANCH  29  32
ENDBRANCH  27  28
BRANCH  27  42
ATOM     42  C   UNL     1     -14.256  -9.422   8.515  1.00  0.00     0.015 C 
ATOM     43  C   UNL     1     -14.833  -8.291   9.373  1.00  0.00     0.010 C 
ATOM     44  C   UNL     1     -15.386 -10.277   7.932  1.00  0.00     0.010 C 
ENDBRANCH  27  42
ENDBRANCH   3  27
TORSDOF 5
ENDMDL
MODEL 15
REMARK VINA RESULT:    -4.931     13.055     15.476
REMARK INTER + INTRA:         -10.668
REMARK INTER:                  -8.339
REMARK INTRA:                  -2.329
REMARK UNBOUND:                -1.845
REMARK SMILES CC[C@H](C)[C@H]1NC(=O)c2coc(n2)[C@H](C(C)C)NC(=O)[C@H]([C@@H](C)O)NC(=O)[C@H](C)NC(=O)c2csc1n2
REMARK SMILES IDX 11 1 13 2 12 3 9 4 10 5 7 6 6 7 8 8 5 10 36 11 35 12 34 13
REMARK SMILES IDX 37 14 33 15 31 16 32 17 30 18 28 20 29 21 3 23 4 24 2 25
REMARK SMILES IDX 1 26 14 27 18 28 19 29 20 30 21 32 25 33 26 34 27 35 22 38
REMARK SMILES IDX 23 39 24 40 15 42 16 43 17 44
REMARK H PARENT 6 9 30 19 18 31 25 36 24 41
REMARK Flexibility Score:   94.900
ROOT
ATOM      1  O   UNL     1      -2.392 -10.662   8.847  1.00  0.00    -0.446 OA
ATOM      2  N   UNL     1      -1.762  -9.534  10.694  1.00  0.00    -0.207 NA
ATOM      3  C   UNL     1      -2.166 -10.689  10.197  1.00  0.00     0.217 A 
ATOM      4  C   UNL     1      -1.692  -8.697   9.593  1.00  0.00     0.167 A 
ATOM      5  C   UNL     1      -2.076  -9.391   8.471  1.00  0.00     0.231 A 
ENDROOT
BRANCH   4   6
ATOM      6  C   UNL     1      -1.298  -7.302   9.681  1.00  0.00     0.273 C 
ATOM      7  N   UNL     1      -0.355  -7.099  10.657  1.00  0.00    -0.341 N 
ATOM      8  O   UNL     1      -1.775  -6.418   8.980  1.00  0.00    -0.267 OA
ATOM      9  H   UNL     1      -0.123  -7.911  11.220  1.00  0.00     0.164 HD
BRANCH   7  10
ATOM     10  C   UNL     1       0.030  -5.782  11.124  1.00  0.00     0.145 C 
BRANCH  10  11
ATOM     11  C   UNL     1      -1.067  -5.284  12.054  1.00  0.00     0.116 A 
ATOM     12  S   UNL     1      -1.696  -3.692  11.860  1.00  0.00    -0.124 S 
ATOM     13  C   UNL     1      -2.783  -3.971  13.149  1.00  0.00     0.101 A 
ATOM     14  N   UNL     1      -1.614  -5.993  13.028  1.00  0.00    -0.234 NA
ATOM     15  C   UNL     1      -2.616  -5.247  13.653  1.00  0.00     0.139 A 
BRANCH  15  16
ATOM     16  C   UNL     1      -3.418  -5.800  14.747  1.00  0.00     0.271 C 
ATOM     17  O   UNL     1      -3.463  -5.290  15.861  1.00  0.00    -0.267 OA
ATOM     18  N   UNL     1      -4.113  -6.939  14.399  1.00  0.00    -0.339 N 
ATOM     19  H   UNL     1      -3.905  -7.323  13.481  1.00  0.00     0.164 HD
BRANCH  18  20
ATOM     20  C   UNL     1      -4.910  -7.665  15.379  1.00  0.00     0.168 CG0
ATOM     21  C   UNL     1      -6.403  -7.377  15.204  1.00  0.00     0.041 C 
ATOM     22  G   UNL     1      -4.712  -9.187  15.296  1.00  0.00     0.000 G0
ENDBRANCH  18  20
ENDBRANCH  15  16
ENDBRANCH  10  11
BRANCH  10  23
ATOM     23  C   UNL     1       1.425  -5.785  11.802  1.00  0.00     0.015 C 
ATOM     24  C   UNL     1       2.230  -7.067  11.533  1.00  0.00     0.010 C 
BRANCH  23  25
ATOM     25  C   UNL     1       2.288  -4.566  11.403  1.00  0.00     0.002 C 
ATOM     26  C   UNL     1       3.384  -4.231  12.404  1.00  0.00     0.004 C 
ENDBRANCH  23  25
ENDBRANCH  10  23
ENDBRANCH   7  10
ENDBRANCH   4   6
BRANCH   3  27
ATOM     27  C   UNL     1      -2.439 -11.957  10.958  1.00  0.00     0.171 C 
BRANCH  27  28
ATOM     28  N   UNL     1      -3.624 -11.739  11.780  1.00  0.00    -0.342 N 
ATOM     29  C   UNL     1      -3.561 -11.513  13.137  1.00  0.00     0.245 C 
ATOM     30  O   UNL     1      -2.499 -11.464  13.755  1.00  0.00    -0.273 OA
ATOM     31  H   UNL     1      -4.530 -11.651  11.321  1.00  0.00     0.164 HD
BRANCH  29  32
ATOM     32  C   UNL     1      -4.907 -11.175  13.813  1.00  0.00     0.200 C 
BRANCH  32  33
ATOM     33  N   UNL     1      -4.960  -9.725  14.034  1.00  0.00    -0.340 N 
ATOM     34  C   UNL     1      -4.716  -9.181  15.277  1.00  0.00     0.243 CG0
ATOM     35  O   UNL     1      -4.507  -9.883  16.264  1.00  0.00    -0.273 OA
ATOM     36  H   UNL     1      -5.160  -9.121  13.245  1.00  0.00     0.164 HD
ATOM     37  G   UNL     1      -4.940  -7.664  15.397  1.00  0.00     0.000 G0
ENDBRANCH  32  33
BRANCH  32  38
ATOM     38  C   UNL     1      -6.103 -11.703  12.987  1.00  0.00     0.143 C 
ATOM     39  C   UNL     1      -6.919 -12.780  13.692  1.00  0.00     0.041 C 
BRANCH  38  40
ATOM     40  O   UNL     1      -6.976 -10.613  12.631  1.00  0.00    -0.391 OA
ATOM     41  H   UNL     1      -6.931 -10.526  11.660  1.00  0.00     0.211 HD
ENDBRANCH  38  40
ENDBRANCH  32  38
ENDBRANCH  29  32
ENDBRANCH  27  28
BRANCH  27  42
ATOM     42  C   UNL     1      -2.546 -13.270  10.143  1.00  0.00     0.015 C 
ATOM     43  C   UNL     1      -1.355 -14.226  10.272  1.00  0.00     0.010 C 
ATOM     44  C   UNL     1      -3.857 -14.012  10.422  1.00  0.00     0.010 C 
ENDBRANCH  27  42
ENDBRANCH   3  27
TORSDOF 5
ENDMDL
MODEL 16
REMARK VINA RESULT:    -4.931     12.184     15.970
REMARK INTER + INTRA:         -10.667
REMARK INTER:                  -8.194
REMARK INTRA:                  -2.473
REMARK UNBOUND:                -1.845
REMARK SMILES CC[C@H](C)[C@H]1NC(=O)c2coc(n2)[C@H](C(C)C)NC(=O)[C@H]([C@@H](C)O)NC(=O)[C@H](C)NC(=O)c2csc1n2
REMARK SMILES IDX 11 1 13 2 12 3 9 4 10 5 7 6 6 7 8 8 5 10 36 11 35 12 34 13
REMARK SMILES IDX 37 14 33 15 31 16 32 17 30 18 28 20 29 21 3 23 4 24 2 25
REMARK SMILES IDX 1 26 14 27 18 28 19 29 20 30 21 32 25 33 26 34 27 35 22 38
REMARK SMILES IDX 23 39 24 40 15 42 16 43 17 44
REMARK H PARENT 6 9 30 19 18 31 25 36 24 41
REMARK Flexibility Score:   94.900
ROOT
ATOM      1  O   UNL     1      -1.060  -8.564   9.296  1.00  0.00    -0.446 OA
ATOM      2  N   UNL     1      -2.950  -9.427  10.171  1.00  0.00    -0.207 NA
ATOM      3  C   UNL     1      -2.246  -8.333   9.942  1.00  0.00     0.217 A 
ATOM      4  C   UNL     1      -2.191 -10.442   9.616  1.00  0.00     0.167 A 
ATOM      5  C   UNL     1      -1.042  -9.910   9.084  1.00  0.00     0.231 A 
ENDROOT
BRANCH   4   6
ATOM      6  C   UNL     1      -2.586 -11.839   9.651  1.00  0.00     0.273 C 
ATOM      7  N   UNL     1      -3.820 -12.005  10.228  1.00  0.00    -0.341 N 
ATOM      8  O   UNL     1      -1.884 -12.753   9.237  1.00  0.00    -0.267 OA
ATOM      9  H   UNL     1      -4.245 -11.164  10.610  1.00  0.00     0.164 HD
BRANCH   7  10
ATOM     10  C   UNL     1      -4.346 -13.299  10.614  1.00  0.00     0.145 C 
BRANCH  10  11
ATOM     11  C   UNL     1      -4.357 -13.358  12.135  1.00  0.00     0.116 A 
ATOM     12  S   UNL     1      -3.813 -14.781  12.939  1.00  0.00    -0.124 S 
ATOM     13  C   UNL     1      -4.099 -14.029  14.447  1.00  0.00     0.101 A 
ATOM     14  N   UNL     1      -4.747 -12.374  12.928  1.00  0.00    -0.234 NA
ATOM     15  C   UNL     1      -4.585 -12.749  14.264  1.00  0.00     0.139 A 
BRANCH  15  16
ATOM     16  C   UNL     1      -4.903 -11.836  15.364  1.00  0.00     0.271 C 
ATOM     17  O   UNL     1      -5.845 -12.017  16.127  1.00  0.00    -0.267 OA
ATOM     18  N   UNL     1      -4.043 -10.761  15.454  1.00  0.00    -0.339 N 
ATOM     19  H   UNL     1      -3.372 -10.664  14.697  1.00  0.00     0.164 HD
BRANCH  18  20
ATOM     20  C   UNL     1      -4.246  -9.714  16.446  1.00  0.00     0.168 CG0
ATOM     21  C   UNL     1      -3.257  -9.846  17.606  1.00  0.00     0.041 C 
ATOM     22  G   UNL     1      -4.096  -8.302  15.858  1.00  0.00     0.000 G0
ENDBRANCH  18  20
ENDBRANCH  15  16
ENDBRANCH  10  11
BRANCH  10  23
ATOM     23  C   UNL     1      -5.746 -13.569  10.002  1.00  0.00     0.015 C 
ATOM     24  C   UNL     1      -6.600 -14.537  10.838  1.00  0.00     0.010 C 
BRANCH  23  25
ATOM     25  C   UNL     1      -6.555 -12.274   9.766  1.00  0.00     0.002 C 
ATOM     26  C   UNL     1      -7.544 -11.951  10.877  1.00  0.00     0.004 C 
ENDBRANCH  23  25
ENDBRANCH  10  23
ENDBRANCH   7  10
ENDBRANCH   4   6
BRANCH   3  27
ATOM     27  C   UNL     1      -2.590  -6.929  10.358  1.00  0.00     0.171 C 
BRANCH  27  28
ATOM     28  N   UNL     1      -2.348  -6.816  11.792  1.00  0.00    -0.342 N 
ATOM     29  C   UNL     1      -3.349  -6.937  12.730  1.00  0.00     0.245 C 
ATOM     30  O   UNL     1      -4.519  -7.165  12.429  1.00  0.00    -0.273 OA
ATOM     31  H   UNL     1      -1.387  -6.742  12.123  1.00  0.00     0.164 HD
BRANCH  29  32
ATOM     32  C   UNL     1      -2.881  -6.917  14.200  1.00  0.00     0.200 C 
BRANCH  32  33
ATOM     33  N   UNL     1      -3.211  -8.213  14.807  1.00  0.00    -0.340 N 
ATOM     34  C   UNL     1      -4.106  -8.306  15.852  1.00  0.00     0.243 CG0
ATOM     35  O   UNL     1      -4.616  -7.311  16.363  1.00  0.00    -0.273 OA
ATOM     36  H   UNL     1      -2.783  -9.049  14.427  1.00  0.00     0.164 HD
ATOM     37  G   UNL     1      -4.254  -9.702  16.480  1.00  0.00     0.000 G0
ENDBRANCH  32  33
BRANCH  32  38
ATOM     38  C   UNL     1      -1.379  -6.565  14.311  1.00  0.00     0.143 C 
ATOM     39  C   UNL     1      -0.935  -6.165  15.713  1.00  0.00     0.041 C 
BRANCH  38  40
ATOM     40  O   UNL     1      -0.578  -7.678  13.867  1.00  0.00    -0.391 OA
ATOM     41  H   UNL     1      -0.423  -8.240  14.649  1.00  0.00     0.211 HD
ENDBRANCH  38  40
ENDBRANCH  32  38
ENDBRANCH  29  32
ENDBRANCH  27  28
BRANCH  27  42
ATOM     42  C   UNL     1      -1.925  -5.770   9.575  1.00  0.00     0.015 C 
ATOM     43  C   UNL     1      -2.809  -5.089   8.524  1.00  0.00     0.010 C 
ATOM     44  C   UNL     1      -1.312  -4.724  10.512  1.00  0.00     0.010 C 
ENDBRANCH  27  42
ENDBRANCH   3  27
TORSDOF 5
ENDMDL
MODEL 17
REMARK VINA RESULT:    -4.894     13.605     15.844
REMARK INTER + INTRA:         -10.600
REMARK INTER:                  -8.103
REMARK INTRA:                  -2.497
REMARK UNBOUND:                -1.845
REMARK SMILES CC[C@H](C)[C@H]1NC(=O)c2coc(n2)[C@H](C(C)C)NC(=O)[C@H]([C@@H](C)O)NC(=O)[C@H](C)NC(=O)c2csc1n2
REMARK SMILES IDX 11 1 13 2 12 3 9 4 10 5 7 6 6 7 8 8 5 10 36 11 35 12 34 13
REMARK SMILES IDX 37 14 33 15 31 16 32 17 30 18 28 20 29 21 3 23 4 24 2 25
REMARK SMILES IDX 1 26 14 27 18 28 19 29 20 30 21 32 25 33 26 34 27 35 22 38
REMARK SMILES IDX 23 39 24 40 15 42 16 43 17 44
REMARK H PARENT 6 9 30 19 18 31 25 36 24 41
REMARK Flexibility Score:   94.900
ROOT
ATOM      1  O   UNL     1      -5.149  -7.088  14.742  1.00  0.00    -0.446 OA
ATOM      2  N   UNL     1      -3.709  -8.714  14.142  1.00  0.00    -0.207 NA
ATOM      3  C   UNL     1      -3.902  -7.415  14.280  1.00  0.00     0.217 A 
ATOM      4  C   UNL     1      -4.898  -9.281  14.565  1.00  0.00     0.167 A 
ATOM      5  C   UNL     1      -5.771  -8.285  14.930  1.00  0.00     0.231 A 
ENDROOT
BRANCH   4   6
ATOM      6  C   UNL     1      -5.137 -10.714  14.569  1.00  0.00     0.273 C 
ATOM      7  N   UNL     1      -4.051 -11.411  15.034  1.00  0.00    -0.341 N 
ATOM      8  O   UNL     1      -6.178 -11.228  14.177  1.00  0.00    -0.267 OA
ATOM      9  H   UNL     1      -3.225 -10.856  15.236  1.00  0.00     0.164 HD
BRANCH   7  10
ATOM     10  C   UNL     1      -3.923 -12.850  14.914  1.00  0.00     0.145 C 
BRANCH  10  11
ATOM     11  C   UNL     1      -3.493 -13.157  13.487  1.00  0.00     0.116 A 
ATOM     12  S   UNL     1      -4.280 -14.413  12.609  1.00  0.00    -0.124 S 
ATOM     13  C   UNL     1      -3.302 -14.066  11.251  1.00  0.00     0.101 A 
ATOM     14  N   UNL     1      -2.544 -12.514  12.827  1.00  0.00    -0.234 NA
ATOM     15  C   UNL     1      -2.440 -13.023  11.530  1.00  0.00     0.139 A 
BRANCH  15  16
ATOM     16  C   UNL     1      -1.492 -12.471  10.560  1.00  0.00     0.271 C 
ATOM     17  O   UNL     1      -0.406 -12.989  10.323  1.00  0.00    -0.267 OA
ATOM     18  N   UNL     1      -1.939 -11.322   9.944  1.00  0.00    -0.339 N 
ATOM     19  H   UNL     1      -2.806 -10.932  10.307  1.00  0.00     0.164 HD
BRANCH  18  20
ATOM     20  C   UNL     1      -1.101 -10.596   9.000  1.00  0.00     0.168 CG0
ATOM     21  C   UNL     1      -1.785 -10.461   7.638  1.00  0.00     0.041 C 
ATOM     22  G   UNL     1      -0.742  -9.183   9.488  1.00  0.00     0.000 G0
ENDBRANCH  18  20
ENDBRANCH  15  16
ENDBRANCH  10  11
BRANCH  10  23
ATOM     23  C   UNL     1      -2.947 -13.441  15.966  1.00  0.00     0.015 C 
ATOM     24  C   UNL     1      -2.109 -12.372  16.688  1.00  0.00     0.010 C 
BRANCH  23  25
ATOM     25  C   UNL     1      -3.663 -14.308  17.026  1.00  0.00     0.002 C 
ATOM     26  C   UNL     1      -5.033 -14.809  16.592  1.00  0.00     0.004 C 
ENDBRANCH  23  25
ENDBRANCH  10  23
ENDBRANCH   7  10
ENDBRANCH   4   6
BRANCH   3  27
ATOM     27  C   UNL     1      -2.937  -6.313  13.940  1.00  0.00     0.171 C 
BRANCH  27  28
ATOM     28  N   UNL     1      -2.693  -6.362  12.502  1.00  0.00    -0.342 N 
ATOM     29  C   UNL     1      -1.577  -6.953  11.953  1.00  0.00     0.245 C 
ATOM     30  O   UNL     1      -0.710  -7.499  12.634  1.00  0.00    -0.273 OA
ATOM     31  H   UNL     1      -3.422  -6.032  11.870  1.00  0.00     0.164 HD
BRANCH  29  32
ATOM     32  C   UNL     1      -1.558  -7.020  10.411  1.00  0.00     0.200 C 
BRANCH  32  33
ATOM     33  N   UNL     1      -1.766  -8.417  10.008  1.00  0.00    -0.340 N 
ATOM     34  C   UNL     1      -0.732  -9.177   9.500  1.00  0.00     0.243 CG0
ATOM     35  O   UNL     1       0.386  -8.705   9.304  1.00  0.00    -0.273 OA
ATOM     36  H   UNL     1      -2.685  -8.825  10.129  1.00  0.00     0.164 HD
ATOM     37  G   UNL     1      -1.121 -10.574   8.991  1.00  0.00     0.000 G0
ENDBRANCH  32  33
BRANCH  32  38
ATOM     38  C   UNL     1      -2.592  -6.053   9.790  1.00  0.00     0.143 C 
ATOM     39  C   UNL     1      -2.146  -5.426   8.474  1.00  0.00     0.041 C 
BRANCH  38  40
ATOM     40  O   UNL     1      -3.843  -6.737   9.581  1.00  0.00    -0.391 OA
ATOM     41  H   UNL     1      -4.042  -7.214  10.409  1.00  0.00     0.211 HD
ENDBRANCH  38  40
ENDBRANCH  32  38
ENDBRANCH  29  32
ENDBRANCH  27  28
BRANCH  27  42
ATOM     42  C   UNL     1      -3.294  -4.881  14.409  1.00  0.00     0.015 C 
ATOM     43  C   UNL     1      -2.863  -4.527  15.837  1.00  0.00     0.010 C 
ATOM     44  C   UNL     1      -2.799  -3.816  13.425  1.00  0.00     0.010 C 
ENDBRANCH  27  42
ENDBRANCH   3  27
TORSDOF 5
ENDMDL
MODEL 18
REMARK VINA RESULT:    -4.865      4.086      7.629
REMARK INTER + INTRA:         -10.548
REMARK INTER:                  -8.927
REMARK INTRA:                  -1.622
REMARK UNBOUND:                -1.845
REMARK SMILES CC[C@H](C)[C@H]1NC(=O)c2coc(n2)[C@H](C(C)C)NC(=O)[C@H]([C@@H](C)O)NC(=O)[C@H](C)NC(=O)c2csc1n2
REMARK SMILES IDX 11 1 13 2 12 3 9 4 10 5 7 6 6 7 8 8 5 10 36 11 35 12 34 13
REMARK SMILES IDX 37 14 33 15 31 16 32 17 30 18 28 20 29 21 3 23 4 24 2 25
REMARK SMILES IDX 1 26 14 27 18 28 19 29 20 30 21 32 25 33 26 34 27 35 22 38
REMARK SMILES IDX 23 39 24 40 15 42 16 43 17 44
REMARK H PARENT 6 9 30 19 18 31 25 36 24 41
REMARK Flexibility Score:   94.900
ROOT
ATOM      1  O   UNL     1     -15.271 -11.686   5.612  1.00  0.00    -0.446 OA
ATOM      2  N   UNL     1     -13.116 -12.347   5.634  1.00  0.00    -0.207 NA
ATOM      3  C   UNL     1     -13.952 -11.328   5.537  1.00  0.00     0.217 A 
ATOM      4  C   UNL     1     -13.940 -13.445   5.811  1.00  0.00     0.167 A 
ATOM      5  C   UNL     1     -15.251 -13.036   5.797  1.00  0.00     0.231 A 
ENDROOT
BRANCH   4   6
ATOM      6  C   UNL     1     -13.436 -14.800   5.951  1.00  0.00     0.273 C 
ATOM      7  N   UNL     1     -12.087 -14.870   5.712  1.00  0.00    -0.341 N 
ATOM      8  O   UNL     1     -14.145 -15.762   6.225  1.00  0.00    -0.267 OA
ATOM      9  H   UNL     1     -11.649 -14.007   5.404  1.00  0.00     0.164 HD
BRANCH   7  10
ATOM     10  C   UNL     1     -11.377 -16.122   5.540  1.00  0.00     0.145 C 
BRANCH  10  11
ATOM     11  C   UNL     1     -10.302 -15.901   4.486  1.00  0.00     0.116 A 
ATOM     12  S   UNL     1      -8.981 -17.001   4.369  1.00  0.00    -0.124 S 
ATOM     13  C   UNL     1      -8.366 -16.110   3.046  1.00  0.00     0.101 A 
ATOM     14  N   UNL     1     -10.295 -14.913   3.607  1.00  0.00    -0.234 NA
ATOM     15  C   UNL     1      -9.189 -15.037   2.762  1.00  0.00     0.139 A 
BRANCH  15  16
ATOM     16  C   UNL     1      -8.948 -14.097   1.665  1.00  0.00     0.271 C 
ATOM     17  O   UNL     1      -7.839 -13.919   1.173  1.00  0.00    -0.267 OA
ATOM     18  N   UNL     1     -10.085 -13.439   1.244  1.00  0.00    -0.339 N 
ATOM     19  H   UNL     1     -10.919 -13.591   1.805  1.00  0.00     0.164 HD
BRANCH  18  20
ATOM     20  C   UNL     1     -10.025 -12.417   0.208  1.00  0.00     0.168 CG0
ATOM     21  C   UNL     1     -10.750 -12.869  -1.061  1.00  0.00     0.041 C 
ATOM     22  G   UNL     1     -10.645 -11.083   0.654  1.00  0.00     0.000 G0
ENDBRANCH  18  20
ENDBRANCH  15  16
ENDBRANCH  10  11
BRANCH  10  23
ATOM     23  C   UNL     1     -10.794 -16.653   6.877  1.00  0.00     0.015 C 
ATOM     24  C   UNL     1     -10.880 -15.634   8.026  1.00  0.00     0.010 C 
BRANCH  23  25
ATOM     25  C   UNL     1     -11.455 -17.973   7.335  1.00  0.00     0.002 C 
ATOM     26  C   UNL     1     -12.263 -18.670   6.249  1.00  0.00     0.004 C 
ENDBRANCH  23  25
ENDBRANCH  10  23
ENDBRANCH   7  10
ENDBRANCH   4   6
BRANCH   3  27
ATOM     27  C   UNL     1     -13.598  -9.884   5.307  1.00  0.00     0.171 C 
BRANCH  27  28
ATOM     28  N   UNL     1     -12.905  -9.793   4.027  1.00  0.00    -0.342 N 
ATOM     29  C   UNL     1     -13.456 -10.237   2.846  1.00  0.00     0.245 C 
ATOM     30  O   UNL     1     -14.580 -10.730   2.780  1.00  0.00    -0.273 OA
ATOM     31  H   UNL     1     -12.018  -9.292   3.984  1.00  0.00     0.164 HD
BRANCH  29  32
ATOM     32  C   UNL     1     -12.627  -9.938   1.578  1.00  0.00     0.200 C 
BRANCH  32  33
ATOM     33  N   UNL     1     -11.891 -11.154   1.211  1.00  0.00    -0.340 N 
ATOM     34  C   UNL     1     -10.634 -11.086   0.646  1.00  0.00     0.243 CG0
ATOM     35  O   UNL     1     -10.104 -10.013   0.367  1.00  0.00    -0.273 OA
ATOM     36  H   UNL     1     -12.316 -12.054   1.401  1.00  0.00     0.164 HD
ATOM     37  G   UNL     1     -10.038 -12.426   0.186  1.00  0.00     0.000 G0
ENDBRANCH  32  33
BRANCH  32  38
ATOM     38  C   UNL     1     -13.519  -9.404   0.433  1.00  0.00     0.143 C 
ATOM     39  C   UNL     1     -14.037 -10.486  -0.508  1.00  0.00     0.041 C 
BRANCH  38  40
ATOM     40  O   UNL     1     -14.641  -8.683   0.977  1.00  0.00    -0.391 OA
ATOM     41  H   UNL     1     -14.294  -7.832   1.305  1.00  0.00     0.211 HD
ENDBRANCH  38  40
ENDBRANCH  32  38
ENDBRANCH  29  32
ENDBRANCH  27  28
BRANCH  27  42
ATOM     42  C   UNL     1     -14.741  -8.845   5.412  1.00  0.00     0.015 C 
ATOM     43  C   UNL     1     -15.101  -8.400   6.834  1.00  0.00     0.010 C 
ATOM     44  C   UNL     1     -14.487  -7.624   4.522  1.00  0.00     0.010 C 
ENDBRANCH  27  42
ENDBRANCH   3  27
TORSDOF 5
ENDMDL
MODEL 19
REMARK VINA RESULT:    -4.822     11.911     15.998
REMARK INTER + INTRA:         -10.471
REMARK INTER:                  -8.198
REMARK INTRA:                  -2.274
REMARK UNBOUND:                -1.845
REMARK SMILES CC[C@H](C)[C@H]1NC(=O)c2coc(n2)[C@H](C(C)C)NC(=O)[C@H]([C@@H](C)O)NC(=O)[C@H](C)NC(=O)c2csc1n2
REMARK SMILES IDX 11 1 13 2 12 3 9 4 10 5 7 6 6 7 8 8 5 10 36 11 35 12 34 13
REMARK SMILES IDX 37 14 33 15 31 16 32 17 30 18 28 20 29 21 3 23 4 24 2 25
REMARK SMILES IDX 1 26 14 27 18 28 19 29 20 30 21 32 25 33 26 34 27 35 22 38
REMARK SMILES IDX 23 39 24 40 15 42 16 43 17 44
REMARK H PARENT 6 9 30 19 18 31 25 36 24 41
REMARK Flexibility Score:   94.900
ROOT
ATOM      1  O   UNL     1      -1.692  -8.559   9.479  1.00  0.00    -0.446 OA
ATOM      2  N   UNL     1      -1.853  -9.849  11.321  1.00  0.00    -0.207 NA
ATOM      3  C   UNL     1      -1.551  -8.657  10.838  1.00  0.00     0.217 A 
ATOM      4  C   UNL     1      -2.245 -10.575  10.210  1.00  0.00     0.167 A 
ATOM      5  C   UNL     1      -2.146  -9.784   9.092  1.00  0.00     0.231 A 
ENDROOT
BRANCH   4   6
ATOM      6  C   UNL     1      -2.656 -11.967  10.276  1.00  0.00     0.273 C 
ATOM      7  N   UNL     1      -4.022 -12.097  10.255  1.00  0.00    -0.341 N 
ATOM      8  O   UNL     1      -1.870 -12.902  10.366  1.00  0.00    -0.267 OA
ATOM      9  H   UNL     1      -4.547 -11.227  10.272  1.00  0.00     0.164 HD
BRANCH   7  10
ATOM     10  C   UNL     1      -4.704 -13.340  10.556  1.00  0.00     0.145 C 
BRANCH  10  11
ATOM     11  C   UNL     1      -4.907 -13.401  12.063  1.00  0.00     0.116 A 
ATOM     12  S   UNL     1      -5.042 -14.930  12.846  1.00  0.00    -0.124 S 
ATOM     13  C   UNL     1      -5.187 -14.138  14.353  1.00  0.00     0.101 A 
ATOM     14  N   UNL     1      -4.979 -12.349  12.861  1.00  0.00    -0.234 NA
ATOM     15  C   UNL     1      -5.123 -12.767  14.186  1.00  0.00     0.139 A 
BRANCH  15  16
ATOM     16  C   UNL     1      -5.191 -11.810  15.293  1.00  0.00     0.271 C 
ATOM     17  O   UNL     1      -5.711 -12.076  16.371  1.00  0.00    -0.267 OA
ATOM     18  N   UNL     1      -4.614 -10.592  15.003  1.00  0.00    -0.339 N 
ATOM     19  H   UNL     1      -4.317 -10.459  14.040  1.00  0.00     0.164 HD
BRANCH  18  20
ATOM     20  C   UNL     1      -4.647  -9.495  15.961  1.00  0.00     0.168 CG0
ATOM     21  C   UNL     1      -3.350  -9.421  16.768  1.00  0.00     0.041 C 
ATOM     22  G   UNL     1      -4.862  -8.128  15.291  1.00  0.00     0.000 G0
ENDBRANCH  18  20
ENDBRANCH  15  16
ENDBRANCH  10  11
BRANCH  10  23
ATOM     23  C   UNL     1      -6.037 -13.481   9.773  1.00  0.00     0.015 C 
ATOM     24  C   UNL     1      -6.403 -14.940   9.454  1.00  0.00     0.010 C 
BRANCH  23  25
ATOM     25  C   UNL     1      -7.230 -12.819  10.499  1.00  0.00     0.002 C 
ATOM     26  C   UNL     1      -7.523 -11.399  10.038  1.00  0.00     0.004 C 
ENDBRANCH  23  25
ENDBRANCH  10  23
ENDBRANCH   7  10
ENDBRANCH   4   6
BRANCH   3  27
ATOM     27  C   UNL     1      -1.037  -7.471  11.606  1.00  0.00     0.171 C 
BRANCH  27  28
ATOM     28  N   UNL     1      -1.913  -7.270  12.756  1.00  0.00    -0.342 N 
ATOM     29  C   UNL     1      -2.830  -6.245  12.826  1.00  0.00     0.245 C 
ATOM     30  O   UNL     1      -2.990  -5.432  11.917  1.00  0.00    -0.273 OA
ATOM     31  H   UNL     1      -1.917  -7.970  13.497  1.00  0.00     0.164 HD
BRANCH  29  32
ATOM     32  C   UNL     1      -3.755  -6.272  14.061  1.00  0.00     0.200 C 
BRANCH  32  33
ATOM     33  N   UNL     1      -3.757  -7.635  14.606  1.00  0.00    -0.340 N 
ATOM     34  C   UNL     1      -4.841  -8.124  15.306  1.00  0.00     0.243 CG0
ATOM     35  O   UNL     1      -5.820  -7.425  15.559  1.00  0.00    -0.273 OA
ATOM     36  H   UNL     1      -2.951  -8.225  14.440  1.00  0.00     0.164 HD
ATOM     37  G   UNL     1      -4.655  -9.513  15.937  1.00  0.00     0.000 G0
ENDBRANCH  32  33
BRANCH  32  38
ATOM     38  C   UNL     1      -3.338  -5.207  15.102  1.00  0.00     0.143 C 
ATOM     39  C   UNL     1      -1.872  -5.280  15.514  1.00  0.00     0.041 C 
BRANCH  38  40
ATOM     40  O   UNL     1      -3.615  -3.887  14.595  1.00  0.00    -0.391 OA
ATOM     41  H   UNL     1      -3.321  -3.877  13.665  1.00  0.00     0.211 HD
ENDBRANCH  38  40
ENDBRANCH  32  38
ENDBRANCH  29  32
ENDBRANCH  27  28
BRANCH  27  42
ATOM     42  C   UNL     1       0.455  -7.483  12.022  1.00  0.00     0.015 C 
ATOM     43  C   UNL     1       1.195  -6.149  11.869  1.00  0.00     0.010 C 
ATOM     44  C   UNL     1       0.651  -8.039  13.437  1.00  0.00     0.010 C 
ENDBRANCH  27  42
ENDBRANCH   3  27
TORSDOF 5
ENDMDL
MODEL 20
REMARK VINA RESULT:    -4.818      4.349      6.970
REMARK INTER + INTRA:         -10.464
REMARK INTER:                  -7.973
REMARK INTRA:                  -2.491
REMARK UNBOUND:                -1.845
REMARK SMILES CC[C@H](C)[C@H]1NC(=O)c2coc(n2)[C@H](C(C)C)NC(=O)[C@H]([C@@H](C)O)NC(=O)[C@H](C)NC(=O)c2csc1n2
REMARK SMILES IDX 11 1 13 2 12 3 9 4 10 5 7 6 6 7 8 8 5 10 36 11 35 12 34 13
REMARK SMILES IDX 37 14 33 15 31 16 32 17 30 18 28 20 29 21 3 23 4 24 2 25
REMARK SMILES IDX 1 26 14 27 18 28 19 29 20 30 21 32 25 33 26 34 27 35 22 38
REMARK SMILES IDX 23 39 24 40 15 42 16 43 17 44
REMARK H PARENT 6 9 30 19 18 31 25 36 24 41
REMARK Flexibility Score:   94.900
ROOT
ATOM      1  O   UNL     1     -14.130 -14.501   7.067  1.00  0.00    -0.446 OA
ATOM      2  N   UNL     1     -13.401 -14.190   4.956  1.00  0.00    -0.207 NA
ATOM      3  C   UNL     1     -13.603 -15.058   5.932  1.00  0.00     0.217 A 
ATOM      4  C   UNL     1     -13.849 -12.988   5.474  1.00  0.00     0.167 A 
ATOM      5  C   UNL     1     -14.292 -13.184   6.759  1.00  0.00     0.231 A 
ENDROOT
BRANCH   4   6
ATOM      6  C   UNL     1     -13.801 -11.738   4.734  1.00  0.00     0.273 C 
ATOM      7  N   UNL     1     -14.223 -11.897   3.438  1.00  0.00    -0.341 N 
ATOM      8  O   UNL     1     -13.406 -10.682   5.213  1.00  0.00    -0.267 OA
ATOM      9  H   UNL     1     -14.432 -12.850   3.156  1.00  0.00     0.164 HD
BRANCH   7  10
ATOM     10  C   UNL     1     -14.045 -10.882   2.418  1.00  0.00     0.145 C 
BRANCH  10  11
ATOM     11  C   UNL     1     -12.947 -11.360   1.479  1.00  0.00     0.116 A 
ATOM     12  S   UNL     1     -12.868 -10.743  -0.128  1.00  0.00    -0.124 S 
ATOM     13  C   UNL     1     -11.469 -11.683  -0.412  1.00  0.00     0.101 A 
ATOM     14  N   UNL     1     -12.001 -12.227   1.799  1.00  0.00    -0.234 NA
ATOM     15  C   UNL     1     -11.135 -12.405   0.717  1.00  0.00     0.139 A 
BRANCH  15  16
ATOM     16  C   UNL     1      -9.968 -13.286   0.802  1.00  0.00     0.271 C 
ATOM     17  O   UNL     1      -9.252 -13.536  -0.161  1.00  0.00    -0.267 OA
ATOM     18  N   UNL     1      -9.757 -13.801   2.064  1.00  0.00    -0.339 N 
ATOM     19  H   UNL     1     -10.483 -13.608   2.750  1.00  0.00     0.164 HD
BRANCH  18  20
ATOM     20  C   UNL     1      -8.683 -14.750   2.322  1.00  0.00     0.168 CG0
ATOM     21  C   UNL     1      -7.682 -14.195   3.338  1.00  0.00     0.041 C 
ATOM     22  G   UNL     1      -9.196 -16.098   2.856  1.00  0.00     0.000 G0
ENDBRANCH  18  20
ENDBRANCH  15  16
ENDBRANCH  10  11
BRANCH  10  23
ATOM     23  C   UNL     1     -15.367 -10.567   1.669  1.00  0.00     0.015 C 
ATOM     24  C   UNL     1     -16.353 -11.747   1.651  1.00  0.00     0.010 C 
BRANCH  23  25
ATOM     25  C   UNL     1     -16.093  -9.324   2.234  1.00  0.00     0.002 C 
ATOM     26  C   UNL     1     -15.235  -8.067   2.262  1.00  0.00     0.004 C 
ENDBRANCH  23  25
ENDBRANCH  10  23
ENDBRANCH   7  10
ENDBRANCH   4   6
BRANCH   3  27
ATOM     27  C   UNL     1     -13.270 -16.525   5.924  1.00  0.00     0.171 C 
BRANCH  27  28
ATOM     28  N   UNL     1     -11.819 -16.653   5.833  1.00  0.00    -0.342 N 
ATOM     29  C   UNL     1     -11.199 -17.509   4.952  1.00  0.00     0.245 C 
ATOM     30  O   UNL     1     -11.822 -18.220   4.164  1.00  0.00    -0.273 OA
ATOM     31  H   UNL     1     -11.236 -16.014   6.373  1.00  0.00     0.164 HD
BRANCH  29  32
ATOM     32  C   UNL     1      -9.659 -17.411   4.911  1.00  0.00     0.200 C 
BRANCH  32  33
ATOM     33  N   UNL     1      -9.295 -16.156   4.243  1.00  0.00    -0.340 N 
ATOM     34  C   UNL     1      -9.202 -16.076   2.869  1.00  0.00     0.243 CG0
ATOM     35  O   UNL     1      -9.356 -17.061   2.149  1.00  0.00    -0.273 OA
ATOM     36  H   UNL     1      -9.132 -15.333   4.812  1.00  0.00     0.164 HD
ATOM     37  G   UNL     1      -8.679 -14.742   2.312  1.00  0.00     0.000 G0
ENDBRANCH  32  33
BRANCH  32  38
ATOM     38  C   UNL     1      -9.046 -17.542   6.324  1.00  0.00     0.143 C 
ATOM     39  C   UNL     1      -7.552 -17.844   6.329  1.00  0.00     0.041 C 
BRANCH  38  40
ATOM     40  O   UNL     1      -9.282 -16.337   7.077  1.00  0.00    -0.391 OA
ATOM     41  H   UNL     1      -9.695 -15.701   6.463  1.00  0.00     0.211 HD
ENDBRANCH  38  40
ENDBRANCH  32  38
ENDBRANCH  29  32
ENDBRANCH  27  28
BRANCH  27  42
ATOM     42  C   UNL     1     -13.848 -17.393   7.069  1.00  0.00     0.015 C 
ATOM     43  C   UNL     1     -14.419 -18.751   6.644  1.00  0.00     0.010 C 
ATOM     44  C   UNL     1     -12.845 -17.573   8.213  1.00  0.00     0.010 C 
ENDBRANCH  27  42
ENDBRANCH   3  27
TORSDOF 5
ENDMDL
MODEL 21
REMARK VINA RESULT:    -4.804      4.271      8.550
REMARK INTER + INTRA:         -10.440
REMARK INTER:                  -8.063
REMARK INTRA:                  -2.377
REMARK UNBOUND:                -1.845
REMARK SMILES CC[C@H](C)[C@H]1NC(=O)c2coc(n2)[C@H](C(C)C)NC(=O)[C@H]([C@@H](C)O)NC(=O)[C@H](C)NC(=O)c2csc1n2
REMARK SMILES IDX 11 1 13 2 12 3 9 4 10 5 7 6 6 7 8 8 5 10 36 11 35 12 34 13
REMARK SMILES IDX 37 14 33 15 31 16 32 17 30 18 28 20 29 21 3 23 4 24 2 25
REMARK SMILES IDX 1 26 14 27 18 28 19 29 20 30 21 32 25 33 26 34 27 35 22 38
REMARK SMILES IDX 23 39 24 40 15 42 16 43 17 44
REMARK H PARENT 6 9 30 19 18 31 25 36 24 41
REMARK Flexibility Score:   94.900
ROOT
ATOM      1  O   UNL     1      -8.140 -12.630   1.712  1.00  0.00    -0.446 OA
ATOM      2  N   UNL     1      -9.670 -14.281   1.837  1.00  0.00    -0.207 NA
ATOM      3  C   UNL     1      -9.305 -13.166   1.230  1.00  0.00     0.217 A 
ATOM      4  C   UNL     1      -8.665 -14.509   2.761  1.00  0.00     0.167 A 
ATOM      5  C   UNL     1      -7.737 -13.500   2.680  1.00  0.00     0.231 A 
ENDROOT
BRANCH   4   6
ATOM      6  C   UNL     1      -8.666 -15.641   3.672  1.00  0.00     0.273 C 
ATOM      7  N   UNL     1      -9.755 -16.452   3.476  1.00  0.00    -0.341 N 
ATOM      8  O   UNL     1      -7.807 -15.824   4.526  1.00  0.00    -0.267 OA
ATOM      9  H   UNL     1     -10.432 -16.123   2.794  1.00  0.00     0.164 HD
BRANCH   7  10
ATOM     10  C   UNL     1     -10.135 -17.504   4.398  1.00  0.00     0.145 C 
BRANCH  10  11
ATOM     11  C   UNL     1     -11.180 -16.931   5.345  1.00  0.00     0.116 A 
ATOM     12  S   UNL     1     -11.205 -17.431   6.994  1.00  0.00    -0.124 S 
ATOM     13  C   UNL     1     -12.516 -16.374   7.286  1.00  0.00     0.101 A 
ATOM     14  N   UNL     1     -12.098 -16.039   5.010  1.00  0.00    -0.234 NA
ATOM     15  C   UNL     1     -12.862 -15.701   6.130  1.00  0.00     0.139 A 
BRANCH  15  16
ATOM     16  C   UNL     1     -13.932 -14.703   6.060  1.00  0.00     0.271 C 
ATOM     17  O   UNL     1     -15.001 -14.832   6.647  1.00  0.00    -0.267 OA
ATOM     18  N   UNL     1     -13.618 -13.614   5.276  1.00  0.00    -0.339 N 
ATOM     19  H   UNL     1     -12.747 -13.677   4.754  1.00  0.00     0.164 HD
BRANCH  18  20
ATOM     20  C   UNL     1     -14.587 -12.553   5.035  1.00  0.00     0.168 CG0
ATOM     21  C   UNL     1     -14.272 -11.311   5.872  1.00  0.00     0.041 C 
ATOM     22  G   UNL     1     -14.644 -12.124   3.560  1.00  0.00     0.000 G0
ENDBRANCH  18  20
ENDBRANCH  15  16
ENDBRANCH  10  11
BRANCH  10  23
ATOM     23  C   UNL     1     -10.637 -18.775   3.663  1.00  0.00     0.015 C 
ATOM     24  C   UNL     1     -11.208 -19.841   4.612  1.00  0.00     0.010 C 
BRANCH  23  25
ATOM     25  C   UNL     1     -11.693 -18.461   2.578  1.00  0.00     0.002 C 
ATOM     26  C   UNL     1     -13.109 -18.869   2.958  1.00  0.00     0.004 C 
ENDBRANCH  23  25
ENDBRANCH  10  23
ENDBRANCH   7  10
ENDBRANCH   4   6
BRANCH   3  27
ATOM     27  C   UNL     1     -10.050 -12.438   0.145  1.00  0.00     0.171 C 
BRANCH  27  28
ATOM     28  N   UNL     1     -11.119 -11.670   0.775  1.00  0.00    -0.342 N 
ATOM     29  C   UNL     1     -12.430 -12.090   0.794  1.00  0.00     0.245 C 
ATOM     30  O   UNL     1     -12.795 -13.153   0.293  1.00  0.00    -0.273 OA
ATOM     31  H   UNL     1     -10.874 -10.837   1.309  1.00  0.00     0.164 HD
BRANCH  29  32
ATOM     32  C   UNL     1     -13.393 -11.210   1.618  1.00  0.00     0.200 C 
BRANCH  32  33
ATOM     33  N   UNL     1     -13.454 -11.746   2.983  1.00  0.00    -0.340 N 
ATOM     34  C   UNL     1     -14.652 -12.127   3.550  1.00  0.00     0.243 CG0
ATOM     35  O   UNL     1     -15.724 -11.976   2.966  1.00  0.00    -0.273 OA
ATOM     36  H   UNL     1     -12.589 -11.854   3.501  1.00  0.00     0.164 HD
ATOM     37  G   UNL     1     -14.588 -12.540   5.029  1.00  0.00     0.000 G0
ENDBRANCH  32  33
BRANCH  32  38
ATOM     38  C   UNL     1     -12.977  -9.721   1.573  1.00  0.00     0.143 C 
ATOM     39  C   UNL     1     -14.108  -8.749   1.885  1.00  0.00     0.041 C 
BRANCH  38  40
ATOM     40  O   UNL     1     -11.891  -9.485   2.490  1.00  0.00    -0.391 OA
ATOM     41  H   UNL     1     -11.328  -8.798   2.086  1.00  0.00     0.211 HD
ENDBRANCH  38  40
ENDBRANCH  32  38
ENDBRANCH  29  32
ENDBRANCH  27  28
BRANCH  27  42
ATOM     42  C   UNL     1      -9.220 -11.567  -0.829  1.00  0.00     0.015 C 
ATOM     43  C   UNL     1      -9.528 -11.763  -2.318  1.00  0.00     0.010 C 
ATOM     44  C   UNL     1      -9.286 -10.080  -0.465  1.00  0.00     0.010 C 
ENDBRANCH  27  42
ENDBRANCH   3  27
TORSDOF 5
ENDMDL
MODEL 22
REMARK VINA RESULT:    -4.772      5.815      8.969
REMARK INTER + INTRA:         -10.382
REMARK INTER:                  -8.271
REMARK INTRA:                  -2.111
REMARK UNBOUND:                -1.845
REMARK SMILES CC[C@H](C)[C@H]1NC(=O)c2coc(n2)[C@H](C(C)C)NC(=O)[C@H]([C@@H](C)O)NC(=O)[C@H](C)NC(=O)c2csc1n2
REMARK SMILES IDX 11 1 13 2 12 3 9 4 10 5 7 6 6 7 8 8 5 10 36 11 35 12 34 13
REMARK SMILES IDX 37 14 33 15 31 16 32 17 30 18 28 20 29 21 3 23 4 24 2 25
REMARK SMILES IDX 1 26 14 27 18 28 19 29 20 30 21 32 25 33 26 34 27 35 22 38
REMARK SMILES IDX 23 39 24 40 15 42 16 43 17 44
REMARK H PARENT 6 9 30 19 18 31 25 36 24 41
REMARK Flexibility Score:   94.900
ROOT
ATOM      1  O   UNL     1     -10.060 -11.077   7.453  1.00  0.00    -0.446 OA
ATOM      2  N   UNL     1     -10.857 -13.043   6.689  1.00  0.00    -0.207 NA
ATOM      3  C   UNL     1     -10.901 -11.726   6.589  1.00  0.00     0.217 A 
ATOM      4  C   UNL     1      -9.903 -13.277   7.665  1.00  0.00     0.167 A 
ATOM      5  C   UNL     1      -9.422 -12.076   8.126  1.00  0.00     0.231 A 
ENDROOT
BRANCH   4   6
ATOM      6  C   UNL     1      -9.536 -14.609   8.113  1.00  0.00     0.273 C 
ATOM      7  N   UNL     1      -8.190 -14.711   8.360  1.00  0.00    -0.341 N 
ATOM      8  O   UNL     1     -10.336 -15.529   8.228  1.00  0.00    -0.267 OA
ATOM      9  H   UNL     1      -7.637 -13.890   8.132  1.00  0.00     0.164 HD
BRANCH   7  10
ATOM     10  C   UNL     1      -7.519 -15.977   8.577  1.00  0.00     0.145 C 
BRANCH  10  11
ATOM     11  C   UNL     1      -7.183 -16.560   7.213  1.00  0.00     0.116 A 
ATOM     12  S   UNL     1      -5.957 -17.764   7.076  1.00  0.00    -0.124 S 
ATOM     13  C   UNL     1      -6.249 -17.860   5.394  1.00  0.00     0.101 A 
ATOM     14  N   UNL     1      -7.776 -16.226   6.078  1.00  0.00    -0.234 NA
ATOM     15  C   UNL     1      -7.254 -16.984   5.028  1.00  0.00     0.139 A 
BRANCH  15  16
ATOM     16  C   UNL     1      -7.754 -16.850   3.658  1.00  0.00     0.271 C 
ATOM     17  O   UNL     1      -7.271 -17.460   2.711  1.00  0.00    -0.267 OA
ATOM     18  N   UNL     1      -8.815 -15.976   3.543  1.00  0.00    -0.339 N 
ATOM     19  H   UNL     1      -9.050 -15.449   4.380  1.00  0.00     0.164 HD
BRANCH  18  20
ATOM     20  C   UNL     1      -9.399 -15.665   2.245  1.00  0.00     0.168 CG0
ATOM     21  C   UNL     1     -10.841 -16.166   2.150  1.00  0.00     0.041 C 
ATOM     22  G   UNL     1      -9.403 -14.159   1.941  1.00  0.00     0.000 G0
ENDBRANCH  18  20
ENDBRANCH  15  16
ENDBRANCH  10  11
BRANCH  10  23
ATOM     23  C   UNL     1      -6.267 -15.829   9.482  1.00  0.00     0.015 C 
ATOM     24  C   UNL     1      -5.976 -14.373   9.885  1.00  0.00     0.010 C 
BRANCH  23  25
ATOM     25  C   UNL     1      -6.349 -16.690  10.763  1.00  0.00     0.002 C 
ATOM     26  C   UNL     1      -6.387 -15.879  12.051  1.00  0.00     0.004 C 
ENDBRANCH  23  25
ENDBRANCH  10  23
ENDBRANCH   7  10
ENDBRANCH   4   6
BRANCH   3  27
ATOM     27  C   UNL     1     -11.794 -10.915   5.690  1.00  0.00     0.171 C 
BRANCH  27  28
ATOM     28  N   UNL     1     -11.713 -11.484   4.349  1.00  0.00    -0.342 N 
ATOM     29  C   UNL     1     -10.663 -11.235   3.494  1.00  0.00     0.245 C 
ATOM     30  O   UNL     1      -9.707 -10.525   3.803  1.00  0.00    -0.273 OA
ATOM     31  H   UNL     1     -12.410 -12.172   4.066  1.00  0.00     0.164 HD
BRANCH  29  32
ATOM     32  C   UNL     1     -10.689 -12.027   2.170  1.00  0.00     0.200 C 
BRANCH  32  33
ATOM     33  N   UNL     1     -10.483 -13.448   2.478  1.00  0.00    -0.340 N 
ATOM     34  C   UNL     1      -9.423 -14.150   1.944  1.00  0.00     0.243 CG0
ATOM     35  O   UNL     1      -8.645 -13.641   1.141  1.00  0.00    -0.273 OA
ATOM     36  H   UNL     1     -11.127 -13.904   3.114  1.00  0.00     0.164 HD
ATOM     37  G   UNL     1      -9.407 -15.659   2.240  1.00  0.00     0.000 G0
ENDBRANCH  32  33
BRANCH  32  38
ATOM     38  C   UNL     1     -11.991 -11.764   1.378  1.00  0.00     0.143 C 
ATOM     39  C   UNL     1     -13.016 -12.888   1.476  1.00  0.00     0.041 C 
BRANCH  38  40
ATOM     40  O   UNL     1     -12.599 -10.536   1.825  1.00  0.00    -0.391 OA
ATOM     41  H   UNL     1     -11.909  -9.848   1.773  1.00  0.00     0.211 HD
ENDBRANCH  38  40
ENDBRANCH  32  38
ENDBRANCH  29  32
ENDBRANCH  27  28
BRANCH  27  42
ATOM     42  C   UNL     1     -13.263 -10.715   6.136  1.00  0.00     0.015 C 
ATOM     43  C   UNL     1     -13.468  -9.786   7.338  1.00  0.00     0.010 C 
ATOM     44  C   UNL     1     -14.161 -10.284   4.972  1.00  0.00     0.010 C 
ENDBRANCH  27  42
ENDBRANCH   3  27
TORSDOF 5
ENDMDL
MODEL 23
REMARK VINA RESULT:    -4.737      3.489      8.720
REMARK INTER + INTRA:         -10.320
REMARK INTER:                  -8.683
REMARK INTRA:                  -1.637
REMARK UNBOUND:                -1.845
REMARK SMILES CC[C@H](C)[C@H]1NC(=O)c2coc(n2)[C@H](C(C)C)NC(=O)[C@H]([C@@H](C)O)NC(=O)[C@H](C)NC(=O)c2csc1n2
REMARK SMILES IDX 11 1 13 2 12 3 9 4 10 5 7 6 6 7 8 8 5 10 36 11 35 12 34 13
REMARK SMILES IDX 37 14 33 15 31 16 32 17 30 18 28 20 29 21 3 23 4 24 2 25
REMARK SMILES IDX 1 26 14 27 18 28 19 29 20 30 21 32 25 33 26 34 27 35 22 38
REMARK SMILES IDX 23 39 24 40 15 42 16 43 17 44
REMARK H PARENT 6 9 30 19 18 31 25 36 24 41
REMARK Flexibility Score:   94.900
ROOT
ATOM      1  O   UNL     1     -17.202 -12.296   2.505  1.00  0.00    -0.446 OA
ATOM      2  N   UNL     1     -15.116 -12.924   3.085  1.00  0.00    -0.207 NA
ATOM      3  C   UNL     1     -15.979 -11.927   2.998  1.00  0.00     0.217 A 
ATOM      4  C   UNL     1     -15.827 -14.027   2.644  1.00  0.00     0.167 A 
ATOM      5  C   UNL     1     -17.096 -13.638   2.293  1.00  0.00     0.231 A 
ENDROOT
BRANCH   4   6
ATOM      6  C   UNL     1     -15.252 -15.358   2.557  1.00  0.00     0.273 C 
ATOM      7  N   UNL     1     -15.139 -15.945   3.792  1.00  0.00    -0.341 N 
ATOM      8  O   UNL     1     -14.891 -15.873   1.506  1.00  0.00    -0.267 OA
ATOM      9  H   UNL     1     -15.393 -15.361   4.583  1.00  0.00     0.164 HD
BRANCH   7  10
ATOM     10  C   UNL     1     -14.380 -17.158   4.026  1.00  0.00     0.145 C 
BRANCH  10  11
ATOM     11  C   UNL     1     -13.162 -16.786   4.858  1.00  0.00     0.116 A 
ATOM     12  S   UNL     1     -11.794 -17.835   4.888  1.00  0.00    -0.124 S 
ATOM     13  C   UNL     1     -10.983 -16.735   5.915  1.00  0.00     0.101 A 
ATOM     14  N   UNL     1     -13.044 -15.682   5.578  1.00  0.00    -0.234 NA
ATOM     15  C   UNL     1     -11.782 -15.639   6.177  1.00  0.00     0.139 A 
BRANCH  15  16
ATOM     16  C   UNL     1     -11.362 -14.506   7.004  1.00  0.00     0.271 C 
ATOM     17  O   UNL     1     -10.579 -14.621   7.941  1.00  0.00    -0.267 OA
ATOM     18  N   UNL     1     -11.929 -13.307   6.626  1.00  0.00    -0.339 N 
ATOM     19  H   UNL     1     -12.646 -13.362   5.908  1.00  0.00     0.164 HD
BRANCH  18  20
ATOM     20  C   UNL     1     -11.679 -12.084   7.377  1.00  0.00     0.168 CG0
ATOM     21  C   UNL     1     -10.801 -11.114   6.584  1.00  0.00     0.041 C 
ATOM     22  G   UNL     1     -12.972 -11.345   7.756  1.00  0.00     0.000 G0
ENDBRANCH  18  20
ENDBRANCH  15  16
ENDBRANCH  10  11
BRANCH  10  23
ATOM     23  C   UNL     1     -15.237 -18.266   4.694  1.00  0.00     0.015 C 
ATOM     24  C   UNL     1     -14.787 -19.690   4.324  1.00  0.00     0.010 C 
BRANCH  23  25
ATOM     25  C   UNL     1     -15.276 -18.144   6.234  1.00  0.00     0.002 C 
ATOM     26  C   UNL     1     -16.510 -18.768   6.872  1.00  0.00     0.004 C 
ENDBRANCH  23  25
ENDBRANCH  10  23
ENDBRANCH   7  10
ENDBRANCH   4   6
BRANCH   3  27
ATOM     27  C   UNL     1     -15.730 -10.481   3.327  1.00  0.00     0.171 C 
BRANCH  27  28
ATOM     28  N   UNL     1     -15.054 -10.427   4.619  1.00  0.00    -0.342 N 
ATOM     29  C   UNL     1     -15.420  -9.553   5.618  1.00  0.00     0.245 C 
ATOM     30  O   UNL     1     -16.355  -8.762   5.501  1.00  0.00    -0.273 OA
ATOM     31  H   UNL     1     -14.346 -11.128   4.831  1.00  0.00     0.164 HD
BRANCH  29  32
ATOM     32  C   UNL     1     -14.674  -9.732   6.957  1.00  0.00     0.200 C 
BRANCH  32  33
ATOM     33  N   UNL     1     -13.508 -10.592   6.724  1.00  0.00    -0.340 N 
ATOM     34  C   UNL     1     -12.962 -11.348   7.740  1.00  0.00     0.243 CG0
ATOM     35  O   UNL     1     -13.382 -11.287   8.894  1.00  0.00    -0.273 OA
ATOM     36  H   UNL     1     -13.120 -10.640   5.789  1.00  0.00     0.164 HD
ATOM     37  G   UNL     1     -11.664 -12.095   7.391  1.00  0.00     0.000 G0
ENDBRANCH  32  33
BRANCH  32  38
ATOM     38  C   UNL     1     -14.301  -8.368   7.583  1.00  0.00     0.143 C 
ATOM     39  C   UNL     1     -15.043  -8.053   8.877  1.00  0.00     0.041 C 
BRANCH  38  40
ATOM     40  O   UNL     1     -12.883  -8.311   7.832  1.00  0.00    -0.391 OA
ATOM     41  H   UNL     1     -12.503  -7.725   7.151  1.00  0.00     0.211 HD
ENDBRANCH  38  40
ENDBRANCH  32  38
ENDBRANCH  29  32
ENDBRANCH  27  28
BRANCH  27  42
ATOM     42  C   UNL     1     -14.998  -9.623   2.266  1.00  0.00     0.015 C 
ATOM     43  C   UNL     1     -15.904  -8.806   1.337  1.00  0.00     0.010 C 
ATOM     44  C   UNL     1     -13.931  -8.722   2.894  1.00  0.00     0.010 C 
ENDBRANCH  27  42
ENDBRANCH   3  27
TORSDOF 5
ENDMDL
MODEL 24
REMARK VINA RESULT:    -4.718      3.993      6.997
REMARK INTER + INTRA:         -10.285
REMARK INTER:                  -8.550
REMARK INTRA:                  -1.735
REMARK UNBOUND:                -1.845
REMARK SMILES CC[C@H](C)[C@H]1NC(=O)c2coc(n2)[C@H](C(C)C)NC(=O)[C@H]([C@@H](C)O)NC(=O)[C@H](C)NC(=O)c2csc1n2
REMARK SMILES IDX 11 1 13 2 12 3 9 4 10 5 7 6 6 7 8 8 5 10 36 11 35 12 34 13
REMARK SMILES IDX 37 14 33 15 31 16 32 17 30 18 28 20 29 21 3 23 4 24 2 25
REMARK SMILES IDX 1 26 14 27 18 28 19 29 20 30 21 32 25 33 26 34 27 35 22 38
REMARK SMILES IDX 23 39 24 40 15 42 16 43 17 44
REMARK H PARENT 6 9 30 19 18 31 25 36 24 41
REMARK Flexibility Score:   94.900
ROOT
ATOM      1  O   UNL     1      -9.234 -11.552   6.099  1.00  0.00    -0.446 OA
ATOM      2  N   UNL     1     -11.439 -11.683   6.549  1.00  0.00    -0.207 NA
ATOM      3  C   UNL     1     -10.217 -11.991   6.946  1.00  0.00     0.217 A 
ATOM      4  C   UNL     1     -11.246 -10.972   5.378  1.00  0.00     0.167 A 
ATOM      5  C   UNL     1      -9.901 -10.895   5.109  1.00  0.00     0.231 A 
ENDROOT
BRANCH   4   6
ATOM      6  C   UNL     1     -12.340 -10.442   4.582  1.00  0.00     0.273 C 
ATOM      7  N   UNL     1     -13.536 -10.510   5.251  1.00  0.00    -0.341 N 
ATOM      8  O   UNL     1     -12.204 -10.013   3.443  1.00  0.00    -0.267 OA
ATOM      9  H   UNL     1     -13.511 -10.976   6.153  1.00  0.00     0.164 HD
BRANCH   7  10
ATOM     10  C   UNL     1     -14.816 -10.283   4.609  1.00  0.00     0.145 C 
BRANCH  10  11
ATOM     11  C   UNL     1     -15.516 -11.630   4.489  1.00  0.00     0.116 A 
ATOM     12  S   UNL     1     -16.719 -11.862   3.278  1.00  0.00    -0.124 S 
ATOM     13  C   UNL     1     -16.909 -13.483   3.788  1.00  0.00     0.101 A 
ATOM     14  N   UNL     1     -15.266 -12.684   5.248  1.00  0.00    -0.234 NA
ATOM     15  C   UNL     1     -16.055 -13.762   4.838  1.00  0.00     0.139 A 
BRANCH  15  16
ATOM     16  C   UNL     1     -15.959 -15.074   5.480  1.00  0.00     0.271 C 
ATOM     17  O   UNL     1     -16.911 -15.616   6.031  1.00  0.00    -0.267 OA
ATOM     18  N   UNL     1     -14.702 -15.635   5.402  1.00  0.00    -0.339 N 
ATOM     19  H   UNL     1     -13.972 -15.039   5.019  1.00  0.00     0.164 HD
BRANCH  18  20
ATOM     20  C   UNL     1     -14.402 -16.908   6.044  1.00  0.00     0.168 CG0
ATOM     21  C   UNL     1     -14.186 -18.015   5.010  1.00  0.00     0.041 C 
ATOM     22  G   UNL     1     -13.150 -16.844   6.933  1.00  0.00     0.000 G0
ENDBRANCH  18  20
ENDBRANCH  15  16
ENDBRANCH  10  11
BRANCH  10  23
ATOM     23  C   UNL     1     -15.675  -9.236   5.367  1.00  0.00     0.015 C 
ATOM     24  C   UNL     1     -15.213  -9.003   6.815  1.00  0.00     0.010 C 
BRANCH  23  25
ATOM     25  C   UNL     1     -15.734  -7.873   4.641  1.00  0.00     0.002 C 
ATOM     26  C   UNL     1     -15.566  -7.969   3.131  1.00  0.00     0.004 C 
ENDBRANCH  23  25
ENDBRANCH  10  23
ENDBRANCH   7  10
ENDBRANCH   4   6
BRANCH   3  27
ATOM     27  C   UNL     1      -9.832 -12.791   8.160  1.00  0.00     0.171 C 
BRANCH  27  28
ATOM     28  N   UNL     1     -10.411 -14.123   8.019  1.00  0.00    -0.342 N 
ATOM     29  C   UNL     1     -10.130 -14.951   6.956  1.00  0.00     0.245 C 
ATOM     30  O   UNL     1      -9.357 -14.635   6.052  1.00  0.00    -0.273 OA
ATOM     31  H   UNL     1     -10.969 -14.498   8.785  1.00  0.00     0.164 HD
BRANCH  29  32
ATOM     32  C   UNL     1     -10.733 -16.368   7.046  1.00  0.00     0.200 C 
BRANCH  32  33
ATOM     33  N   UNL     1     -12.019 -16.368   6.338  1.00  0.00    -0.340 N 
ATOM     34  C   UNL     1     -13.164 -16.857   6.933  1.00  0.00     0.243 CG0
ATOM     35  O   UNL     1     -13.148 -17.370   8.050  1.00  0.00    -0.273 OA
ATOM     36  H   UNL     1     -12.058 -15.979   5.404  1.00  0.00     0.164 HD
ATOM     37  G   UNL     1     -14.407 -16.922   6.031  1.00  0.00     0.000 G0
ENDBRANCH  32  33
BRANCH  32  38
ATOM     38  C   UNL     1      -9.751 -17.436   6.511  1.00  0.00     0.143 C 
ATOM     39  C   UNL     1     -10.175 -18.872   6.799  1.00  0.00     0.041 C 
BRANCH  38  40
ATOM     40  O   UNL     1      -9.576 -17.277   5.090  1.00  0.00    -0.391 OA
ATOM     41  H   UNL     1      -9.656 -18.167   4.697  1.00  0.00     0.211 HD
ENDBRANCH  38  40
ENDBRANCH  32  38
ENDBRANCH  29  32
ENDBRANCH  27  28
BRANCH  27  42
ATOM     42  C   UNL     1      -8.328 -12.859   8.522  1.00  0.00     0.015 C 
ATOM     43  C   UNL     1      -7.780 -11.656   9.299  1.00  0.00     0.010 C 
ATOM     44  C   UNL     1      -7.970 -14.163   9.241  1.00  0.00     0.010 C 
ENDBRANCH  27  42
ENDBRANCH   3  27
TORSDOF 5
ENDMDL
MODEL 25
REMARK VINA RESULT:    -4.694      3.443      7.219
REMARK INTER + INTRA:         -10.243
REMARK INTER:                  -8.643
REMARK INTRA:                  -1.600
REMARK UNBOUND:                -1.845
REMARK SMILES CC[C@H](C)[C@H]1NC(=O)c2coc(n2)[C@H](C(C)C)NC(=O)[C@H]([C@@H](C)O)NC(=O)[C@H](C)NC(=O)c2csc1n2
REMARK SMILES IDX 11 1 13 2 12 3 9 4 10 5 7 6 6 7 8 8 5 10 36 11 35 12 34 13
REMARK SMILES IDX 37 14 33 15 31 16 32 17 30 18 28 20 29 21 3 23 4 24 2 25
REMARK SMILES IDX 1 26 14 27 18 28 19 29 20 30 21 32 25 33 26 34 27 35 22 38
REMARK SMILES IDX 23 39 24 40 15 42 16 43 17 44
REMARK H PARENT 6 9 30 19 18 31 25 36 24 41
REMARK Flexibility Score:   94.900
ROOT
ATOM      1  O   UNL     1     -11.501 -10.384   6.982  1.00  0.00    -0.446 OA
ATOM      2  N   UNL     1     -12.460 -12.025   5.769  1.00  0.00    -0.207 NA
ATOM      3  C   UNL     1     -12.497 -10.750   6.116  1.00  0.00     0.217 A 
ATOM      4  C   UNL     1     -11.351 -12.524   6.431  1.00  0.00     0.167 A 
ATOM      5  C   UNL     1     -10.772 -11.519   7.167  1.00  0.00     0.231 A 
ENDROOT
BRANCH   4   6
ATOM      6  C   UNL     1     -10.935 -13.913   6.346  1.00  0.00     0.273 C 
ATOM      7  N   UNL     1     -10.588 -14.264   5.066  1.00  0.00    -0.341 N 
ATOM      8  O   UNL     1     -10.924 -14.677   7.303  1.00  0.00    -0.267 OA
ATOM      9  H   UNL     1     -10.736 -13.550   4.358  1.00  0.00     0.164 HD
BRANCH   7  10
ATOM     10  C   UNL     1     -10.375 -15.636   4.651  1.00  0.00     0.145 C 
BRANCH  10  11
ATOM     11  C   UNL     1     -11.673 -16.138   4.036  1.00  0.00     0.116 A 
ATOM     12  S   UNL     1     -12.112 -17.796   4.201  1.00  0.00    -0.124 S 
ATOM     13  C   UNL     1     -13.560 -17.491   3.346  1.00  0.00     0.101 A 
ATOM     14  N   UNL     1     -12.537 -15.388   3.372  1.00  0.00    -0.234 NA
ATOM     15  C   UNL     1     -13.636 -16.159   2.985  1.00  0.00     0.139 A 
BRANCH  15  16
ATOM     16  C   UNL     1     -14.770 -15.576   2.264  1.00  0.00     0.271 C 
ATOM     17  O   UNL     1     -15.530 -16.243   1.570  1.00  0.00    -0.267 OA
ATOM     18  N   UNL     1     -14.896 -14.215   2.445  1.00  0.00    -0.339 N 
ATOM     19  H   UNL     1     -14.140 -13.762   2.952  1.00  0.00     0.164 HD
BRANCH  18  20
ATOM     20  C   UNL     1     -15.926 -13.454   1.751  1.00  0.00     0.168 CG0
ATOM     21  C   UNL     1     -17.130 -13.190   2.658  1.00  0.00     0.041 C 
ATOM     22  G   UNL     1     -15.418 -12.097   1.237  1.00  0.00     0.000 G0
ENDBRANCH  18  20
ENDBRANCH  15  16
ENDBRANCH  10  11
BRANCH  10  23
ATOM     23  C   UNL     1      -9.169 -15.776   3.684  1.00  0.00     0.015 C 
ATOM     24  C   UNL     1      -8.934 -14.525   2.820  1.00  0.00     0.010 C 
BRANCH  23  25
ATOM     25  C   UNL     1      -7.854 -16.128   4.414  1.00  0.00     0.002 C 
ATOM     26  C   UNL     1      -6.599 -15.839   3.602  1.00  0.00     0.004 C 
ENDBRANCH  23  25
ENDBRANCH  10  23
ENDBRANCH   7  10
ENDBRANCH   4   6
BRANCH   3  27
ATOM     27  C   UNL     1     -13.521  -9.728   5.704  1.00  0.00     0.171 C 
BRANCH  27  28
ATOM     28  N   UNL     1     -14.026 -10.107   4.389  1.00  0.00    -0.342 N 
ATOM     29  C   UNL     1     -13.796  -9.358   3.256  1.00  0.00     0.245 C 
ATOM     30  O   UNL     1     -13.134  -8.322   3.267  1.00  0.00    -0.273 OA
ATOM     31  H   UNL     1     -14.485 -11.011   4.281  1.00  0.00     0.164 HD
BRANCH  29  32
ATOM     32  C   UNL     1     -14.298  -9.985   1.938  1.00  0.00     0.200 C 
BRANCH  32  33
ATOM     33  N   UNL     1     -14.760 -11.349   2.223  1.00  0.00    -0.340 N 
ATOM     34  C   UNL     1     -15.387 -12.109   1.257  1.00  0.00     0.243 CG0
ATOM     35  O   UNL     1     -15.644 -11.660   0.142  1.00  0.00    -0.273 OA
ATOM     36  H   UNL     1     -14.589 -11.737   3.143  1.00  0.00     0.164 HD
ATOM     37  G   UNL     1     -15.939 -13.463   1.730  1.00  0.00     0.000 G0
ENDBRANCH  32  33
BRANCH  32  38
ATOM     38  C   UNL     1     -15.384  -9.108   1.273  1.00  0.00     0.143 C 
ATOM     39  C   UNL     1     -15.895  -7.974   2.155  1.00  0.00     0.041 C 
BRANCH  38  40
ATOM     40  O   UNL     1     -14.884  -8.552   0.042  1.00  0.00    -0.391 OA
ATOM     41  H   UNL     1     -14.387  -9.264  -0.404  1.00  0.00     0.211 HD
ENDBRANCH  38  40
ENDBRANCH  32  38
ENDBRANCH  29  32
ENDBRANCH  27  28
BRANCH  27  42
ATOM     42  C   UNL     1     -14.674  -9.435   6.694  1.00  0.00     0.015 C 
ATOM     43  C   UNL     1     -15.286 -10.663   7.378  1.00  0.00     0.010 C 
ATOM     44  C   UNL     1     -14.280  -8.387   7.739  1.00  0.00     0.010 C 
ENDBRANCH  27  42
ENDBRANCH   3  27
TORSDOF 5
ENDMDL
MODEL 26
REMARK VINA RESULT:    -4.654     12.113     15.271
REMARK INTER + INTRA:         -10.171
REMARK INTER:                  -7.973
REMARK INTRA:                  -2.198
REMARK UNBOUND:                -1.845
REMARK SMILES CC[C@H](C)[C@H]1NC(=O)c2coc(n2)[C@H](C(C)C)NC(=O)[C@H]([C@@H](C)O)NC(=O)[C@H](C)NC(=O)c2csc1n2
REMARK SMILES IDX 11 1 13 2 12 3 9 4 10 5 7 6 6 7 8 8 5 10 36 11 35 12 34 13
REMARK SMILES IDX 37 14 33 15 31 16 32 17 30 18 28 20 29 21 3 23 4 24 2 25
REMARK SMILES IDX 1 26 14 27 18 28 19 29 20 30 21 32 25 33 26 34 27 35 22 38
REMARK SMILES IDX 23 39 24 40 15 42 16 43 17 44
REMARK H PARENT 6 9 30 19 18 31 25 36 24 41
REMARK Flexibility Score:   94.900
ROOT
ATOM      1  O   UNL     1      -6.515 -12.322  11.291  1.00  0.00    -0.446 OA
ATOM      2  N   UNL     1      -4.696 -11.102  11.826  1.00  0.00    -0.207 NA
ATOM      3  C   UNL     1      -5.214 -12.313  11.718  1.00  0.00     0.217 A 
ATOM      4  C   UNL     1      -5.716 -10.260  11.418  1.00  0.00     0.167 A 
ATOM      5  C   UNL     1      -6.820 -11.009  11.092  1.00  0.00     0.231 A 
ENDROOT
BRANCH   4   6
ATOM      6  C   UNL     1      -5.587  -8.814  11.391  1.00  0.00     0.273 C 
ATOM      7  N   UNL     1      -4.361  -8.420  10.919  1.00  0.00    -0.341 N 
ATOM      8  O   UNL     1      -6.465  -8.048  11.770  1.00  0.00    -0.267 OA
ATOM      9  H   UNL     1      -3.700  -9.168  10.729  1.00  0.00     0.164 HD
BRANCH   7  10
ATOM     10  C   UNL     1      -3.875  -7.057  11.017  1.00  0.00     0.145 C 
BRANCH  10  11
ATOM     11  C   UNL     1      -3.268  -6.883  12.401  1.00  0.00     0.116 A 
ATOM     12  S   UNL     1      -2.463  -5.413  12.803  1.00  0.00    -0.124 S 
ATOM     13  C   UNL     1      -2.172  -6.011  14.377  1.00  0.00     0.101 A 
ATOM     14  N   UNL     1      -3.314  -7.785  13.368  1.00  0.00    -0.234 NA
ATOM     15  C   UNL     1      -2.698  -7.282  14.517  1.00  0.00     0.139 A 
BRANCH  15  16
ATOM     16  C   UNL     1      -2.636  -8.055  15.759  1.00  0.00     0.271 C 
ATOM     17  O   UNL     1      -2.460  -7.537  16.856  1.00  0.00    -0.267 OA
ATOM     18  N   UNL     1      -2.795  -9.412  15.571  1.00  0.00    -0.339 N 
ATOM     19  H   UNL     1      -2.821  -9.727  14.605  1.00  0.00     0.164 HD
BRANCH  18  20
ATOM     20  C   UNL     1      -2.695 -10.345  16.685  1.00  0.00     0.168 CG0
ATOM     21  C   UNL     1      -4.008 -10.420  17.468  1.00  0.00     0.041 C 
ATOM     22  G   UNL     1      -2.333 -11.770  16.237  1.00  0.00     0.000 G0
ENDBRANCH  18  20
ENDBRANCH  15  16
ENDBRANCH  10  11
BRANCH  10  23
ATOM     23  C   UNL     1      -2.874  -6.709   9.884  1.00  0.00     0.015 C 
ATOM     24  C   UNL     1      -2.485  -7.922   9.021  1.00  0.00     0.010 C 
BRANCH  23  25
ATOM     25  C   UNL     1      -3.387  -5.586   8.955  1.00  0.00     0.002 C 
ATOM     26  C   UNL     1      -2.483  -4.362   8.906  1.00  0.00     0.004 C 
ENDBRANCH  23  25
ENDBRANCH  10  23
ENDBRANCH   7  10
ENDBRANCH   4   6
BRANCH   3  27
ATOM     27  C   UNL     1      -4.548 -13.618  12.060  1.00  0.00     0.171 C 
BRANCH  27  28
ATOM     28  N   UNL     1      -4.391 -13.673  13.509  1.00  0.00    -0.342 N 
ATOM     29  C   UNL     1      -3.260 -14.166  14.121  1.00  0.00     0.245 C 
ATOM     30  O   UNL     1      -2.290 -14.582  13.489  1.00  0.00    -0.273 OA
ATOM     31  H   UNL     1      -5.104 -13.241  14.096  1.00  0.00     0.164 HD
BRANCH  29  32
ATOM     32  C   UNL     1      -3.225 -14.024  15.657  1.00  0.00     0.200 C 
BRANCH  32  33
ATOM     33  N   UNL     1      -3.427 -12.609  15.993  1.00  0.00    -0.340 N 
ATOM     34  C   UNL     1      -2.357 -11.770  16.228  1.00  0.00     0.243 CG0
ATOM     35  O   UNL     1      -1.198 -12.179  16.230  1.00  0.00    -0.273 OA
ATOM     36  H   UNL     1      -4.373 -12.249  16.030  1.00  0.00     0.164 HD
ATOM     37  G   UNL     1      -2.714 -10.352  16.704  1.00  0.00     0.000 G0
ENDBRANCH  32  33
BRANCH  32  38
ATOM     38  C   UNL     1      -4.255 -14.957  16.335  1.00  0.00     0.143 C 
ATOM     39  C   UNL     1      -5.556 -14.266  16.729  1.00  0.00     0.041 C 
BRANCH  38  40
ATOM     40  O   UNL     1      -4.560 -16.067  15.468  1.00  0.00    -0.391 OA
ATOM     41  H   UNL     1      -3.830 -16.126  14.822  1.00  0.00     0.211 HD
ENDBRANCH  38  40
ENDBRANCH  32  38
ENDBRANCH  29  32
ENDBRANCH  27  28
BRANCH  27  42
ATOM     42  C   UNL     1      -5.190 -14.913  11.506  1.00  0.00     0.015 C 
ATOM     43  C   UNL     1      -4.225 -15.891  10.826  1.00  0.00     0.010 C 
ATOM     44  C   UNL     1      -6.021 -15.640  12.569  1.00  0.00     0.010 C 
ENDBRANCH  27  42
ENDBRANCH   3  27
TORSDOF 5
ENDMDL
MODEL 27
REMARK VINA RESULT:    -4.648     13.744     16.909
REMARK INTER + INTRA:         -10.160
REMARK INTER:                  -7.781
REMARK INTRA:                  -2.379
REMARK UNBOUND:                -1.845
REMARK SMILES CC[C@H](C)[C@H]1NC(=O)c2coc(n2)[C@H](C(C)C)NC(=O)[C@H]([C@@H](C)O)NC(=O)[C@H](C)NC(=O)c2csc1n2
REMARK SMILES IDX 11 1 13 2 12 3 9 4 10 5 7 6 6 7 8 8 5 10 36 11 35 12 34 13
REMARK SMILES IDX 37 14 33 15 31 16 32 17 30 18 28 20 29 21 3 23 4 24 2 25
REMARK SMILES IDX 1 26 14 27 18 28 19 29 20 30 21 32 25 33 26 34 27 35 22 38
REMARK SMILES IDX 23 39 24 40 15 42 16 43 17 44
REMARK H PARENT 6 9 30 19 18 31 25 36 24 41
REMARK Flexibility Score:   94.900
ROOT
ATOM      1  O   UNL     1      -3.041  -8.134   9.182  1.00  0.00    -0.446 OA
ATOM      2  N   UNL     1      -1.547  -8.528  10.823  1.00  0.00    -0.207 NA
ATOM      3  C   UNL     1      -2.624  -7.856  10.456  1.00  0.00     0.217 A 
ATOM      4  C   UNL     1      -1.252  -9.319   9.727  1.00  0.00     0.167 A 
ATOM      5  C   UNL     1      -2.166  -9.075   8.731  1.00  0.00     0.231 A 
ENDROOT
BRANCH   4   6
ATOM      6  C   UNL     1      -0.116 -10.224   9.685  1.00  0.00     0.273 C 
ATOM      7  N   UNL     1      -0.471 -11.503  10.033  1.00  0.00    -0.341 N 
ATOM      8  O   UNL     1       1.021  -9.872   9.396  1.00  0.00    -0.267 OA
ATOM      9  H   UNL     1      -1.432 -11.626  10.338  1.00  0.00     0.164 HD
BRANCH   7  10
ATOM     10  C   UNL     1       0.498 -12.545  10.313  1.00  0.00     0.145 C 
BRANCH  10  11
ATOM     11  C   UNL     1       0.498 -12.781  11.817  1.00  0.00     0.116 A 
ATOM     12  S   UNL     1       1.783 -13.672  12.542  1.00  0.00    -0.124 S 
ATOM     13  C   UNL     1       1.071 -13.435  14.077  1.00  0.00     0.101 A 
ATOM     14  N   UNL     1      -0.425 -12.338  12.654  1.00  0.00    -0.234 NA
ATOM     15  C   UNL     1      -0.092 -12.697  13.962  1.00  0.00     0.139 A 
BRANCH  15  16
ATOM     16  C   UNL     1      -0.920 -12.304  15.104  1.00  0.00     0.271 C 
ATOM     17  O   UNL     1      -0.850 -12.853  16.197  1.00  0.00    -0.267 OA
ATOM     18  N   UNL     1      -1.779 -11.261  14.827  1.00  0.00    -0.339 N 
ATOM     19  H   UNL     1      -1.822 -10.966  13.855  1.00  0.00     0.164 HD
BRANCH  18  20
ATOM     20  C   UNL     1      -2.727 -10.780  15.823  1.00  0.00     0.168 CG0
ATOM     21  C   UNL     1      -2.216  -9.512  16.511  1.00  0.00     0.041 C 
ATOM     22  G   UNL     1      -4.108 -10.466  15.225  1.00  0.00     0.000 G0
ENDBRANCH  18  20
ENDBRANCH  15  16
ENDBRANCH  10  11
BRANCH  10  23
ATOM     23  C   UNL     1       0.212 -13.842   9.511  1.00  0.00     0.015 C 
ATOM     24  C   UNL     1      -1.023 -14.608  10.012  1.00  0.00     0.010 C 
BRANCH  23  25
ATOM     25  C   UNL     1       0.053 -13.585   7.995  1.00  0.00     0.002 C 
ATOM     26  C   UNL     1       1.338 -13.148   7.304  1.00  0.00     0.004 C 
ENDBRANCH  23  25
ENDBRANCH  10  23
ENDBRANCH   7  10
ENDBRANCH   4   6
BRANCH   3  27
ATOM     27  C   UNL     1      -3.364  -6.822  11.259  1.00  0.00     0.171 C 
BRANCH  27  28
ATOM     28  N   UNL     1      -3.876  -7.471  12.461  1.00  0.00    -0.342 N 
ATOM     29  C   UNL     1      -5.080  -8.139  12.494  1.00  0.00     0.245 C 
ATOM     30  O   UNL     1      -5.807  -8.250  11.508  1.00  0.00    -0.273 OA
ATOM     31  H   UNL     1      -3.278  -7.520  13.285  1.00  0.00     0.164 HD
BRANCH  29  32
ATOM     32  C   UNL     1      -5.392  -8.871  13.817  1.00  0.00     0.200 C 
BRANCH  32  33
ATOM     33  N   UNL     1      -4.129  -9.368  14.377  1.00  0.00    -0.340 N 
ATOM     34  C   UNL     1      -4.099 -10.465  15.213  1.00  0.00     0.243 CG0
ATOM     35  O   UNL     1      -5.127 -11.033  15.576  1.00  0.00    -0.273 OA
ATOM     36  H   UNL     1      -3.268  -8.901  14.120  1.00  0.00     0.164 HD
ATOM     37  G   UNL     1      -2.732 -10.791  15.835  1.00  0.00     0.000 G0
ENDBRANCH  32  33
BRANCH  32  38
ATOM     38  C   UNL     1      -6.170  -7.962  14.797  1.00  0.00     0.143 C 
ATOM     39  C   UNL     1      -5.356  -6.794  15.342  1.00  0.00     0.041 C 
BRANCH  38  40
ATOM     40  O   UNL     1      -7.354  -7.448  14.157  1.00  0.00    -0.391 OA
ATOM     41  H   UNL     1      -7.237  -7.587  13.198  1.00  0.00     0.211 HD
ENDBRANCH  38  40
ENDBRANCH  32  38
ENDBRANCH  29  32
ENDBRANCH  27  28
BRANCH  27  42
ATOM     42  C   UNL     1      -2.615  -5.510  11.596  1.00  0.00     0.015 C 
ATOM     43  C   UNL     1      -1.720  -5.560  12.840  1.00  0.00     0.010 C 
ATOM     44  C   UNL     1      -1.825  -4.976  10.396  1.00  0.00     0.010 C 
ENDBRANCH  27  42
ENDBRANCH   3  27
TORSDOF 5
ENDMDL
MODEL 28
REMARK VINA RESULT:    -4.628      3.159      6.499
REMARK INTER + INTRA:         -10.126
REMARK INTER:                  -9.167
REMARK INTRA:                  -0.959
REMARK UNBOUND:                -1.845
REMARK SMILES CC[C@H](C)[C@H]1NC(=O)c2coc(n2)[C@H](C(C)C)NC(=O)[C@H]([C@@H](C)O)NC(=O)[C@H](C)NC(=O)c2csc1n2
REMARK SMILES IDX 11 1 13 2 12 3 9 4 10 5 7 6 6 7 8 8 5 10 36 11 35 12 34 13
REMARK SMILES IDX 37 14 33 15 31 16 32 17 30 18 28 20 29 21 3 23 4 24 2 25
REMARK SMILES IDX 1 26 14 27 18 28 19 29 20 30 21 32 25 33 26 34 27 35 22 38
REMARK SMILES IDX 23 39 24 40 15 42 16 43 17 44
REMARK H PARENT 6 9 30 19 18 31 25 36 24 41
REMARK Flexibility Score:   94.900
ROOT
ATOM      1  O   UNL     1     -12.730 -11.387  -0.589  1.00  0.00    -0.446 OA
ATOM      2  N   UNL     1     -12.896 -10.585   1.511  1.00  0.00    -0.207 NA
ATOM      3  C   UNL     1     -12.116 -11.160   0.614  1.00  0.00     0.217 A 
ATOM      4  C   UNL     1     -14.096 -10.396   0.847  1.00  0.00     0.167 A 
ATOM      5  C   UNL     1     -13.988 -10.886  -0.432  1.00  0.00     0.231 A 
ENDROOT
BRANCH   4   6
ATOM      6  C   UNL     1     -15.262  -9.796   1.470  1.00  0.00     0.273 C 
ATOM      7  N   UNL     1     -14.960  -8.602   2.074  1.00  0.00    -0.341 N 
ATOM      8  O   UNL     1     -16.372 -10.316   1.472  1.00  0.00    -0.267 OA
ATOM      9  H   UNL     1     -13.978  -8.342   2.070  1.00  0.00     0.164 HD
BRANCH   7  10
ATOM     10  C   UNL     1     -15.868  -7.917   2.973  1.00  0.00     0.145 C 
BRANCH  10  11
ATOM     11  C   UNL     1     -15.456  -8.265   4.396  1.00  0.00     0.116 A 
ATOM     12  S   UNL     1     -15.525  -7.059   5.625  1.00  0.00    -0.124 S 
ATOM     13  C   UNL     1     -14.991  -8.207   6.773  1.00  0.00     0.101 A 
ATOM     14  N   UNL     1     -15.048  -9.458   4.797  1.00  0.00    -0.234 NA
ATOM     15  C   UNL     1     -14.794  -9.435   6.171  1.00  0.00     0.139 A 
BRANCH  15  16
ATOM     16  C   UNL     1     -14.362 -10.634   6.893  1.00  0.00     0.271 C 
ATOM     17  O   UNL     1     -14.857 -10.982   7.959  1.00  0.00    -0.267 OA
ATOM     18  N   UNL     1     -13.352 -11.325   6.259  1.00  0.00    -0.339 N 
ATOM     19  H   UNL     1     -12.951 -10.875   5.440  1.00  0.00     0.164 HD
BRANCH  18  20
ATOM     20  C   UNL     1     -12.749 -12.506   6.864  1.00  0.00     0.168 CG0
ATOM     21  C   UNL     1     -13.593 -13.756   6.605  1.00  0.00     0.041 C 
ATOM     22  G   UNL     1     -11.329 -12.781   6.344  1.00  0.00     0.000 G0
ENDBRANCH  18  20
ENDBRANCH  15  16
ENDBRANCH  10  11
BRANCH  10  23
ATOM     23  C   UNL     1     -15.897  -6.386   2.723  1.00  0.00     0.015 C 
ATOM     24  C   UNL     1     -15.882  -6.013   1.232  1.00  0.00     0.010 C 
BRANCH  23  25
ATOM     25  C   UNL     1     -17.105  -5.693   3.394  1.00  0.00     0.002 C 
ATOM     26  C   UNL     1     -17.402  -4.304   2.848  1.00  0.00     0.004 C 
ENDBRANCH  23  25
ENDBRANCH  10  23
ENDBRANCH   7  10
ENDBRANCH   4   6
BRANCH   3  27
ATOM     27  C   UNL     1     -10.696 -11.616   0.807  1.00  0.00     0.171 C 
BRANCH  27  28
ATOM     28  N   UNL     1     -10.658 -12.474   1.987  1.00  0.00    -0.342 N 
ATOM     29  C   UNL     1      -9.809 -12.249   3.047  1.00  0.00     0.245 C 
ATOM     30  O   UNL     1      -9.029 -11.299   3.085  1.00  0.00    -0.273 OA
ATOM     31  H   UNL     1     -11.354 -13.213   2.077  1.00  0.00     0.164 HD
BRANCH  29  32
ATOM     32  C   UNL     1     -10.004 -13.185   4.258  1.00  0.00     0.200 C 
BRANCH  32  33
ATOM     33  N   UNL     1     -11.249 -12.806   4.938  1.00  0.00    -0.340 N 
ATOM     34  C   UNL     1     -11.334 -12.780   6.315  1.00  0.00     0.243 CG0
ATOM     35  O   UNL     1     -10.398 -13.134   7.030  1.00  0.00    -0.273 OA
ATOM     36  H   UNL     1     -12.047 -12.539   4.374  1.00  0.00     0.164 HD
ATOM     37  G   UNL     1     -12.731 -12.500   6.891  1.00  0.00     0.000 G0
ENDBRANCH  32  33
BRANCH  32  38
ATOM     38  C   UNL     1      -9.978 -14.672   3.834  1.00  0.00     0.143 C 
ATOM     39  C   UNL     1      -8.627 -15.147   3.312  1.00  0.00     0.041 C 
BRANCH  38  40
ATOM     40  O   UNL     1     -10.372 -15.507   4.940  1.00  0.00    -0.391 OA
ATOM     41  H   UNL     1     -11.109 -15.049   5.387  1.00  0.00     0.211 HD
ENDBRANCH  38  40
ENDBRANCH  32  38
ENDBRANCH  29  32
ENDBRANCH  27  28
BRANCH  27  42
ATOM     42  C   UNL     1      -9.989 -12.278  -0.401  1.00  0.00     0.015 C 
ATOM     43  C   UNL     1     -10.696 -13.504  -0.990  1.00  0.00     0.010 C 
ATOM     44  C   UNL     1      -9.674 -11.265  -1.507  1.00  0.00     0.010 C 
ENDBRANCH  27  42
ENDBRANCH   3  27
TORSDOF 5
ENDMDL
MODEL 29
REMARK VINA RESULT:    -4.556     20.466     23.652
REMARK INTER + INTRA:          -9.997
REMARK INTER:                  -7.511
REMARK INTRA:                  -2.486
REMARK UNBOUND:                -1.845
REMARK SMILES CC[C@H](C)[C@H]1NC(=O)c2coc(n2)[C@H](C(C)C)NC(=O)[C@H]([C@@H](C)O)NC(=O)[C@H](C)NC(=O)c2csc1n2
REMARK SMILES IDX 11 1 13 2 12 3 9 4 10 5 7 6 6 7 8 8 5 10 36 11 35 12 34 13
REMARK SMILES IDX 37 14 33 15 31 16 32 17 30 18 28 20 29 21 3 23 4 24 2 25
REMARK SMILES IDX 1 26 14 27 18 28 19 29 20 30 21 32 25 33 26 34 27 35 22 38
REMARK SMILES IDX 23 39 24 40 15 42 16 43 17 44
REMARK H PARENT 6 9 30 19 18 31 25 36 24 41
REMARK Flexibility Score:   94.900
ROOT
ATOM      1  O   UNL     1       6.104   0.262   7.747  1.00  0.00    -0.446 OA
ATOM      2  N   UNL     1       4.256  -0.467   8.811  1.00  0.00    -0.207 NA
ATOM      3  C   UNL     1       4.755   0.394   7.942  1.00  0.00     0.217 A 
ATOM      4  C   UNL     1       5.344  -1.234   9.192  1.00  0.00     0.167 A 
ATOM      5  C   UNL     1       6.466  -0.785   8.540  1.00  0.00     0.231 A 
ENDROOT
BRANCH   4   6
ATOM      6  C   UNL     1       5.254  -2.311  10.162  1.00  0.00     0.273 C 
ATOM      7  N   UNL     1       4.080  -2.263  10.871  1.00  0.00    -0.341 N 
ATOM      8  O   UNL     1       6.137  -3.142  10.336  1.00  0.00    -0.267 OA
ATOM      9  H   UNL     1       3.484  -1.462  10.682  1.00  0.00     0.164 HD
BRANCH   7  10
ATOM     10  C   UNL     1       3.839  -3.058  12.059  1.00  0.00     0.145 C 
BRANCH  10  11
ATOM     11  C   UNL     1       3.806  -2.110  13.249  1.00  0.00     0.116 A 
ATOM     12  S   UNL     1       3.974  -2.736  14.845  1.00  0.00    -0.124 S 
ATOM     13  C   UNL     1       3.877  -1.148  15.471  1.00  0.00     0.101 A 
ATOM     14  N   UNL     1       3.670  -0.796  13.168  1.00  0.00    -0.234 NA
ATOM     15  C   UNL     1       3.727  -0.234  14.446  1.00  0.00     0.139 A 
BRANCH  15  16
ATOM     16  C   UNL     1       3.641   1.213  14.654  1.00  0.00     0.271 C 
ATOM     17  O   UNL     1       3.509   1.719  15.763  1.00  0.00    -0.267 OA
ATOM     18  N   UNL     1       3.724   1.944  13.487  1.00  0.00    -0.339 N 
ATOM     19  H   UNL     1       3.720   1.405  12.625  1.00  0.00     0.164 HD
BRANCH  18  20
ATOM     20  C   UNL     1       3.589   3.394  13.494  1.00  0.00     0.168 CG0
ATOM     21  C   UNL     1       4.957   4.080  13.519  1.00  0.00     0.041 C 
ATOM     22  G   UNL     1       2.820   3.925  12.273  1.00  0.00     0.000 G0
ENDBRANCH  18  20
ENDBRANCH  15  16
ENDBRANCH  10  11
BRANCH  10  23
ATOM     23  C   UNL     1       2.545  -3.906  11.943  1.00  0.00     0.015 C 
ATOM     24  C   UNL     1       1.519  -3.322  10.957  1.00  0.00     0.010 C 
BRANCH  23  25
ATOM     25  C   UNL     1       2.825  -5.375  11.553  1.00  0.00     0.002 C 
ATOM     26  C   UNL     1       4.181  -5.890  12.017  1.00  0.00     0.004 C 
ENDBRANCH  23  25
ENDBRANCH  10  23
ENDBRANCH   7  10
ENDBRANCH   4   6
BRANCH   3  27
ATOM     27  C   UNL     1       4.016   1.490   7.225  1.00  0.00     0.171 C 
BRANCH  27  28
ATOM     28  N   UNL     1       3.894   2.620   8.140  1.00  0.00    -0.342 N 
ATOM     29  C   UNL     1       2.706   2.969   8.741  1.00  0.00     0.245 C 
ATOM     30  O   UNL     1       1.662   2.345   8.564  1.00  0.00    -0.273 OA
ATOM     31  H   UNL     1       4.740   3.113   8.424  1.00  0.00     0.164 HD
BRANCH  29  32
ATOM     32  C   UNL     1       2.801   4.111   9.776  1.00  0.00     0.200 C 
BRANCH  32  33
ATOM     33  N   UNL     1       3.335   3.556  11.026  1.00  0.00    -0.340 N 
ATOM     34  C   UNL     1       2.824   3.931  12.251  1.00  0.00     0.243 CG0
ATOM     35  O   UNL     1       1.948   4.788  12.355  1.00  0.00    -0.273 OA
ATOM     36  H   UNL     1       4.079   2.870  10.974  1.00  0.00     0.164 HD
ATOM     37  G   UNL     1       3.565   3.380  13.480  1.00  0.00     0.000 G0
ENDBRANCH  32  33
BRANCH  32  38
ATOM     38  C   UNL     1       3.637   5.295   9.236  1.00  0.00     0.143 C 
ATOM     39  C   UNL     1       3.075   5.926   7.967  1.00  0.00     0.041 C 
BRANCH  38  40
ATOM     40  O   UNL     1       3.761   6.312  10.249  1.00  0.00    -0.391 OA
ATOM     41  H   UNL     1       4.094   7.113   9.800  1.00  0.00     0.211 HD
ENDBRANCH  38  40
ENDBRANCH  32  38
ENDBRANCH  29  32
ENDBRANCH  27  28
BRANCH  27  42
ATOM     42  C   UNL     1       4.560   1.931   5.844  1.00  0.00     0.015 C 
ATOM     43  C   UNL     1       3.499   2.207   4.773  1.00  0.00     0.010 C 
ATOM     44  C   UNL     1       5.519   3.121   5.960  1.00  0.00     0.010 C 
ENDBRANCH  27  42
ENDBRANCH   3  27
TORSDOF 5
ENDMDL
MODEL 30
REMARK VINA RESULT:    -4.509     14.001     16.711
REMARK INTER + INTRA:          -9.911
REMARK INTER:                  -8.331
REMARK INTRA:                  -1.580
REMARK UNBOUND:                -1.845
REMARK SMILES CC[C@H](C)[C@H]1NC(=O)c2coc(n2)[C@H](C(C)C)NC(=O)[C@H]([C@@H](C)O)NC(=O)[C@H](C)NC(=O)c2csc1n2
REMARK SMILES IDX 11 1 13 2 12 3 9 4 10 5 7 6 6 7 8 8 5 10 36 11 35 12 34 13
REMARK SMILES IDX 37 14 33 15 31 16 32 17 30 18 28 20 29 21 3 23 4 24 2 25
REMARK SMILES IDX 1 26 14 27 18 28 19 29 20 30 21 32 25 33 26 34 27 35 22 38
REMARK SMILES IDX 23 39 24 40 15 42 16 43 17 44
REMARK H PARENT 6 9 30 19 18 31 25 36 24 41
REMARK Flexibility Score:   94.900
ROOT
ATOM      1  O   UNL     1      -2.986  -7.177   9.885  1.00  0.00    -0.446 OA
ATOM      2  N   UNL     1      -1.377  -7.848  11.314  1.00  0.00    -0.207 NA
ATOM      3  C   UNL     1      -2.458  -7.108  11.147  1.00  0.00     0.217 A 
ATOM      4  C   UNL     1      -1.197  -8.466  10.089  1.00  0.00     0.167 A 
ATOM      5  C   UNL     1      -2.180  -8.054   9.223  1.00  0.00     0.231 A 
ENDROOT
BRANCH   4   6
ATOM      6  C   UNL     1      -0.098  -9.375   9.812  1.00  0.00     0.273 C 
ATOM      7  N   UNL     1      -0.528 -10.524   9.199  1.00  0.00    -0.341 N 
ATOM      8  O   UNL     1       1.066  -9.144  10.118  1.00  0.00    -0.267 OA
ATOM      9  H   UNL     1      -1.535 -10.616   9.092  1.00  0.00     0.164 HD
BRANCH   7  10
ATOM     10  C   UNL     1       0.309 -11.696   9.035  1.00  0.00     0.145 C 
BRANCH  10  11
ATOM     11  C   UNL     1      -0.003 -12.648  10.180  1.00  0.00     0.116 A 
ATOM     12  S   UNL     1       0.810 -14.165  10.276  1.00  0.00    -0.124 S 
ATOM     13  C   UNL     1      -0.028 -14.514  11.724  1.00  0.00     0.101 A 
ATOM     14  N   UNL     1      -0.863 -12.405  11.155  1.00  0.00    -0.234 NA
ATOM     15  C   UNL     1      -0.870 -13.471  12.059  1.00  0.00     0.139 A 
BRANCH  15  16
ATOM     16  C   UNL     1      -1.705 -13.455  13.262  1.00  0.00     0.271 C 
ATOM     17  O   UNL     1      -1.861 -14.439  13.976  1.00  0.00    -0.267 OA
ATOM     18  N   UNL     1      -2.292 -12.232  13.508  1.00  0.00    -0.339 N 
ATOM     19  H   UNL     1      -2.175 -11.529  12.784  1.00  0.00     0.164 HD
BRANCH  18  20
ATOM     20  C   UNL     1      -3.211 -12.047  14.624  1.00  0.00     0.168 CG0
ATOM     21  C   UNL     1      -2.493 -11.470  15.846  1.00  0.00     0.041 C 
ATOM     22  G   UNL     1      -4.381 -11.111  14.281  1.00  0.00     0.000 G0
ENDBRANCH  18  20
ENDBRANCH  15  16
ENDBRANCH  10  11
BRANCH  10  23
ATOM     23  C   UNL     1       0.122 -12.360   7.645  1.00  0.00     0.015 C 
ATOM     24  C   UNL     1      -0.986 -11.707   6.802  1.00  0.00     0.010 C 
BRANCH  23  25
ATOM     25  C   UNL     1       1.425 -12.387   6.815  1.00  0.00     0.002 C 
ATOM     26  C   UNL     1       1.222 -12.787   5.360  1.00  0.00     0.004 C 
ENDBRANCH  23  25
ENDBRANCH  10  23
ENDBRANCH   7  10
ENDBRANCH   4   6
BRANCH   3  27
ATOM     27  C   UNL     1      -3.098  -6.196  12.158  1.00  0.00     0.171 C 
BRANCH  27  28
ATOM     28  N   UNL     1      -3.655  -7.028  13.220  1.00  0.00    -0.342 N 
ATOM     29  C   UNL     1      -4.762  -7.827  13.039  1.00  0.00     0.245 C 
ATOM     30  O   UNL     1      -5.354  -7.911  11.965  1.00  0.00    -0.273 OA
ATOM     31  H   UNL     1      -3.151  -7.098  14.103  1.00  0.00     0.164 HD
BRANCH  29  32
ATOM     32  C   UNL     1      -5.125  -8.731  14.237  1.00  0.00     0.200 C 
BRANCH  32  33
ATOM     33  N   UNL     1      -4.075  -9.747  14.382  1.00  0.00    -0.340 N 
ATOM     34  C   UNL     1      -4.365 -11.093  14.291  1.00  0.00     0.243 CG0
ATOM     35  O   UNL     1      -5.515 -11.502  14.150  1.00  0.00    -0.273 OA
ATOM     36  H   UNL     1      -3.121  -9.441  14.529  1.00  0.00     0.164 HD
ATOM     37  G   UNL     1      -3.200 -12.048  14.598  1.00  0.00     0.000 G0
ENDBRANCH  32  33
BRANCH  32  38
ATOM     38  C   UNL     1      -5.344  -7.903  15.524  1.00  0.00     0.143 C 
ATOM     39  C   UNL     1      -4.081  -7.240  16.060  1.00  0.00     0.041 C 
BRANCH  38  40
ATOM     40  O   UNL     1      -6.342  -6.889  15.294  1.00  0.00    -0.391 OA
ATOM     41  H   UNL     1      -6.656  -7.009  14.378  1.00  0.00     0.211 HD
ENDBRANCH  38  40
ENDBRANCH  32  38
ENDBRANCH  29  32
ENDBRANCH  27  28
BRANCH  27  42
ATOM     42  C   UNL     1      -2.233  -5.047  12.730  1.00  0.00     0.015 C 
ATOM     43  C   UNL     1      -1.644  -4.084  11.693  1.00  0.00     0.010 C 
ATOM     44  C   UNL     1      -2.970  -4.265  13.823  1.00  0.00     0.010 C 
ENDBRANCH  27  42
ENDBRANCH   3  27
TORSDOF 5
ENDMDL
MODEL 31
REMARK VINA RESULT:    -4.497     21.243     23.496
REMARK INTER + INTRA:          -9.890
REMARK INTER:                  -7.681
REMARK INTRA:                  -2.209
REMARK UNBOUND:                -1.845
REMARK SMILES CC[C@H](C)[C@H]1NC(=O)c2coc(n2)[C@H](C(C)C)NC(=O)[C@H]([C@@H](C)O)NC(=O)[C@H](C)NC(=O)c2csc1n2
REMARK SMILES IDX 11 1 13 2 12 3 9 4 10 5 7 6 6 7 8 8 5 10 36 11 35 12 34 13
REMARK SMILES IDX 37 14 33 15 31 16 32 17 30 18 28 20 29 21 3 23 4 24 2 25
REMARK SMILES IDX 1 26 14 27 18 28 19 29 20 30 21 32 25 33 26 34 27 35 22 38
REMARK SMILES IDX 23 39 24 40 15 42 16 43 17 44
REMARK H PARENT 6 9 30 19 18 31 25 36 24 41
REMARK Flexibility Score:   94.900
ROOT
ATOM      1  O   UNL     1       7.197   1.328   6.308  1.00  0.00    -0.446 OA
ATOM      2  N   UNL     1       5.879  -0.302   7.138  1.00  0.00    -0.207 NA
ATOM      3  C   UNL     1       5.925   0.882   6.553  1.00  0.00     0.217 A 
ATOM      4  C   UNL     1       7.207  -0.671   7.263  1.00  0.00     0.167 A 
ATOM      5  C   UNL     1       8.004   0.325   6.754  1.00  0.00     0.231 A 
ENDROOT
BRANCH   4   6
ATOM      6  C   UNL     1       7.630  -1.918   7.875  1.00  0.00     0.273 C 
ATOM      7  N   UNL     1       6.666  -2.890   7.771  1.00  0.00    -0.341 N 
ATOM      8  O   UNL     1       8.709  -2.066   8.437  1.00  0.00    -0.267 OA
ATOM      9  H   UNL     1       5.785  -2.594   7.361  1.00  0.00     0.164 HD
BRANCH   7  10
ATOM     10  C   UNL     1       6.720  -4.140   8.503  1.00  0.00     0.145 C 
BRANCH  10  11
ATOM     11  C   UNL     1       5.704  -4.056   9.633  1.00  0.00     0.116 A 
ATOM     12  S   UNL     1       5.227  -5.491  10.461  1.00  0.00    -0.124 S 
ATOM     13  C   UNL     1       4.215  -4.559  11.476  1.00  0.00     0.101 A 
ATOM     14  N   UNL     1       5.141  -2.940  10.065  1.00  0.00    -0.234 NA
ATOM     15  C   UNL     1       4.294  -3.221  11.140  1.00  0.00     0.139 A 
BRANCH  15  16
ATOM     16  C   UNL     1       3.565  -2.163  11.842  1.00  0.00     0.271 C 
ATOM     17  O   UNL     1       2.626  -2.391  12.597  1.00  0.00    -0.267 OA
ATOM     18  N   UNL     1       4.038  -0.896  11.572  1.00  0.00    -0.339 N 
ATOM     19  H   UNL     1       4.746  -0.831  10.846  1.00  0.00     0.164 HD
BRANCH  18  20
ATOM     20  C   UNL     1       3.392   0.285  12.130  1.00  0.00     0.168 CG0
ATOM     21  C   UNL     1       4.421   1.340  12.541  1.00  0.00     0.041 C 
ATOM     22  G   UNL     1       2.410   0.944  11.148  1.00  0.00     0.000 G0
ENDBRANCH  18  20
ENDBRANCH  15  16
ENDBRANCH  10  11
BRANCH  10  23
ATOM     23  C   UNL     1       6.483  -5.367   7.584  1.00  0.00     0.015 C 
ATOM     24  C   UNL     1       5.942  -4.992   6.194  1.00  0.00     0.010 C 
BRANCH  23  25
ATOM     25  C   UNL     1       7.751  -6.233   7.404  1.00  0.00     0.002 C 
ATOM     26  C   UNL     1       7.538  -7.470   6.541  1.00  0.00     0.004 C 
ENDBRANCH  23  25
ENDBRANCH  10  23
ENDBRANCH   7  10
ENDBRANCH   4   6
BRANCH   3  27
ATOM     27  C   UNL     1       4.760   1.765   6.199  1.00  0.00     0.171 C 
BRANCH  27  28
ATOM     28  N   UNL     1       4.034   2.060   7.429  1.00  0.00    -0.342 N 
ATOM     29  C   UNL     1       2.679   1.855   7.565  1.00  0.00     0.245 C 
ATOM     30  O   UNL     1       1.983   1.392   6.663  1.00  0.00    -0.273 OA
ATOM     31  H   UNL     1       4.562   2.338   8.256  1.00  0.00     0.164 HD
BRANCH  29  32
ATOM     32  C   UNL     1       2.112   2.103   8.979  1.00  0.00     0.200 C 
BRANCH  32  33
ATOM     33  N   UNL     1       2.919   1.340   9.939  1.00  0.00    -0.340 N 
ATOM     34  C   UNL     1       2.401   0.946  11.155  1.00  0.00     0.243 CG0
ATOM     35  O   UNL     1       1.270   1.268  11.515  1.00  0.00    -0.273 OA
ATOM     36  H   UNL     1       3.866   1.086   9.683  1.00  0.00     0.164 HD
ATOM     37  G   UNL     1       3.395   0.275  12.117  1.00  0.00     0.000 G0
ENDBRANCH  32  33
BRANCH  32  38
ATOM     38  C   UNL     1       2.053   3.613   9.307  1.00  0.00     0.143 C 
ATOM     39  C   UNL     1       3.364   4.188   9.830  1.00  0.00     0.041 C 
BRANCH  38  40
ATOM     40  O   UNL     1       1.650   4.356   8.140  1.00  0.00    -0.391 OA
ATOM     41  H   UNL     1       2.403   4.928   7.899  1.00  0.00     0.211 HD
ENDBRANCH  38  40
ENDBRANCH  32  38
ENDBRANCH  29  32
ENDBRANCH  27  28
BRANCH  27  42
ATOM     42  C   UNL     1       5.060   3.051   5.391  1.00  0.00     0.015 C 
ATOM     43  C   UNL     1       4.187   3.271   4.151  1.00  0.00     0.010 C 
ATOM     44  C   UNL     1       5.046   4.300   6.279  1.00  0.00     0.010 C 
ENDBRANCH  27  42
ENDBRANCH   3  27
TORSDOF 5
ENDMDL
MODEL 32
REMARK VINA RESULT:    -4.488     12.906     14.888
REMARK INTER + INTRA:          -9.874
REMARK INTER:                  -7.609
REMARK INTRA:                  -2.266
REMARK UNBOUND:                -1.845
REMARK SMILES CC[C@H](C)[C@H]1NC(=O)c2coc(n2)[C@H](C(C)C)NC(=O)[C@H]([C@@H](C)O)NC(=O)[C@H](C)NC(=O)c2csc1n2
REMARK SMILES IDX 11 1 13 2 12 3 9 4 10 5 7 6 6 7 8 8 5 10 36 11 35 12 34 13
REMARK SMILES IDX 37 14 33 15 31 16 32 17 30 18 28 20 29 21 3 23 4 24 2 25
REMARK SMILES IDX 1 26 14 27 18 28 19 29 20 30 21 32 25 33 26 34 27 35 22 38
REMARK SMILES IDX 23 39 24 40 15 42 16 43 17 44
REMARK H PARENT 6 9 30 19 18 31 25 36 24 41
REMARK Flexibility Score:   94.900
ROOT
ATOM      1  O   UNL     1      -1.288 -10.037   8.596  1.00  0.00    -0.446 OA
ATOM      2  N   UNL     1      -1.791  -9.570  10.743  1.00  0.00    -0.207 NA
ATOM      3  C   UNL     1      -1.240 -10.432   9.907  1.00  0.00     0.217 A 
ATOM      4  C   UNL     1      -2.206  -8.528   9.932  1.00  0.00     0.167 A 
ATOM      5  C   UNL     1      -1.896  -8.818   8.626  1.00  0.00     0.231 A 
ENDROOT
BRANCH   4   6
ATOM      6  C   UNL     1      -2.888  -7.350  10.440  1.00  0.00     0.273 C 
ATOM      7  N   UNL     1      -2.400  -6.967  11.664  1.00  0.00    -0.341 N 
ATOM      8  O   UNL     1      -3.804  -6.791   9.851  1.00  0.00    -0.267 OA
ATOM      9  H   UNL     1      -1.702  -7.582  12.072  1.00  0.00     0.164 HD
BRANCH   7  10
ATOM     10  C   UNL     1      -3.055  -5.985  12.505  1.00  0.00     0.145 C 
BRANCH  10  11
ATOM     11  C   UNL     1      -3.724  -6.733  13.650  1.00  0.00     0.116 A 
ATOM     12  S   UNL     1      -4.236  -5.869  15.051  1.00  0.00    -0.124 S 
ATOM     13  C   UNL     1      -4.845  -7.322  15.714  1.00  0.00     0.101 A 
ATOM     14  N   UNL     1      -3.971  -8.032  13.664  1.00  0.00    -0.234 NA
ATOM     15  C   UNL     1      -4.634  -8.376  14.846  1.00  0.00     0.139 A 
BRANCH  15  16
ATOM     16  C   UNL     1      -5.066  -9.749  15.114  1.00  0.00     0.271 C 
ATOM     17  O   UNL     1      -5.140 -10.214  16.246  1.00  0.00    -0.267 OA
ATOM     18  N   UNL     1      -5.379 -10.460  13.975  1.00  0.00    -0.339 N 
ATOM     19  H   UNL     1      -5.171 -10.001  13.092  1.00  0.00     0.164 HD
BRANCH  18  20
ATOM     20  C   UNL     1      -5.764 -11.864  14.043  1.00  0.00     0.168 CG0
ATOM     21  C   UNL     1      -6.778 -12.216  12.953  1.00  0.00     0.041 C 
ATOM     22  G   UNL     1      -4.566 -12.816  13.896  1.00  0.00     0.000 G0
ENDBRANCH  18  20
ENDBRANCH  15  16
ENDBRANCH  10  11
BRANCH  10  23
ATOM     23  C   UNL     1      -2.072  -4.893  13.006  1.00  0.00     0.015 C 
ATOM     24  C   UNL     1      -0.641  -5.413  13.217  1.00  0.00     0.010 C 
BRANCH  23  25
ATOM     25  C   UNL     1      -2.019  -3.663  12.073  1.00  0.00     0.002 C 
ATOM     26  C   UNL     1      -1.020  -3.794  10.933  1.00  0.00     0.004 C 
ENDBRANCH  23  25
ENDBRANCH  10  23
ENDBRANCH   7  10
ENDBRANCH   4   6
BRANCH   3  27
ATOM     27  C   UNL     1      -0.642 -11.769  10.246  1.00  0.00     0.171 C 
BRANCH  27  28
ATOM     28  N   UNL     1      -1.722 -12.641  10.695  1.00  0.00    -0.342 N 
ATOM     29  C   UNL     1      -1.761 -13.194  11.955  1.00  0.00     0.245 C 
ATOM     30  O   UNL     1      -0.894 -12.983  12.802  1.00  0.00    -0.273 OA
ATOM     31  H   UNL     1      -2.532 -12.769  10.089  1.00  0.00     0.164 HD
BRANCH  29  32
ATOM     32  C   UNL     1      -3.045 -13.982  12.290  1.00  0.00     0.200 C 
BRANCH  32  33
ATOM     33  N   UNL     1      -4.110 -13.019  12.595  1.00  0.00    -0.340 N 
ATOM     34  C   UNL     1      -4.550 -12.824  13.888  1.00  0.00     0.243 CG0
ATOM     35  O   UNL     1      -4.119 -13.489  14.828  1.00  0.00    -0.273 OA
ATOM     36  H   UNL     1      -4.507 -12.478  11.836  1.00  0.00     0.164 HD
ATOM     37  G   UNL     1      -5.761 -11.891  14.046  1.00  0.00     0.000 G0
ENDBRANCH  32  33
BRANCH  32  38
ATOM     38  C   UNL     1      -3.422 -14.958  11.152  1.00  0.00     0.143 C 
ATOM     39  C   UNL     1      -4.313 -16.114  11.592  1.00  0.00     0.041 C 
BRANCH  38  40
ATOM     40  O   UNL     1      -4.078 -14.243  10.086  1.00  0.00    -0.391 OA
ATOM     41  H   UNL     1      -3.740 -13.328  10.115  1.00  0.00     0.211 HD
ENDBRANCH  38  40
ENDBRANCH  32  38
ENDBRANCH  29  32
ENDBRANCH  27  28
BRANCH  27  42
ATOM     42  C   UNL     1       0.232 -12.454   9.167  1.00  0.00     0.015 C 
ATOM     43  C   UNL     1       1.269 -13.454   9.692  1.00  0.00     0.010 C 
ATOM     44  C   UNL     1      -0.618 -13.100   8.067  1.00  0.00     0.010 C 
ENDBRANCH  27  42
ENDBRANCH   3  27
TORSDOF 5
ENDMDL
MODEL 33
REMARK VINA RESULT:    -4.478     21.976     24.132
REMARK INTER + INTRA:          -9.856
REMARK INTER:                  -7.630
REMARK INTRA:                  -2.227
REMARK UNBOUND:                -1.845
REMARK SMILES CC[C@H](C)[C@H]1NC(=O)c2coc(n2)[C@H](C(C)C)NC(=O)[C@H]([C@@H](C)O)NC(=O)[C@H](C)NC(=O)c2csc1n2
REMARK SMILES IDX 11 1 13 2 12 3 9 4 10 5 7 6 6 7 8 8 5 10 36 11 35 12 34 13
REMARK SMILES IDX 37 14 33 15 31 16 32 17 30 18 28 20 29 21 3 23 4 24 2 25
REMARK SMILES IDX 1 26 14 27 18 28 19 29 20 30 21 32 25 33 26 34 27 35 22 38
REMARK SMILES IDX 23 39 24 40 15 42 16 43 17 44
REMARK H PARENT 6 9 30 19 18 31 25 36 24 41
REMARK Flexibility Score:   94.900
ROOT
ATOM      1  O   UNL     1       2.048   1.588   8.818  1.00  0.00    -0.446 OA
ATOM      2  N   UNL     1       4.270   1.785   8.493  1.00  0.00    -0.207 NA
ATOM      3  C   UNL     1       3.309   1.209   9.194  1.00  0.00     0.217 A 
ATOM      4  C   UNL     1       3.596   2.576   7.579  1.00  0.00     0.167 A 
ATOM      5  C   UNL     1       2.243   2.451   7.781  1.00  0.00     0.231 A 
ENDROOT
BRANCH   4   6
ATOM      6  C   UNL     1       4.272   3.412   6.602  1.00  0.00     0.273 C 
ATOM      7  N   UNL     1       4.227   2.865   5.345  1.00  0.00    -0.341 N 
ATOM      8  O   UNL     1       4.834   4.464   6.883  1.00  0.00    -0.267 OA
ATOM      9  H   UNL     1       3.807   1.942   5.280  1.00  0.00     0.164 HD
BRANCH   7  10
ATOM     10  C   UNL     1       5.025   3.356   4.238  1.00  0.00     0.145 C 
BRANCH  10  11
ATOM     11  C   UNL     1       6.441   2.832   4.423  1.00  0.00     0.116 A 
ATOM     12  S   UNL     1       7.766   3.682   3.722  1.00  0.00    -0.124 S 
ATOM     13  C   UNL     1       8.845   2.540   4.394  1.00  0.00     0.101 A 
ATOM     14  N   UNL     1       6.765   1.749   5.111  1.00  0.00    -0.234 NA
ATOM     15  C   UNL     1       8.152   1.584   5.112  1.00  0.00     0.139 A 
BRANCH  15  16
ATOM     16  C   UNL     1       8.796   0.483   5.832  1.00  0.00     0.271 C 
ATOM     17  O   UNL     1       9.904   0.051   5.532  1.00  0.00    -0.267 OA
ATOM     18  N   UNL     1       8.039  -0.012   6.872  1.00  0.00    -0.339 N 
ATOM     19  H   UNL     1       7.094   0.355   6.948  1.00  0.00     0.164 HD
BRANCH  18  20
ATOM     20  C   UNL     1       8.490  -1.153   7.657  1.00  0.00     0.168 CG0
ATOM     21  C   UNL     1       9.135  -0.705   8.970  1.00  0.00     0.041 C 
ATOM     22  G   UNL     1       7.350  -2.126   8.001  1.00  0.00     0.000 G0
ENDBRANCH  18  20
ENDBRANCH  15  16
ENDBRANCH  10  11
BRANCH  10  23
ATOM     23  C   UNL     1       4.423   2.964   2.863  1.00  0.00     0.015 C 
ATOM     24  C   UNL     1       2.905   2.723   2.908  1.00  0.00     0.010 C 
BRANCH  23  25
ATOM     25  C   UNL     1       4.726   4.003   1.759  1.00  0.00     0.002 C 
ATOM     26  C   UNL     1       4.952   3.395   0.382  1.00  0.00     0.004 C 
ENDBRANCH  23  25
ENDBRANCH  10  23
ENDBRANCH   7  10
ENDBRANCH   4   6
BRANCH   3  27
ATOM     27  C   UNL     1       3.474   0.260  10.349  1.00  0.00     0.171 C 
BRANCH  27  28
ATOM     28  N   UNL     1       4.561  -0.656  10.023  1.00  0.00    -0.342 N 
ATOM     29  C   UNL     1       4.488  -2.013  10.247  1.00  0.00     0.245 C 
ATOM     30  O   UNL     1       3.493  -2.555  10.724  1.00  0.00    -0.273 OA
ATOM     31  H   UNL     1       5.371  -0.296   9.520  1.00  0.00     0.164 HD
BRANCH  29  32
ATOM     32  C   UNL     1       5.683  -2.834   9.718  1.00  0.00     0.200 C 
BRANCH  32  33
ATOM     33  N   UNL     1       6.692  -1.900   9.202  1.00  0.00    -0.340 N 
ATOM     34  C   UNL     1       7.344  -2.139   8.010  1.00  0.00     0.243 CG0
ATOM     35  O   UNL     1       7.159  -3.167   7.362  1.00  0.00    -0.273 OA
ATOM     36  H   UNL     1       6.888  -1.058   9.730  1.00  0.00     0.164 HD
ATOM     37  G   UNL     1       8.470  -1.153   7.658  1.00  0.00     0.000 G0
ENDBRANCH  32  33
BRANCH  32  38
ATOM     38  C   UNL     1       6.241  -3.783  10.804  1.00  0.00     0.143 C 
ATOM     39  C   UNL     1       6.699  -3.076  12.074  1.00  0.00     0.041 C 
BRANCH  38  40
ATOM     40  O   UNL     1       5.250  -4.771  11.152  1.00  0.00    -0.391 OA
ATOM     41  H   UNL     1       5.473  -5.087  12.047  1.00  0.00     0.211 HD
ENDBRANCH  38  40
ENDBRANCH  32  38
ENDBRANCH  29  32
ENDBRANCH  27  28
BRANCH  27  42
ATOM     42  C   UNL     1       3.651   0.876  11.758  1.00  0.00     0.015 C 
ATOM     43  C   UNL     1       3.089   0.045  12.918  1.00  0.00     0.010 C 
ATOM     44  C   UNL     1       5.108   1.259  12.037  1.00  0.00     0.010 C 
ENDBRANCH  27  42
ENDBRANCH   3  27
TORSDOF 5
ENDMDL
MODEL 34
REMARK VINA RESULT:    -4.444     15.773     17.927
REMARK INTER + INTRA:          -9.797
REMARK INTER:                  -7.934
REMARK INTRA:                  -1.862
REMARK UNBOUND:                -1.845
REMARK SMILES CC[C@H](C)[C@H]1NC(=O)c2coc(n2)[C@H](C(C)C)NC(=O)[C@H]([C@@H](C)O)NC(=O)[C@H](C)NC(=O)c2csc1n2
REMARK SMILES IDX 11 1 13 2 12 3 9 4 10 5 7 6 6 7 8 8 5 10 36 11 35 12 34 13
REMARK SMILES IDX 37 14 33 15 31 16 32 17 30 18 28 20 29 21 3 23 4 24 2 25
REMARK SMILES IDX 1 26 14 27 18 28 19 29 20 30 21 32 25 33 26 34 27 35 22 38
REMARK SMILES IDX 23 39 24 40 15 42 16 43 17 44
REMARK H PARENT 6 9 30 19 18 31 25 36 24 41
REMARK Flexibility Score:   94.900
ROOT
ATOM      1  O   UNL     1      -0.620 -11.988   6.516  1.00  0.00    -0.446 OA
ATOM      2  N   UNL     1       0.589 -11.675   8.392  1.00  0.00    -0.207 NA
ATOM      3  C   UNL     1       0.556 -12.206   7.183  1.00  0.00     0.217 A 
ATOM      4  C   UNL     1      -0.636 -11.044   8.520  1.00  0.00     0.167 A 
ATOM      5  C   UNL     1      -1.368 -11.238   7.373  1.00  0.00     0.231 A 
ENDROOT
BRANCH   4   6
ATOM      6  C   UNL     1      -1.041 -10.331   9.719  1.00  0.00     0.273 C 
ATOM      7  N   UNL     1      -1.165  -8.984   9.493  1.00  0.00    -0.341 N 
ATOM      8  O   UNL     1      -1.222 -10.874  10.802  1.00  0.00    -0.267 OA
ATOM      9  H   UNL     1      -0.893  -8.665   8.567  1.00  0.00     0.164 HD
BRANCH   7  10
ATOM     10  C   UNL     1      -1.313  -8.012  10.559  1.00  0.00     0.145 C 
BRANCH  10  11
ATOM     11  C   UNL     1       0.020  -7.924  11.289  1.00  0.00     0.116 A 
ATOM     12  S   UNL     1       0.054  -7.476  12.953  1.00  0.00    -0.124 S 
ATOM     13  C   UNL     1       1.754  -7.656  12.958  1.00  0.00     0.101 A 
ATOM     14  N   UNL     1       1.199  -8.183  10.749  1.00  0.00    -0.234 NA
ATOM     15  C   UNL     1       2.202  -8.046  11.711  1.00  0.00     0.139 A 
BRANCH  15  16
ATOM     16  C   UNL     1       3.609  -8.310  11.399  1.00  0.00     0.271 C 
ATOM     17  O   UNL     1       4.535  -7.782  12.006  1.00  0.00    -0.267 OA
ATOM     18  N   UNL     1       3.785  -9.205  10.365  1.00  0.00    -0.339 N 
ATOM     19  H   UNL     1       2.942  -9.486   9.872  1.00  0.00     0.164 HD
BRANCH  18  20
ATOM     20  C   UNL     1       5.115  -9.537   9.873  1.00  0.00     0.168 CG0
ATOM     21  C   UNL     1       5.574 -10.904  10.385  1.00  0.00     0.041 C 
ATOM     22  G   UNL     1       5.192  -9.560   8.338  1.00  0.00     0.000 G0
ENDBRANCH  18  20
ENDBRANCH  15  16
ENDBRANCH  10  11
BRANCH  10  23
ATOM     23  C   UNL     1      -1.792  -6.633  10.033  1.00  0.00     0.015 C 
ATOM     24  C   UNL     1      -2.846  -6.739   8.919  1.00  0.00     0.010 C 
BRANCH  23  25
ATOM     25  C   UNL     1      -2.346  -5.725  11.154  1.00  0.00     0.002 C 
ATOM     26  C   UNL     1      -2.100  -4.240  10.925  1.00  0.00     0.004 C 
ENDBRANCH  23  25
ENDBRANCH  10  23
ENDBRANCH   7  10
ENDBRANCH   4   6
BRANCH   3  27
ATOM     27  C   UNL     1       1.625 -13.035   6.527  1.00  0.00     0.171 C 
BRANCH  27  28
ATOM     28  N   UNL     1       2.908 -12.385   6.773  1.00  0.00    -0.342 N 
ATOM     29  C   UNL     1       3.556 -11.627   5.823  1.00  0.00     0.245 C 
ATOM     30  O   UNL     1       3.093 -11.430   4.700  1.00  0.00    -0.273 OA
ATOM     31  H   UNL     1       3.297 -12.409   7.715  1.00  0.00     0.164 HD
BRANCH  29  32
ATOM     32  C   UNL     1       4.836 -10.914   6.308  1.00  0.00     0.200 C 
BRANCH  32  33
ATOM     33  N   UNL     1       4.732 -10.719   7.759  1.00  0.00    -0.340 N 
ATOM     34  C   UNL     1       5.177  -9.560   8.360  1.00  0.00     0.243 CG0
ATOM     35  O   UNL     1       5.735  -8.670   7.720  1.00  0.00    -0.273 OA
ATOM     36  H   UNL     1       4.304 -11.449   8.317  1.00  0.00     0.164 HD
ATOM     37  G   UNL     1       5.135  -9.546   9.896  1.00  0.00     0.000 G0
ENDBRANCH  32  33
BRANCH  32  38
ATOM     38  C   UNL     1       6.107 -11.690   5.893  1.00  0.00     0.143 C 
ATOM     39  C   UNL     1       6.352 -12.961   6.699  1.00  0.00     0.041 C 
BRANCH  38  40
ATOM     40  O   UNL     1       6.043 -12.029   4.494  1.00  0.00    -0.391 OA
ATOM     41  H   UNL     1       6.019 -11.186   4.003  1.00  0.00     0.211 HD
ENDBRANCH  38  40
ENDBRANCH  32  38
ENDBRANCH  29  32
ENDBRANCH  27  28
BRANCH  27  42
ATOM     42  C   UNL     1       1.674 -14.543   6.878  1.00  0.00     0.015 C 
ATOM     43  C   UNL     1       1.308 -14.897   8.323  1.00  0.00     0.010 C 
ATOM     44  C   UNL     1       0.850 -15.386   5.899  1.00  0.00     0.010 C 
ENDBRANCH  27  42
ENDBRANCH   3  27
TORSDOF 5
ENDMDL
MODEL 35
REMARK VINA RESULT:    -4.439     12.722     16.136
REMARK INTER + INTRA:          -9.787
REMARK INTER:                  -7.323
REMARK INTRA:                  -2.464
REMARK UNBOUND:                -1.845
REMARK SMILES CC[C@H](C)[C@H]1NC(=O)c2coc(n2)[C@H](C(C)C)NC(=O)[C@H]([C@@H](C)O)NC(=O)[C@H](C)NC(=O)c2csc1n2
REMARK SMILES IDX 11 1 13 2 12 3 9 4 10 5 7 6 6 7 8 8 5 10 36 11 35 12 34 13
REMARK SMILES IDX 37 14 33 15 31 16 32 17 30 18 28 20 29 21 3 23 4 24 2 25
REMARK SMILES IDX 1 26 14 27 18 28 19 29 20 30 21 32 25 33 26 34 27 35 22 38
REMARK SMILES IDX 23 39 24 40 15 42 16 43 17 44
REMARK H PARENT 6 9 30 19 18 31 25 36 24 41
REMARK Flexibility Score:   94.900
ROOT
ATOM      1  O   UNL     1      -2.856  -9.260   9.078  1.00  0.00    -0.446 OA
ATOM      2  N   UNL     1      -1.578 -10.554  10.409  1.00  0.00    -0.207 NA
ATOM      3  C   UNL     1      -2.706  -9.878  10.291  1.00  0.00     0.217 A 
ATOM      4  C   UNL     1      -0.956 -10.392   9.183  1.00  0.00     0.167 A 
ATOM      5  C   UNL     1      -1.740  -9.604   8.377  1.00  0.00     0.231 A 
ENDROOT
BRANCH   4   6
ATOM      6  C   UNL     1       0.342 -10.965   8.870  1.00  0.00     0.273 C 
ATOM      7  N   UNL     1       0.232 -12.049   8.036  1.00  0.00    -0.341 N 
ATOM      8  O   UNL     1       1.398 -10.540   9.323  1.00  0.00    -0.267 OA
ATOM      9  H   UNL     1      -0.715 -12.342   7.816  1.00  0.00     0.164 HD
BRANCH   7  10
ATOM     10  C   UNL     1       1.332 -12.953   7.763  1.00  0.00     0.145 C 
BRANCH  10  11
ATOM     11  C   UNL     1       1.161 -14.170   8.661  1.00  0.00     0.116 A 
ATOM     12  S   UNL     1       2.436 -15.321   8.793  1.00  0.00    -0.124 S 
ATOM     13  C   UNL     1       1.502 -16.217   9.909  1.00  0.00     0.101 A 
ATOM     14  N   UNL     1       0.087 -14.430   9.389  1.00  0.00    -0.234 NA
ATOM     15  C   UNL     1       0.284 -15.601  10.124  1.00  0.00     0.139 A 
BRANCH  15  16
ATOM     16  C   UNL     1      -0.731 -16.109  11.049  1.00  0.00     0.271 C 
ATOM     17  O   UNL     1      -0.682 -17.232  11.539  1.00  0.00    -0.267 OA
ATOM     18  N   UNL     1      -1.738 -15.205  11.313  1.00  0.00    -0.339 N 
ATOM     19  H   UNL     1      -1.725 -14.351  10.761  1.00  0.00     0.164 HD
BRANCH  18  20
ATOM     20  C   UNL     1      -2.870 -15.560  12.158  1.00  0.00     0.168 CG0
ATOM     21  C   UNL     1      -2.661 -15.084  13.597  1.00  0.00     0.041 C 
ATOM     22  G   UNL     1      -4.196 -14.969  11.655  1.00  0.00     0.000 G0
ENDBRANCH  18  20
ENDBRANCH  15  16
ENDBRANCH  10  11
BRANCH  10  23
ATOM     23  C   UNL     1       1.420 -13.333   6.262  1.00  0.00     0.015 C 
ATOM     24  C   UNL     1       0.236 -12.812   5.431  1.00  0.00     0.010 C 
BRANCH  23  25
ATOM     25  C   UNL     1       2.734 -12.859   5.601  1.00  0.00     0.002 C 
ATOM     26  C   UNL     1       3.156 -13.690   4.397  1.00  0.00     0.004 C 
ENDBRANCH  23  25
ENDBRANCH  10  23
ENDBRANCH   7  10
ENDBRANCH   4   6
BRANCH   3  27
ATOM     27  C   UNL     1      -3.766  -9.691  11.342  1.00  0.00     0.171 C 
BRANCH  27  28
ATOM     28  N   UNL     1      -4.250 -11.012  11.728  1.00  0.00    -0.342 N 
ATOM     29  C   UNL     1      -5.431 -11.542  11.258  1.00  0.00     0.245 C 
ATOM     30  O   UNL     1      -6.158 -10.946  10.465  1.00  0.00    -0.273 OA
ATOM     31  H   UNL     1      -3.646 -11.610  12.291  1.00  0.00     0.164 HD
BRANCH  29  32
ATOM     32  C   UNL     1      -5.711 -13.001  11.675  1.00  0.00     0.200 C 
BRANCH  32  33
ATOM     33  N   UNL     1      -4.430 -13.647  11.983  1.00  0.00    -0.340 N 
ATOM     34  C   UNL     1      -4.199 -14.969  11.664  1.00  0.00     0.243 CG0
ATOM     35  O   UNL     1      -5.072 -15.679  11.169  1.00  0.00    -0.273 OA
ATOM     36  H   UNL     1      -3.701 -13.094  12.419  1.00  0.00     0.164 HD
ATOM     37  G   UNL     1      -2.869 -15.554  12.166  1.00  0.00     0.000 G0
ENDBRANCH  32  33
BRANCH  32  38
ATOM     38  C   UNL     1      -6.718 -13.070  12.847  1.00  0.00     0.143 C 
ATOM     39  C   UNL     1      -6.068 -13.090  14.226  1.00  0.00     0.041 C 
BRANCH  38  40
ATOM     40  O   UNL     1      -7.632 -11.958  12.778  1.00  0.00    -0.391 OA
ATOM     41  H   UNL     1      -8.381 -12.176  13.365  1.00  0.00     0.211 HD
ENDBRANCH  38  40
ENDBRANCH  32  38
ENDBRANCH  29  32
ENDBRANCH  27  28
BRANCH  27  42
ATOM     42  C   UNL     1      -3.400  -8.835  12.579  1.00  0.00     0.015 C 
ATOM     43  C   UNL     1      -2.839  -7.440  12.276  1.00  0.00     0.010 C 
ATOM     44  C   UNL     1      -4.563  -8.735  13.571  1.00  0.00     0.010 C 
ENDBRANCH  27  42
ENDBRANCH   3  27
TORSDOF 5
ENDMDL
MODEL 36
REMARK VINA RESULT:    -4.350     22.197     25.548
REMARK INTER + INTRA:          -9.628
REMARK INTER:                  -7.720
REMARK INTRA:                  -1.907
REMARK UNBOUND:                -1.845
REMARK SMILES CC[C@H](C)[C@H]1NC(=O)c2coc(n2)[C@H](C(C)C)NC(=O)[C@H]([C@@H](C)O)NC(=O)[C@H](C)NC(=O)c2csc1n2
REMARK SMILES IDX 11 1 13 2 12 3 9 4 10 5 7 6 6 7 8 8 5 10 36 11 35 12 34 13
REMARK SMILES IDX 37 14 33 15 31 16 32 17 30 18 28 20 29 21 3 23 4 24 2 25
REMARK SMILES IDX 1 26 14 27 18 28 19 29 20 30 21 32 25 33 26 34 27 35 22 38
REMARK SMILES IDX 23 39 24 40 15 42 16 43 17 44
REMARK H PARENT 6 9 30 19 18 31 25 36 24 41
REMARK Flexibility Score:   94.900
ROOT
ATOM      1  O   UNL     1       1.624   1.238  10.933  1.00  0.00    -0.446 OA
ATOM      2  N   UNL     1       2.391   3.278  11.509  1.00  0.00    -0.207 NA
ATOM      3  C   UNL     1       2.265   2.384  10.544  1.00  0.00     0.217 A 
ATOM      4  C   UNL     1       1.768   2.692  12.598  1.00  0.00     0.167 A 
ATOM      5  C   UNL     1       1.303   1.450  12.240  1.00  0.00     0.231 A 
ENDROOT
BRANCH   4   6
ATOM      6  C   UNL     1       1.682   3.329  13.900  1.00  0.00     0.273 C 
ATOM      7  N   UNL     1       1.569   4.692  13.795  1.00  0.00    -0.341 N 
ATOM      8  O   UNL     1       1.732   2.715  14.959  1.00  0.00    -0.267 OA
ATOM      9  H   UNL     1       1.635   5.068  12.853  1.00  0.00     0.164 HD
BRANCH   7  10
ATOM     10  C   UNL     1       1.714   5.588  14.925  1.00  0.00     0.145 C 
BRANCH  10  11
ATOM     11  C   UNL     1       3.201   5.723  15.219  1.00  0.00     0.116 A 
ATOM     12  S   UNL     1       3.723   6.159  16.802  1.00  0.00    -0.124 S 
ATOM     13  C   UNL     1       5.350   6.045  16.289  1.00  0.00     0.101 A 
ATOM     14  N   UNL     1       4.169   5.516  14.341  1.00  0.00    -0.234 NA
ATOM     15  C   UNL     1       5.412   5.683  14.957  1.00  0.00     0.139 A 
BRANCH  15  16
ATOM     16  C   UNL     1       6.665   5.478  14.228  1.00  0.00     0.271 C 
ATOM     17  O   UNL     1       7.724   5.996  14.567  1.00  0.00    -0.267 OA
ATOM     18  N   UNL     1       6.537   4.648  13.134  1.00  0.00    -0.339 N 
ATOM     19  H   UNL     1       5.588   4.373  12.894  1.00  0.00     0.164 HD
BRANCH  18  20
ATOM     20  C   UNL     1       7.665   4.384  12.251  1.00  0.00     0.168 CG0
ATOM     21  C   UNL     1       8.024   2.897  12.238  1.00  0.00     0.041 C 
ATOM     22  G   UNL     1       7.398   4.816  10.800  1.00  0.00     0.000 G0
ENDBRANCH  18  20
ENDBRANCH  15  16
ENDBRANCH  10  11
BRANCH  10  23
ATOM     23  C   UNL     1       1.033   6.960  14.675  1.00  0.00     0.015 C 
ATOM     24  C   UNL     1       0.109   7.400  15.824  1.00  0.00     0.010 C 
BRANCH  23  25
ATOM     25  C   UNL     1       2.050   8.091  14.398  1.00  0.00     0.002 C 
ATOM     26  C   UNL     1       1.859   9.322  15.273  1.00  0.00     0.004 C 
ENDBRANCH  23  25
ENDBRANCH  10  23
ENDBRANCH   7  10
ENDBRANCH   4   6
BRANCH   3  27
ATOM     27  C   UNL     1       2.787   2.489   9.138  1.00  0.00     0.171 C 
BRANCH  27  28
ATOM     28  N   UNL     1       4.162   2.972   9.207  1.00  0.00    -0.342 N 
ATOM     29  C   UNL     1       4.626   4.018   8.441  1.00  0.00     0.245 C 
ATOM     30  O   UNL     1       3.910   4.633   7.652  1.00  0.00    -0.273 OA
ATOM     31  H   UNL     1       4.782   2.587   9.920  1.00  0.00     0.164 HD
BRANCH  29  32
ATOM     32  C   UNL     1       6.070   4.470   8.746  1.00  0.00     0.200 C 
BRANCH  32  33
ATOM     33  N   UNL     1       6.340   4.220  10.167  1.00  0.00    -0.340 N 
ATOM     34  C   UNL     1       7.401   4.823  10.811  1.00  0.00     0.243 CG0
ATOM     35  O   UNL     1       8.200   5.541  10.214  1.00  0.00    -0.273 OA
ATOM     36  H   UNL     1       5.716   3.608  10.680  1.00  0.00     0.164 HD
ATOM     37  G   UNL     1       7.648   4.368  12.258  1.00  0.00     0.000 G0
ENDBRANCH  32  33
BRANCH  32  38
ATOM     38  C   UNL     1       7.088   3.780   7.809  1.00  0.00     0.143 C 
ATOM     39  C   UNL     1       6.452   3.017   6.653  1.00  0.00     0.041 C 
BRANCH  38  40
ATOM     40  O   UNL     1       8.006   4.754   7.276  1.00  0.00    -0.391 OA
ATOM     41  H   UNL     1       8.727   4.254   6.849  1.00  0.00     0.211 HD
ENDBRANCH  38  40
ENDBRANCH  32  38
ENDBRANCH  29  32
ENDBRANCH  27  28
BRANCH  27  42
ATOM     42  C   UNL     1       2.669   1.234   8.238  1.00  0.00     0.015 C 
ATOM     43  C   UNL     1       2.515   1.508   6.738  1.00  0.00     0.010 C 
ATOM     44  C   UNL     1       3.814   0.245   8.482  1.00  0.00     0.010 C 
ENDBRANCH  27  42
ENDBRANCH   3  27
TORSDOF 5
ENDMDL
MODEL 37
REMARK VINA RESULT:    -4.341      3.515      4.797
REMARK INTER + INTRA:          -9.611
REMARK INTER:                  -7.496
REMARK INTRA:                  -2.116
REMARK UNBOUND:                -1.845
REMARK SMILES CC[C@H](C)[C@H]1NC(=O)c2coc(n2)[C@H](C(C)C)NC(=O)[C@H]([C@@H](C)O)NC(=O)[C@H](C)NC(=O)c2csc1n2
REMARK SMILES IDX 11 1 13 2 12 3 9 4 10 5 7 6 6 7 8 8 5 10 36 11 35 12 34 13
REMARK SMILES IDX 37 14 33 15 31 16 32 17 30 18 28 20 29 21 3 23 4 24 2 25
REMARK SMILES IDX 1 26 14 27 18 28 19 29 20 30 21 32 25 33 26 34 27 35 22 38
REMARK SMILES IDX 23 39 24 40 15 42 16 43 17 44
REMARK H PARENT 6 9 30 19 18 31 25 36 24 41
REMARK Flexibility Score:   94.900
ROOT
ATOM      1  O   UNL     1     -10.583 -15.148   7.477  1.00  0.00    -0.446 OA
ATOM      2  N   UNL     1     -12.078 -14.063   6.186  1.00  0.00    -0.207 NA
ATOM      3  C   UNL     1     -11.489 -15.214   6.453  1.00  0.00     0.217 A 
ATOM      4  C   UNL     1     -11.544 -13.186   7.114  1.00  0.00     0.167 A 
ATOM      5  C   UNL     1     -10.634 -13.853   7.897  1.00  0.00     0.231 A 
ENDROOT
BRANCH   4   6
ATOM      6  C   UNL     1     -11.906 -11.780   7.177  1.00  0.00     0.273 C 
ATOM      7  N   UNL     1     -12.865 -11.458   6.251  1.00  0.00    -0.341 N 
ATOM      8  O   UNL     1     -11.391 -10.982   7.951  1.00  0.00    -0.267 OA
ATOM      9  H   UNL     1     -13.131 -12.204   5.614  1.00  0.00     0.164 HD
BRANCH   7  10
ATOM     10  C   UNL     1     -13.228 -10.092   5.928  1.00  0.00     0.145 C 
BRANCH  10  11
ATOM     11  C   UNL     1     -13.233  -9.963   4.412  1.00  0.00     0.116 A 
ATOM     12  S   UNL     1     -14.264  -8.807   3.656  1.00  0.00    -0.124 S 
ATOM     13  C   UNL     1     -13.653  -9.271   2.129  1.00  0.00     0.101 A 
ATOM     14  N   UNL     1     -12.480 -10.673   3.588  1.00  0.00    -0.234 NA
ATOM     15  C   UNL     1     -12.705 -10.267   2.270  1.00  0.00     0.139 A 
BRANCH  15  16
ATOM     16  C   UNL     1     -11.975 -10.859   1.147  1.00  0.00     0.271 C 
ATOM     17  O   UNL     1     -12.196 -10.560  -0.021  1.00  0.00    -0.267 OA
ATOM     18  N   UNL     1     -11.023 -11.778   1.533  1.00  0.00    -0.339 N 
ATOM     19  H   UNL     1     -11.013 -12.021   2.520  1.00  0.00     0.164 HD
BRANCH  18  20
ATOM     20  C   UNL     1     -10.246 -12.519   0.548  1.00  0.00     0.168 CG0
ATOM     21  C   UNL     1      -8.743 -12.333   0.770  1.00  0.00     0.041 C 
ATOM     22  G   UNL     1     -10.541 -14.027   0.569  1.00  0.00     0.000 G0
ENDBRANCH  18  20
ENDBRANCH  15  16
ENDBRANCH  10  11
BRANCH  10  23
ATOM     23  C   UNL     1     -14.584  -9.681   6.561  1.00  0.00     0.015 C 
ATOM     24  C   UNL     1     -15.628 -10.810   6.551  1.00  0.00     0.010 C 
BRANCH  23  25
ATOM     25  C   UNL     1     -14.434  -9.159   8.008  1.00  0.00     0.002 C 
ATOM     26  C   UNL     1     -13.708  -7.825   8.113  1.00  0.00     0.004 C 
ENDBRANCH  23  25
ENDBRANCH  10  23
ENDBRANCH   7  10
ENDBRANCH   4   6
BRANCH   3  27
ATOM     27  C   UNL     1     -11.677 -16.519   5.727  1.00  0.00     0.171 C 
BRANCH  27  28
ATOM     28  N   UNL     1     -11.011 -16.410   4.434  1.00  0.00    -0.342 N 
ATOM     29  C   UNL     1     -11.698 -16.254   3.250  1.00  0.00     0.245 C 
ATOM     30  O   UNL     1     -12.924 -16.179   3.198  1.00  0.00    -0.273 OA
ATOM     31  H   UNL     1      -9.994 -16.350   4.410  1.00  0.00     0.164 HD
BRANCH  29  32
ATOM     32  C   UNL     1     -10.819 -16.028   2.002  1.00  0.00     0.200 C 
BRANCH  32  33
ATOM     33  N   UNL     1     -10.624 -14.583   1.831  1.00  0.00    -0.340 N 
ATOM     34  C   UNL     1     -10.558 -14.014   0.576  1.00  0.00     0.243 CG0
ATOM     35  O   UNL     1     -10.594 -14.692  -0.448  1.00  0.00    -0.273 OA
ATOM     36  H   UNL     1     -10.560 -14.001   2.658  1.00  0.00     0.164 HD
ATOM     37  G   UNL     1     -10.215 -12.516   0.542  1.00  0.00     0.000 G0
ENDBRANCH  32  33
BRANCH  32  38
ATOM     38  C   UNL     1      -9.487 -16.808   2.100  1.00  0.00     0.143 C 
ATOM     39  C   UNL     1      -8.424 -16.121   2.950  1.00  0.00     0.041 C 
BRANCH  38  40
ATOM     40  O   UNL     1      -9.726 -18.128   2.628  1.00  0.00    -0.391 OA
ATOM     41  H   UNL     1      -8.863 -18.582   2.647  1.00  0.00     0.211 HD
ENDBRANCH  38  40
ENDBRANCH  32  38
ENDBRANCH  29  32
ENDBRANCH  27  28
BRANCH  27  42
ATOM     42  C   UNL     1     -11.269 -17.814   6.471  1.00  0.00     0.015 C 
ATOM     43  C   UNL     1     -12.117 -19.052   6.156  1.00  0.00     0.010 C 
ATOM     44  C   UNL     1      -9.781 -18.131   6.296  1.00  0.00     0.010 C 
ENDBRANCH  27  42
ENDBRANCH   3  27
TORSDOF 5
ENDMDL
MODEL 38
REMARK VINA RESULT:    -4.270      4.806      9.130
REMARK INTER + INTRA:          -9.484
REMARK INTER:                  -8.181
REMARK INTRA:                  -1.302
REMARK UNBOUND:                -1.845
REMARK SMILES CC[C@H](C)[C@H]1NC(=O)c2coc(n2)[C@H](C(C)C)NC(=O)[C@H]([C@@H](C)O)NC(=O)[C@H](C)NC(=O)c2csc1n2
REMARK SMILES IDX 11 1 13 2 12 3 9 4 10 5 7 6 6 7 8 8 5 10 36 11 35 12 34 13
REMARK SMILES IDX 37 14 33 15 31 16 32 17 30 18 28 20 29 21 3 23 4 24 2 25
REMARK SMILES IDX 1 26 14 27 18 28 19 29 20 30 21 32 25 33 26 34 27 35 22 38
REMARK SMILES IDX 23 39 24 40 15 42 16 43 17 44
REMARK H PARENT 6 9 30 19 18 31 25 36 24 41
REMARK Flexibility Score:   94.900
ROOT
ATOM      1  O   UNL     1      -9.066 -12.730   1.011  1.00  0.00    -0.446 OA
ATOM      2  N   UNL     1     -10.063 -14.455   2.066  1.00  0.00    -0.207 NA
ATOM      3  C   UNL     1     -10.216 -13.439   1.235  1.00  0.00     0.217 A 
ATOM      4  C   UNL     1      -8.718 -14.428   2.390  1.00  0.00     0.167 A 
ATOM      5  C   UNL     1      -8.116 -13.376   1.744  1.00  0.00     0.231 A 
ENDROOT
BRANCH   4   6
ATOM      6  C   UNL     1      -8.103 -15.374   3.305  1.00  0.00     0.273 C 
ATOM      7  N   UNL     1      -8.966 -16.382   3.653  1.00  0.00    -0.341 N 
ATOM      8  O   UNL     1      -6.959 -15.261   3.728  1.00  0.00    -0.267 OA
ATOM      9  H   UNL     1      -9.913 -16.293   3.296  1.00  0.00     0.164 HD
BRANCH   7  10
ATOM     10  C   UNL     1      -8.703 -17.314   4.731  1.00  0.00     0.145 C 
BRANCH  10  11
ATOM     11  C   UNL     1      -9.678 -17.003   5.857  1.00  0.00     0.116 A 
ATOM     12  S   UNL     1      -9.374 -17.607   7.442  1.00  0.00    -0.124 S 
ATOM     13  C   UNL     1     -10.788 -16.827   8.003  1.00  0.00     0.101 A 
ATOM     14  N   UNL     1     -10.773 -16.272   5.731  1.00  0.00    -0.234 NA
ATOM     15  C   UNL     1     -11.409 -16.152   6.969  1.00  0.00     0.139 A 
BRANCH  15  16
ATOM     16  C   UNL     1     -12.631 -15.362   7.134  1.00  0.00     0.271 C 
ATOM     17  O   UNL     1     -13.727 -15.869   7.348  1.00  0.00    -0.267 OA
ATOM     18  N   UNL     1     -12.427 -14.003   7.026  1.00  0.00    -0.339 N 
ATOM     19  H   UNL     1     -11.495 -13.715   6.738  1.00  0.00     0.164 HD
BRANCH  18  20
ATOM     20  C   UNL     1     -13.539 -13.065   7.095  1.00  0.00     0.168 CG0
ATOM     21  C   UNL     1     -13.124 -11.759   7.776  1.00  0.00     0.041 C 
ATOM     22  G   UNL     1     -14.107 -12.714   5.711  1.00  0.00     0.000 G0
ENDBRANCH  18  20
ENDBRANCH  15  16
ENDBRANCH  10  11
BRANCH  10  23
ATOM     23  C   UNL     1      -8.790 -18.791   4.264  1.00  0.00     0.015 C 
ATOM     24  C   UNL     1     -10.234 -19.302   4.127  1.00  0.00     0.010 C 
BRANCH  23  25
ATOM     25  C   UNL     1      -8.048 -19.041   2.931  1.00  0.00     0.002 C 
ATOM     26  C   UNL     1      -7.052 -20.191   2.985  1.00  0.00     0.004 C 
ENDBRANCH  23  25
ENDBRANCH  10  23
ENDBRANCH   7  10
ENDBRANCH   4   6
BRANCH   3  27
ATOM     27  C   UNL     1     -11.494 -12.983   0.587  1.00  0.00     0.171 C 
BRANCH  27  28
ATOM     28  N   UNL     1     -12.477 -12.763   1.643  1.00  0.00    -0.342 N 
ATOM     29  C   UNL     1     -12.352 -11.765   2.583  1.00  0.00     0.245 C 
ATOM     30  O   UNL     1     -11.409 -10.975   2.594  1.00  0.00    -0.273 OA
ATOM     31  H   UNL     1     -13.341 -13.304   1.629  1.00  0.00     0.164 HD
BRANCH  29  32
ATOM     32  C   UNL     1     -13.552 -11.605   3.539  1.00  0.00     0.200 C 
BRANCH  32  33
ATOM     33  N   UNL     1     -13.160 -12.110   4.861  1.00  0.00    -0.340 N 
ATOM     34  C   UNL     1     -14.078 -12.703   5.702  1.00  0.00     0.243 CG0
ATOM     35  O   UNL     1     -15.270 -12.779   5.414  1.00  0.00    -0.273 OA
ATOM     36  H   UNL     1     -12.189 -12.034   5.140  1.00  0.00     0.164 HD
ATOM     37  G   UNL     1     -13.562 -13.060   7.106  1.00  0.00     0.000 G0
ENDBRANCH  32  33
BRANCH  32  38
ATOM     38  C   UNL     1     -14.055 -10.143   3.577  1.00  0.00     0.143 C 
ATOM     39  C   UNL     1     -15.555 -10.006   3.809  1.00  0.00     0.041 C 
BRANCH  38  40
ATOM     40  O   UNL     1     -13.355  -9.408   4.600  1.00  0.00    -0.391 OA
ATOM     41  H   UNL     1     -12.519  -9.100   4.200  1.00  0.00     0.211 HD
ENDBRANCH  38  40
ENDBRANCH  32  38
ENDBRANCH  29  32
ENDBRANCH  27  28
BRANCH  27  42
ATOM     42  C   UNL     1     -11.413 -11.774  -0.377  1.00  0.00     0.015 C 
ATOM     43  C   UNL     1     -10.675 -12.028  -1.696  1.00  0.00     0.010 C 
ATOM     44  C   UNL     1     -12.793 -11.165  -0.650  1.00  0.00     0.010 C 
ENDBRANCH  27  42
ENDBRANCH   3  27
TORSDOF 5
ENDMDL
MODEL 39
REMARK VINA RESULT:    -4.265      6.125      9.075
REMARK INTER + INTRA:          -9.475
REMARK INTER:                  -7.978
REMARK INTRA:                  -1.497
REMARK UNBOUND:                -1.845
REMARK SMILES CC[C@H](C)[C@H]1NC(=O)c2coc(n2)[C@H](C(C)C)NC(=O)[C@H]([C@@H](C)O)NC(=O)[C@H](C)NC(=O)c2csc1n2
REMARK SMILES IDX 11 1 13 2 12 3 9 4 10 5 7 6 6 7 8 8 5 10 36 11 35 12 34 13
REMARK SMILES IDX 37 14 33 15 31 16 32 17 30 18 28 20 29 21 3 23 4 24 2 25
REMARK SMILES IDX 1 26 14 27 18 28 19 29 20 30 21 32 25 33 26 34 27 35 22 38
REMARK SMILES IDX 23 39 24 40 15 42 16 43 17 44
REMARK H PARENT 6 9 30 19 18 31 25 36 24 41
REMARK Flexibility Score:   94.900
ROOT
ATOM      1  O   UNL     1      -9.909 -10.577   6.482  1.00  0.00    -0.446 OA
ATOM      2  N   UNL     1     -10.496 -12.717   6.086  1.00  0.00    -0.207 NA
ATOM      3  C   UNL     1     -10.513 -11.474   5.641  1.00  0.00     0.217 A 
ATOM      4  C   UNL     1      -9.812 -12.638   7.287  1.00  0.00     0.167 A 
ATOM      5  C   UNL     1      -9.457 -11.332   7.522  1.00  0.00     0.231 A 
ENDROOT
BRANCH   4   6
ATOM      6  C   UNL     1      -9.568 -13.789   8.138  1.00  0.00     0.273 C 
ATOM      7  N   UNL     1      -8.331 -13.734   8.729  1.00  0.00    -0.341 N 
ATOM      8  O   UNL     1     -10.368 -14.706   8.284  1.00  0.00    -0.267 OA
ATOM      9  H   UNL     1      -7.740 -12.959   8.442  1.00  0.00     0.164 HD
BRANCH   7  10
ATOM     10  C   UNL     1      -7.734 -14.857   9.424  1.00  0.00     0.145 C 
BRANCH  10  11
ATOM     11  C   UNL     1      -7.435 -15.932   8.389  1.00  0.00     0.116 A 
ATOM     12  S   UNL     1      -6.908 -17.491   8.903  1.00  0.00    -0.124 S 
ATOM     13  C   UNL     1      -6.861 -18.004   7.273  1.00  0.00     0.101 A 
ATOM     14  N   UNL     1      -7.561 -15.781   7.080  1.00  0.00    -0.234 NA
ATOM     15  C   UNL     1      -7.247 -16.978   6.432  1.00  0.00     0.139 A 
BRANCH  15  16
ATOM     16  C   UNL     1      -7.337 -17.111   4.976  1.00  0.00     0.271 C 
ATOM     17  O   UNL     1      -6.753 -17.990   4.352  1.00  0.00    -0.267 OA
ATOM     18  N   UNL     1      -8.138 -16.158   4.384  1.00  0.00    -0.339 N 
ATOM     19  H   UNL     1      -8.476 -15.419   4.996  1.00  0.00     0.164 HD
BRANCH  18  20
ATOM     20  C   UNL     1      -8.291 -16.094   2.937  1.00  0.00     0.168 CG0
ATOM     21  C   UNL     1      -9.682 -16.563   2.503  1.00  0.00     0.041 C 
ATOM     22  G   UNL     1      -8.078 -14.677   2.380  1.00  0.00     0.000 G0
ENDBRANCH  18  20
ENDBRANCH  15  16
ENDBRANCH  10  11
BRANCH  10  23
ATOM     23  C   UNL     1      -6.473 -14.446  10.229  1.00  0.00     0.015 C 
ATOM     24  C   UNL     1      -6.000 -13.014   9.929  1.00  0.00     0.010 C 
BRANCH  23  25
ATOM     25  C   UNL     1      -6.664 -14.593  11.756  1.00  0.00     0.002 C 
ATOM     26  C   UNL     1      -6.975 -13.285  12.470  1.00  0.00     0.004 C 
ENDBRANCH  23  25
ENDBRANCH  10  23
ENDBRANCH   7  10
ENDBRANCH   4   6
BRANCH   3  27
ATOM     27  C   UNL     1     -11.155 -10.972   4.377  1.00  0.00     0.171 C 
BRANCH  27  28
ATOM     28  N   UNL     1     -10.714 -11.828   3.281  1.00  0.00    -0.342 N 
ATOM     29  C   UNL     1      -9.585 -11.566   2.537  1.00  0.00     0.245 C 
ATOM     30  O   UNL     1      -8.857 -10.598   2.751  1.00  0.00    -0.273 OA
ATOM     31  H   UNL     1     -11.202 -12.708   3.119  1.00  0.00     0.164 HD
BRANCH  29  32
ATOM     32  C   UNL     1      -9.207 -12.651   1.507  1.00  0.00     0.200 C 
BRANCH  32  33
ATOM     33  N   UNL     1      -9.238 -13.956   2.181  1.00  0.00    -0.340 N 
ATOM     34  C   UNL     1      -8.087 -14.694   2.363  1.00  0.00     0.243 CG0
ATOM     35  O   UNL     1      -7.002 -14.327   1.917  1.00  0.00    -0.273 OA
ATOM     36  H   UNL     1     -10.124 -14.299   2.532  1.00  0.00     0.164 HD
ATOM     37  G   UNL     1      -8.284 -16.098   2.958  1.00  0.00     0.000 G0
ENDBRANCH  32  33
BRANCH  32  38
ATOM     38  C   UNL     1     -10.124 -12.594   0.263  1.00  0.00     0.143 C 
ATOM     39  C   UNL     1     -10.028 -11.290  -0.521  1.00  0.00     0.041 C 
BRANCH  38  40
ATOM     40  O   UNL     1      -9.825 -13.693  -0.620  1.00  0.00    -0.391 OA
ATOM     41  H   UNL     1      -9.940 -13.359  -1.530  1.00  0.00     0.211 HD
ENDBRANCH  38  40
ENDBRANCH  32  38
ENDBRANCH  29  32
ENDBRANCH  27  28
BRANCH  27  42
ATOM     42  C   UNL     1     -12.694 -10.798   4.379  1.00  0.00     0.015 C 
ATOM     43  C   UNL     1     -13.431 -11.414   3.184  1.00  0.00     0.010 C 
ATOM     44  C   UNL     1     -13.322 -11.275   5.693  1.00  0.00     0.010 C 
ENDBRANCH  27  42
ENDBRANCH   3  27
TORSDOF 5
ENDMDL
MODEL 40
REMARK VINA RESULT:    -4.263     13.493     16.101
REMARK INTER + INTRA:          -9.473
REMARK INTER:                  -6.871
REMARK INTRA:                  -2.602
REMARK UNBOUND:                -1.845
REMARK SMILES CC[C@H](C)[C@H]1NC(=O)c2coc(n2)[C@H](C(C)C)NC(=O)[C@H]([C@@H](C)O)NC(=O)[C@H](C)NC(=O)c2csc1n2
REMARK SMILES IDX 11 1 13 2 12 3 9 4 10 5 7 6 6 7 8 8 5 10 36 11 35 12 34 13
REMARK SMILES IDX 37 14 33 15 31 16 32 17 30 18 28 20 29 21 3 23 4 24 2 25
REMARK SMILES IDX 1 26 14 27 18 28 19 29 20 30 21 32 25 33 26 34 27 35 22 38
REMARK SMILES IDX 23 39 24 40 15 42 16 43 17 44
REMARK H PARENT 6 9 30 19 18 31 25 36 24 41
REMARK Flexibility Score:   94.900
ROOT
ATOM      1  O   UNL     1      -0.275 -13.029  11.038  1.00  0.00    -0.446 OA
ATOM      2  N   UNL     1      -2.391 -13.531  11.629  1.00  0.00    -0.207 NA
ATOM      3  C   UNL     1      -1.608 -12.747  10.910  1.00  0.00     0.217 A 
ATOM      4  C   UNL     1      -1.517 -14.404  12.252  1.00  0.00     0.167 A 
ATOM      5  C   UNL     1      -0.229 -14.093  11.888  1.00  0.00     0.231 A 
ENDROOT
BRANCH   4   6
ATOM      6  C   UNL     1      -1.952 -15.446  13.165  1.00  0.00     0.273 C 
ATOM      7  N   UNL     1      -3.279 -15.749  12.997  1.00  0.00    -0.341 N 
ATOM      8  O   UNL     1      -1.220 -15.967  13.998  1.00  0.00    -0.267 OA
ATOM      9  H   UNL     1      -3.783 -15.170  12.331  1.00  0.00     0.164 HD
BRANCH   7  10
ATOM     10  C   UNL     1      -4.029 -16.566  13.931  1.00  0.00     0.145 C 
BRANCH  10  11
ATOM     11  C   UNL     1      -4.477 -15.666  15.074  1.00  0.00     0.116 A 
ATOM     12  S   UNL     1      -4.696 -16.330  16.649  1.00  0.00    -0.124 S 
ATOM     13  C   UNL     1      -5.112 -14.780  17.236  1.00  0.00     0.101 A 
ATOM     14  N   UNL     1      -4.710 -14.368  14.970  1.00  0.00    -0.234 NA
ATOM     15  C   UNL     1      -5.060 -13.847  16.218  1.00  0.00     0.139 A 
BRANCH  15  16
ATOM     16  C   UNL     1      -5.337 -12.421  16.407  1.00  0.00     0.271 C 
ATOM     17  O   UNL     1      -6.185 -12.007  17.188  1.00  0.00    -0.267 OA
ATOM     18  N   UNL     1      -4.552 -11.600  15.625  1.00  0.00    -0.339 N 
ATOM     19  H   UNL     1      -3.966 -12.067  14.938  1.00  0.00     0.164 HD
BRANCH  18  20
ATOM     20  C   UNL     1      -4.734 -10.155  15.630  1.00  0.00     0.168 CG0
ATOM     21  C   UNL     1      -3.546  -9.447  16.285  1.00  0.00     0.041 C 
ATOM     22  G   UNL     1      -4.908  -9.573  14.218  1.00  0.00     0.000 G0
ENDBRANCH  18  20
ENDBRANCH  15  16
ENDBRANCH  10  11
BRANCH  10  23
ATOM     23  C   UNL     1      -5.219 -17.293  13.250  1.00  0.00     0.015 C 
ATOM     24  C   UNL     1      -5.345 -16.980  11.749  1.00  0.00     0.010 C 
BRANCH  23  25
ATOM     25  C   UNL     1      -5.166 -18.827  13.432  1.00  0.00     0.002 C 
ATOM     26  C   UNL     1      -3.963 -19.314  14.228  1.00  0.00     0.004 C 
ENDBRANCH  23  25
ENDBRANCH  10  23
ENDBRANCH   7  10
ENDBRANCH   4   6
BRANCH   3  27
ATOM     27  C   UNL     1      -2.031 -11.590  10.045  1.00  0.00     0.171 C 
BRANCH  27  28
ATOM     28  N   UNL     1      -2.348 -10.469  10.923  1.00  0.00    -0.342 N 
ATOM     29  C   UNL     1      -3.623  -9.971  11.069  1.00  0.00     0.245 C 
ATOM     30  O   UNL     1      -4.594 -10.446  10.481  1.00  0.00    -0.273 OA
ATOM     31  H   UNL     1      -1.616 -10.099  11.529  1.00  0.00     0.164 HD
BRANCH  29  32
ATOM     32  C   UNL     1      -3.783  -8.869  12.138  1.00  0.00     0.200 C 
BRANCH  32  33
ATOM     33  N   UNL     1      -3.772  -9.506  13.461  1.00  0.00    -0.340 N 
ATOM     34  C   UNL     1      -4.914  -9.575  14.231  1.00  0.00     0.243 CG0
ATOM     35  O   UNL     1      -5.970  -9.056  13.876  1.00  0.00    -0.273 OA
ATOM     36  H   UNL     1      -2.908  -9.917  13.794  1.00  0.00     0.164 HD
ATOM     37  G   UNL     1      -4.729 -10.143  15.648  1.00  0.00     0.000 G0
ENDBRANCH  32  33
BRANCH  32  38
ATOM     38  C   UNL     1      -2.702  -7.774  11.987  1.00  0.00     0.143 C 
ATOM     39  C   UNL     1      -3.135  -6.400  12.484  1.00  0.00     0.041 C 
BRANCH  38  40
ATOM     40  O   UNL     1      -1.503  -8.166  12.682  1.00  0.00    -0.391 OA
ATOM     41  H   UNL     1      -1.747  -8.274  13.621  1.00  0.00     0.211 HD
ENDBRANCH  38  40
ENDBRANCH  32  38
ENDBRANCH  29  32
ENDBRANCH  27  28
BRANCH  27  42
ATOM     42  C   UNL     1      -1.075 -11.167   8.903  1.00  0.00     0.015 C 
ATOM     43  C   UNL     1      -1.729 -10.978   7.530  1.00  0.00     0.010 C 
ATOM     44  C   UNL     1      -0.251  -9.930   9.275  1.00  0.00     0.010 C 
ENDBRANCH  27  42
ENDBRANCH   3  27
TORSDOF 5
ENDMDL
MODEL 41
REMARK VINA RESULT:    -4.243      4.646      8.390
REMARK INTER + INTRA:          -9.437
REMARK INTER:                  -7.147
REMARK INTRA:                  -2.290
REMARK UNBOUND:                -1.845
REMARK SMILES CC[C@H](C)[C@H]1NC(=O)c2coc(n2)[C@H](C(C)C)NC(=O)[C@H]([C@@H](C)O)NC(=O)[C@H](C)NC(=O)c2csc1n2
REMARK SMILES IDX 11 1 13 2 12 3 9 4 10 5 7 6 6 7 8 8 5 10 36 11 35 12 34 13
REMARK SMILES IDX 37 14 33 15 31 16 32 17 30 18 28 20 29 21 3 23 4 24 2 25
REMARK SMILES IDX 1 26 14 27 18 28 19 29 20 30 21 32 25 33 26 34 27 35 22 38
REMARK SMILES IDX 23 39 24 40 15 42 16 43 17 44
REMARK H PARENT 6 9 30 19 18 31 25 36 24 41
REMARK Flexibility Score:   94.900
ROOT
ATOM      1  O   UNL     1     -10.657 -11.775   7.258  1.00  0.00    -0.446 OA
ATOM      2  N   UNL     1     -12.088 -13.490   6.957  1.00  0.00    -0.207 NA
ATOM      3  C   UNL     1     -11.853 -12.207   6.750  1.00  0.00     0.217 A 
ATOM      4  C   UNL     1     -10.960 -13.939   7.623  1.00  0.00     0.167 A 
ATOM      5  C   UNL     1     -10.092 -12.889   7.803  1.00  0.00     0.231 A 
ENDROOT
BRANCH   4   6
ATOM      6  C   UNL     1     -10.794 -15.312   8.066  1.00  0.00     0.273 C 
ATOM      7  N   UNL     1      -9.649 -15.875   7.562  1.00  0.00    -0.341 N 
ATOM      8  O   UNL     1     -11.598 -15.894   8.784  1.00  0.00    -0.267 OA
ATOM      9  H   UNL     1      -9.127 -15.301   6.906  1.00  0.00     0.164 HD
BRANCH   7  10
ATOM     10  C   UNL     1      -9.365 -17.295   7.639  1.00  0.00     0.145 C 
BRANCH  10  11
ATOM     11  C   UNL     1     -10.103 -17.975   6.496  1.00  0.00     0.116 A 
ATOM     12  S   UNL     1     -10.174 -19.696   6.428  1.00  0.00    -0.124 S 
ATOM     13  C   UNL     1     -11.122 -19.593   5.009  1.00  0.00     0.101 A 
ATOM     14  N   UNL     1     -10.731 -17.344   5.517  1.00  0.00    -0.234 NA
ATOM     15  C   UNL     1     -11.336 -18.272   4.666  1.00  0.00     0.139 A 
BRANCH  15  16
ATOM     16  C   UNL     1     -12.135 -17.852   3.512  1.00  0.00     0.271 C 
ATOM     17  O   UNL     1     -12.343 -18.579   2.547  1.00  0.00    -0.267 OA
ATOM     18  N   UNL     1     -12.627 -16.568   3.621  1.00  0.00    -0.339 N 
ATOM     19  H   UNL     1     -12.293 -16.030   4.417  1.00  0.00     0.164 HD
BRANCH  18  20
ATOM     20  C   UNL     1     -13.387 -15.957   2.539  1.00  0.00     0.168 CG0
ATOM     21  C   UNL     1     -14.845 -15.729   2.943  1.00  0.00     0.041 C 
ATOM     22  G   UNL     1     -12.805 -14.605   2.095  1.00  0.00     0.000 G0
ENDBRANCH  18  20
ENDBRANCH  15  16
ENDBRANCH  10  11
BRANCH  10  23
ATOM     23  C   UNL     1      -7.841 -17.589   7.618  1.00  0.00     0.015 C 
ATOM     24  C   UNL     1      -7.237 -17.570   6.204  1.00  0.00     0.010 C 
BRANCH  23  25
ATOM     25  C   UNL     1      -7.033 -16.624   8.515  1.00  0.00     0.002 C 
ATOM     26  C   UNL     1      -5.595 -17.063   8.757  1.00  0.00     0.004 C 
ENDBRANCH  23  25
ENDBRANCH  10  23
ENDBRANCH   7  10
ENDBRANCH   4   6
BRANCH   3  27
ATOM     27  C   UNL     1     -12.765 -11.214   6.084  1.00  0.00     0.171 C 
BRANCH  27  28
ATOM     28  N   UNL     1     -13.138 -11.754   4.781  1.00  0.00    -0.342 N 
ATOM     29  C   UNL     1     -12.546 -11.347   3.606  1.00  0.00     0.245 C 
ATOM     30  O   UNL     1     -11.647 -10.509   3.570  1.00  0.00    -0.273 OA
ATOM     31  H   UNL     1     -13.794 -12.534   4.743  1.00  0.00     0.164 HD
BRANCH  29  32
ATOM     32  C   UNL     1     -12.981 -12.124   2.345  1.00  0.00     0.200 C 
BRANCH  32  33
ATOM     33  N   UNL     1     -13.337 -13.491   2.746  1.00  0.00    -0.340 N 
ATOM     34  C   UNL     1     -12.802 -14.588   2.102  1.00  0.00     0.243 CG0
ATOM     35  O   UNL     1     -12.059 -14.472   1.130  1.00  0.00    -0.273 OA
ATOM     36  H   UNL     1     -13.972 -13.618   3.525  1.00  0.00     0.164 HD
ATOM     37  G   UNL     1     -13.366 -15.952   2.531  1.00  0.00     0.000 G0
ENDBRANCH  32  33
BRANCH  32  38
ATOM     38  C   UNL     1     -14.124 -11.397   1.599  1.00  0.00     0.143 C 
ATOM     39  C   UNL     1     -15.232 -12.320   1.108  1.00  0.00     0.041 C 
BRANCH  38  40
ATOM     40  O   UNL     1     -14.700 -10.385   2.448  1.00  0.00    -0.391 OA
ATOM     41  H   UNL     1     -14.248 -10.453   3.310  1.00  0.00     0.211 HD
ENDBRANCH  38  40
ENDBRANCH  32  38
ENDBRANCH  29  32
ENDBRANCH  27  28
BRANCH  27  42
ATOM     42  C   UNL     1     -14.006 -10.740   6.880  1.00  0.00     0.015 C 
ATOM     43  C   UNL     1     -13.806 -10.600   8.394  1.00  0.00     0.010 C 
ATOM     44  C   UNL     1     -14.599  -9.451   6.301  1.00  0.00     0.010 C 
ENDBRANCH  27  42
ENDBRANCH   3  27
TORSDOF 5
ENDMDL
MODEL 42
REMARK VINA RESULT:    -4.227      3.615      6.423
REMARK INTER + INTRA:          -9.407
REMARK INTER:                  -8.331
REMARK INTRA:                  -1.076
REMARK UNBOUND:                -1.845
REMARK SMILES CC[C@H](C)[C@H]1NC(=O)c2coc(n2)[C@H](C(C)C)NC(=O)[C@H]([C@@H](C)O)NC(=O)[C@H](C)NC(=O)c2csc1n2
REMARK SMILES IDX 11 1 13 2 12 3 9 4 10 5 7 6 6 7 8 8 5 10 36 11 35 12 34 13
REMARK SMILES IDX 37 14 33 15 31 16 32 17 30 18 28 20 29 21 3 23 4 24 2 25
REMARK SMILES IDX 1 26 14 27 18 28 19 29 20 30 21 32 25 33 26 34 27 35 22 38
REMARK SMILES IDX 23 39 24 40 15 42 16 43 17 44
REMARK H PARENT 6 9 30 19 18 31 25 36 24 41
REMARK Flexibility Score:   94.900
ROOT
ATOM      1  O   UNL     1      -9.420 -11.062   5.042  1.00  0.00    -0.446 OA
ATOM      2  N   UNL     1     -11.631 -11.411   4.771  1.00  0.00    -0.207 NA
ATOM      3  C   UNL     1     -10.587 -11.548   5.569  1.00  0.00     0.217 A 
ATOM      4  C   UNL     1     -11.122 -10.770   3.655  1.00  0.00     0.167 A 
ATOM      5  C   UNL     1      -9.776 -10.559   3.827  1.00  0.00     0.231 A 
ENDROOT
BRANCH   4   6
ATOM      6  C   UNL     1     -11.932 -10.427   2.499  1.00  0.00     0.273 C 
ATOM      7  N   UNL     1     -13.062  -9.735   2.854  1.00  0.00    -0.341 N 
ATOM      8  O   UNL     1     -11.644 -10.746   1.351  1.00  0.00    -0.267 OA
ATOM      9  H   UNL     1     -13.215  -9.625   3.853  1.00  0.00     0.164 HD
BRANCH   7  10
ATOM     10  C   UNL     1     -14.160  -9.488   1.940  1.00  0.00     0.145 C 
BRANCH  10  11
ATOM     11  C   UNL     1     -15.055 -10.718   1.951  1.00  0.00     0.116 A 
ATOM     12  S   UNL     1     -16.127 -11.007   0.633  1.00  0.00    -0.124 S 
ATOM     13  C   UNL     1     -16.644 -12.454   1.381  1.00  0.00     0.101 A 
ATOM     14  N   UNL     1     -15.078 -11.630   2.909  1.00  0.00    -0.234 NA
ATOM     15  C   UNL     1     -15.981 -12.644   2.578  1.00  0.00     0.139 A 
BRANCH  15  16
ATOM     16  C   UNL     1     -16.183 -13.807   3.444  1.00  0.00     0.271 C 
ATOM     17  O   UNL     1     -17.160 -13.930   4.175  1.00  0.00    -0.267 OA
ATOM     18  N   UNL     1     -15.175 -14.743   3.353  1.00  0.00    -0.339 N 
ATOM     19  H   UNL     1     -14.367 -14.474   2.797  1.00  0.00     0.164 HD
BRANCH  18  20
ATOM     20  C   UNL     1     -15.173 -15.934   4.192  1.00  0.00     0.168 CG0
ATOM     21  C   UNL     1     -14.811 -17.182   3.384  1.00  0.00     0.041 C 
ATOM     22  G   UNL     1     -14.188 -15.832   5.367  1.00  0.00     0.000 G0
ENDBRANCH  18  20
ENDBRANCH  15  16
ENDBRANCH  10  11
BRANCH  10  23
ATOM     23  C   UNL     1     -14.934  -8.190   2.292  1.00  0.00     0.015 C 
ATOM     24  C   UNL     1     -15.726  -7.613   1.107  1.00  0.00     0.010 C 
BRANCH  23  25
ATOM     25  C   UNL     1     -15.895  -8.372   3.488  1.00  0.00     0.002 C 
ATOM     26  C   UNL     1     -15.402  -7.736   4.780  1.00  0.00     0.004 C 
ENDBRANCH  23  25
ENDBRANCH  10  23
ENDBRANCH   7  10
ENDBRANCH   4   6
BRANCH   3  27
ATOM     27  C   UNL     1     -10.560 -12.208   6.921  1.00  0.00     0.171 C 
BRANCH  27  28
ATOM     28  N   UNL     1     -11.296 -13.464   6.819  1.00  0.00    -0.342 N 
ATOM     29  C   UNL     1     -10.983 -14.442   5.902  1.00  0.00     0.245 C 
ATOM     30  O   UNL     1     -10.048 -14.336   5.109  1.00  0.00    -0.273 OA
ATOM     31  H   UNL     1     -12.009 -13.671   7.517  1.00  0.00     0.164 HD
BRANCH  29  32
ATOM     32  C   UNL     1     -11.790 -15.751   6.032  1.00  0.00     0.200 C 
BRANCH  32  33
ATOM     33  N   UNL     1     -12.849 -15.742   5.015  1.00  0.00    -0.340 N 
ATOM     34  C   UNL     1     -14.180 -15.828   5.368  1.00  0.00     0.243 CG0
ATOM     35  O   UNL     1     -14.535 -15.979   6.535  1.00  0.00    -0.273 OA
ATOM     36  H   UNL     1     -12.586 -15.649   4.041  1.00  0.00     0.164 HD
ATOM     37  G   UNL     1     -15.172 -15.946   4.200  1.00  0.00     0.000 G0
ENDBRANCH  32  33
BRANCH  32  38
ATOM     38  C   UNL     1     -10.873 -16.992   5.936  1.00  0.00     0.143 C 
ATOM     39  C   UNL     1     -10.088 -17.286   7.209  1.00  0.00     0.041 C 
BRANCH  38  40
ATOM     40  O   UNL     1     -11.650 -18.154   5.588  1.00  0.00    -0.391 OA
ATOM     41  H   UNL     1     -11.972 -18.012   4.678  1.00  0.00     0.211 HD
ENDBRANCH  38  40
ENDBRANCH  32  38
ENDBRANCH  29  32
ENDBRANCH  27  28
BRANCH  27  42
ATOM     42  C   UNL     1      -9.177 -12.411   7.587  1.00  0.00     0.015 C 
ATOM     43  C   UNL     1      -8.674 -11.239   8.437  1.00  0.00     0.010 C 
ATOM     44  C   UNL     1      -9.114 -13.715   8.390  1.00  0.00     0.010 C 
ENDBRANCH  27  42
ENDBRANCH   3  27
TORSDOF 5
ENDMDL
MODEL 43
REMARK VINA RESULT:    -4.201     11.748     14.889
REMARK INTER + INTRA:          -9.361
REMARK INTER:                  -7.222
REMARK INTRA:                  -2.138
REMARK UNBOUND:                -1.845
REMARK SMILES CC[C@H](C)[C@H]1NC(=O)c2coc(n2)[C@H](C(C)C)NC(=O)[C@H]([C@@H](C)O)NC(=O)[C@H](C)NC(=O)c2csc1n2
REMARK SMILES IDX 11 1 13 2 12 3 9 4 10 5 7 6 6 7 8 8 5 10 36 11 35 12 34 13
REMARK SMILES IDX 37 14 33 15 31 16 32 17 30 18 28 20 29 21 3 23 4 24 2 25
REMARK SMILES IDX 1 26 14 27 18 28 19 29 20 30 21 32 25 33 26 34 27 35 22 38
REMARK SMILES IDX 23 39 24 40 15 42 16 43 17 44
REMARK H PARENT 6 9 30 19 18 31 25 36 24 41
REMARK Flexibility Score:   94.900
ROOT
ATOM      1  O   UNL     1       0.254 -15.032   9.954  1.00  0.00    -0.446 OA
ATOM      2  N   UNL     1      -1.776 -14.053   9.953  1.00  0.00    -0.207 NA
ATOM      3  C   UNL     1      -0.559 -14.058   9.439  1.00  0.00     0.217 A 
ATOM      4  C   UNL     1      -1.772 -15.111  10.846  1.00  0.00     0.167 A 
ATOM      5  C   UNL     1      -0.533 -15.703  10.841  1.00  0.00     0.231 A 
ENDROOT
BRANCH   4   6
ATOM      6  C   UNL     1      -2.922 -15.468  11.658  1.00  0.00     0.273 C 
ATOM      7  N   UNL     1      -4.104 -15.203  11.013  1.00  0.00    -0.341 N 
ATOM      8  O   UNL     1      -2.836 -15.927  12.791  1.00  0.00    -0.267 OA
ATOM      9  H   UNL     1      -4.020 -14.736  10.115  1.00  0.00     0.164 HD
BRANCH   7  10
ATOM     10  C   UNL     1      -5.392 -15.229  11.678  1.00  0.00     0.145 C 
BRANCH  10  11
ATOM     11  C   UNL     1      -5.723 -13.804  12.098  1.00  0.00     0.116 A 
ATOM     12  S   UNL     1      -6.540 -13.520  13.588  1.00  0.00    -0.124 S 
ATOM     13  C   UNL     1      -6.467 -11.837  13.299  1.00  0.00     0.101 A 
ATOM     14  N   UNL     1      -5.418 -12.720  11.405  1.00  0.00    -0.234 NA
ATOM     15  C   UNL     1      -5.829 -11.580  12.101  1.00  0.00     0.139 A 
BRANCH  15  16
ATOM     16  C   UNL     1      -5.584 -10.232  11.583  1.00  0.00     0.271 C 
ATOM     17  O   UNL     1      -6.462  -9.548  11.069  1.00  0.00    -0.267 OA
ATOM     18  N   UNL     1      -4.279  -9.813  11.733  1.00  0.00    -0.339 N 
ATOM     19  H   UNL     1      -3.624 -10.513  12.072  1.00  0.00     0.164 HD
BRANCH  18  20
ATOM     20  C   UNL     1      -3.836  -8.526  11.216  1.00  0.00     0.168 CG0
ATOM     21  C   UNL     1      -3.267  -7.645  12.330  1.00  0.00     0.041 C 
ATOM     22  G   UNL     1      -2.759  -8.661  10.128  1.00  0.00     0.000 G0
ENDBRANCH  18  20
ENDBRANCH  15  16
ENDBRANCH  10  11
BRANCH  10  23
ATOM     23  C   UNL     1      -6.498 -15.856  10.788  1.00  0.00     0.015 C 
ATOM     24  C   UNL     1      -6.429 -15.401   9.321  1.00  0.00     0.010 C 
BRANCH  23  25
ATOM     25  C   UNL     1      -6.494 -17.401  10.828  1.00  0.00     0.002 C 
ATOM     26  C   UNL     1      -7.573 -18.045   9.969  1.00  0.00     0.004 C 
ENDBRANCH  23  25
ENDBRANCH  10  23
ENDBRANCH   7  10
ENDBRANCH   4   6
BRANCH   3  27
ATOM     27  C   UNL     1       0.001 -13.098   8.426  1.00  0.00     0.171 C 
BRANCH  27  28
ATOM     28  N   UNL     1       0.114 -11.791   9.064  1.00  0.00    -0.342 N 
ATOM     29  C   UNL     1      -0.636 -10.703   8.676  1.00  0.00     0.245 C 
ATOM     30  O   UNL     1      -1.468 -10.757   7.771  1.00  0.00    -0.273 OA
ATOM     31  H   UNL     1       0.698 -11.699   9.894  1.00  0.00     0.164 HD
BRANCH  29  32
ATOM     32  C   UNL     1      -0.473  -9.443   9.551  1.00  0.00     0.200 C 
BRANCH  32  33
ATOM     33  N   UNL     1      -1.625  -9.359  10.457  1.00  0.00    -0.340 N 
ATOM     34  C   UNL     1      -2.756  -8.647  10.113  1.00  0.00     0.243 CG0
ATOM     35  O   UNL     1      -2.825  -8.003   9.068  1.00  0.00    -0.273 OA
ATOM     36  H   UNL     1      -1.585  -9.854  11.340  1.00  0.00     0.164 HD
ATOM     37  G   UNL     1      -3.827  -8.528  11.209  1.00  0.00     0.000 G0
ENDBRANCH  32  33
BRANCH  32  38
ATOM     38  C   UNL     1       0.882  -9.445  10.297  1.00  0.00     0.143 C 
ATOM     39  C   UNL     1       1.406  -8.055  10.639  1.00  0.00     0.041 C 
BRANCH  38  40
ATOM     40  O   UNL     1       0.775 -10.215  11.510  1.00  0.00    -0.391 OA
ATOM     41  H   UNL     1      -0.157 -10.492  11.584  1.00  0.00     0.211 HD
ENDBRANCH  38  40
ENDBRANCH  32  38
ENDBRANCH  29  32
ENDBRANCH  27  28
BRANCH  27  42
ATOM     42  C   UNL     1       1.317 -13.500   7.714  1.00  0.00     0.015 C 
ATOM     43  C   UNL     1       1.289 -14.848   6.986  1.00  0.00     0.010 C 
ATOM     44  C   UNL     1       1.818 -12.399   6.775  1.00  0.00     0.010 C 
ENDBRANCH  27  42
ENDBRANCH   3  27
TORSDOF 5
ENDMDL
MODEL 44
REMARK VINA RESULT:    -4.182     22.314     25.044
REMARK INTER + INTRA:          -9.327
REMARK INTER:                  -6.862
REMARK INTRA:                  -2.464
REMARK UNBOUND:                -1.845
REMARK SMILES CC[C@H](C)[C@H]1NC(=O)c2coc(n2)[C@H](C(C)C)NC(=O)[C@H]([C@@H](C)O)NC(=O)[C@H](C)NC(=O)c2csc1n2
REMARK SMILES IDX 11 1 13 2 12 3 9 4 10 5 7 6 6 7 8 8 5 10 36 11 35 12 34 13
REMARK SMILES IDX 37 14 33 15 31 16 32 17 30 18 28 20 29 21 3 23 4 24 2 25
REMARK SMILES IDX 1 26 14 27 18 28 19 29 20 30 21 32 25 33 26 34 27 35 22 38
REMARK SMILES IDX 23 39 24 40 15 42 16 43 17 44
REMARK H PARENT 6 9 30 19 18 31 25 36 24 41
REMARK Flexibility Score:   94.900
ROOT
ATOM      1  O   UNL     1       3.758  -0.155   6.324  1.00  0.00    -0.446 OA
ATOM      2  N   UNL     1       5.766   0.588   7.030  1.00  0.00    -0.207 NA
ATOM      3  C   UNL     1       4.492   0.882   6.835  1.00  0.00     0.217 A 
ATOM      4  C   UNL     1       5.871  -0.737   6.646  1.00  0.00     0.167 A 
ATOM      5  C   UNL     1       4.645  -1.184   6.217  1.00  0.00     0.231 A 
ENDROOT
BRANCH   4   6
ATOM      6  C   UNL     1       7.120  -1.477   6.682  1.00  0.00     0.273 C 
ATOM      7  N   UNL     1       7.003  -2.640   7.400  1.00  0.00    -0.341 N 
ATOM      8  O   UNL     1       8.154  -1.087   6.153  1.00  0.00    -0.267 OA
ATOM      9  H   UNL     1       6.109  -2.787   7.859  1.00  0.00     0.164 HD
BRANCH   7  10
ATOM     10  C   UNL     1       8.143  -3.440   7.803  1.00  0.00     0.145 C 
BRANCH  10  11
ATOM     11  C   UNL     1       8.656  -2.879   9.122  1.00  0.00     0.116 A 
ATOM     12  S   UNL     1      10.075  -3.544   9.839  1.00  0.00    -0.124 S 
ATOM     13  C   UNL     1       9.951  -2.413  11.115  1.00  0.00     0.101 A 
ATOM     14  N   UNL     1       8.100  -1.881   9.788  1.00  0.00    -0.234 NA
ATOM     15  C   UNL     1       8.852  -1.596  10.930  1.00  0.00     0.139 A 
BRANCH  15  16
ATOM     16  C   UNL     1       8.488  -0.506  11.839  1.00  0.00     0.271 C 
ATOM     17  O   UNL     1       9.067  -0.305  12.901  1.00  0.00    -0.267 OA
ATOM     18  N   UNL     1       7.440   0.264  11.383  1.00  0.00    -0.339 N 
ATOM     19  H   UNL     1       6.974  -0.071  10.544  1.00  0.00     0.164 HD
BRANCH  18  20
ATOM     20  C   UNL     1       6.897   1.351  12.187  1.00  0.00     0.168 CG0
ATOM     21  C   UNL     1       7.500   2.698  11.781  1.00  0.00     0.041 C 
ATOM     22  G   UNL     1       5.369   1.468  12.074  1.00  0.00     0.000 G0
ENDBRANCH  18  20
ENDBRANCH  15  16
ENDBRANCH  10  11
BRANCH  10  23
ATOM     23  C   UNL     1       7.796  -4.950   7.897  1.00  0.00     0.015 C 
ATOM     24  C   UNL     1       6.314  -5.215   8.209  1.00  0.00     0.010 C 
BRANCH  23  25
ATOM     25  C   UNL     1       8.182  -5.733   6.622  1.00  0.00     0.002 C 
ATOM     26  C   UNL     1       9.387  -5.163   5.887  1.00  0.00     0.004 C 
ENDBRANCH  23  25
ENDBRANCH  10  23
ENDBRANCH   7  10
ENDBRANCH   4   6
BRANCH   3  27
ATOM     27  C   UNL     1       3.822   2.209   7.064  1.00  0.00     0.171 C 
BRANCH  27  28
ATOM     28  N   UNL     1       3.985   2.554   8.472  1.00  0.00    -0.342 N 
ATOM     29  C   UNL     1       3.059   2.222   9.435  1.00  0.00     0.245 C 
ATOM     30  O   UNL     1       2.032   1.595   9.182  1.00  0.00    -0.273 OA
ATOM     31  H   UNL     1       4.864   2.972   8.775  1.00  0.00     0.164 HD
BRANCH  29  32
ATOM     32  C   UNL     1       3.467   2.558  10.886  1.00  0.00     0.200 C 
BRANCH  32  33
ATOM     33  N   UNL     1       4.897   2.266  11.042  1.00  0.00    -0.340 N 
ATOM     34  C   UNL     1       5.357   1.465  12.066  1.00  0.00     0.243 CG0
ATOM     35  O   UNL     1       4.603   1.014  12.927  1.00  0.00    -0.273 OA
ATOM     36  H   UNL     1       5.547   2.649  10.365  1.00  0.00     0.164 HD
ATOM     37  G   UNL     1       6.885   1.355  12.193  1.00  0.00     0.000 G0
ENDBRANCH  32  33
BRANCH  32  38
ATOM     38  C   UNL     1       3.105   4.016  11.251  1.00  0.00     0.143 C 
ATOM     39  C   UNL     1       4.264   4.997  11.116  1.00  0.00     0.041 C 
BRANCH  38  40
ATOM     40  O   UNL     1       2.009   4.472  10.434  1.00  0.00    -0.391 OA
ATOM     41  H   UNL     1       2.304   5.300  10.009  1.00  0.00     0.211 HD
ENDBRANCH  38  40
ENDBRANCH  32  38
ENDBRANCH  29  32
ENDBRANCH  27  28
BRANCH  27  42
ATOM     42  C   UNL     1       4.228   3.382   6.139  1.00  0.00     0.015 C 
ATOM     43  C   UNL     1       5.192   4.404   6.752  1.00  0.00     0.010 C 
ATOM     44  C   UNL     1       4.764   2.889   4.791  1.00  0.00     0.010 C 
ENDBRANCH  27  42
ENDBRANCH   3  27
TORSDOF 5
ENDMDL
MODEL 45
REMARK VINA RESULT:    -4.104     21.123     23.403
REMARK INTER + INTRA:          -9.188
REMARK INTER:                  -6.756
REMARK INTRA:                  -2.432
REMARK UNBOUND:                -1.845
REMARK SMILES CC[C@H](C)[C@H]1NC(=O)c2coc(n2)[C@H](C(C)C)NC(=O)[C@H]([C@@H](C)O)NC(=O)[C@H](C)NC(=O)c2csc1n2
REMARK SMILES IDX 11 1 13 2 12 3 9 4 10 5 7 6 6 7 8 8 5 10 36 11 35 12 34 13
REMARK SMILES IDX 37 14 33 15 31 16 32 17 30 18 28 20 29 21 3 23 4 24 2 25
REMARK SMILES IDX 1 26 14 27 18 28 19 29 20 30 21 32 25 33 26 34 27 35 22 38
REMARK SMILES IDX 23 39 24 40 15 42 16 43 17 44
REMARK H PARENT 6 9 30 19 18 31 25 36 24 41
REMARK Flexibility Score:   94.900
ROOT
ATOM      1  O   UNL     1       2.034  -0.126  12.838  1.00  0.00    -0.446 OA
ATOM      2  N   UNL     1       3.930  -0.560  11.699  1.00  0.00    -0.207 NA
ATOM      3  C   UNL     1       3.220   0.348  12.343  1.00  0.00     0.217 A 
ATOM      4  C   UNL     1       3.175  -1.716  11.799  1.00  0.00     0.167 A 
ATOM      5  C   UNL     1       2.022  -1.445  12.494  1.00  0.00     0.231 A 
ENDROOT
BRANCH   4   6
ATOM      6  C   UNL     1       3.577  -2.981  11.209  1.00  0.00     0.273 C 
ATOM      7  N   UNL     1       4.942  -3.117  11.179  1.00  0.00    -0.341 N 
ATOM      8  O   UNL     1       2.786  -3.807  10.772  1.00  0.00    -0.267 OA
ATOM      9  H   UNL     1       5.473  -2.310  11.493  1.00  0.00     0.164 HD
BRANCH   7  10
ATOM     10  C   UNL     1       5.617  -4.158  10.429  1.00  0.00     0.145 C 
BRANCH  10  11
ATOM     11  C   UNL     1       6.006  -3.574   9.079  1.00  0.00     0.116 A 
ATOM     12  S   UNL     1       6.822  -4.560   7.924  1.00  0.00    -0.124 S 
ATOM     13  C   UNL     1       6.824  -3.254   6.822  1.00  0.00     0.101 A 
ATOM     14  N   UNL     1       5.755  -2.336   8.688  1.00  0.00    -0.234 NA
ATOM     15  C   UNL     1       6.209  -2.150   7.380  1.00  0.00     0.139 A 
BRANCH  15  16
ATOM     16  C   UNL     1       6.028  -0.878   6.676  1.00  0.00     0.271 C 
ATOM     17  O   UNL     1       6.817  -0.468   5.831  1.00  0.00    -0.267 OA
ATOM     18  N   UNL     1       4.891  -0.196   7.054  1.00  0.00    -0.339 N 
ATOM     19  H   UNL     1       4.380  -0.587   7.842  1.00  0.00     0.164 HD
BRANCH  18  20
ATOM     20  C   UNL     1       4.584   1.119   6.509  1.00  0.00     0.168 CG0
ATOM     21  C   UNL     1       3.098   1.245   6.165  1.00  0.00     0.041 C 
ATOM     22  G   UNL     1       4.942   2.261   7.473  1.00  0.00     0.000 G0
ENDBRANCH  18  20
ENDBRANCH  15  16
ENDBRANCH  10  11
BRANCH  10  23
ATOM     23  C   UNL     1       6.836  -4.737  11.197  1.00  0.00     0.015 C 
ATOM     24  C   UNL     1       7.222  -3.913  12.436  1.00  0.00     0.010 C 
BRANCH  23  25
ATOM     25  C   UNL     1       6.629  -6.208  11.625  1.00  0.00     0.002 C 
ATOM     26  C   UNL     1       5.758  -6.375  12.863  1.00  0.00     0.004 C 
ENDBRANCH  23  25
ENDBRANCH  10  23
ENDBRANCH   7  10
ENDBRANCH   4   6
BRANCH   3  27
ATOM     27  C   UNL     1       3.558   1.802  12.525  1.00  0.00     0.171 C 
BRANCH  27  28
ATOM     28  N   UNL     1       3.408   2.461  11.232  1.00  0.00    -0.342 N 
ATOM     29  C   UNL     1       4.377   3.275  10.691  1.00  0.00     0.245 C 
ATOM     30  O   UNL     1       5.449   3.496  11.251  1.00  0.00    -0.273 OA
ATOM     31  H   UNL     1       2.596   2.234  10.658  1.00  0.00     0.164 HD
BRANCH  29  32
ATOM     32  C   UNL     1       4.093   3.777   9.259  1.00  0.00     0.200 C 
BRANCH  32  33
ATOM     33  N   UNL     1       3.946   2.609   8.382  1.00  0.00    -0.340 N 
ATOM     34  C   UNL     1       4.927   2.267   7.475  1.00  0.00     0.243 CG0
ATOM     35  O   UNL     1       5.933   2.956   7.315  1.00  0.00    -0.273 OA
ATOM     36  H   UNL     1       3.113   2.039   8.469  1.00  0.00     0.164 HD
ATOM     37  G   UNL     1       4.584   1.107   6.527  1.00  0.00     0.000 G0
ENDBRANCH  32  33
BRANCH  32  38
ATOM     38  C   UNL     1       2.866   4.717   9.223  1.00  0.00     0.143 C 
ATOM     39  C   UNL     1       2.706   5.482   7.914  1.00  0.00     0.041 C 
BRANCH  38  40
ATOM     40  O   UNL     1       1.662   3.966   9.475  1.00  0.00    -0.391 OA
ATOM     41  H   UNL     1       1.493   3.433   8.675  1.00  0.00     0.211 HD
ENDBRANCH  38  40
ENDBRANCH  32  38
ENDBRANCH  29  32
ENDBRANCH  27  28
BRANCH  27  42
ATOM     42  C   UNL     1       2.817   2.572  13.646  1.00  0.00     0.015 C 
ATOM     43  C   UNL     1       3.686   3.515  14.485  1.00  0.00     0.010 C 
ATOM     44  C   UNL     1       1.588   3.316  13.113  1.00  0.00     0.010 C 
ENDBRANCH  27  42
ENDBRANCH   3  27
TORSDOF 5
ENDMDL
MODEL 46
REMARK VINA RESULT:    -4.069     15.562     17.808
REMARK INTER + INTRA:          -9.125
REMARK INTER:                  -7.103
REMARK INTRA:                  -2.021
REMARK UNBOUND:                -1.845
REMARK SMILES CC[C@H](C)[C@H]1NC(=O)c2coc(n2)[C@H](C(C)C)NC(=O)[C@H]([C@@H](C)O)NC(=O)[C@H](C)NC(=O)c2csc1n2
REMARK SMILES IDX 11 1 13 2 12 3 9 4 10 5 7 6 6 7 8 8 5 10 36 11 35 12 34 13
REMARK SMILES IDX 37 14 33 15 31 16 32 17 30 18 28 20 29 21 3 23 4 24 2 25
REMARK SMILES IDX 1 26 14 27 18 28 19 29 20 30 21 32 25 33 26 34 27 35 22 38
REMARK SMILES IDX 23 39 24 40 15 42 16 43 17 44
REMARK H PARENT 6 9 30 19 18 31 25 36 24 41
REMARK Flexibility Score:   94.900
ROOT
ATOM      1  O   UNL     1      -1.773 -10.458   8.023  1.00  0.00    -0.446 OA
ATOM      2  N   UNL     1      -0.351 -10.280   9.763  1.00  0.00    -0.207 NA
ATOM      3  C   UNL     1      -0.700 -10.977   8.697  1.00  0.00     0.217 A 
ATOM      4  C   UNL     1      -1.237  -9.217   9.778  1.00  0.00     0.167 A 
ATOM      5  C   UNL     1      -2.100  -9.331   8.716  1.00  0.00     0.231 A 
ENDROOT
BRANCH   4   6
ATOM      6  C   UNL     1      -1.227  -8.189  10.805  1.00  0.00     0.273 C 
ATOM      7  N   UNL     1      -0.465  -7.109  10.436  1.00  0.00    -0.341 N 
ATOM      8  O   UNL     1      -1.810  -8.296  11.877  1.00  0.00    -0.267 OA
ATOM      9  H   UNL     1       0.034  -7.201   9.556  1.00  0.00     0.164 HD
BRANCH   7  10
ATOM     10  C   UNL     1      -0.082  -6.059  11.359  1.00  0.00     0.145 C 
BRANCH  10  11
ATOM     11  C   UNL     1       1.402  -6.225  11.654  1.00  0.00     0.116 A 
ATOM     12  S   UNL     1       2.140  -5.272  12.887  1.00  0.00    -0.124 S 
ATOM     13  C   UNL     1       3.628  -6.059  12.593  1.00  0.00     0.101 A 
ATOM     14  N   UNL     1       2.207  -7.075  11.039  1.00  0.00    -0.234 NA
ATOM     15  C   UNL     1       3.489  -6.996  11.587  1.00  0.00     0.139 A 
BRANCH  15  16
ATOM     16  C   UNL     1       4.580  -7.856  11.121  1.00  0.00     0.271 C 
ATOM     17  O   UNL     1       5.760  -7.612  11.345  1.00  0.00    -0.267 OA
ATOM     18  N   UNL     1       4.148  -8.958  10.414  1.00  0.00    -0.339 N 
ATOM     19  H   UNL     1       3.154  -8.989  10.202  1.00  0.00     0.164 HD
BRANCH  18  20
ATOM     20  C   UNL     1       5.095  -9.889   9.816  1.00  0.00     0.168 CG0
ATOM     21  C   UNL     1       5.176 -11.191  10.615  1.00  0.00     0.041 C 
ATOM     22  G   UNL     1       4.738 -10.250   8.365  1.00  0.00     0.000 G0
ENDBRANCH  18  20
ENDBRANCH  15  16
ENDBRANCH  10  11
BRANCH  10  23
ATOM     23  C   UNL     1      -0.422  -4.646  10.814  1.00  0.00     0.015 C 
ATOM     24  C   UNL     1      -1.358  -4.674   9.595  1.00  0.00     0.010 C 
BRANCH  23  25
ATOM     25  C   UNL     1      -1.038  -3.723  11.890  1.00  0.00     0.002 C 
ATOM     26  C   UNL     1      -2.418  -4.158  12.362  1.00  0.00     0.004 C 
ENDBRANCH  23  25
ENDBRANCH  10  23
ENDBRANCH   7  10
ENDBRANCH   4   6
BRANCH   3  27
ATOM     27  C   UNL     1      -0.084 -12.261   8.211  1.00  0.00     0.171 C 
BRANCH  27  28
ATOM     28  N   UNL     1       1.352 -12.043   8.072  1.00  0.00    -0.342 N 
ATOM     29  C   UNL     1       2.027 -12.243   6.889  1.00  0.00     0.245 C 
ATOM     30  O   UNL     1       1.466 -12.606   5.856  1.00  0.00    -0.273 OA
ATOM     31  H   UNL     1       1.863 -11.633   8.853  1.00  0.00     0.164 HD
BRANCH  29  32
ATOM     32  C   UNL     1       3.516 -11.836   6.902  1.00  0.00     0.200 C 
BRANCH  32  33
ATOM     33  N   UNL     1       3.832 -11.289   8.227  1.00  0.00    -0.340 N 
ATOM     34  C   UNL     1       4.730 -10.253   8.378  1.00  0.00     0.243 CG0
ATOM     35  O   UNL     1       5.350  -9.786   7.424  1.00  0.00    -0.273 OA
ATOM     36  H   UNL     1       3.360 -11.674   9.037  1.00  0.00     0.164 HD
ATOM     37  G   UNL     1       5.071  -9.872   9.828  1.00  0.00     0.000 G0
ENDBRANCH  32  33
BRANCH  32  38
ATOM     38  C   UNL     1       4.428 -13.020   6.505  1.00  0.00     0.143 C 
ATOM     39  C   UNL     1       4.665 -14.027   7.624  1.00  0.00     0.041 C 
BRANCH  38  40
ATOM     40  O   UNL     1       3.875 -13.708   5.366  1.00  0.00    -0.391 OA
ATOM     41  H   UNL     1       3.086 -14.186   5.685  1.00  0.00     0.211 HD
ENDBRANCH  38  40
ENDBRANCH  32  38
ENDBRANCH  29  32
ENDBRANCH  27  28
BRANCH  27  42
ATOM     42  C   UNL     1      -0.389 -13.548   9.017  1.00  0.00     0.015 C 
ATOM     43  C   UNL     1       0.768 -14.546   9.131  1.00  0.00     0.010 C 
ATOM     44  C   UNL     1      -0.958 -13.233  10.404  1.00  0.00     0.010 C 
ENDBRANCH  27  42
ENDBRANCH   3  27
TORSDOF 5
ENDMDL
MODEL 47
REMARK VINA RESULT:    -4.050      3.613      7.909
REMARK INTER + INTRA:          -9.091
REMARK INTER:                  -8.739
REMARK INTRA:                  -0.352
REMARK UNBOUND:                -1.845
REMARK SMILES CC[C@H](C)[C@H]1NC(=O)c2coc(n2)[C@H](C(C)C)NC(=O)[C@H]([C@@H](C)O)NC(=O)[C@H](C)NC(=O)c2csc1n2
REMARK SMILES IDX 11 1 13 2 12 3 9 4 10 5 7 6 6 7 8 8 5 10 36 11 35 12 34 13
REMARK SMILES IDX 37 14 33 15 31 16 32 17 30 18 28 20 29 21 3 23 4 24 2 25
REMARK SMILES IDX 1 26 14 27 18 28 19 29 20 30 21 32 25 33 26 34 27 35 22 38
REMARK SMILES IDX 23 39 24 40 15 42 16 43 17 44
REMARK H PARENT 6 9 30 19 18 31 25 36 24 41
REMARK Flexibility Score:   94.900
ROOT
ATOM      1  O   UNL     1     -15.083  -8.593   5.934  1.00  0.00    -0.446 OA
ATOM      2  N   UNL     1     -13.490 -10.035   5.249  1.00  0.00    -0.207 NA
ATOM      3  C   UNL     1     -14.158  -9.543   6.278  1.00  0.00     0.217 A 
ATOM      4  C   UNL     1     -14.029  -9.384   4.153  1.00  0.00     0.167 A 
ATOM      5  C   UNL     1     -14.998  -8.508   4.576  1.00  0.00     0.231 A 
ENDROOT
BRANCH   4   6
ATOM      6  C   UNL     1     -13.573  -9.611   2.793  1.00  0.00     0.273 C 
ATOM      7  N   UNL     1     -14.308 -10.585   2.165  1.00  0.00    -0.341 N 
ATOM      8  O   UNL     1     -12.629  -9.017   2.286  1.00  0.00    -0.267 OA
ATOM      9  H   UNL     1     -15.000 -11.055   2.742  1.00  0.00     0.164 HD
BRANCH   7  10
ATOM     10  C   UNL     1     -13.918 -11.182   0.903  1.00  0.00     0.145 C 
BRANCH  10  11
ATOM     11  C   UNL     1     -13.094 -12.423   1.215  1.00  0.00     0.116 A 
ATOM     12  S   UNL     1     -11.933 -12.988   0.074  1.00  0.00    -0.124 S 
ATOM     13  C   UNL     1     -11.502 -14.247   1.146  1.00  0.00     0.101 A 
ATOM     14  N   UNL     1     -13.179 -13.128   2.331  1.00  0.00    -0.234 NA
ATOM     15  C   UNL     1     -12.251 -14.173   2.305  1.00  0.00     0.139 A 
BRANCH  15  16
ATOM     16  C   UNL     1     -12.099 -15.095   3.432  1.00  0.00     0.271 C 
ATOM     17  O   UNL     1     -12.454 -16.268   3.384  1.00  0.00    -0.267 OA
ATOM     18  N   UNL     1     -11.519 -14.518   4.542  1.00  0.00    -0.339 N 
ATOM     19  H   UNL     1     -11.372 -13.513   4.494  1.00  0.00     0.164 HD
BRANCH  18  20
ATOM     20  C   UNL     1     -11.350 -15.266   5.780  1.00  0.00     0.168 CG0
ATOM     21  C   UNL     1     -10.065 -16.097   5.757  1.00  0.00     0.041 C 
ATOM     22  G   UNL     1     -11.300 -14.359   7.020  1.00  0.00     0.000 G0
ENDBRANCH  18  20
ENDBRANCH  15  16
ENDBRANCH  10  11
BRANCH  10  23
ATOM     23  C   UNL     1     -15.140 -11.495  -0.000  1.00  0.00     0.015 C 
ATOM     24  C   UNL     1     -15.585 -12.966   0.066  1.00  0.00     0.010 C 
BRANCH  23  25
ATOM     25  C   UNL     1     -16.358 -10.596   0.309  1.00  0.00     0.002 C 
ATOM     26  C   UNL     1     -16.053  -9.105   0.263  1.00  0.00     0.004 C 
ENDBRANCH  23  25
ENDBRANCH  10  23
ENDBRANCH   7  10
ENDBRANCH   4   6
BRANCH   3  27
ATOM     27  C   UNL     1     -13.963  -9.881   7.730  1.00  0.00     0.171 C 
BRANCH  27  28
ATOM     28  N   UNL     1     -13.003 -10.977   7.809  1.00  0.00    -0.342 N 
ATOM     29  C   UNL     1     -11.661 -10.815   7.549  1.00  0.00     0.245 C 
ATOM     30  O   UNL     1     -11.169  -9.729   7.244  1.00  0.00    -0.273 OA
ATOM     31  H   UNL     1     -13.317 -11.879   8.166  1.00  0.00     0.164 HD
BRANCH  29  32
ATOM     32  C   UNL     1     -10.784 -12.057   7.809  1.00  0.00     0.200 C 
BRANCH  32  33
ATOM     33  N   UNL     1     -11.019 -13.023   6.729  1.00  0.00    -0.340 N 
ATOM     34  C   UNL     1     -11.282 -14.350   7.000  1.00  0.00     0.243 CG0
ATOM     35  O   UNL     1     -11.268 -14.794   8.146  1.00  0.00    -0.273 OA
ATOM     36  H   UNL     1     -11.007 -12.692   5.772  1.00  0.00     0.164 HD
ATOM     37  G   UNL     1     -11.373 -15.275   5.775  1.00  0.00     0.000 G0
ENDBRANCH  32  33
BRANCH  32  38
ATOM     38  C   UNL     1      -9.293 -11.675   7.961  1.00  0.00     0.143 C 
ATOM     39  C   UNL     1      -8.500 -12.608   8.869  1.00  0.00     0.041 C 
BRANCH  38  40
ATOM     40  O   UNL     1      -8.660 -11.633   6.667  1.00  0.00    -0.391 OA
ATOM     41  H   UNL     1      -8.160 -12.466   6.574  1.00  0.00     0.211 HD
ENDBRANCH  38  40
ENDBRANCH  32  38
ENDBRANCH  29  32
ENDBRANCH  27  28
BRANCH  27  42
ATOM     42  C   UNL     1     -13.586  -8.724   8.687  1.00  0.00     0.015 C 
ATOM     43  C   UNL     1     -12.995  -7.478   8.017  1.00  0.00     0.010 C 
ATOM     44  C   UNL     1     -14.752  -8.332   9.601  1.00  0.00     0.010 C 
ENDBRANCH  27  42
ENDBRANCH   3  27
TORSDOF 5
ENDMDL
MODEL 48
REMARK VINA RESULT:    -3.889     13.081     15.019
REMARK INTER + INTRA:          -8.803
REMARK INTER:                  -7.210
REMARK INTRA:                  -1.594
REMARK UNBOUND:                -1.845
REMARK SMILES CC[C@H](C)[C@H]1NC(=O)c2coc(n2)[C@H](C(C)C)NC(=O)[C@H]([C@@H](C)O)NC(=O)[C@H](C)NC(=O)c2csc1n2
REMARK SMILES IDX 11 1 13 2 12 3 9 4 10 5 7 6 6 7 8 8 5 10 36 11 35 12 34 13
REMARK SMILES IDX 37 14 33 15 31 16 32 17 30 18 28 20 29 21 3 23 4 24 2 25
REMARK SMILES IDX 1 26 14 27 18 28 19 29 20 30 21 32 25 33 26 34 27 35 22 38
REMARK SMILES IDX 23 39 24 40 15 42 16 43 17 44
REMARK H PARENT 6 9 30 19 18 31 25 36 24 41
REMARK Flexibility Score:   94.900
ROOT
ATOM      1  O   UNL     1      -2.045 -15.631  10.524  1.00  0.00    -0.446 OA
ATOM      2  N   UNL     1      -1.510 -13.844  11.791  1.00  0.00    -0.207 NA
ATOM      3  C   UNL     1      -1.406 -14.422  10.607  1.00  0.00     0.217 A 
ATOM      4  C   UNL     1      -2.291 -14.718  12.527  1.00  0.00     0.167 A 
ATOM      5  C   UNL     1      -2.614 -15.803  11.750  1.00  0.00     0.231 A 
ENDROOT
BRANCH   4   6
ATOM      6  C   UNL     1      -2.652 -14.483  13.914  1.00  0.00     0.273 C 
ATOM      7  N   UNL     1      -3.901 -13.925  14.029  1.00  0.00    -0.341 N 
ATOM      8  O   UNL     1      -1.913 -14.732  14.859  1.00  0.00    -0.267 OA
ATOM      9  H   UNL     1      -4.359 -13.688  13.154  1.00  0.00     0.164 HD
BRANCH   7  10
ATOM     10  C   UNL     1      -4.407 -13.363  15.266  1.00  0.00     0.145 C 
BRANCH  10  11
ATOM     11  C   UNL     1      -4.519 -11.858  15.076  1.00  0.00     0.116 A 
ATOM     12  S   UNL     1      -4.386 -10.812  16.439  1.00  0.00    -0.124 S 
ATOM     13  C   UNL     1      -4.568  -9.459  15.410  1.00  0.00     0.101 A 
ATOM     14  N   UNL     1      -4.703 -11.252  13.914  1.00  0.00    -0.234 NA
ATOM     15  C   UNL     1      -4.715  -9.867  14.098  1.00  0.00     0.139 A 
BRANCH  15  16
ATOM     16  C   UNL     1      -4.864  -8.942  12.972  1.00  0.00     0.271 C 
ATOM     17  O   UNL     1      -5.852  -8.232  12.821  1.00  0.00    -0.267 OA
ATOM     18  N   UNL     1      -3.790  -8.950  12.107  1.00  0.00    -0.339 N 
ATOM     19  H   UNL     1      -3.085  -9.662  12.280  1.00  0.00     0.164 HD
BRANCH  18  20
ATOM     20  C   UNL     1      -3.793  -8.144  10.893  1.00  0.00     0.168 CG0
ATOM     21  C   UNL     1      -3.473  -6.679  11.198  1.00  0.00     0.041 C 
ATOM     22  G   UNL     1      -2.780  -8.639   9.849  1.00  0.00     0.000 G0
ENDBRANCH  18  20
ENDBRANCH  15  16
ENDBRANCH  10  11
BRANCH  10  23
ATOM     23  C   UNL     1      -5.752 -14.007  15.695  1.00  0.00     0.015 C 
ATOM     24  C   UNL     1      -5.922 -14.102  17.220  1.00  0.00     0.010 C 
BRANCH  23  25
ATOM     25  C   UNL     1      -6.980 -13.278  15.104  1.00  0.00     0.002 C 
ATOM     26  C   UNL     1      -7.328 -13.704  13.685  1.00  0.00     0.004 C 
ENDBRANCH  23  25
ENDBRANCH  10  23
ENDBRANCH   7  10
ENDBRANCH   4   6
BRANCH   3  27
ATOM     27  C   UNL     1      -0.638 -13.918   9.417  1.00  0.00     0.171 C 
BRANCH  27  28
ATOM     28  N   UNL     1      -0.395 -12.493   9.612  1.00  0.00    -0.342 N 
ATOM     29  C   UNL     1      -1.127 -11.516   8.976  1.00  0.00     0.245 C 
ATOM     30  O   UNL     1      -2.051 -11.772   8.206  1.00  0.00    -0.273 OA
ATOM     31  H   UNL     1       0.277 -12.203  10.322  1.00  0.00     0.164 HD
BRANCH  29  32
ATOM     32  C   UNL     1      -0.811 -10.068   9.407  1.00  0.00     0.200 C 
BRANCH  32  33
ATOM     33  N   UNL     1      -1.899  -9.597  10.273  1.00  0.00    -0.340 N 
ATOM     34  C   UNL     1      -2.784  -8.628   9.849  1.00  0.00     0.243 CG0
ATOM     35  O   UNL     1      -2.664  -8.072   8.759  1.00  0.00    -0.273 OA
ATOM     36  H   UNL     1      -2.005 -10.016  11.190  1.00  0.00     0.164 HD
ATOM     37  G   UNL     1      -3.786  -8.132  10.904  1.00  0.00     0.000 G0
ENDBRANCH  32  33
BRANCH  32  38
ATOM     38  C   UNL     1       0.579  -9.969  10.077  1.00  0.00     0.143 C 
ATOM     39  C   UNL     1       0.658 -10.630  11.449  1.00  0.00     0.041 C 
BRANCH  38  40
ATOM     40  O   UNL     1       1.582 -10.549   9.221  1.00  0.00    -0.391 OA
ATOM     41  H   UNL     1       1.847  -9.853   8.590  1.00  0.00     0.211 HD
ENDBRANCH  38  40
ENDBRANCH  32  38
ENDBRANCH  29  32
ENDBRANCH  27  28
BRANCH  27  42
ATOM     42  C   UNL     1       0.661 -14.670   9.036  1.00  0.00     0.015 C 
ATOM     43  C   UNL     1       1.690 -13.853   8.245  1.00  0.00     0.010 C 
ATOM     44  C   UNL     1       1.324 -15.322  10.254  1.00  0.00     0.010 C 
ENDBRANCH  27  42
ENDBRANCH   3  27
TORSDOF 5
ENDMDL
MODEL 49
REMARK VINA RESULT:    -3.860     13.781     16.930
REMARK INTER + INTRA:          -8.751
REMARK INTER:                  -6.429
REMARK INTRA:                  -2.322
REMARK UNBOUND:                -1.845
REMARK SMILES CC[C@H](C)[C@H]1NC(=O)c2coc(n2)[C@H](C(C)C)NC(=O)[C@H]([C@@H](C)O)NC(=O)[C@H](C)NC(=O)c2csc1n2
REMARK SMILES IDX 11 1 13 2 12 3 9 4 10 5 7 6 6 7 8 8 5 10 36 11 35 12 34 13
REMARK SMILES IDX 37 14 33 15 31 16 32 17 30 18 28 20 29 21 3 23 4 24 2 25
REMARK SMILES IDX 1 26 14 27 18 28 19 29 20 30 21 32 25 33 26 34 27 35 22 38
REMARK SMILES IDX 23 39 24 40 15 42 16 43 17 44
REMARK H PARENT 6 9 30 19 18 31 25 36 24 41
REMARK Flexibility Score:   94.900
ROOT
ATOM      1  O   UNL     1      -1.957  -5.466  13.097  1.00  0.00    -0.446 OA
ATOM      2  N   UNL     1      -1.523  -7.516  13.930  1.00  0.00    -0.207 NA
ATOM      3  C   UNL     1      -2.455  -6.645  13.585  1.00  0.00     0.217 A 
ATOM      4  C   UNL     1      -0.334  -6.877  13.625  1.00  0.00     0.167 A 
ATOM      5  C   UNL     1      -0.605  -5.630  13.118  1.00  0.00     0.231 A 
ENDROOT
BRANCH   4   6
ATOM      6  C   UNL     1       0.970  -7.474  13.859  1.00  0.00     0.273 C 
ATOM      7  N   UNL     1       1.796  -7.337  12.772  1.00  0.00    -0.341 N 
ATOM      8  O   UNL     1       1.275  -8.051  14.896  1.00  0.00    -0.267 OA
ATOM      9  H   UNL     1       1.375  -6.917  11.949  1.00  0.00     0.164 HD
BRANCH   7  10
ATOM     10  C   UNL     1       3.053  -8.046  12.638  1.00  0.00     0.145 C 
BRANCH  10  11
ATOM     11  C   UNL     1       2.740  -9.446  12.129  1.00  0.00     0.116 A 
ATOM     12  S   UNL     1       4.027 -10.542  11.794  1.00  0.00    -0.124 S 
ATOM     13  C   UNL     1       2.886 -11.739  11.364  1.00  0.00     0.101 A 
ATOM     14  N   UNL     1       1.523  -9.923  11.923  1.00  0.00    -0.234 NA
ATOM     15  C   UNL     1       1.600 -11.252  11.498  1.00  0.00     0.139 A 
BRANCH  15  16
ATOM     16  C   UNL     1       0.398 -12.045  11.231  1.00  0.00     0.271 C 
ATOM     17  O   UNL     1       0.433 -13.137  10.674  1.00  0.00    -0.267 OA
ATOM     18  N   UNL     1      -0.765 -11.446  11.666  1.00  0.00    -0.339 N 
ATOM     19  H   UNL     1      -0.673 -10.494  12.010  1.00  0.00     0.164 HD
BRANCH  18  20
ATOM     20  C   UNL     1      -2.065 -12.058  11.425  1.00  0.00     0.168 CG0
ATOM     21  C   UNL     1      -2.665 -12.616  12.717  1.00  0.00     0.041 C 
ATOM     22  G   UNL     1      -3.081 -11.077  10.819  1.00  0.00     0.000 G0
ENDBRANCH  18  20
ENDBRANCH  15  16
ENDBRANCH  10  11
BRANCH  10  23
ATOM     23  C   UNL     1       4.056  -7.294  11.724  1.00  0.00     0.015 C 
ATOM     24  C   UNL     1       3.491  -5.986  11.147  1.00  0.00     0.010 C 
BRANCH  23  25
ATOM     25  C   UNL     1       5.395  -6.986  12.431  1.00  0.00     0.002 C 
ATOM     26  C   UNL     1       5.938  -5.592  12.146  1.00  0.00     0.004 C 
ENDBRANCH  23  25
ENDBRANCH  10  23
ENDBRANCH   7  10
ENDBRANCH   4   6
BRANCH   3  27
ATOM     27  C   UNL     1      -3.944  -6.807  13.725  1.00  0.00     0.171 C 
BRANCH  27  28
ATOM     28  N   UNL     1      -4.321  -8.055  13.069  1.00  0.00    -0.342 N 
ATOM     29  C   UNL     1      -4.738  -8.113  11.758  1.00  0.00     0.245 C 
ATOM     30  O   UNL     1      -4.809  -7.118  11.037  1.00  0.00    -0.273 OA
ATOM     31  H   UNL     1      -4.179  -8.933  13.566  1.00  0.00     0.164 HD
BRANCH  29  32
ATOM     32  C   UNL     1      -4.970  -9.533  11.201  1.00  0.00     0.200 C 
BRANCH  32  33
ATOM     33  N   UNL     1      -3.888 -10.400  11.685  1.00  0.00    -0.340 N 
ATOM     34  C   UNL     1      -3.063 -11.073  10.808  1.00  0.00     0.243 CG0
ATOM     35  O   UNL     1      -3.235 -11.030   9.592  1.00  0.00    -0.273 OA
ATOM     36  H   UNL     1      -3.741 -10.479  12.685  1.00  0.00     0.164 HD
ATOM     37  G   UNL     1      -2.064 -12.050  11.450  1.00  0.00     0.000 G0
ENDBRANCH  32  33
BRANCH  32  38
ATOM     38  C   UNL     1      -6.375 -10.062  11.568  1.00  0.00     0.143 C 
ATOM     39  C   UNL     1      -6.362 -11.335  12.408  1.00  0.00     0.041 C 
BRANCH  38  40
ATOM     40  O   UNL     1      -7.116  -9.046  12.272  1.00  0.00    -0.391 OA
ATOM     41  H   UNL     1      -8.052  -9.156  12.017  1.00  0.00     0.211 HD
ENDBRANCH  38  40
ENDBRANCH  32  38
ENDBRANCH  29  32
ENDBRANCH  27  28
BRANCH  27  42
ATOM     42  C   UNL     1      -4.541  -6.711  15.150  1.00  0.00     0.015 C 
ATOM     43  C   UNL     1      -4.716  -5.290  15.699  1.00  0.00     0.010 C 
ATOM     44  C   UNL     1      -5.852  -7.495  15.277  1.00  0.00     0.010 C 
ENDBRANCH  27  42
ENDBRANCH   3  27
TORSDOF 5
ENDMDL
MODEL 50
REMARK VINA RESULT:    -3.790     14.382     17.511
REMARK INTER + INTRA:          -8.626
REMARK INTER:                  -6.007
REMARK INTRA:                  -2.619
REMARK UNBOUND:                -1.845
REMARK SMILES CC[C@H](C)[C@H]1NC(=O)c2coc(n2)[C@H](C(C)C)NC(=O)[C@H]([C@@H](C)O)NC(=O)[C@H](C)NC(=O)c2csc1n2
REMARK SMILES IDX 11 1 13 2 12 3 9 4 10 5 7 6 6 7 8 8 5 10 36 11 35 12 34 13
REMARK SMILES IDX 37 14 33 15 31 16 32 17 30 18 28 20 29 21 3 23 4 24 2 25
REMARK SMILES IDX 1 26 14 27 18 28 19 29 20 30 21 32 25 33 26 34 27 35 22 38
REMARK SMILES IDX 23 39 24 40 15 42 16 43 17 44
REMARK H PARENT 6 9 30 19 18 31 25 36 24 41
REMARK Flexibility Score:   94.900
ROOT
ATOM      1  O   UNL     1       0.956  -4.672  11.260  1.00  0.00    -0.446 OA
ATOM      2  N   UNL     1       0.113  -6.082  12.804  1.00  0.00    -0.207 NA
ATOM      3  C   UNL     1       1.205  -5.596  12.240  1.00  0.00     0.217 A 
ATOM      4  C   UNL     1      -0.921  -5.414  12.172  1.00  0.00     0.167 A 
ATOM      5  C   UNL     1      -0.401  -4.556  11.233  1.00  0.00     0.231 A 
ENDROOT
BRANCH   4   6
ATOM      6  C   UNL     1      -2.322  -5.651  12.476  1.00  0.00     0.273 C 
ATOM      7  N   UNL     1      -2.495  -6.787  13.225  1.00  0.00    -0.341 N 
ATOM      8  O   UNL     1      -3.232  -4.931  12.083  1.00  0.00    -0.267 OA
ATOM      9  H   UNL     1      -1.657  -7.333  13.398  1.00  0.00     0.164 HD
BRANCH   7  10
ATOM     10  C   UNL     1      -3.792  -7.390  13.459  1.00  0.00     0.145 C 
BRANCH  10  11
ATOM     11  C   UNL     1      -3.842  -8.693  12.674  1.00  0.00     0.116 A 
ATOM     12  S   UNL     1      -5.365  -9.383  12.256  1.00  0.00    -0.124 S 
ATOM     13  C   UNL     1      -4.559 -10.653  11.446  1.00  0.00     0.101 A 
ATOM     14  N   UNL     1      -2.783  -9.366  12.254  1.00  0.00    -0.234 NA
ATOM     15  C   UNL     1      -3.190 -10.489  11.530  1.00  0.00     0.139 A 
BRANCH  15  16
ATOM     16  C   UNL     1      -2.223 -11.399  10.912  1.00  0.00     0.271 C 
ATOM     17  O   UNL     1      -2.471 -12.578  10.684  1.00  0.00    -0.267 OA
ATOM     18  N   UNL     1      -1.017 -10.801  10.614  1.00  0.00    -0.339 N 
ATOM     19  H   UNL     1      -0.896  -9.850  10.953  1.00  0.00     0.164 HD
BRANCH  18  20
ATOM     20  C   UNL     1       0.089 -11.568  10.057  1.00  0.00     0.168 CG0
ATOM     21  C   UNL     1       0.280 -11.269   8.569  1.00  0.00     0.041 C 
ATOM     22  G   UNL     1       1.423 -11.290  10.768  1.00  0.00     0.000 G0
ENDBRANCH  18  20
ENDBRANCH  15  16
ENDBRANCH  10  11
BRANCH  10  23
ATOM     23  C   UNL     1      -4.079  -7.599  14.970  1.00  0.00     0.015 C 
ATOM     24  C   UNL     1      -2.835  -7.417  15.856  1.00  0.00     0.010 C 
BRANCH  23  25
ATOM     25  C   UNL     1      -5.201  -6.678  15.498  1.00  0.00     0.002 C 
ATOM     26  C   UNL     1      -4.783  -5.223  15.660  1.00  0.00     0.004 C 
ENDBRANCH  23  25
ENDBRANCH  10  23
ENDBRANCH   7  10
ENDBRANCH   4   6
BRANCH   3  27
ATOM     27  C   UNL     1       2.627  -5.991  12.528  1.00  0.00     0.171 C 
BRANCH  27  28
ATOM     28  N   UNL     1       2.934  -7.171  11.726  1.00  0.00    -0.342 N 
ATOM     29  C   UNL     1       2.955  -8.445  12.249  1.00  0.00     0.245 C 
ATOM     30  O   UNL     1       2.701  -8.684  13.428  1.00  0.00    -0.273 OA
ATOM     31  H   UNL     1       3.043  -7.064  10.718  1.00  0.00     0.164 HD
BRANCH  29  32
ATOM     32  C   UNL     1       3.172  -9.576  11.221  1.00  0.00     0.200 C 
BRANCH  32  33
ATOM     33  N   UNL     1       1.862  -9.976  10.693  1.00  0.00    -0.340 N 
ATOM     34  C   UNL     1       1.421 -11.280  10.786  1.00  0.00     0.243 CG0
ATOM     35  O   UNL     1       2.125 -12.172  11.254  1.00  0.00    -0.273 OA
ATOM     36  H   UNL     1       1.272  -9.268  10.273  1.00  0.00     0.164 HD
ATOM     37  G   UNL     1       0.095 -11.587  10.071  1.00  0.00     0.000 G0
ENDBRANCH  32  33
BRANCH  32  38
ATOM     38  C   UNL     1       4.165  -9.150  10.114  1.00  0.00     0.143 C 
ATOM     39  C   UNL     1       4.770 -10.316   9.340  1.00  0.00     0.041 C 
BRANCH  38  40
ATOM     40  O   UNL     1       3.516  -8.259   9.186  1.00  0.00    -0.391 OA
ATOM     41  H   UNL     1       4.161  -7.559   8.974  1.00  0.00     0.211 HD
ENDBRANCH  38  40
ENDBRANCH  32  38
ENDBRANCH  29  32
ENDBRANCH  27  28
BRANCH  27  42
ATOM     42  C   UNL     1       3.715  -4.900  12.376  1.00  0.00     0.015 C 
ATOM     43  C   UNL     1       4.694  -4.775  13.549  1.00  0.00     0.010 C 
ATOM     44  C   UNL     1       4.482  -5.036  11.057  1.00  0.00     0.010 C 
ENDBRANCH  27  42
ENDBRANCH   3  27
TORSDOF 5
ENDMDL
