MODEL 1
REMARK VINA RESULT:    -3.478      0.000      0.000
REMARK INTER + INTRA:          -6.591
REMARK INTER:                  -6.223
REMARK INTRA:                  -0.368
REMARK UNBOUND:                -0.368
REMARK SMILES CC[C@H](C)[C@H]1NC(=O)c2coc(n2)[C@H](C(C)C)NC(=O)[C@H]([C@@H](C)O)NC(=O)[C@H](C)NC(=O)c2csc1n2
REMARK SMILES IDX 11 1 13 2 12 3 9 4 10 5 7 6 6 7 8 8 5 10 36 11 35 12 34 13
REMARK SMILES IDX 37 14 33 15 31 16 32 17 30 18 28 20 29 21 3 23 4 24 2 25
REMARK SMILES IDX 1 26 14 27 18 28 19 29 20 30 21 32 25 33 26 34 27 35 22 38
REMARK SMILES IDX 23 39 24 40 15 42 16 43 17 44
REMARK H PARENT 6 9 30 19 18 31 25 36 24 41
REMARK Flexibility Score:   94.900
ROOT
ATOM      1  O   UNL     1       4.132  -0.448 -10.961  1.00  0.00    -0.446 OA
ATOM      2  N   UNL     1       3.881   1.388  -9.678  1.00  0.00    -0.207 NA
ATOM      3  C   UNL     1       3.423   0.695 -10.705  1.00  0.00     0.217 A 
ATOM      4  C   UNL     1       4.947   0.639  -9.211  1.00  0.00     0.167 A 
ATOM      5  C   UNL     1       5.094  -0.479  -9.996  1.00  0.00     0.231 A 
ENDROOT
BRANCH   4   6
ATOM      6  C   UNL     1       5.765   1.042  -8.081  1.00  0.00     0.273 C 
ATOM      7  N   UNL     1       6.189  -0.038  -7.348  1.00  0.00    -0.341 N 
ATOM      8  O   UNL     1       6.019   2.209  -7.810  1.00  0.00    -0.267 OA
ATOM      9  H   UNL     1       5.823  -0.940  -7.640  1.00  0.00     0.164 HD
BRANCH   7  10
ATOM     10  C   UNL     1       6.806   0.085  -6.042  1.00  0.00     0.145 C 
BRANCH  10  11
ATOM     11  C   UNL     1       5.804   0.767  -5.122  1.00  0.00     0.116 A 
ATOM     12  S   UNL     1       5.968   0.610  -3.413  1.00  0.00    -0.124 S 
ATOM     13  C   UNL     1       4.602   1.615  -3.198  1.00  0.00     0.101 A 
ATOM     14  N   UNL     1       4.787   1.510  -5.526  1.00  0.00    -0.234 NA
ATOM     15  C   UNL     1       4.100   2.016  -4.420  1.00  0.00     0.139 A 
BRANCH  15  16
ATOM     16  C   UNL     1       2.946   2.906  -4.572  1.00  0.00     0.271 C 
ATOM     17  O   UNL     1       2.201   3.193  -3.642  1.00  0.00    -0.267 OA
ATOM     18  N   UNL     1       2.786   3.386  -5.855  1.00  0.00    -0.339 N 
ATOM     19  H   UNL     1       3.402   2.987  -6.559  1.00  0.00     0.164 HD
BRANCH  18  20
ATOM     20  C   UNL     1       1.654   4.231  -6.209  1.00  0.00     0.168 CG0
ATOM     21  C   UNL     1       2.107   5.480  -6.968  1.00  0.00     0.041 C 
ATOM     22  G   UNL     1       0.617   3.502  -7.079  1.00  0.00     0.000 G0
ENDBRANCH  18  20
ENDBRANCH  15  16
ENDBRANCH  10  11
BRANCH  10  23
ATOM     23  C   UNL     1       7.281  -1.284  -5.487  1.00  0.00     0.015 C 
ATOM     24  C   UNL     1       7.547  -2.327  -6.586  1.00  0.00     0.010 C 
BRANCH  23  25
ATOM     25  C   UNL     1       8.543  -1.166  -4.602  1.00  0.00     0.002 C 
ATOM     26  C   UNL     1       9.452  -2.386  -4.656  1.00  0.00     0.004 C 
ENDBRANCH  23  25
ENDBRANCH  10  23
ENDBRANCH   7  10
ENDBRANCH   4   6
BRANCH   3  27
ATOM     27  C   UNL     1       2.277   1.061 -11.608  1.00  0.00     0.171 C 
BRANCH  27  28
ATOM     28  N   UNL     1       1.511   2.115 -10.952  1.00  0.00    -0.342 N 
ATOM     29  C   UNL     1       0.444   1.857 -10.121  1.00  0.00     0.245 C 
ATOM     30  O   UNL     1       0.067   0.716  -9.858  1.00  0.00    -0.273 OA
ATOM     31  H   UNL     1       1.835   3.079 -11.031  1.00  0.00     0.164 HD
BRANCH  29  32
ATOM     32  C   UNL     1      -0.159   3.091  -9.418  1.00  0.00     0.200 C 
BRANCH  32  33
ATOM     33  N   UNL     1       0.827   3.602  -8.458  1.00  0.00    -0.340 N 
ATOM     34  C   UNL     1       0.615   3.514  -7.098  1.00  0.00     0.243 CG0
ATOM     35  O   UNL     1      -0.430   3.065  -6.631  1.00  0.00    -0.273 OA
ATOM     36  H   UNL     1       1.686   4.006  -8.813  1.00  0.00     0.164 HD
ATOM     37  G   UNL     1       1.662   4.210  -6.213  1.00  0.00     0.000 G0
ENDBRANCH  32  33
BRANCH  32  38
ATOM     38  C   UNL     1      -0.614   4.158 -10.440  1.00  0.00     0.143 C 
ATOM     39  C   UNL     1       0.497   5.096 -10.897  1.00  0.00     0.041 C 
BRANCH  38  40
ATOM     40  O   UNL     1      -1.191   3.519 -11.596  1.00  0.00    -0.391 OA
ATOM     41  H   UNL     1      -1.751   2.792 -11.263  1.00  0.00     0.211 HD
ENDBRANCH  38  40
ENDBRANCH  32  38
ENDBRANCH  29  32
ENDBRANCH  27  28
BRANCH  27  42
ATOM     42  C   UNL     1       2.614   1.430 -13.073  1.00  0.00     0.015 C 
ATOM     43  C   UNL     1       1.462   1.284 -14.074  1.00  0.00     0.010 C 
ATOM     44  C   UNL     1       3.239   2.825 -13.184  1.00  0.00     0.010 C 
ENDBRANCH  27  42
ENDBRANCH   3  27
TORSDOF 5
ENDMDL
MODEL 2
REMARK VINA RESULT:    -3.131      2.449      5.398
REMARK INTER + INTRA:          -5.970
REMARK INTER:                  -5.873
REMARK INTRA:                  -0.097
REMARK UNBOUND:                -0.368
REMARK SMILES CC[C@H](C)[C@H]1NC(=O)c2coc(n2)[C@H](C(C)C)NC(=O)[C@H]([C@@H](C)O)NC(=O)[C@H](C)NC(=O)c2csc1n2
REMARK SMILES IDX 11 1 13 2 12 3 9 4 10 5 7 6 6 7 8 8 5 10 36 11 35 12 34 13
REMARK SMILES IDX 37 14 33 15 31 16 32 17 30 18 28 20 29 21 3 23 4 24 2 25
REMARK SMILES IDX 1 26 14 27 18 28 19 29 20 30 21 32 25 33 26 34 27 35 22 38
REMARK SMILES IDX 23 39 24 40 15 42 16 43 17 44
REMARK H PARENT 6 9 30 19 18 31 25 36 24 41
REMARK Flexibility Score:   94.900
ROOT
ATOM      1  O   UNL     1       3.053   3.515  -3.629  1.00  0.00    -0.446 OA
ATOM      2  N   UNL     1       3.006   2.140  -5.415  1.00  0.00    -0.207 NA
ATOM      3  C   UNL     1       2.592   3.283  -4.897  1.00  0.00     0.217 A 
ATOM      4  C   UNL     1       3.815   1.596  -4.432  1.00  0.00     0.167 A 
ATOM      5  C   UNL     1       3.840   2.438  -3.348  1.00  0.00     0.231 A 
ENDROOT
BRANCH   4   6
ATOM      6  C   UNL     1       4.481   0.313  -4.573  1.00  0.00     0.273 C 
ATOM      7  N   UNL     1       5.765   0.453  -5.036  1.00  0.00    -0.341 N 
ATOM      8  O   UNL     1       3.943  -0.760  -4.330  1.00  0.00    -0.267 OA
ATOM      9  H   UNL     1       6.044   1.399  -5.282  1.00  0.00     0.164 HD
BRANCH   7  10
ATOM     10  C   UNL     1       6.566  -0.662  -5.499  1.00  0.00     0.145 C 
BRANCH  10  11
ATOM     11  C   UNL     1       6.437  -0.724  -7.015  1.00  0.00     0.116 A 
ATOM     12  S   UNL     1       7.581  -1.626  -7.934  1.00  0.00    -0.124 S 
ATOM     13  C   UNL     1       6.737  -1.224  -9.365  1.00  0.00     0.101 A 
ATOM     14  N   UNL     1       5.482  -0.138  -7.718  1.00  0.00    -0.234 NA
ATOM     15  C   UNL     1       5.640  -0.437  -9.074  1.00  0.00     0.139 A 
BRANCH  15  16
ATOM     16  C   UNL     1       4.699   0.051 -10.084  1.00  0.00     0.271 C 
ATOM     17  O   UNL     1       4.548  -0.496 -11.172  1.00  0.00    -0.267 OA
ATOM     18  N   UNL     1       4.004   1.175  -9.692  1.00  0.00    -0.339 N 
ATOM     19  H   UNL     1       4.298   1.596  -8.815  1.00  0.00     0.164 HD
BRANCH  18  20
ATOM     20  C   UNL     1       3.073   1.840 -10.595  1.00  0.00     0.168 CG0
ATOM     21  C   UNL     1       1.659   1.272 -10.453  1.00  0.00     0.041 C 
ATOM     22  G   UNL     1       2.997   3.357 -10.358  1.00  0.00     0.000 G0
ENDBRANCH  18  20
ENDBRANCH  15  16
ENDBRANCH  10  11
BRANCH  10  23
ATOM     23  C   UNL     1       8.043  -0.556  -5.036  1.00  0.00     0.015 C 
ATOM     24  C   UNL     1       8.191  -0.125  -3.567  1.00  0.00     0.010 C 
BRANCH  23  25
ATOM     25  C   UNL     1       8.833  -1.868  -5.248  1.00  0.00     0.002 C 
ATOM     26  C   UNL     1       9.544  -2.370  -4.000  1.00  0.00     0.004 C 
ENDBRANCH  23  25
ENDBRANCH  10  23
ENDBRANCH   7  10
ENDBRANCH   4   6
BRANCH   3  27
ATOM     27  C   UNL     1       1.657   4.278  -5.528  1.00  0.00     0.171 C 
BRANCH  27  28
ATOM     28  N   UNL     1       2.069   4.460  -6.916  1.00  0.00    -0.342 N 
ATOM     29  C   UNL     1       3.130   5.257  -7.282  1.00  0.00     0.245 C 
ATOM     30  O   UNL     1       3.820   5.863  -6.464  1.00  0.00    -0.273 OA
ATOM     31  H   UNL     1       1.618   3.900  -7.638  1.00  0.00     0.164 HD
BRANCH  29  32
ATOM     32  C   UNL     1       3.495   5.222  -8.782  1.00  0.00     0.200 C 
BRANCH  32  33
ATOM     33  N   UNL     1       3.610   3.818  -9.195  1.00  0.00    -0.340 N 
ATOM     34  C   UNL     1       3.000   3.357 -10.343  1.00  0.00     0.243 CG0
ATOM     35  O   UNL     1       2.283   4.080 -11.033  1.00  0.00    -0.273 OA
ATOM     36  H   UNL     1       4.169   3.190  -8.630  1.00  0.00     0.164 HD
ATOM     37  G   UNL     1       3.088   1.841 -10.583  1.00  0.00     0.000 G0
ENDBRANCH  32  33
BRANCH  32  38
ATOM     38  C   UNL     1       2.476   6.018  -9.630  1.00  0.00     0.143 C 
ATOM     39  C   UNL     1       1.588   6.955  -8.818  1.00  0.00     0.041 C 
BRANCH  38  40
ATOM     40  O   UNL     1       3.165   6.784 -10.637  1.00  0.00    -0.391 OA
ATOM     41  H   UNL     1       3.723   6.155 -11.132  1.00  0.00     0.211 HD
ENDBRANCH  38  40
ENDBRANCH  32  38
ENDBRANCH  29  32
ENDBRANCH  27  28
BRANCH  27  42
ATOM     42  C   UNL     1       0.138   4.001  -5.416  1.00  0.00     0.015 C 
ATOM     43  C   UNL     1      -0.514   3.382  -6.658  1.00  0.00     0.010 C 
ATOM     44  C   UNL     1      -0.204   3.177  -4.170  1.00  0.00     0.010 C 
ENDBRANCH  27  42
ENDBRANCH   3  27
TORSDOF 5
ENDMDL
MODEL 3
REMARK VINA RESULT:    -2.127      2.386      6.774
REMARK INTER + INTRA:          -4.174
REMARK INTER:                  -4.642
REMARK INTRA:                   0.467
REMARK UNBOUND:                -0.368
REMARK SMILES CC[C@H](C)[C@H]1NC(=O)c2coc(n2)[C@H](C(C)C)NC(=O)[C@H]([C@@H](C)O)NC(=O)[C@H](C)NC(=O)c2csc1n2
REMARK SMILES IDX 11 1 13 2 12 3 9 4 10 5 7 6 6 7 8 8 5 10 36 11 35 12 34 13
REMARK SMILES IDX 37 14 33 15 31 16 32 17 30 18 28 20 29 21 3 23 4 24 2 25
REMARK SMILES IDX 1 26 14 27 18 28 19 29 20 30 21 32 25 33 26 34 27 35 22 38
REMARK SMILES IDX 23 39 24 40 15 42 16 43 17 44
REMARK H PARENT 6 9 30 19 18 31 25 36 24 41
REMARK Flexibility Score:   94.900
ROOT
ATOM      1  O   UNL     1       5.825  -1.200  -9.386  1.00  0.00    -0.446 OA
ATOM      2  N   UNL     1       4.792   0.728  -8.838  1.00  0.00    -0.207 NA
ATOM      3  C   UNL     1       5.673  -0.188  -8.476  1.00  0.00     0.217 A 
ATOM      4  C   UNL     1       4.355   0.305 -10.081  1.00  0.00     0.167 A 
ATOM      5  C   UNL     1       4.989  -0.869 -10.409  1.00  0.00     0.231 A 
ENDROOT
BRANCH   4   6
ATOM      6  C   UNL     1       3.355   1.018 -10.856  1.00  0.00     0.273 C 
ATOM      7  N   UNL     1       3.766   2.288 -11.173  1.00  0.00    -0.341 N 
ATOM      8  O   UNL     1       2.268   0.542 -11.162  1.00  0.00    -0.267 OA
ATOM      9  H   UNL     1       4.654   2.577 -10.772  1.00  0.00     0.164 HD
BRANCH   7  10
ATOM     10  C   UNL     1       2.877   3.295 -11.719  1.00  0.00     0.145 C 
BRANCH  10  11
ATOM     11  C   UNL     1       1.717   3.460 -10.749  1.00  0.00     0.116 A 
ATOM     12  S   UNL     1       0.138   3.792 -11.355  1.00  0.00    -0.124 S 
ATOM     13  C   UNL     1      -0.470   3.777  -9.757  1.00  0.00     0.101 A 
ATOM     14  N   UNL     1       1.807   3.355  -9.434  1.00  0.00    -0.234 NA
ATOM     15  C   UNL     1       0.546   3.520  -8.856  1.00  0.00     0.139 A 
BRANCH  15  16
ATOM     16  C   UNL     1       0.342   3.415  -7.410  1.00  0.00     0.271 C 
ATOM     17  O   UNL     1      -0.649   2.891  -6.914  1.00  0.00    -0.267 OA
ATOM     18  N   UNL     1       1.368   3.961  -6.668  1.00  0.00    -0.339 N 
ATOM     19  H   UNL     1       2.078   4.464  -7.194  1.00  0.00     0.164 HD
BRANCH  18  20
ATOM     20  C   UNL     1       1.306   4.008  -5.214  1.00  0.00     0.168 CG0
ATOM     21  C   UNL     1       0.070   3.275  -4.686  1.00  0.00     0.041 C 
ATOM     22  G   UNL     1       2.543   3.386  -4.545  1.00  0.00     0.000 G0
ENDBRANCH  18  20
ENDBRANCH  15  16
ENDBRANCH  10  11
BRANCH  10  23
ATOM     23  C   UNL     1       3.610   4.634 -11.999  1.00  0.00     0.015 C 
ATOM     24  C   UNL     1       2.965   5.456 -13.127  1.00  0.00     0.010 C 
BRANCH  23  25
ATOM     25  C   UNL     1       3.727   5.525 -10.742  1.00  0.00     0.002 C 
ATOM     26  C   UNL     1       4.581   6.770 -10.944  1.00  0.00     0.004 C 
ENDBRANCH  23  25
ENDBRANCH  10  23
ENDBRANCH   7  10
ENDBRANCH   4   6
BRANCH   3  27
ATOM     27  C   UNL     1       6.446  -0.242  -7.187  1.00  0.00     0.171 C 
BRANCH  27  28
ATOM     28  N   UNL     1       5.539   0.129  -6.106  1.00  0.00    -0.342 N 
ATOM     29  C   UNL     1       5.373   1.429  -5.683  1.00  0.00     0.245 C 
ATOM     30  O   UNL     1       5.967   2.376  -6.196  1.00  0.00    -0.273 OA
ATOM     31  H   UNL     1       4.929  -0.586  -5.711  1.00  0.00     0.164 HD
BRANCH  29  32
ATOM     32  C   UNL     1       4.277   1.641  -4.618  1.00  0.00     0.200 C 
BRANCH  32  33
ATOM     33  N   UNL     1       3.187   2.415  -5.226  1.00  0.00    -0.340 N 
ATOM     34  C   UNL     1       2.519   3.391  -4.516  1.00  0.00     0.243 CG0
ATOM     35  O   UNL     1       2.760   3.612  -3.331  1.00  0.00    -0.273 OA
ATOM     36  H   UNL     1       2.945   2.234  -6.193  1.00  0.00     0.164 HD
ATOM     37  G   UNL     1       1.313   4.025  -5.228  1.00  0.00     0.000 G0
ENDBRANCH  32  33
BRANCH  32  38
ATOM     38  C   UNL     1       3.801   0.297  -4.020  1.00  0.00     0.143 C 
ATOM     39  C   UNL     1       4.859  -0.427  -3.196  1.00  0.00     0.041 C 
BRANCH  38  40
ATOM     40  O   UNL     1       2.634   0.507  -3.202  1.00  0.00    -0.391 OA
ATOM     41  H   UNL     1       1.859   0.354  -3.775  1.00  0.00     0.211 HD
ENDBRANCH  38  40
ENDBRANCH  32  38
ENDBRANCH  29  32
ENDBRANCH  27  28
BRANCH  27  42
ATOM     42  C   UNL     1       7.207  -1.552  -6.866  1.00  0.00     0.015 C 
ATOM     43  C   UNL     1       8.305  -1.939  -7.864  1.00  0.00     0.010 C 
ATOM     44  C   UNL     1       7.762  -1.558  -5.438  1.00  0.00     0.010 C 
ENDBRANCH  27  42
ENDBRANCH   3  27
TORSDOF 5
ENDMDL
