MODEL 1
REMARK VINA RESULT:    -6.885      0.000      0.000
REMARK INTER + INTRA:         -14.512
REMARK INTER:                 -12.319
REMARK INTRA:                  -2.194
REMARK UNBOUND:                -2.194
REMARK SMILES CC[C@H](C)[C@H]1NC(=O)c2coc(n2)[C@H](C(C)C)NC(=O)[C@H]([C@@H](C)O)NC(=O)[C@H](C)NC(=O)c2csc1n2
REMARK SMILES IDX 11 1 13 2 12 3 9 4 10 5 7 6 6 7 8 8 5 10 36 11 35 12 34 13
REMARK SMILES IDX 37 14 33 15 31 16 32 17 30 18 28 20 29 21 3 23 4 24 2 25
REMARK SMILES IDX 1 26 14 27 18 28 19 29 20 30 21 32 25 33 26 34 27 35 22 38
REMARK SMILES IDX 23 39 24 40 15 42 16 43 17 44
REMARK H PARENT 6 9 30 19 18 31 25 36 24 41
REMARK Flexibility Score:   94.900
ROOT
ATOM      1  O   UNL     1     -12.775   1.018  -0.283  1.00  0.00    -0.446 OA
ATOM      2  N   UNL     1     -12.474  -0.229  -2.137  1.00  0.00    -0.207 NA
ATOM      3  C   UNL     1     -13.347   0.295  -1.295  1.00  0.00     0.217 A 
ATOM      4  C   UNL     1     -11.246   0.200  -1.663  1.00  0.00     0.167 A 
ATOM      5  C   UNL     1     -11.437   0.960  -0.534  1.00  0.00     0.231 A 
ENDROOT
BRANCH   4   6
ATOM      6  C   UNL     1      -9.985  -0.158  -2.287  1.00  0.00     0.273 C 
ATOM      7  N   UNL     1      -9.174   0.934  -2.461  1.00  0.00    -0.341 N 
ATOM      8  O   UNL     1      -9.701  -1.298  -2.635  1.00  0.00    -0.267 OA
ATOM      9  H   UNL     1      -9.581   1.830  -2.208  1.00  0.00     0.164 HD
BRANCH   7  10
ATOM     10  C   UNL     1      -7.974   0.908  -3.275  1.00  0.00     0.145 C 
BRANCH  10  11
ATOM     11  C   UNL     1      -8.371   1.293  -4.693  1.00  0.00     0.116 A 
ATOM     12  S   UNL     1      -7.219   2.050  -5.727  1.00  0.00    -0.124 S 
ATOM     13  C   UNL     1      -8.378   2.079  -6.983  1.00  0.00     0.101 A 
ATOM     14  N   UNL     1      -9.560   1.080  -5.231  1.00  0.00    -0.234 NA
ATOM     15  C   UNL     1      -9.566   1.516  -6.558  1.00  0.00     0.139 A 
BRANCH  15  16
ATOM     16  C   UNL     1     -10.746   1.369  -7.412  1.00  0.00     0.271 C 
ATOM     17  O   UNL     1     -10.682   1.338  -8.637  1.00  0.00    -0.267 OA
ATOM     18  N   UNL     1     -11.927   1.267  -6.707  1.00  0.00    -0.339 N 
ATOM     19  H   UNL     1     -11.860   1.419  -5.704  1.00  0.00     0.164 HD
BRANCH  18  20
ATOM     20  C   UNL     1     -13.210   1.183  -7.392  1.00  0.00     0.168 CG0
ATOM     21  C   UNL     1     -13.610  -0.272  -7.646  1.00  0.00     0.041 C 
ATOM     22  G   UNL     1     -14.348   1.853  -6.606  1.00  0.00     0.000 G0
ENDBRANCH  18  20
ENDBRANCH  15  16
ENDBRANCH  10  11
BRANCH  10  23
ATOM     23  C   UNL     1      -6.859   1.824  -2.704  1.00  0.00     0.015 C 
ATOM     24  C   UNL     1      -7.150   2.322  -1.278  1.00  0.00     0.010 C 
BRANCH  23  25
ATOM     25  C   UNL     1      -5.467   1.151  -2.718  1.00  0.00     0.002 C 
ATOM     26  C   UNL     1      -5.512  -0.364  -2.575  1.00  0.00     0.004 C 
ENDBRANCH  23  25
ENDBRANCH  10  23
ENDBRANCH   7  10
ENDBRANCH   4   6
BRANCH   3  27
ATOM     27  C   UNL     1     -14.842   0.128  -1.320  1.00  0.00     0.171 C 
BRANCH  27  28
ATOM     28  N   UNL     1     -15.297   0.379  -2.683  1.00  0.00    -0.342 N 
ATOM     29  C   UNL     1     -15.535   1.645  -3.170  1.00  0.00     0.245 C 
ATOM     30  O   UNL     1     -15.366   2.660  -2.496  1.00  0.00    -0.273 OA
ATOM     31  H   UNL     1     -15.349  -0.403  -3.334  1.00  0.00     0.164 HD
BRANCH  29  32
ATOM     32  C   UNL     1     -15.886   1.719  -4.671  1.00  0.00     0.200 C 
BRANCH  32  33
ATOM     33  N   UNL     1     -14.727   1.247  -5.439  1.00  0.00    -0.340 N 
ATOM     34  C   UNL     1     -14.354   1.855  -6.620  1.00  0.00     0.243 CG0
ATOM     35  O   UNL     1     -15.009   2.772  -7.113  1.00  0.00    -0.273 OA
ATOM     36  H   UNL     1     -14.185   0.473  -5.073  1.00  0.00     0.164 HD
ATOM     37  G   UNL     1     -13.210   1.175  -7.388  1.00  0.00     0.000 G0
ENDBRANCH  32  33
BRANCH  32  38
ATOM     38  C   UNL     1     -17.179   0.934  -4.989  1.00  0.00     0.143 C 
ATOM     39  C   UNL     1     -16.942  -0.403  -5.682  1.00  0.00     0.041 C 
BRANCH  38  40
ATOM     40  O   UNL     1     -17.928   0.706  -3.779  1.00  0.00    -0.391 OA
ATOM     41  H   UNL     1     -18.314  -0.187  -3.853  1.00  0.00     0.211 HD
ENDBRANCH  38  40
ENDBRANCH  32  38
ENDBRANCH  29  32
ENDBRANCH  27  28
BRANCH  27  42
ATOM     42  C   UNL     1     -15.421  -1.195  -0.760  1.00  0.00     0.015 C 
ATOM     43  C   UNL     1     -15.767  -2.260  -1.807  1.00  0.00     0.010 C 
ATOM     44  C   UNL     1     -14.529  -1.794   0.332  1.00  0.00     0.010 C 
ENDBRANCH  27  42
ENDBRANCH   3  27
TORSDOF 5
ENDMDL
MODEL 2
REMARK VINA RESULT:    -6.789      3.559      6.951
REMARK INTER + INTRA:         -14.341
REMARK INTER:                 -12.027
REMARK INTRA:                  -2.314
REMARK UNBOUND:                -2.194
REMARK SMILES CC[C@H](C)[C@H]1NC(=O)c2coc(n2)[C@H](C(C)C)NC(=O)[C@H]([C@@H](C)O)NC(=O)[C@H](C)NC(=O)c2csc1n2
REMARK SMILES IDX 11 1 13 2 12 3 9 4 10 5 7 6 6 7 8 8 5 10 36 11 35 12 34 13
REMARK SMILES IDX 37 14 33 15 31 16 32 17 30 18 28 20 29 21 3 23 4 24 2 25
REMARK SMILES IDX 1 26 14 27 18 28 19 29 20 30 21 32 25 33 26 34 27 35 22 38
REMARK SMILES IDX 23 39 24 40 15 42 16 43 17 44
REMARK H PARENT 6 9 30 19 18 31 25 36 24 41
REMARK Flexibility Score:   94.900
ROOT
ATOM      1  O   UNL     1     -10.009   0.240  -7.604  1.00  0.00    -0.446 OA
ATOM      2  N   UNL     1      -9.210   1.090  -5.676  1.00  0.00    -0.207 NA
ATOM      3  C   UNL     1     -10.153   0.364  -6.248  1.00  0.00     0.217 A 
ATOM      4  C   UNL     1      -8.374   1.445  -6.720  1.00  0.00     0.167 A 
ATOM      5  C   UNL     1      -8.866   0.923  -7.892  1.00  0.00     0.231 A 
ENDROOT
BRANCH   4   6
ATOM      6  C   UNL     1      -7.192   2.271  -6.546  1.00  0.00     0.273 C 
ATOM      7  N   UNL     1      -6.040   1.527  -6.582  1.00  0.00    -0.341 N 
ATOM      8  O   UNL     1      -7.233   3.482  -6.364  1.00  0.00    -0.267 OA
ATOM      9  H   UNL     1      -6.167   0.521  -6.648  1.00  0.00     0.164 HD
BRANCH   7  10
ATOM     10  C   UNL     1      -4.746   2.052  -6.192  1.00  0.00     0.145 C 
BRANCH  10  11
ATOM     11  C   UNL     1      -4.687   2.046  -4.671  1.00  0.00     0.116 A 
ATOM     12  S   UNL     1      -4.011   3.394  -3.837  1.00  0.00    -0.124 S 
ATOM     13  C   UNL     1      -4.356   2.635  -2.346  1.00  0.00     0.101 A 
ATOM     14  N   UNL     1      -5.135   1.070  -3.899  1.00  0.00    -0.234 NA
ATOM     15  C   UNL     1      -4.963   1.411  -2.555  1.00  0.00     0.139 A 
BRANCH  15  16
ATOM     16  C   UNL     1      -5.406   0.528  -1.474  1.00  0.00     0.271 C 
ATOM     17  O   UNL     1      -4.740  -0.420  -1.074  1.00  0.00    -0.267 OA
ATOM     18  N   UNL     1      -6.637   0.869  -0.955  1.00  0.00    -0.339 N 
ATOM     19  H   UNL     1      -7.138   1.606  -1.445  1.00  0.00     0.164 HD
BRANCH  18  20
ATOM     20  C   UNL     1      -7.268   0.064   0.082  1.00  0.00     0.168 CG0
ATOM     21  C   UNL     1      -7.321   0.814   1.414  1.00  0.00     0.041 C 
ATOM     22  G   UNL     1      -8.703  -0.353  -0.281  1.00  0.00     0.000 G0
ENDBRANCH  18  20
ENDBRANCH  15  16
ENDBRANCH  10  11
BRANCH  10  23
ATOM     23  C   UNL     1      -3.576   1.260  -6.833  1.00  0.00     0.015 C 
ATOM     24  C   UNL     1      -3.959   0.567  -8.151  1.00  0.00     0.010 C 
BRANCH  23  25
ATOM     25  C   UNL     1      -2.326   2.136  -7.080  1.00  0.00     0.002 C 
ATOM     26  C   UNL     1      -1.306   2.091  -5.951  1.00  0.00     0.004 C 
ENDBRANCH  23  25
ENDBRANCH  10  23
ENDBRANCH   7  10
ENDBRANCH   4   6
BRANCH   3  27
ATOM     27  C   UNL     1     -11.346  -0.263  -5.579  1.00  0.00     0.171 C 
BRANCH  27  28
ATOM     28  N   UNL     1     -11.306   0.098  -4.166  1.00  0.00    -0.342 N 
ATOM     29  C   UNL     1     -10.696  -0.686  -3.212  1.00  0.00     0.245 C 
ATOM     30  O   UNL     1     -10.126  -1.741  -3.483  1.00  0.00    -0.273 OA
ATOM     31  H   UNL     1     -11.657   1.012  -3.883  1.00  0.00     0.164 HD
BRANCH  29  32
ATOM     32  C   UNL     1     -10.644  -0.078  -1.794  1.00  0.00     0.200 C 
BRANCH  32  33
ATOM     33  N   UNL     1      -9.236   0.136  -1.437  1.00  0.00    -0.340 N 
ATOM     34  C   UNL     1      -8.713  -0.359  -0.260  1.00  0.00     0.243 CG0
ATOM     35  O   UNL     1      -9.411  -0.942   0.567  1.00  0.00    -0.273 OA
ATOM     36  H   UNL     1      -8.642   0.640  -2.085  1.00  0.00     0.164 HD
ATOM     37  G   UNL     1      -7.266   0.055   0.052  1.00  0.00     0.000 G0
ENDBRANCH  32  33
BRANCH  32  38
ATOM     38  C   UNL     1     -11.493   1.211  -1.700  1.00  0.00     0.143 C 
ATOM     39  C   UNL     1     -11.887   1.594  -0.279  1.00  0.00     0.041 C 
BRANCH  38  40
ATOM     40  O   UNL     1     -10.784   2.313  -2.301  1.00  0.00    -0.391 OA
ATOM     41  H   UNL     1     -10.920   3.083  -1.718  1.00  0.00     0.211 HD
ENDBRANCH  38  40
ENDBRANCH  32  38
ENDBRANCH  29  32
ENDBRANCH  27  28
BRANCH  27  42
ATOM     42  C   UNL     1     -12.738   0.014  -6.199  1.00  0.00     0.015 C 
ATOM     43  C   UNL     1     -13.317  -1.117  -7.056  1.00  0.00     0.010 C 
ATOM     44  C   UNL     1     -13.757   0.456  -5.143  1.00  0.00     0.010 C 
ENDBRANCH  27  42
ENDBRANCH   3  27
TORSDOF 5
ENDMDL
MODEL 3
REMARK VINA RESULT:    -6.710      3.159      6.522
REMARK INTER + INTRA:         -14.200
REMARK INTER:                 -12.059
REMARK INTRA:                  -2.141
REMARK UNBOUND:                -2.194
REMARK SMILES CC[C@H](C)[C@H]1NC(=O)c2coc(n2)[C@H](C(C)C)NC(=O)[C@H]([C@@H](C)O)NC(=O)[C@H](C)NC(=O)c2csc1n2
REMARK SMILES IDX 11 1 13 2 12 3 9 4 10 5 7 6 6 7 8 8 5 10 36 11 35 12 34 13
REMARK SMILES IDX 37 14 33 15 31 16 32 17 30 18 28 20 29 21 3 23 4 24 2 25
REMARK SMILES IDX 1 26 14 27 18 28 19 29 20 30 21 32 25 33 26 34 27 35 22 38
REMARK SMILES IDX 23 39 24 40 15 42 16 43 17 44
REMARK H PARENT 6 9 30 19 18 31 25 36 24 41
REMARK Flexibility Score:   94.900
ROOT
ATOM      1  O   UNL     1     -12.670  -1.428  -6.014  1.00  0.00    -0.446 OA
ATOM      2  N   UNL     1     -11.524   0.432  -5.460  1.00  0.00    -0.207 NA
ATOM      3  C   UNL     1     -12.296  -0.551  -5.032  1.00  0.00     0.217 A 
ATOM      4  C   UNL     1     -11.358   0.170  -6.809  1.00  0.00     0.167 A 
ATOM      5  C   UNL     1     -12.058  -0.965  -7.140  1.00  0.00     0.231 A 
ENDROOT
BRANCH   4   6
ATOM      6  C   UNL     1     -10.579   1.019  -7.693  1.00  0.00     0.273 C 
ATOM      7  N   UNL     1      -9.261   0.640  -7.733  1.00  0.00    -0.341 N 
ATOM      8  O   UNL     1     -11.047   1.972  -8.304  1.00  0.00    -0.267 OA
ATOM      9  H   UNL     1      -8.999  -0.112  -7.101  1.00  0.00     0.164 HD
BRANCH   7  10
ATOM     10  C   UNL     1      -8.221   1.452  -8.332  1.00  0.00     0.145 C 
BRANCH  10  11
ATOM     11  C   UNL     1      -7.192   1.753  -7.252  1.00  0.00     0.116 A 
ATOM     12  S   UNL     1      -6.000   2.968  -7.522  1.00  0.00    -0.124 S 
ATOM     13  C   UNL     1      -5.374   2.691  -5.956  1.00  0.00     0.101 A 
ATOM     14  N   UNL     1      -7.133   1.155  -6.074  1.00  0.00    -0.234 NA
ATOM     15  C   UNL     1      -6.097   1.704  -5.314  1.00  0.00     0.139 A 
BRANCH  15  16
ATOM     16  C   UNL     1      -5.824   1.256  -3.946  1.00  0.00     0.271 C 
ATOM     17  O   UNL     1      -4.998   0.390  -3.683  1.00  0.00    -0.267 OA
ATOM     18  N   UNL     1      -6.583   1.904  -2.994  1.00  0.00    -0.339 N 
ATOM     19  H   UNL     1      -7.309   2.520  -3.348  1.00  0.00     0.164 HD
BRANCH  18  20
ATOM     20  C   UNL     1      -6.495   1.541  -1.586  1.00  0.00     0.168 CG0
ATOM     21  C   UNL     1      -5.868   2.666  -0.760  1.00  0.00     0.041 C 
ATOM     22  G   UNL     1      -7.866   1.213  -0.971  1.00  0.00     0.000 G0
ENDBRANCH  18  20
ENDBRANCH  15  16
ENDBRANCH  10  11
BRANCH  10  23
ATOM     23  C   UNL     1      -7.591   0.773  -9.577  1.00  0.00     0.015 C 
ATOM     24  C   UNL     1      -6.618  -0.364  -9.223  1.00  0.00     0.010 C 
BRANCH  23  25
ATOM     25  C   UNL     1      -8.650   0.230 -10.563  1.00  0.00     0.002 C 
ATOM     26  C   UNL     1      -8.077  -0.221 -11.899  1.00  0.00     0.004 C 
ENDBRANCH  23  25
ENDBRANCH  10  23
ENDBRANCH   7  10
ENDBRANCH   4   6
BRANCH   3  27
ATOM     27  C   UNL     1     -12.819  -0.750  -3.635  1.00  0.00     0.171 C 
BRANCH  27  28
ATOM     28  N   UNL     1     -12.128   0.192  -2.761  1.00  0.00    -0.342 N 
ATOM     29  C   UNL     1     -10.962  -0.121  -2.099  1.00  0.00     0.245 C 
ATOM     30  O   UNL     1     -10.408  -1.214  -2.208  1.00  0.00    -0.273 OA
ATOM     31  H   UNL     1     -12.464   1.153  -2.712  1.00  0.00     0.164 HD
BRANCH  29  32
ATOM     32  C   UNL     1     -10.310   1.043  -1.324  1.00  0.00     0.200 C 
BRANCH  32  33
ATOM     33  N   UNL     1      -8.938   1.216  -1.820  1.00  0.00    -0.340 N 
ATOM     34  C   UNL     1      -7.861   1.215  -0.959  1.00  0.00     0.243 CG0
ATOM     35  O   UNL     1      -8.003   1.134   0.260  1.00  0.00    -0.273 OA
ATOM     36  H   UNL     1      -8.792   1.315  -2.817  1.00  0.00     0.164 HD
ATOM     37  G   UNL     1      -6.500   1.542  -1.594  1.00  0.00     0.000 G0
ENDBRANCH  32  33
BRANCH  32  38
ATOM     38  C   UNL     1     -11.155   2.334  -1.428  1.00  0.00     0.143 C 
ATOM     39  C   UNL     1     -11.614   2.887  -0.084  1.00  0.00     0.041 C 
BRANCH  38  40
ATOM     40  O   UNL     1     -10.413   3.355  -2.124  1.00  0.00    -0.391 OA
ATOM     41  H   UNL     1     -10.043   3.946  -1.441  1.00  0.00     0.211 HD
ENDBRANCH  38  40
ENDBRANCH  32  38
ENDBRANCH  29  32
ENDBRANCH  27  28
BRANCH  27  42
ATOM     42  C   UNL     1     -14.353  -0.693  -3.434  1.00  0.00     0.015 C 
ATOM     43  C   UNL     1     -14.887  -1.445  -2.209  1.00  0.00     0.010 C 
ATOM     44  C   UNL     1     -14.880   0.746  -3.445  1.00  0.00     0.010 C 
ENDBRANCH  27  42
ENDBRANCH   3  27
TORSDOF 5
ENDMDL
MODEL 4
REMARK VINA RESULT:    -6.637      2.625      6.989
REMARK INTER + INTRA:         -14.068
REMARK INTER:                 -12.385
REMARK INTRA:                  -1.683
REMARK UNBOUND:                -2.194
REMARK SMILES CC[C@H](C)[C@H]1NC(=O)c2coc(n2)[C@H](C(C)C)NC(=O)[C@H]([C@@H](C)O)NC(=O)[C@H](C)NC(=O)c2csc1n2
REMARK SMILES IDX 11 1 13 2 12 3 9 4 10 5 7 6 6 7 8 8 5 10 36 11 35 12 34 13
REMARK SMILES IDX 37 14 33 15 31 16 32 17 30 18 28 20 29 21 3 23 4 24 2 25
REMARK SMILES IDX 1 26 14 27 18 28 19 29 20 30 21 32 25 33 26 34 27 35 22 38
REMARK SMILES IDX 23 39 24 40 15 42 16 43 17 44
REMARK H PARENT 6 9 30 19 18 31 25 36 24 41
REMARK Flexibility Score:   94.900
ROOT
ATOM      1  O   UNL     1      -8.447   0.531   0.162  1.00  0.00    -0.446 OA
ATOM      2  N   UNL     1      -9.481   2.119  -1.059  1.00  0.00    -0.207 NA
ATOM      3  C   UNL     1      -8.344   1.497  -0.803  1.00  0.00     0.217 A 
ATOM      4  C   UNL     1     -10.399   1.503  -0.226  1.00  0.00     0.167 A 
ATOM      5  C   UNL     1      -9.763   0.537   0.514  1.00  0.00     0.231 A 
ENDROOT
BRANCH   4   6
ATOM      6  C   UNL     1     -11.799   1.887  -0.166  1.00  0.00     0.273 C 
ATOM      7  N   UNL     1     -12.604   0.980  -0.807  1.00  0.00    -0.341 N 
ATOM      8  O   UNL     1     -12.197   2.913   0.372  1.00  0.00    -0.267 OA
ATOM      9  H   UNL     1     -12.122   0.226  -1.288  1.00  0.00     0.164 HD
BRANCH   7  10
ATOM     10  C   UNL     1     -13.998   1.236  -1.113  1.00  0.00     0.145 C 
BRANCH  10  11
ATOM     11  C   UNL     1     -14.189   1.018  -2.607  1.00  0.00     0.116 A 
ATOM     12  S   UNL     1     -15.573   1.674  -3.396  1.00  0.00    -0.124 S 
ATOM     13  C   UNL     1     -15.010   1.052  -4.885  1.00  0.00     0.101 A 
ATOM     14  N   UNL     1     -13.351   0.358  -3.390  1.00  0.00    -0.234 NA
ATOM     15  C   UNL     1     -13.811   0.389  -4.709  1.00  0.00     0.139 A 
BRANCH  15  16
ATOM     16  C   UNL     1     -13.059  -0.234  -5.801  1.00  0.00     0.271 C 
ATOM     17  O   UNL     1     -13.489  -1.180  -6.450  1.00  0.00    -0.267 OA
ATOM     18  N   UNL     1     -11.829   0.349  -6.023  1.00  0.00    -0.339 N 
ATOM     19  H   UNL     1     -11.540   1.051  -5.347  1.00  0.00     0.164 HD
BRANCH  18  20
ATOM     20  C   UNL     1     -10.913  -0.181  -7.025  1.00  0.00     0.168 CG0
ATOM     21  C   UNL     1     -11.232   0.370  -8.417  1.00  0.00     0.041 C 
ATOM     22  G   UNL     1      -9.443   0.143  -6.717  1.00  0.00     0.000 G0
ENDBRANCH  18  20
ENDBRANCH  15  16
ENDBRANCH  10  11
BRANCH  10  23
ATOM     23  C   UNL     1     -14.955   0.362  -0.261  1.00  0.00     0.015 C 
ATOM     24  C   UNL     1     -16.055   1.173   0.445  1.00  0.00     0.010 C 
BRANCH  23  25
ATOM     25  C   UNL     1     -15.621  -0.768  -1.078  1.00  0.00     0.002 C 
ATOM     26  C   UNL     1     -14.998  -2.140  -0.859  1.00  0.00     0.004 C 
ENDBRANCH  23  25
ENDBRANCH  10  23
ENDBRANCH   7  10
ENDBRANCH   4   6
BRANCH   3  27
ATOM     27  C   UNL     1      -6.998   1.782  -1.411  1.00  0.00     0.171 C 
BRANCH  27  28
ATOM     28  N   UNL     1      -7.175   1.895  -2.855  1.00  0.00    -0.342 N 
ATOM     29  C   UNL     1      -7.635   0.859  -3.635  1.00  0.00     0.245 C 
ATOM     30  O   UNL     1      -7.946  -0.237  -3.170  1.00  0.00    -0.273 OA
ATOM     31  H   UNL     1      -7.048   2.807  -3.294  1.00  0.00     0.164 HD
BRANCH  29  32
ATOM     32  C   UNL     1      -7.880   1.207  -5.119  1.00  0.00     0.200 C 
BRANCH  32  33
ATOM     33  N   UNL     1      -9.217   0.728  -5.490  1.00  0.00    -0.340 N 
ATOM     34  C   UNL     1      -9.455   0.152  -6.721  1.00  0.00     0.243 CG0
ATOM     35  O   UNL     1      -8.580   0.073  -7.581  1.00  0.00    -0.273 OA
ATOM     36  H   UNL     1      -9.967   0.807  -4.813  1.00  0.00     0.164 HD
ATOM     37  G   UNL     1     -10.924  -0.178  -7.030  1.00  0.00     0.000 G0
ENDBRANCH  32  33
BRANCH  32  38
ATOM     38  C   UNL     1      -7.687   2.719  -5.383  1.00  0.00     0.143 C 
ATOM     39  C   UNL     1      -6.739   3.033  -6.535  1.00  0.00     0.041 C 
BRANCH  38  40
ATOM     40  O   UNL     1      -8.960   3.340  -5.644  1.00  0.00    -0.391 OA
ATOM     41  H   UNL     1      -8.771   4.249  -5.945  1.00  0.00     0.211 HD
ENDBRANCH  38  40
ENDBRANCH  32  38
ENDBRANCH  29  32
ENDBRANCH  27  28
BRANCH  27  42
ATOM     42  C   UNL     1      -6.195   2.976  -0.840  1.00  0.00     0.015 C 
ATOM     43  C   UNL     1      -5.686   2.805   0.596  1.00  0.00     0.010 C 
ATOM     44  C   UNL     1      -5.046   3.389  -1.766  1.00  0.00     0.010 C 
ENDBRANCH  27  42
ENDBRANCH   3  27
TORSDOF 5
ENDMDL
MODEL 5
REMARK VINA RESULT:    -6.617      3.858      8.564
REMARK INTER + INTRA:         -14.033
REMARK INTER:                 -12.073
REMARK INTRA:                  -1.960
REMARK UNBOUND:                -2.194
REMARK SMILES CC[C@H](C)[C@H]1NC(=O)c2coc(n2)[C@H](C(C)C)NC(=O)[C@H]([C@@H](C)O)NC(=O)[C@H](C)NC(=O)c2csc1n2
REMARK SMILES IDX 11 1 13 2 12 3 9 4 10 5 7 6 6 7 8 8 5 10 36 11 35 12 34 13
REMARK SMILES IDX 37 14 33 15 31 16 32 17 30 18 28 20 29 21 3 23 4 24 2 25
REMARK SMILES IDX 1 26 14 27 18 28 19 29 20 30 21 32 25 33 26 34 27 35 22 38
REMARK SMILES IDX 23 39 24 40 15 42 16 43 17 44
REMARK H PARENT 6 9 30 19 18 31 25 36 24 41
REMARK Flexibility Score:   94.900
ROOT
ATOM      1  O   UNL     1      -7.187   0.256  -0.441  1.00  0.00    -0.446 OA
ATOM      2  N   UNL     1      -7.337   1.990  -1.874  1.00  0.00    -0.207 NA
ATOM      3  C   UNL     1      -6.558   1.307  -1.054  1.00  0.00     0.217 A 
ATOM      4  C   UNL     1      -8.552   1.329  -1.817  1.00  0.00     0.167 A 
ATOM      5  C   UNL     1      -8.454   0.274  -0.943  1.00  0.00     0.231 A 
ENDROOT
BRANCH   4   6
ATOM      6  C   UNL     1      -9.723   1.754  -2.564  1.00  0.00     0.273 C 
ATOM      7  N   UNL     1     -10.359   0.695  -3.160  1.00  0.00    -0.341 N 
ATOM      8  O   UNL     1     -10.075   2.923  -2.664  1.00  0.00    -0.267 OA
ATOM      9  H   UNL     1      -9.899  -0.206  -3.065  1.00  0.00     0.164 HD
BRANCH   7  10
ATOM     10  C   UNL     1     -11.399   0.855  -4.158  1.00  0.00     0.145 C 
BRANCH  10  11
ATOM     11  C   UNL     1     -10.741   0.761  -5.527  1.00  0.00     0.116 A 
ATOM     12  S   UNL     1     -11.582   0.010  -6.830  1.00  0.00    -0.124 S 
ATOM     13  C   UNL     1     -10.267   0.352  -7.867  1.00  0.00     0.101 A 
ATOM     14  N   UNL     1      -9.541   1.233  -5.826  1.00  0.00    -0.234 NA
ATOM     15  C   UNL     1      -9.269   1.015  -7.179  1.00  0.00     0.139 A 
BRANCH  15  16
ATOM     16  C   UNL     1      -8.021   1.470  -7.796  1.00  0.00     0.271 C 
ATOM     17  O   UNL     1      -7.960   1.874  -8.952  1.00  0.00    -0.267 OA
ATOM     18  N   UNL     1      -6.933   1.401  -6.953  1.00  0.00    -0.339 N 
ATOM     19  H   UNL     1      -7.092   0.945  -6.058  1.00  0.00     0.164 HD
BRANCH  18  20
ATOM     20  C   UNL     1      -5.596   1.749  -7.416  1.00  0.00     0.168 CG0
ATOM     21  C   UNL     1      -5.430   3.265  -7.547  1.00  0.00     0.041 C 
ATOM     22  G   UNL     1      -4.490   1.234  -6.481  1.00  0.00     0.000 G0
ENDBRANCH  18  20
ENDBRANCH  15  16
ENDBRANCH  10  11
BRANCH  10  23
ATOM     23  C   UNL     1     -12.545  -0.175  -3.981  1.00  0.00     0.015 C 
ATOM     24  C   UNL     1     -12.090  -1.485  -3.317  1.00  0.00     0.010 C 
BRANCH  23  25
ATOM     25  C   UNL     1     -13.742   0.393  -3.184  1.00  0.00     0.002 C 
ATOM     26  C   UNL     1     -15.101  -0.006  -3.741  1.00  0.00     0.004 C 
ENDBRANCH  23  25
ENDBRANCH  10  23
ENDBRANCH   7  10
ENDBRANCH   4   6
BRANCH   3  27
ATOM     27  C   UNL     1      -5.124   1.602  -0.711  1.00  0.00     0.171 C 
BRANCH  27  28
ATOM     28  N   UNL     1      -4.407   1.847  -1.958  1.00  0.00    -0.342 N 
ATOM     29  C   UNL     1      -4.161   0.858  -2.884  1.00  0.00     0.245 C 
ATOM     30  O   UNL     1      -4.542  -0.302  -2.736  1.00  0.00    -0.273 OA
ATOM     31  H   UNL     1      -4.162   2.805  -2.202  1.00  0.00     0.164 HD
BRANCH  29  32
ATOM     32  C   UNL     1      -3.505   1.333  -4.197  1.00  0.00     0.200 C 
BRANCH  32  33
ATOM     33  N   UNL     1      -4.569   1.636  -5.162  1.00  0.00    -0.340 N 
ATOM     34  C   UNL     1      -4.470   1.250  -6.482  1.00  0.00     0.243 CG0
ATOM     35  O   UNL     1      -3.465   0.695  -6.923  1.00  0.00    -0.273 OA
ATOM     36  H   UNL     1      -5.397   2.120  -4.835  1.00  0.00     0.164 HD
ATOM     37  G   UNL     1      -5.589   1.751  -7.409  1.00  0.00     0.000 G0
ENDBRANCH  32  33
BRANCH  32  38
ATOM     38  C   UNL     1      -2.554   2.529  -3.954  1.00  0.00     0.143 C 
ATOM     39  C   UNL     1      -1.361   2.578  -4.901  1.00  0.00     0.041 C 
BRANCH  38  40
ATOM     40  O   UNL     1      -3.283   3.767  -4.056  1.00  0.00    -0.391 OA
ATOM     41  H   UNL     1      -3.988   3.623  -4.716  1.00  0.00     0.211 HD
ENDBRANCH  38  40
ENDBRANCH  32  38
ENDBRANCH  29  32
ENDBRANCH  27  28
BRANCH  27  42
ATOM     42  C   UNL     1      -4.855   2.718   0.329  1.00  0.00     0.015 C 
ATOM     43  C   UNL     1      -5.457   2.485   1.719  1.00  0.00     0.010 C 
ATOM     44  C   UNL     1      -3.362   3.045   0.445  1.00  0.00     0.010 C 
ENDBRANCH  27  42
ENDBRANCH   3  27
TORSDOF 5
ENDMDL
MODEL 6
REMARK VINA RESULT:    -6.532      3.037      6.019
REMARK INTER + INTRA:         -13.881
REMARK INTER:                 -11.537
REMARK INTRA:                  -2.344
REMARK UNBOUND:                -2.194
REMARK SMILES CC[C@H](C)[C@H]1NC(=O)c2coc(n2)[C@H](C(C)C)NC(=O)[C@H]([C@@H](C)O)NC(=O)[C@H](C)NC(=O)c2csc1n2
REMARK SMILES IDX 11 1 13 2 12 3 9 4 10 5 7 6 6 7 8 8 5 10 36 11 35 12 34 13
REMARK SMILES IDX 37 14 33 15 31 16 32 17 30 18 28 20 29 21 3 23 4 24 2 25
REMARK SMILES IDX 1 26 14 27 18 28 19 29 20 30 21 32 25 33 26 34 27 35 22 38
REMARK SMILES IDX 23 39 24 40 15 42 16 43 17 44
REMARK H PARENT 6 9 30 19 18 31 25 36 24 41
REMARK Flexibility Score:   94.900
ROOT
ATOM      1  O   UNL     1     -16.144  -0.340  -6.988  1.00  0.00    -0.446 OA
ATOM      2  N   UNL     1     -14.868   0.104  -5.183  1.00  0.00    -0.207 NA
ATOM      3  C   UNL     1     -16.047  -0.299  -5.623  1.00  0.00     0.217 A 
ATOM      4  C   UNL     1     -14.132   0.317  -6.336  1.00  0.00     0.167 A 
ATOM      5  C   UNL     1     -14.914   0.044  -7.431  1.00  0.00     0.231 A 
ENDROOT
BRANCH   4   6
ATOM      6  C   UNL     1     -12.758   0.789  -6.323  1.00  0.00     0.273 C 
ATOM      7  N   UNL     1     -12.094   0.396  -5.188  1.00  0.00    -0.341 N 
ATOM      8  O   UNL     1     -12.269   1.475  -7.212  1.00  0.00    -0.267 OA
ATOM      9  H   UNL     1     -12.656  -0.091  -4.495  1.00  0.00     0.164 HD
BRANCH   7  10
ATOM     10  C   UNL     1     -10.803   0.929  -4.802  1.00  0.00     0.145 C 
BRANCH  10  11
ATOM     11  C   UNL     1     -10.825   1.142  -3.295  1.00  0.00     0.116 A 
ATOM     12  S   UNL     1      -9.600   2.099  -2.549  1.00  0.00    -0.124 S 
ATOM     13  C   UNL     1     -10.350   1.862  -1.032  1.00  0.00     0.101 A 
ATOM     14  N   UNL     1     -11.739   0.654  -2.473  1.00  0.00    -0.234 NA
ATOM     15  C   UNL     1     -11.481   1.080  -1.168  1.00  0.00     0.139 A 
BRANCH  15  16
ATOM     16  C   UNL     1     -12.358   0.719  -0.053  1.00  0.00     0.271 C 
ATOM     17  O   UNL     1     -12.255  -0.338   0.560  1.00  0.00    -0.267 OA
ATOM     18  N   UNL     1     -13.304   1.680   0.237  1.00  0.00    -0.339 N 
ATOM     19  H   UNL     1     -13.359   2.460  -0.413  1.00  0.00     0.164 HD
BRANCH  18  20
ATOM     20  C   UNL     1     -14.306   1.465   1.272  1.00  0.00     0.168 CG0
ATOM     21  C   UNL     1     -14.279   2.584   2.315  1.00  0.00     0.041 C 
ATOM     22  G   UNL     1     -15.734   1.383   0.708  1.00  0.00     0.000 G0
ENDBRANCH  18  20
ENDBRANCH  15  16
ENDBRANCH  10  11
BRANCH  10  23
ATOM     23  C   UNL     1      -9.633   0.014  -5.253  1.00  0.00     0.015 C 
ATOM     24  C   UNL     1      -9.929  -1.484  -5.075  1.00  0.00     0.010 C 
BRANCH  23  25
ATOM     25  C   UNL     1      -9.209   0.265  -6.718  1.00  0.00     0.002 C 
ATOM     26  C   UNL     1      -8.710   1.678  -6.984  1.00  0.00     0.004 C 
ENDBRANCH  23  25
ENDBRANCH  10  23
ENDBRANCH   7  10
ENDBRANCH   4   6
BRANCH   3  27
ATOM     27  C   UNL     1     -17.253  -0.648  -4.794  1.00  0.00     0.171 C 
BRANCH  27  28
ATOM     28  N   UNL     1     -17.321   0.298  -3.685  1.00  0.00    -0.342 N 
ATOM     29  C   UNL     1     -17.109  -0.070  -2.375  1.00  0.00     0.245 C 
ATOM     30  O   UNL     1     -16.830  -1.222  -2.044  1.00  0.00    -0.273 OA
ATOM     31  H   UNL     1     -17.434   1.289  -3.893  1.00  0.00     0.164 HD
BRANCH  29  32
ATOM     32  C   UNL     1     -17.095   1.090  -1.358  1.00  0.00     0.200 C 
BRANCH  32  33
ATOM     33  N   UNL     1     -15.816   1.057  -0.638  1.00  0.00    -0.340 N 
ATOM     34  C   UNL     1     -15.738   1.389   0.698  1.00  0.00     0.243 CG0
ATOM     35  O   UNL     1     -16.716   1.787   1.327  1.00  0.00    -0.273 OA
ATOM     36  H   UNL     1     -14.986   0.763  -1.139  1.00  0.00     0.164 HD
ATOM     37  G   UNL     1     -14.320   1.444   1.290  1.00  0.00     0.000 G0
ENDBRANCH  32  33
BRANCH  32  38
ATOM     38  C   UNL     1     -17.364   2.449  -2.046  1.00  0.00     0.143 C 
ATOM     39  C   UNL     1     -18.312   3.360  -1.275  1.00  0.00     0.041 C 
BRANCH  38  40
ATOM     40  O   UNL     1     -16.122   3.145  -2.266  1.00  0.00    -0.391 OA
ATOM     41  H   UNL     1     -15.418   2.469  -2.258  1.00  0.00     0.211 HD
ENDBRANCH  38  40
ENDBRANCH  32  38
ENDBRANCH  29  32
ENDBRANCH  27  28
BRANCH  27  42
ATOM     42  C   UNL     1     -18.612  -0.766  -5.527  1.00  0.00     0.015 C 
ATOM     43  C   UNL     1     -19.564  -1.838  -4.985  1.00  0.00     0.010 C 
ATOM     44  C   UNL     1     -19.331   0.584  -5.621  1.00  0.00     0.010 C 
ENDBRANCH  27  42
ENDBRANCH   3  27
TORSDOF 5
ENDMDL
MODEL 7
REMARK VINA RESULT:    -6.508      4.611      7.431
REMARK INTER + INTRA:         -13.837
REMARK INTER:                 -12.001
REMARK INTRA:                  -1.836
REMARK UNBOUND:                -2.194
REMARK SMILES CC[C@H](C)[C@H]1NC(=O)c2coc(n2)[C@H](C(C)C)NC(=O)[C@H]([C@@H](C)O)NC(=O)[C@H](C)NC(=O)c2csc1n2
REMARK SMILES IDX 11 1 13 2 12 3 9 4 10 5 7 6 6 7 8 8 5 10 36 11 35 12 34 13
REMARK SMILES IDX 37 14 33 15 31 16 32 17 30 18 28 20 29 21 3 23 4 24 2 25
REMARK SMILES IDX 1 26 14 27 18 28 19 29 20 30 21 32 25 33 26 34 27 35 22 38
REMARK SMILES IDX 23 39 24 40 15 42 16 43 17 44
REMARK H PARENT 6 9 30 19 18 31 25 36 24 41
REMARK Flexibility Score:   94.900
ROOT
ATOM      1  O   UNL     1      -8.942   1.996  -2.544  1.00  0.00    -0.446 OA
ATOM      2  N   UNL     1      -7.443   0.504  -3.325  1.00  0.00    -0.207 NA
ATOM      3  C   UNL     1      -8.620   1.076  -3.506  1.00  0.00     0.217 A 
ATOM      4  C   UNL     1      -6.946   1.106  -2.182  1.00  0.00     0.167 A 
ATOM      5  C   UNL     1      -7.863   2.014  -1.712  1.00  0.00     0.231 A 
ENDROOT
BRANCH   4   6
ATOM      6  C   UNL     1      -5.660   0.764  -1.600  1.00  0.00     0.273 C 
ATOM      7  N   UNL     1      -5.048   1.856  -1.037  1.00  0.00    -0.341 N 
ATOM      8  O   UNL     1      -5.178  -0.362  -1.637  1.00  0.00    -0.267 OA
ATOM      9  H   UNL     1      -5.526   2.743  -1.165  1.00  0.00     0.164 HD
BRANCH   7  10
ATOM     10  C   UNL     1      -3.663   1.854  -0.610  1.00  0.00     0.145 C 
BRANCH  10  11
ATOM     11  C   UNL     1      -2.811   2.246  -1.809  1.00  0.00     0.116 A 
ATOM     12  S   UNL     1      -1.253   2.939  -1.561  1.00  0.00    -0.124 S 
ATOM     13  C   UNL     1      -1.025   3.013  -3.253  1.00  0.00     0.101 A 
ATOM     14  N   UNL     1      -3.163   2.084  -3.074  1.00  0.00    -0.234 NA
ATOM     15  C   UNL     1      -2.129   2.509  -3.912  1.00  0.00     0.139 A 
BRANCH  15  16
ATOM     16  C   UNL     1      -2.230   2.409  -5.370  1.00  0.00     0.271 C 
ATOM     17  O   UNL     1      -1.256   2.485  -6.110  1.00  0.00    -0.267 OA
ATOM     18  N   UNL     1      -3.520   2.222  -5.821  1.00  0.00    -0.339 N 
ATOM     19  H   UNL     1      -4.251   2.287  -5.118  1.00  0.00     0.164 HD
BRANCH  18  20
ATOM     20  C   UNL     1      -3.820   2.168  -7.245  1.00  0.00     0.168 CG0
ATOM     21  C   UNL     1      -3.624   0.756  -7.803  1.00  0.00     0.041 C 
ATOM     22  G   UNL     1      -5.259   2.604  -7.566  1.00  0.00     0.000 G0
ENDBRANCH  18  20
ENDBRANCH  15  16
ENDBRANCH  10  11
BRANCH  10  23
ATOM     23  C   UNL     1      -3.426   2.781   0.612  1.00  0.00     0.015 C 
ATOM     24  C   UNL     1      -4.700   3.500   1.087  1.00  0.00     0.010 C 
BRANCH  23  25
ATOM     25  C   UNL     1      -2.799   2.038   1.813  1.00  0.00     0.002 C 
ATOM     26  C   UNL     1      -3.541   2.248   3.126  1.00  0.00     0.004 C 
ENDBRANCH  23  25
ENDBRANCH  10  23
ENDBRANCH   7  10
ENDBRANCH   4   6
BRANCH   3  27
ATOM     27  C   UNL     1      -9.614   0.780  -4.596  1.00  0.00     0.171 C 
BRANCH  27  28
ATOM     28  N   UNL     1      -8.908   0.837  -5.871  1.00  0.00    -0.342 N 
ATOM     29  C   UNL     1      -8.469   2.016  -6.430  1.00  0.00     0.245 C 
ATOM     30  O   UNL     1      -8.625   3.108  -5.888  1.00  0.00    -0.273 OA
ATOM     31  H   UNL     1      -8.642  -0.038  -6.323  1.00  0.00     0.164 HD
BRANCH  29  32
ATOM     32  C   UNL     1      -7.630   1.863  -7.717  1.00  0.00     0.200 C 
BRANCH  32  33
ATOM     33  N   UNL     1      -6.232   1.635  -7.332  1.00  0.00    -0.340 N 
ATOM     34  C   UNL     1      -5.261   2.586  -7.568  1.00  0.00     0.243 CG0
ATOM     35  O   UNL     1      -5.506   3.632  -8.165  1.00  0.00    -0.273 OA
ATOM     36  H   UNL     1      -5.993   0.768  -6.865  1.00  0.00     0.164 HD
ATOM     37  G   UNL     1      -3.820   2.161  -7.241  1.00  0.00     0.000 G0
ENDBRANCH  32  33
BRANCH  32  38
ATOM     38  C   UNL     1      -8.194   0.749  -8.630  1.00  0.00     0.143 C 
ATOM     39  C   UNL     1      -9.466   1.138  -9.374  1.00  0.00     0.041 C 
BRANCH  38  40
ATOM     40  O   UNL     1      -7.196   0.347  -9.589  1.00  0.00    -0.391 OA
ATOM     41  H   UNL     1      -6.357   0.757  -9.307  1.00  0.00     0.211 HD
ENDBRANCH  38  40
ENDBRANCH  32  38
ENDBRANCH  29  32
ENDBRANCH  27  28
BRANCH  27  42
ATOM     42  C   UNL     1     -10.451  -0.516  -4.465  1.00  0.00     0.015 C 
ATOM     43  C   UNL     1     -11.287  -0.637  -3.186  1.00  0.00     0.010 C 
ATOM     44  C   UNL     1     -11.327  -0.759  -5.697  1.00  0.00     0.010 C 
ENDBRANCH  27  42
ENDBRANCH   3  27
TORSDOF 5
ENDMDL
MODEL 8
REMARK VINA RESULT:    -6.478      4.136      8.921
REMARK INTER + INTRA:         -13.784
REMARK INTER:                 -11.444
REMARK INTRA:                  -2.340
REMARK UNBOUND:                -2.194
REMARK SMILES CC[C@H](C)[C@H]1NC(=O)c2coc(n2)[C@H](C(C)C)NC(=O)[C@H]([C@@H](C)O)NC(=O)[C@H](C)NC(=O)c2csc1n2
REMARK SMILES IDX 11 1 13 2 12 3 9 4 10 5 7 6 6 7 8 8 5 10 36 11 35 12 34 13
REMARK SMILES IDX 37 14 33 15 31 16 32 17 30 18 28 20 29 21 3 23 4 24 2 25
REMARK SMILES IDX 1 26 14 27 18 28 19 29 20 30 21 32 25 33 26 34 27 35 22 38
REMARK SMILES IDX 23 39 24 40 15 42 16 43 17 44
REMARK H PARENT 6 9 30 19 18 31 25 36 24 41
REMARK Flexibility Score:   94.900
ROOT
ATOM      1  O   UNL     1     -11.652  -0.639  -3.772  1.00  0.00    -0.446 OA
ATOM      2  N   UNL     1     -13.097   0.127  -2.221  1.00  0.00    -0.207 NA
ATOM      3  C   UNL     1     -11.891   0.238  -2.748  1.00  0.00     0.217 A 
ATOM      4  C   UNL     1     -13.702  -0.871  -2.966  1.00  0.00     0.167 A 
ATOM      5  C   UNL     1     -12.817  -1.333  -3.909  1.00  0.00     0.231 A 
ENDROOT
BRANCH   4   6
ATOM      6  C   UNL     1     -15.055  -1.337  -2.717  1.00  0.00     0.273 C 
ATOM      7  N   UNL     1     -15.986  -0.574  -3.375  1.00  0.00    -0.341 N 
ATOM      8  O   UNL     1     -15.323  -2.283  -1.986  1.00  0.00    -0.267 OA
ATOM      9  H   UNL     1     -15.622   0.235  -3.871  1.00  0.00     0.164 HD
BRANCH   7  10
ATOM     10  C   UNL     1     -17.409  -0.659  -3.112  1.00  0.00     0.145 C 
BRANCH  10  11
ATOM     11  C   UNL     1     -17.762   0.446  -2.127  1.00  0.00     0.116 A 
ATOM     12  S   UNL     1     -19.220   1.341  -2.332  1.00  0.00    -0.124 S 
ATOM     13  C   UNL     1     -18.864   2.233  -0.918  1.00  0.00     0.101 A 
ATOM     14  N   UNL     1     -17.031   0.789  -1.078  1.00  0.00    -0.234 NA
ATOM     15  C   UNL     1     -17.670   1.808  -0.367  1.00  0.00     0.139 A 
BRANCH  15  16
ATOM     16  C   UNL     1     -17.103   2.358   0.866  1.00  0.00     0.271 C 
ATOM     17  O   UNL     1     -17.684   3.192   1.551  1.00  0.00    -0.267 OA
ATOM     18  N   UNL     1     -15.861   1.846   1.177  1.00  0.00    -0.339 N 
ATOM     19  H   UNL     1     -15.439   1.246   0.474  1.00  0.00     0.164 HD
BRANCH  18  20
ATOM     20  C   UNL     1     -15.114   2.327   2.332  1.00  0.00     0.168 CG0
ATOM     21  C   UNL     1     -14.897   1.212   3.358  1.00  0.00     0.041 C 
ATOM     22  G   UNL     1     -13.736   2.893   1.955  1.00  0.00     0.000 G0
ENDBRANCH  18  20
ENDBRANCH  15  16
ENDBRANCH  10  11
BRANCH  10  23
ATOM     23  C   UNL     1     -18.251  -0.582  -4.413  1.00  0.00     0.015 C 
ATOM     24  C   UNL     1     -17.401  -0.380  -5.678  1.00  0.00     0.010 C 
BRANCH  23  25
ATOM     25  C   UNL     1     -19.153  -1.821  -4.616  1.00  0.00     0.002 C 
ATOM     26  C   UNL     1     -20.588  -1.486  -4.996  1.00  0.00     0.004 C 
ENDBRANCH  23  25
ENDBRANCH  10  23
ENDBRANCH   7  10
ENDBRANCH   4   6
BRANCH   3  27
ATOM     27  C   UNL     1     -10.790   1.162  -2.306  1.00  0.00     0.171 C 
BRANCH  27  28
ATOM     28  N   UNL     1     -10.866   1.285  -0.854  1.00  0.00    -0.342 N 
ATOM     29  C   UNL     1     -11.261   2.443  -0.222  1.00  0.00     0.245 C 
ATOM     30  O   UNL     1     -11.594   3.456  -0.836  1.00  0.00    -0.273 OA
ATOM     31  H   UNL     1     -10.716   0.454  -0.283  1.00  0.00     0.164 HD
BRANCH  29  32
ATOM     32  C   UNL     1     -11.404   2.342   1.311  1.00  0.00     0.200 C 
BRANCH  32  33
ATOM     33  N   UNL     1     -12.784   1.948   1.620  1.00  0.00    -0.340 N 
ATOM     34  C   UNL     1     -13.743   2.889   1.937  1.00  0.00     0.243 CG0
ATOM     35  O   UNL     1     -13.472   4.084   2.037  1.00  0.00    -0.273 OA
ATOM     36  H   UNL     1     -13.030   0.967   1.576  1.00  0.00     0.164 HD
ATOM     37  G   UNL     1     -15.107   2.329   2.372  1.00  0.00     0.000 G0
ENDBRANCH  32  33
BRANCH  32  38
ATOM     38  C   UNL     1     -10.354   1.380   1.915  1.00  0.00     0.143 C 
ATOM     39  C   UNL     1     -10.171   1.524   3.421  1.00  0.00     0.041 C 
BRANCH  38  40
ATOM     40  O   UNL     1     -10.705   0.016   1.614  1.00  0.00    -0.391 OA
ATOM     41  H   UNL     1      -9.894  -0.414   1.280  1.00  0.00     0.211 HD
ENDBRANCH  38  40
ENDBRANCH  32  38
ENDBRANCH  29  32
ENDBRANCH  27  28
BRANCH  27  42
ATOM     42  C   UNL     1      -9.351   0.834  -2.775  1.00  0.00     0.015 C 
ATOM     43  C   UNL     1      -8.641   1.945  -3.557  1.00  0.00     0.010 C 
ATOM     44  C   UNL     1      -8.469   0.350  -1.619  1.00  0.00     0.010 C 
ENDBRANCH  27  42
ENDBRANCH   3  27
TORSDOF 5
ENDMDL
MODEL 9
REMARK VINA RESULT:    -6.474      3.143      7.400
REMARK INTER + INTRA:         -13.777
REMARK INTER:                 -11.326
REMARK INTRA:                  -2.451
REMARK UNBOUND:                -2.194
REMARK SMILES CC[C@H](C)[C@H]1NC(=O)c2coc(n2)[C@H](C(C)C)NC(=O)[C@H]([C@@H](C)O)NC(=O)[C@H](C)NC(=O)c2csc1n2
REMARK SMILES IDX 11 1 13 2 12 3 9 4 10 5 7 6 6 7 8 8 5 10 36 11 35 12 34 13
REMARK SMILES IDX 37 14 33 15 31 16 32 17 30 18 28 20 29 21 3 23 4 24 2 25
REMARK SMILES IDX 1 26 14 27 18 28 19 29 20 30 21 32 25 33 26 34 27 35 22 38
REMARK SMILES IDX 23 39 24 40 15 42 16 43 17 44
REMARK H PARENT 6 9 30 19 18 31 25 36 24 41
REMARK Flexibility Score:   94.900
ROOT
ATOM      1  O   UNL     1     -16.836   2.763  -0.693  1.00  0.00    -0.446 OA
ATOM      2  N   UNL     1     -16.948   0.704  -1.604  1.00  0.00    -0.207 NA
ATOM      3  C   UNL     1     -16.472   1.444  -0.619  1.00  0.00     0.217 A 
ATOM      4  C   UNL     1     -17.697   1.588  -2.362  1.00  0.00     0.167 A 
ATOM      5  C   UNL     1     -17.624   2.840  -1.802  1.00  0.00     0.231 A 
ENDROOT
BRANCH   4   6
ATOM      6  C   UNL     1     -18.400   1.198  -3.572  1.00  0.00     0.273 C 
ATOM      7  N   UNL     1     -17.745   0.194  -4.241  1.00  0.00    -0.341 N 
ATOM      8  O   UNL     1     -19.437   1.726  -3.953  1.00  0.00    -0.267 OA
ATOM      9  H   UNL     1     -16.847  -0.080  -3.854  1.00  0.00     0.164 HD
BRANCH   7  10
ATOM     10  C   UNL     1     -18.087  -0.212  -5.590  1.00  0.00     0.145 C 
BRANCH  10  11
ATOM     11  C   UNL     1     -16.794  -0.287  -6.389  1.00  0.00     0.116 A 
ATOM     12  S   UNL     1     -16.832  -0.068  -8.098  1.00  0.00    -0.124 S 
ATOM     13  C   UNL     1     -15.134  -0.250  -8.152  1.00  0.00     0.101 A 
ATOM     14  N   UNL     1     -15.595  -0.499  -5.873  1.00  0.00    -0.234 NA
ATOM     15  C   UNL     1     -14.630  -0.463  -6.883  1.00  0.00     0.139 A 
BRANCH  15  16
ATOM     16  C   UNL     1     -13.204  -0.630  -6.592  1.00  0.00     0.271 C 
ATOM     17  O   UNL     1     -12.401  -1.045  -7.420  1.00  0.00    -0.267 OA
ATOM     18  N   UNL     1     -12.860  -0.276  -5.305  1.00  0.00    -0.339 N 
ATOM     19  H   UNL     1     -13.633  -0.054  -4.683  1.00  0.00     0.164 HD
BRANCH  18  20
ATOM     20  C   UNL     1     -11.497  -0.440  -4.816  1.00  0.00     0.168 CG0
ATOM     21  C   UNL     1     -10.617   0.747  -5.214  1.00  0.00     0.041 C 
ATOM     22  G   UNL     1     -11.428  -0.585  -3.287  1.00  0.00     0.000 G0
ENDBRANCH  18  20
ENDBRANCH  15  16
ENDBRANCH  10  11
BRANCH  10  23
ATOM     23  C   UNL     1     -18.878  -1.547  -5.617  1.00  0.00     0.015 C 
ATOM     24  C   UNL     1     -19.006  -2.207  -4.234  1.00  0.00     0.010 C 
BRANCH  23  25
ATOM     25  C   UNL     1     -20.291  -1.392  -6.224  1.00  0.00     0.002 C 
ATOM     26  C   UNL     1     -21.350  -0.956  -5.222  1.00  0.00     0.004 C 
ENDBRANCH  23  25
ENDBRANCH  10  23
ENDBRANCH   7  10
ENDBRANCH   4   6
BRANCH   3  27
ATOM     27  C   UNL     1     -15.564   0.998   0.494  1.00  0.00     0.171 C 
BRANCH  27  28
ATOM     28  N   UNL     1     -14.189   1.110   0.019  1.00  0.00    -0.342 N 
ATOM     29  C   UNL     1     -13.506   0.057  -0.547  1.00  0.00     0.245 C 
ATOM     30  O   UNL     1     -14.010  -1.053  -0.710  1.00  0.00    -0.273 OA
ATOM     31  H   UNL     1     -13.745   2.028   0.016  1.00  0.00     0.164 HD
BRANCH  29  32
ATOM     32  C   UNL     1     -12.109   0.401  -1.105  1.00  0.00     0.200 C 
BRANCH  32  33
ATOM     33  N   UNL     1     -12.171   0.344  -2.571  1.00  0.00    -0.340 N 
ATOM     34  C   UNL     1     -11.435  -0.580  -3.284  1.00  0.00     0.243 CG0
ATOM     35  O   UNL     1     -10.651  -1.349  -2.733  1.00  0.00    -0.273 OA
ATOM     36  H   UNL     1     -12.786   0.987  -3.056  1.00  0.00     0.164 HD
ATOM     37  G   UNL     1     -11.489  -0.438  -4.813  1.00  0.00     0.000 G0
ENDBRANCH  32  33
BRANCH  32  38
ATOM     38  C   UNL     1     -11.609   1.766  -0.576  1.00  0.00     0.143 C 
ATOM     39  C   UNL     1     -10.114   1.996  -0.764  1.00  0.00     0.041 C 
BRANCH  38  40
ATOM     40  O   UNL     1     -12.330   2.837  -1.215  1.00  0.00    -0.391 OA
ATOM     41  H   UNL     1     -12.727   2.462  -2.024  1.00  0.00     0.211 HD
ENDBRANCH  38  40
ENDBRANCH  32  38
ENDBRANCH  29  32
ENDBRANCH  27  28
BRANCH  27  42
ATOM     42  C   UNL     1     -15.746   1.671   1.876  1.00  0.00     0.015 C 
ATOM     43  C   UNL     1     -17.149   1.563   2.484  1.00  0.00     0.010 C 
ATOM     44  C   UNL     1     -14.692   1.201   2.885  1.00  0.00     0.010 C 
ENDBRANCH  27  42
ENDBRANCH   3  27
TORSDOF 5
ENDMDL
MODEL 10
REMARK VINA RESULT:    -6.460      2.715      6.073
REMARK INTER + INTRA:         -13.752
REMARK INTER:                 -12.093
REMARK INTRA:                  -1.659
REMARK UNBOUND:                -2.194
REMARK SMILES CC[C@H](C)[C@H]1NC(=O)c2coc(n2)[C@H](C(C)C)NC(=O)[C@H]([C@@H](C)O)NC(=O)[C@H](C)NC(=O)c2csc1n2
REMARK SMILES IDX 11 1 13 2 12 3 9 4 10 5 7 6 6 7 8 8 5 10 36 11 35 12 34 13
REMARK SMILES IDX 37 14 33 15 31 16 32 17 30 18 28 20 29 21 3 23 4 24 2 25
REMARK SMILES IDX 1 26 14 27 18 28 19 29 20 30 21 32 25 33 26 34 27 35 22 38
REMARK SMILES IDX 23 39 24 40 15 42 16 43 17 44
REMARK H PARENT 6 9 30 19 18 31 25 36 24 41
REMARK Flexibility Score:   94.900
ROOT
ATOM      1  O   UNL     1     -13.977   1.689  -7.671  1.00  0.00    -0.446 OA
ATOM      2  N   UNL     1     -12.183   0.328  -7.765  1.00  0.00    -0.207 NA
ATOM      3  C   UNL     1     -13.395   0.514  -7.275  1.00  0.00     0.217 A 
ATOM      4  C   UNL     1     -11.962   1.441  -8.557  1.00  0.00     0.167 A 
ATOM      5  C   UNL     1     -13.059   2.266  -8.496  1.00  0.00     0.231 A 
ENDROOT
BRANCH   4   6
ATOM      6  C   UNL     1     -10.727   1.662  -9.289  1.00  0.00     0.273 C 
ATOM      7  N   UNL     1      -9.635   1.205  -8.596  1.00  0.00    -0.341 N 
ATOM      8  O   UNL     1     -10.676   2.213 -10.382  1.00  0.00    -0.267 OA
ATOM      9  H   UNL     1      -9.822   0.854  -7.661  1.00  0.00     0.164 HD
BRANCH   7  10
ATOM     10  C   UNL     1      -8.270   1.516  -8.974  1.00  0.00     0.145 C 
BRANCH  10  11
ATOM     11  C   UNL     1      -7.490   1.793  -7.697  1.00  0.00     0.116 A 
ATOM     12  S   UNL     1      -5.984   2.626  -7.779  1.00  0.00    -0.124 S 
ATOM     13  C   UNL     1      -5.855   2.544  -6.076  1.00  0.00     0.101 A 
ATOM     14  N   UNL     1      -7.883   1.453  -6.480  1.00  0.00    -0.234 NA
ATOM     15  C   UNL     1      -6.951   1.899  -5.539  1.00  0.00     0.139 A 
BRANCH  15  16
ATOM     16  C   UNL     1      -7.150   1.693  -4.102  1.00  0.00     0.271 C 
ATOM     17  O   UNL     1      -6.239   1.780  -3.286  1.00  0.00    -0.267 OA
ATOM     18  N   UNL     1      -8.453   1.395  -3.763  1.00  0.00    -0.339 N 
ATOM     19  H   UNL     1      -9.090   1.241  -4.541  1.00  0.00     0.164 HD
BRANCH  18  20
ATOM     20  C   UNL     1      -8.824   1.092  -2.388  1.00  0.00     0.168 CG0
ATOM     21  C   UNL     1      -9.065   2.370  -1.582  1.00  0.00     0.041 C 
ATOM     22  G   UNL     1     -10.093   0.229  -2.291  1.00  0.00     0.000 G0
ENDBRANCH  18  20
ENDBRANCH  15  16
ENDBRANCH  10  11
BRANCH  10  23
ATOM     23  C   UNL     1      -7.628   0.390  -9.827  1.00  0.00     0.015 C 
ATOM     24  C   UNL     1      -7.176   0.863 -11.218  1.00  0.00     0.010 C 
BRANCH  23  25
ATOM     25  C   UNL     1      -6.430  -0.286  -9.121  1.00  0.00     0.002 C 
ATOM     26  C   UNL     1      -5.620  -1.206 -10.023  1.00  0.00     0.004 C 
ENDBRANCH  23  25
ENDBRANCH  10  23
ENDBRANCH   7  10
ENDBRANCH   4   6
BRANCH   3  27
ATOM     27  C   UNL     1     -14.136  -0.383  -6.321  1.00  0.00     0.171 C 
BRANCH  27  28
ATOM     28  N   UNL     1     -13.801   0.035  -4.964  1.00  0.00    -0.342 N 
ATOM     29  C   UNL     1     -12.814  -0.570  -4.218  1.00  0.00     0.245 C 
ATOM     30  O   UNL     1     -12.130  -1.498  -4.647  1.00  0.00    -0.273 OA
ATOM     31  H   UNL     1     -14.246   0.870  -4.585  1.00  0.00     0.164 HD
BRANCH  29  32
ATOM     32  C   UNL     1     -12.517   0.093  -2.856  1.00  0.00     0.200 C 
BRANCH  32  33
ATOM     33  N   UNL     1     -11.210   0.756  -2.942  1.00  0.00    -0.340 N 
ATOM     34  C   UNL     1     -10.102   0.239  -2.305  1.00  0.00     0.243 CG0
ATOM     35  O   UNL     1     -10.170  -0.759  -1.590  1.00  0.00    -0.273 OA
ATOM     36  H   UNL     1     -11.129   1.598  -3.500  1.00  0.00     0.164 HD
ATOM     37  G   UNL     1      -8.834   1.106  -2.364  1.00  0.00     0.000 G0
ENDBRANCH  32  33
BRANCH  32  38
ATOM     38  C   UNL     1     -13.654   1.053  -2.435  1.00  0.00     0.143 C 
ATOM     39  C   UNL     1     -14.691   0.422  -1.512  1.00  0.00     0.041 C 
BRANCH  38  40
ATOM     40  O   UNL     1     -13.102   2.217  -1.790  1.00  0.00    -0.391 OA
ATOM     41  H   UNL     1     -12.581   2.690  -2.467  1.00  0.00     0.211 HD
ENDBRANCH  38  40
ENDBRANCH  32  38
ENDBRANCH  29  32
ENDBRANCH  27  28
BRANCH  27  42
ATOM     42  C   UNL     1     -15.666  -0.520  -6.514  1.00  0.00     0.015 C 
ATOM     43  C   UNL     1     -16.521   0.509  -5.766  1.00  0.00     0.010 C 
ATOM     44  C   UNL     1     -16.056  -0.558  -7.995  1.00  0.00     0.010 C 
ENDBRANCH  27  42
ENDBRANCH   3  27
TORSDOF 5
ENDMDL
MODEL 11
REMARK VINA RESULT:    -6.357      3.748      9.063
REMARK INTER + INTRA:         -13.568
REMARK INTER:                 -11.771
REMARK INTRA:                  -1.797
REMARK UNBOUND:                -2.194
REMARK SMILES CC[C@H](C)[C@H]1NC(=O)c2coc(n2)[C@H](C(C)C)NC(=O)[C@H]([C@@H](C)O)NC(=O)[C@H](C)NC(=O)c2csc1n2
REMARK SMILES IDX 11 1 13 2 12 3 9 4 10 5 7 6 6 7 8 8 5 10 36 11 35 12 34 13
REMARK SMILES IDX 37 14 33 15 31 16 32 17 30 18 28 20 29 21 3 23 4 24 2 25
REMARK SMILES IDX 1 26 14 27 18 28 19 29 20 30 21 32 25 33 26 34 27 35 22 38
REMARK SMILES IDX 23 39 24 40 15 42 16 43 17 44
REMARK H PARENT 6 9 30 19 18 31 25 36 24 41
REMARK Flexibility Score:   94.900
ROOT
ATOM      1  O   UNL     1      -9.896   0.563  -8.279  1.00  0.00    -0.446 OA
ATOM      2  N   UNL     1      -8.852   0.313  -6.297  1.00  0.00    -0.207 NA
ATOM      3  C   UNL     1      -8.768   0.775  -7.532  1.00  0.00     0.217 A 
ATOM      4  C   UNL     1     -10.130  -0.213  -6.218  1.00  0.00     0.167 A 
ATOM      5  C   UNL     1     -10.760  -0.057  -7.428  1.00  0.00     0.231 A 
ENDROOT
BRANCH   4   6
ATOM      6  C   UNL     1     -10.653  -0.849  -5.022  1.00  0.00     0.273 C 
ATOM      7  N   UNL     1     -11.704  -0.146  -4.489  1.00  0.00    -0.341 N 
ATOM      8  O   UNL     1     -10.189  -1.876  -4.541  1.00  0.00    -0.267 OA
ATOM      9  H   UNL     1     -11.920   0.736  -4.943  1.00  0.00     0.164 HD
BRANCH   7  10
ATOM     10  C   UNL     1     -12.250  -0.415  -3.173  1.00  0.00     0.145 C 
BRANCH  10  11
ATOM     11  C   UNL     1     -11.417   0.360  -2.162  1.00  0.00     0.116 A 
ATOM     12  S   UNL     1     -12.201   1.342  -0.982  1.00  0.00    -0.124 S 
ATOM     13  C   UNL     1     -10.678   1.752  -0.323  1.00  0.00     0.101 A 
ATOM     14  N   UNL     1     -10.097   0.339  -2.093  1.00  0.00    -0.234 NA
ATOM     15  C   UNL     1      -9.664   1.127  -1.023  1.00  0.00     0.139 A 
BRANCH  15  16
ATOM     16  C   UNL     1      -8.245   1.256  -0.686  1.00  0.00     0.271 C 
ATOM     17  O   UNL     1      -7.846   1.410   0.463  1.00  0.00    -0.267 OA
ATOM     18  N   UNL     1      -7.410   1.184  -1.781  1.00  0.00    -0.339 N 
ATOM     19  H   UNL     1      -7.869   1.167  -2.689  1.00  0.00     0.164 HD
BRANCH  18  20
ATOM     20  C   UNL     1      -5.971   1.360  -1.646  1.00  0.00     0.168 CG0
ATOM     21  C   UNL     1      -5.256   0.014  -1.515  1.00  0.00     0.041 C 
ATOM     22  G   UNL     1      -5.349   2.110  -2.835  1.00  0.00     0.000 G0
ENDBRANCH  18  20
ENDBRANCH  15  16
ENDBRANCH  10  11
BRANCH  10  23
ATOM     23  C   UNL     1     -13.761  -0.069  -3.084  1.00  0.00     0.015 C 
ATOM     24  C   UNL     1     -14.396   0.242  -4.449  1.00  0.00     0.010 C 
BRANCH  23  25
ATOM     25  C   UNL     1     -14.588  -1.178  -2.395  1.00  0.00     0.002 C 
ATOM     26  C   UNL     1     -15.626  -0.655  -1.412  1.00  0.00     0.004 C 
ENDBRANCH  23  25
ENDBRANCH  10  23
ENDBRANCH   7  10
ENDBRANCH   4   6
BRANCH   3  27
ATOM     27  C   UNL     1      -7.578   1.432  -8.174  1.00  0.00     0.171 C 
BRANCH  27  28
ATOM     28  N   UNL     1      -6.486   1.426  -7.206  1.00  0.00    -0.342 N 
ATOM     29  C   UNL     1      -6.239   2.477  -6.352  1.00  0.00     0.245 C 
ATOM     30  O   UNL     1      -6.929   3.494  -6.332  1.00  0.00    -0.273 OA
ATOM     31  H   UNL     1      -5.943   0.571  -7.086  1.00  0.00     0.164 HD
BRANCH  29  32
ATOM     32  C   UNL     1      -5.124   2.234  -5.313  1.00  0.00     0.200 C 
BRANCH  32  33
ATOM     33  N   UNL     1      -5.741   1.702  -4.091  1.00  0.00    -0.340 N 
ATOM     34  C   UNL     1      -5.323   2.110  -2.842  1.00  0.00     0.243 CG0
ATOM     35  O   UNL     1      -4.378   2.882  -2.693  1.00  0.00    -0.273 OA
ATOM     36  H   UNL     1      -6.503   1.040  -4.181  1.00  0.00     0.164 HD
ATOM     37  G   UNL     1      -5.958   1.372  -1.652  1.00  0.00     0.000 G0
ENDBRANCH  32  33
BRANCH  32  38
ATOM     38  C   UNL     1      -4.015   1.315  -5.877  1.00  0.00     0.143 C 
ATOM     39  C   UNL     1      -3.332   1.859  -7.126  1.00  0.00     0.041 C 
BRANCH  38  40
ATOM     40  O   UNL     1      -3.017   1.071  -4.867  1.00  0.00    -0.391 OA
ATOM     41  H   UNL     1      -2.495   0.304  -5.171  1.00  0.00     0.211 HD
ENDBRANCH  38  40
ENDBRANCH  32  38
ENDBRANCH  29  32
ENDBRANCH  27  28
BRANCH  27  42
ATOM     42  C   UNL     1      -7.121   0.891  -9.551  1.00  0.00     0.015 C 
ATOM     43  C   UNL     1      -6.356   1.885 -10.432  1.00  0.00     0.010 C 
ATOM     44  C   UNL     1      -6.333  -0.417  -9.419  1.00  0.00     0.010 C 
ENDBRANCH  27  42
ENDBRANCH   3  27
TORSDOF 5
ENDMDL
MODEL 12
REMARK VINA RESULT:    -6.335      3.369      7.646
REMARK INTER + INTRA:         -13.528
REMARK INTER:                 -11.603
REMARK INTRA:                  -1.925
REMARK UNBOUND:                -2.194
REMARK SMILES CC[C@H](C)[C@H]1NC(=O)c2coc(n2)[C@H](C(C)C)NC(=O)[C@H]([C@@H](C)O)NC(=O)[C@H](C)NC(=O)c2csc1n2
REMARK SMILES IDX 11 1 13 2 12 3 9 4 10 5 7 6 6 7 8 8 5 10 36 11 35 12 34 13
REMARK SMILES IDX 37 14 33 15 31 16 32 17 30 18 28 20 29 21 3 23 4 24 2 25
REMARK SMILES IDX 1 26 14 27 18 28 19 29 20 30 21 32 25 33 26 34 27 35 22 38
REMARK SMILES IDX 23 39 24 40 15 42 16 43 17 44
REMARK H PARENT 6 9 30 19 18 31 25 36 24 41
REMARK Flexibility Score:   94.900
ROOT
ATOM      1  O   UNL     1     -11.223   2.235   1.891  1.00  0.00    -0.446 OA
ATOM      2  N   UNL     1     -11.336   0.580   0.365  1.00  0.00    -0.207 NA
ATOM      3  C   UNL     1     -10.634   1.128   1.340  1.00  0.00     0.217 A 
ATOM      4  C   UNL     1     -12.475   1.362   0.287  1.00  0.00     0.167 A 
ATOM      5  C   UNL     1     -12.400   2.367   1.219  1.00  0.00     0.231 A 
ENDROOT
BRANCH   4   6
ATOM      6  C   UNL     1     -13.536   1.124  -0.677  1.00  0.00     0.273 C 
ATOM      7  N   UNL     1     -13.168   0.201  -1.623  1.00  0.00    -0.341 N 
ATOM      8  O   UNL     1     -14.616   1.703  -0.653  1.00  0.00    -0.267 OA
ATOM      9  H   UNL     1     -12.208  -0.125  -1.569  1.00  0.00     0.164 HD
BRANCH   7  10
ATOM     10  C   UNL     1     -13.930  -0.039  -2.833  1.00  0.00     0.145 C 
BRANCH  10  11
ATOM     11  C   UNL     1     -12.939  -0.187  -3.978  1.00  0.00     0.116 A 
ATOM     12  S   UNL     1     -13.487  -0.737  -5.517  1.00  0.00    -0.124 S 
ATOM     13  C   UNL     1     -11.901  -0.576  -6.132  1.00  0.00     0.101 A 
ATOM     14  N   UNL     1     -11.648   0.092  -3.905  1.00  0.00    -0.234 NA
ATOM     15  C   UNL     1     -11.046  -0.115  -5.149  1.00  0.00     0.139 A 
BRANCH  15  16
ATOM     16  C   UNL     1      -9.623   0.153  -5.369  1.00  0.00     0.271 C 
ATOM     17  O   UNL     1      -9.087   0.039  -6.466  1.00  0.00    -0.267 OA
ATOM     18  N   UNL     1      -8.953   0.544  -4.229  1.00  0.00    -0.339 N 
ATOM     19  H   UNL     1      -9.483   0.492  -3.363  1.00  0.00     0.164 HD
BRANCH  18  20
ATOM     20  C   UNL     1      -7.517   0.787  -4.244  1.00  0.00     0.168 CG0
ATOM     21  C   UNL     1      -7.201   2.232  -4.635  1.00  0.00     0.041 C 
ATOM     22  G   UNL     1      -6.854   0.512  -2.885  1.00  0.00     0.000 G0
ENDBRANCH  18  20
ENDBRANCH  15  16
ENDBRANCH  10  11
BRANCH  10  23
ATOM     23  C   UNL     1     -14.868  -1.268  -2.700  1.00  0.00     0.015 C 
ATOM     24  C   UNL     1     -14.845  -1.903  -1.300  1.00  0.00     0.010 C 
BRANCH  23  25
ATOM     25  C   UNL     1     -16.333  -0.945  -3.072  1.00  0.00     0.002 C 
ATOM     26  C   UNL     1     -17.018   0.016  -2.111  1.00  0.00     0.004 C 
ENDBRANCH  23  25
ENDBRANCH  10  23
ENDBRANCH   7  10
ENDBRANCH   4   6
BRANCH   3  27
ATOM     27  C   UNL     1      -9.282   0.696   1.838  1.00  0.00     0.171 C 
BRANCH  27  28
ATOM     28  N   UNL     1      -8.274   1.290   0.966  1.00  0.00    -0.342 N 
ATOM     29  C   UNL     1      -7.264   0.557   0.384  1.00  0.00     0.245 C 
ATOM     30  O   UNL     1      -7.146  -0.657   0.543  1.00  0.00    -0.273 OA
ATOM     31  H   UNL     1      -8.375   2.268   0.696  1.00  0.00     0.164 HD
BRANCH  29  32
ATOM     32  C   UNL     1      -6.373   1.334  -0.608  1.00  0.00     0.200 C 
BRANCH  32  33
ATOM     33  N   UNL     1      -7.077   1.416  -1.894  1.00  0.00    -0.340 N 
ATOM     34  C   UNL     1      -6.830   0.509  -2.904  1.00  0.00     0.243 CG0
ATOM     35  O   UNL     1      -5.970  -0.363  -2.799  1.00  0.00    -0.273 OA
ATOM     36  H   UNL     1      -7.770   2.143  -2.022  1.00  0.00     0.164 HD
ATOM     37  G   UNL     1      -7.533   0.793  -4.241  1.00  0.00     0.000 G0
ENDBRANCH  32  33
BRANCH  32  38
ATOM     38  C   UNL     1      -5.979   2.721  -0.048  1.00  0.00     0.143 C 
ATOM     39  C   UNL     1      -4.921   2.671   1.049  1.00  0.00     0.041 C 
BRANCH  38  40
ATOM     40  O   UNL     1      -5.507   3.567  -1.114  1.00  0.00    -0.391 OA
ATOM     41  H   UNL     1      -4.780   3.086  -1.552  1.00  0.00     0.211 HD
ENDBRANCH  38  40
ENDBRANCH  32  38
ENDBRANCH  29  32
ENDBRANCH  27  28
BRANCH  27  42
ATOM     42  C   UNL     1      -8.959   0.943   3.332  1.00  0.00     0.015 C 
ATOM     43  C   UNL     1      -9.355  -0.187   4.289  1.00  0.00     0.010 C 
ATOM     44  C   UNL     1      -7.491   1.329   3.545  1.00  0.00     0.010 C 
ENDBRANCH  27  42
ENDBRANCH   3  27
TORSDOF 5
ENDMDL
MODEL 13
REMARK VINA RESULT:    -6.328      2.473      4.981
REMARK INTER + INTRA:         -13.515
REMARK INTER:                 -11.392
REMARK INTRA:                  -2.123
REMARK UNBOUND:                -2.194
REMARK SMILES CC[C@H](C)[C@H]1NC(=O)c2coc(n2)[C@H](C(C)C)NC(=O)[C@H]([C@@H](C)O)NC(=O)[C@H](C)NC(=O)c2csc1n2
REMARK SMILES IDX 11 1 13 2 12 3 9 4 10 5 7 6 6 7 8 8 5 10 36 11 35 12 34 13
REMARK SMILES IDX 37 14 33 15 31 16 32 17 30 18 28 20 29 21 3 23 4 24 2 25
REMARK SMILES IDX 1 26 14 27 18 28 19 29 20 30 21 32 25 33 26 34 27 35 22 38
REMARK SMILES IDX 23 39 24 40 15 42 16 43 17 44
REMARK H PARENT 6 9 30 19 18 31 25 36 24 41
REMARK Flexibility Score:   94.900
ROOT
ATOM      1  O   UNL     1      -8.358   1.883  -0.852  1.00  0.00    -0.446 OA
ATOM      2  N   UNL     1      -9.748   0.246  -1.537  1.00  0.00    -0.207 NA
ATOM      3  C   UNL     1      -9.391   1.040  -0.543  1.00  0.00     0.217 A 
ATOM      4  C   UNL     1      -8.912   0.610  -2.578  1.00  0.00     0.167 A 
ATOM      5  C   UNL     1      -8.068   1.608  -2.155  1.00  0.00     0.231 A 
ENDROOT
BRANCH   4   6
ATOM      6  C   UNL     1      -8.947  -0.025  -3.884  1.00  0.00     0.273 C 
ATOM      7  N   UNL     1      -8.918   0.896  -4.900  1.00  0.00    -0.341 N 
ATOM      8  O   UNL     1      -9.020  -1.238  -4.045  1.00  0.00    -0.267 OA
ATOM      9  H   UNL     1      -8.951   1.870  -4.613  1.00  0.00     0.164 HD
BRANCH   7  10
ATOM     10  C   UNL     1      -9.189   0.557  -6.283  1.00  0.00     0.145 C 
BRANCH  10  11
ATOM     11  C   UNL     1     -10.683   0.735  -6.516  1.00  0.00     0.116 A 
ATOM     12  S   UNL     1     -11.257   1.181  -8.079  1.00  0.00    -0.124 S 
ATOM     13  C   UNL     1     -12.863   1.118  -7.499  1.00  0.00     0.101 A 
ATOM     14  N   UNL     1     -11.619   0.559  -5.599  1.00  0.00    -0.234 NA
ATOM     15  C   UNL     1     -12.881   0.762  -6.164  1.00  0.00     0.139 A 
BRANCH  15  16
ATOM     16  C   UNL     1     -14.109   0.596  -5.384  1.00  0.00     0.271 C 
ATOM     17  O   UNL     1     -15.227   0.645  -5.885  1.00  0.00    -0.267 OA
ATOM     18  N   UNL     1     -13.884   0.378  -4.041  1.00  0.00    -0.339 N 
ATOM     19  H   UNL     1     -12.920   0.470  -3.732  1.00  0.00     0.164 HD
BRANCH  18  20
ATOM     20  C   UNL     1     -14.989   0.257  -3.100  1.00  0.00     0.168 CG0
ATOM     21  C   UNL     1     -15.102  -1.167  -2.553  1.00  0.00     0.041 C 
ATOM     22  G   UNL     1     -14.856   1.211  -1.901  1.00  0.00     0.000 G0
ENDBRANCH  18  20
ENDBRANCH  15  16
ENDBRANCH  10  11
BRANCH  10  23
ATOM     23  C   UNL     1      -8.333   1.394  -7.270  1.00  0.00     0.015 C 
ATOM     24  C   UNL     1      -7.423   2.417  -6.570  1.00  0.00     0.010 C 
BRANCH  23  25
ATOM     25  C   UNL     1      -7.467   0.517  -8.202  1.00  0.00     0.002 C 
ATOM     26  C   UNL     1      -7.165   1.158  -9.550  1.00  0.00     0.004 C 
ENDBRANCH  23  25
ENDBRANCH  10  23
ENDBRANCH   7  10
ENDBRANCH   4   6
BRANCH   3  27
ATOM     27  C   UNL     1      -9.958   1.058   0.850  1.00  0.00     0.171 C 
BRANCH  27  28
ATOM     28  N   UNL     1     -11.408   0.936   0.744  1.00  0.00    -0.342 N 
ATOM     29  C   UNL     1     -12.229   2.003   0.458  1.00  0.00     0.245 C 
ATOM     30  O   UNL     1     -11.799   3.138   0.255  1.00  0.00    -0.273 OA
ATOM     31  H   UNL     1     -11.826   0.007   0.787  1.00  0.00     0.164 HD
BRANCH  29  32
ATOM     32  C   UNL     1     -13.719   1.655   0.259  1.00  0.00     0.200 C 
BRANCH  32  33
ATOM     33  N   UNL     1     -13.855   0.916  -1.002  1.00  0.00    -0.340 N 
ATOM     34  C   UNL     1     -14.869   1.203  -1.894  1.00  0.00     0.243 CG0
ATOM     35  O   UNL     1     -15.735   2.039  -1.646  1.00  0.00    -0.273 OA
ATOM     36  H   UNL     1     -13.174   0.200  -1.221  1.00  0.00     0.164 HD
ATOM     37  G   UNL     1     -14.975   0.264  -3.106  1.00  0.00     0.000 G0
ENDBRANCH  32  33
BRANCH  32  38
ATOM     38  C   UNL     1     -14.286   0.883   1.474  1.00  0.00     0.143 C 
ATOM     39  C   UNL     1     -15.685   1.321   1.892  1.00  0.00     0.041 C 
BRANCH  38  40
ATOM     40  O   UNL     1     -14.303  -0.530   1.195  1.00  0.00    -0.391 OA
ATOM     41  H   UNL     1     -13.613  -0.691   0.524  1.00  0.00     0.211 HD
ENDBRANCH  38  40
ENDBRANCH  32  38
ENDBRANCH  29  32
ENDBRANCH  27  28
BRANCH  27  42
ATOM     42  C   UNL     1      -9.374   0.051   1.871  1.00  0.00     0.015 C 
ATOM     43  C   UNL     1      -8.041  -0.593   1.476  1.00  0.00     0.010 C 
ATOM     44  C   UNL     1      -9.278   0.652   3.277  1.00  0.00     0.010 C 
ENDBRANCH  27  42
ENDBRANCH   3  27
TORSDOF 5
ENDMDL
MODEL 14
REMARK VINA RESULT:    -6.296      3.220      6.824
REMARK INTER + INTRA:         -13.458
REMARK INTER:                 -11.079
REMARK INTRA:                  -2.379
REMARK UNBOUND:                -2.194
REMARK SMILES CC[C@H](C)[C@H]1NC(=O)c2coc(n2)[C@H](C(C)C)NC(=O)[C@H]([C@@H](C)O)NC(=O)[C@H](C)NC(=O)c2csc1n2
REMARK SMILES IDX 11 1 13 2 12 3 9 4 10 5 7 6 6 7 8 8 5 10 36 11 35 12 34 13
REMARK SMILES IDX 37 14 33 15 31 16 32 17 30 18 28 20 29 21 3 23 4 24 2 25
REMARK SMILES IDX 1 26 14 27 18 28 19 29 20 30 21 32 25 33 26 34 27 35 22 38
REMARK SMILES IDX 23 39 24 40 15 42 16 43 17 44
REMARK H PARENT 6 9 30 19 18 31 25 36 24 41
REMARK Flexibility Score:   94.900
ROOT
ATOM      1  O   UNL     1     -10.567  -0.417  -3.939  1.00  0.00    -0.446 OA
ATOM      2  N   UNL     1     -12.270   1.021  -4.275  1.00  0.00    -0.207 NA
ATOM      3  C   UNL     1     -11.316   0.299  -4.835  1.00  0.00     0.217 A 
ATOM      4  C   UNL     1     -12.158   0.741  -2.924  1.00  0.00     0.167 A 
ATOM      5  C   UNL     1     -11.120  -0.136  -2.726  1.00  0.00     0.231 A 
ENDROOT
BRANCH   4   6
ATOM      6  C   UNL     1     -13.016   1.340  -1.916  1.00  0.00     0.273 C 
ATOM      7  N   UNL     1     -14.095   0.543  -1.626  1.00  0.00    -0.341 N 
ATOM      8  O   UNL     1     -12.806   2.436  -1.411  1.00  0.00    -0.267 OA
ATOM      9  H   UNL     1     -14.187  -0.296  -2.191  1.00  0.00     0.164 HD
BRANCH   7  10
ATOM     10  C   UNL     1     -15.230   0.999  -0.848  1.00  0.00     0.145 C 
BRANCH  10  11
ATOM     11  C   UNL     1     -16.491   0.645  -1.623  1.00  0.00     0.116 A 
ATOM     12  S   UNL     1     -18.009   1.293  -1.126  1.00  0.00    -0.124 S 
ATOM     13  C   UNL     1     -18.768   0.498  -2.436  1.00  0.00     0.101 A 
ATOM     14  N   UNL     1     -16.530  -0.132  -2.693  1.00  0.00    -0.234 NA
ATOM     15  C   UNL     1     -17.839  -0.207  -3.177  1.00  0.00     0.139 A 
BRANCH  15  16
ATOM     16  C   UNL     1     -18.172  -0.973  -4.380  1.00  0.00     0.271 C 
ATOM     17  O   UNL     1     -18.805  -2.022  -4.346  1.00  0.00    -0.267 OA
ATOM     18  N   UNL     1     -17.706  -0.399  -5.544  1.00  0.00    -0.339 N 
ATOM     19  H   UNL     1     -17.100   0.409  -5.429  1.00  0.00     0.164 HD
BRANCH  18  20
ATOM     20  C   UNL     1     -17.884  -1.055  -6.832  1.00  0.00     0.168 CG0
ATOM     21  C   UNL     1     -19.131  -0.537  -7.552  1.00  0.00     0.041 C 
ATOM     22  G   UNL     1     -16.683  -0.856  -7.771  1.00  0.00     0.000 G0
ENDBRANCH  18  20
ENDBRANCH  15  16
ENDBRANCH  10  11
BRANCH  10  23
ATOM     23  C   UNL     1     -15.232   0.409   0.587  1.00  0.00     0.015 C 
ATOM     24  C   UNL     1     -14.203  -0.717   0.784  1.00  0.00     0.010 C 
BRANCH  23  25
ATOM     25  C   UNL     1     -15.007   1.482   1.676  1.00  0.00     0.002 C 
ATOM     26  C   UNL     1     -13.545   1.853   1.885  1.00  0.00     0.004 C 
ENDBRANCH  23  25
ENDBRANCH  10  23
ENDBRANCH   7  10
ENDBRANCH   4   6
BRANCH   3  27
ATOM     27  C   UNL     1     -10.963   0.240  -6.296  1.00  0.00     0.171 C 
BRANCH  27  28
ATOM     28  N   UNL     1     -12.172   0.529  -7.059  1.00  0.00    -0.342 N 
ATOM     29  C   UNL     1     -13.141  -0.417  -7.310  1.00  0.00     0.245 C 
ATOM     30  O   UNL     1     -13.067  -1.572  -6.894  1.00  0.00    -0.273 OA
ATOM     31  H   UNL     1     -12.357   1.492  -7.338  1.00  0.00     0.164 HD
BRANCH  29  32
ATOM     32  C   UNL     1     -14.406   0.108  -8.022  1.00  0.00     0.200 C 
BRANCH  32  33
ATOM     33  N   UNL     1     -15.575  -0.254  -7.210  1.00  0.00    -0.340 N 
ATOM     34  C   UNL     1     -16.681  -0.852  -7.776  1.00  0.00     0.243 CG0
ATOM     35  O   UNL     1     -16.766  -1.050  -8.986  1.00  0.00    -0.273 OA
ATOM     36  H   UNL     1     -15.547  -0.074  -6.213  1.00  0.00     0.164 HD
ATOM     37  G   UNL     1     -17.884  -1.050  -6.839  1.00  0.00     0.000 G0
ENDBRANCH  32  33
BRANCH  32  38
ATOM     38  C   UNL     1     -14.310   1.626  -8.299  1.00  0.00     0.143 C 
ATOM     39  C   UNL     1     -15.229   2.115  -9.412  1.00  0.00     0.041 C 
BRANCH  38  40
ATOM     40  O   UNL     1     -14.599   2.365  -7.096  1.00  0.00    -0.391 OA
ATOM     41  H   UNL     1     -13.811   2.289  -6.525  1.00  0.00     0.211 HD
ENDBRANCH  38  40
ENDBRANCH  32  38
ENDBRANCH  29  32
ENDBRANCH  27  28
BRANCH  27  42
ATOM     42  C   UNL     1      -9.767   1.099  -6.775  1.00  0.00     0.015 C 
ATOM     43  C   UNL     1      -9.256   2.139  -5.772  1.00  0.00     0.010 C 
ATOM     44  C   UNL     1      -8.608   0.235  -7.282  1.00  0.00     0.010 C 
ENDBRANCH  27  42
ENDBRANCH   3  27
TORSDOF 5
ENDMDL
MODEL 15
REMARK VINA RESULT:    -6.288      2.353      6.777
REMARK INTER + INTRA:         -13.444
REMARK INTER:                 -11.519
REMARK INTRA:                  -1.925
REMARK UNBOUND:                -2.194
REMARK SMILES CC[C@H](C)[C@H]1NC(=O)c2coc(n2)[C@H](C(C)C)NC(=O)[C@H]([C@@H](C)O)NC(=O)[C@H](C)NC(=O)c2csc1n2
REMARK SMILES IDX 11 1 13 2 12 3 9 4 10 5 7 6 6 7 8 8 5 10 36 11 35 12 34 13
REMARK SMILES IDX 37 14 33 15 31 16 32 17 30 18 28 20 29 21 3 23 4 24 2 25
REMARK SMILES IDX 1 26 14 27 18 28 19 29 20 30 21 32 25 33 26 34 27 35 22 38
REMARK SMILES IDX 23 39 24 40 15 42 16 43 17 44
REMARK H PARENT 6 9 30 19 18 31 25 36 24 41
REMARK Flexibility Score:   94.900
ROOT
ATOM      1  O   UNL     1     -10.023   2.241  -0.527  1.00  0.00    -0.446 OA
ATOM      2  N   UNL     1     -11.018   0.535  -1.614  1.00  0.00    -0.207 NA
ATOM      3  C   UNL     1      -9.876   1.116  -1.294  1.00  0.00     0.217 A 
ATOM      4  C   UNL     1     -11.980   1.315  -0.995  1.00  0.00     0.167 A 
ATOM      5  C   UNL     1     -11.368   2.351  -0.335  1.00  0.00     0.231 A 
ENDROOT
BRANCH   4   6
ATOM      6  C   UNL     1     -13.404   1.045  -1.094  1.00  0.00     0.273 C 
ATOM      7  N   UNL     1     -13.714   0.353  -2.238  1.00  0.00    -0.341 N 
ATOM      8  O   UNL     1     -14.224   1.419  -0.264  1.00  0.00    -0.267 OA
ATOM      9  H   UNL     1     -12.942   0.193  -2.878  1.00  0.00     0.164 HD
BRANCH   7  10
ATOM     10  C   UNL     1     -15.072   0.170  -2.709  1.00  0.00     0.145 C 
BRANCH  10  11
ATOM     11  C   UNL     1     -15.104   0.550  -4.182  1.00  0.00     0.116 A 
ATOM     12  S   UNL     1     -16.444   1.434  -4.808  1.00  0.00    -0.124 S 
ATOM     13  C   UNL     1     -15.702   1.457  -6.347  1.00  0.00     0.101 A 
ATOM     14  N   UNL     1     -14.154   0.267  -5.059  1.00  0.00    -0.234 NA
ATOM     15  C   UNL     1     -14.485   0.802  -6.306  1.00  0.00     0.139 A 
BRANCH  15  16
ATOM     16  C   UNL     1     -13.593   0.673  -7.461  1.00  0.00     0.271 C 
ATOM     17  O   UNL     1     -13.980   0.297  -8.561  1.00  0.00    -0.267 OA
ATOM     18  N   UNL     1     -12.286   1.016  -7.187  1.00  0.00    -0.339 N 
ATOM     19  H   UNL     1     -12.071   1.204  -6.211  1.00  0.00     0.164 HD
BRANCH  18  20
ATOM     20  C   UNL     1     -11.244   0.885  -8.197  1.00  0.00     0.168 CG0
ATOM     21  C   UNL     1     -11.275   2.054  -9.183  1.00  0.00     0.041 C 
ATOM     22  G   UNL     1      -9.834   0.818  -7.590  1.00  0.00     0.000 G0
ENDBRANCH  18  20
ENDBRANCH  15  16
ENDBRANCH  10  11
BRANCH  10  23
ATOM     23  C   UNL     1     -15.590  -1.272  -2.460  1.00  0.00     0.015 C 
ATOM     24  C   UNL     1     -14.856  -1.993  -1.316  1.00  0.00     0.010 C 
BRANCH  23  25
ATOM     25  C   UNL     1     -17.109  -1.322  -2.181  1.00  0.00     0.002 C 
ATOM     26  C   UNL     1     -17.714   0.023  -1.806  1.00  0.00     0.004 C 
ENDBRANCH  23  25
ENDBRANCH  10  23
ENDBRANCH   7  10
ENDBRANCH   4   6
BRANCH   3  27
ATOM     27  C   UNL     1      -8.496   0.699  -1.723  1.00  0.00     0.171 C 
BRANCH  27  28
ATOM     28  N   UNL     1      -8.307   1.134  -3.103  1.00  0.00    -0.342 N 
ATOM     29  C   UNL     1      -8.588   0.329  -4.184  1.00  0.00     0.245 C 
ATOM     30  O   UNL     1      -9.034  -0.811  -4.067  1.00  0.00    -0.273 OA
ATOM     31  H   UNL     1      -8.050   2.104  -3.281  1.00  0.00     0.164 HD
BRANCH  29  32
ATOM     32  C   UNL     1      -8.449   1.006  -5.564  1.00  0.00     0.200 C 
BRANCH  32  33
ATOM     33  N   UNL     1      -9.749   0.939  -6.243  1.00  0.00    -0.340 N 
ATOM     34  C   UNL     1      -9.834   0.816  -7.615  1.00  0.00     0.243 CG0
ATOM     35  O   UNL     1      -8.835   0.820  -8.331  1.00  0.00    -0.273 OA
ATOM     36  H   UNL     1     -10.591   0.964  -5.681  1.00  0.00     0.164 HD
ATOM     37  G   UNL     1     -11.252   0.897  -8.204  1.00  0.00     0.000 G0
ENDBRANCH  32  33
BRANCH  32  38
ATOM     38  C   UNL     1      -7.910   2.449  -5.434  1.00  0.00     0.143 C 
ATOM     39  C   UNL     1      -6.825   2.802  -6.445  1.00  0.00     0.041 C 
BRANCH  38  40
ATOM     40  O   UNL     1      -8.992   3.393  -5.560  1.00  0.00    -0.391 OA
ATOM     41  H   UNL     1      -8.588   4.251  -5.791  1.00  0.00     0.211 HD
ENDBRANCH  38  40
ENDBRANCH  32  38
ENDBRANCH  29  32
ENDBRANCH  27  28
BRANCH  27  42
ATOM     42  C   UNL     1      -7.310   1.128  -0.824  1.00  0.00     0.015 C 
ATOM     43  C   UNL     1      -6.199   0.085  -0.654  1.00  0.00     0.010 C 
ATOM     44  C   UNL     1      -6.716   2.471  -1.261  1.00  0.00     0.010 C 
ENDBRANCH  27  42
ENDBRANCH   3  27
TORSDOF 5
ENDMDL
MODEL 16
REMARK VINA RESULT:    -6.286      4.194      7.830
REMARK INTER + INTRA:         -13.441
REMARK INTER:                 -11.572
REMARK INTRA:                  -1.869
REMARK UNBOUND:                -2.194
REMARK SMILES CC[C@H](C)[C@H]1NC(=O)c2coc(n2)[C@H](C(C)C)NC(=O)[C@H]([C@@H](C)O)NC(=O)[C@H](C)NC(=O)c2csc1n2
REMARK SMILES IDX 11 1 13 2 12 3 9 4 10 5 7 6 6 7 8 8 5 10 36 11 35 12 34 13
REMARK SMILES IDX 37 14 33 15 31 16 32 17 30 18 28 20 29 21 3 23 4 24 2 25
REMARK SMILES IDX 1 26 14 27 18 28 19 29 20 30 21 32 25 33 26 34 27 35 22 38
REMARK SMILES IDX 23 39 24 40 15 42 16 43 17 44
REMARK H PARENT 6 9 30 19 18 31 25 36 24 41
REMARK Flexibility Score:   94.900
ROOT
ATOM      1  O   UNL     1     -11.463   1.139  -7.556  1.00  0.00    -0.446 OA
ATOM      2  N   UNL     1      -9.531   0.013  -7.843  1.00  0.00    -0.207 NA
ATOM      3  C   UNL     1     -10.615   0.163  -7.104  1.00  0.00     0.217 A 
ATOM      4  C   UNL     1      -9.688   0.933  -8.866  1.00  0.00     0.167 A 
ATOM      5  C   UNL     1     -10.867   1.615  -8.685  1.00  0.00     0.231 A 
ENDROOT
BRANCH   4   6
ATOM      6  C   UNL     1      -8.707   1.123  -9.919  1.00  0.00     0.273 C 
ATOM      7  N   UNL     1      -7.501   0.550  -9.603  1.00  0.00    -0.341 N 
ATOM      8  O   UNL     1      -8.932   1.745 -10.951  1.00  0.00    -0.267 OA
ATOM      9  H   UNL     1      -7.435   0.148  -8.672  1.00  0.00     0.164 HD
BRANCH   7  10
ATOM     10  C   UNL     1      -6.285   0.797 -10.353  1.00  0.00     0.145 C 
BRANCH  10  11
ATOM     11  C   UNL     1      -5.155   0.982  -9.350  1.00  0.00     0.116 A 
ATOM     12  S   UNL     1      -3.519   0.940  -9.889  1.00  0.00    -0.124 S 
ATOM     13  C   UNL     1      -2.993   1.244  -8.292  1.00  0.00     0.101 A 
ATOM     14  N   UNL     1      -5.319   1.196  -8.055  1.00  0.00    -0.234 NA
ATOM     15  C   UNL     1      -4.075   1.364  -7.441  1.00  0.00     0.139 A 
BRANCH  15  16
ATOM     16  C   UNL     1      -3.956   1.653  -6.010  1.00  0.00     0.271 C 
ATOM     17  O   UNL     1      -2.999   2.251  -5.530  1.00  0.00    -0.267 OA
ATOM     18  N   UNL     1      -5.019   1.190  -5.264  1.00  0.00    -0.339 N 
ATOM     19  H   UNL     1      -5.693   0.614  -5.762  1.00  0.00     0.164 HD
BRANCH  18  20
ATOM     20  C   UNL     1      -5.040   1.328  -3.814  1.00  0.00     0.168 CG0
ATOM     21  C   UNL     1      -5.192   2.792  -3.396  1.00  0.00     0.041 C 
ATOM     22  G   UNL     1      -6.180   0.531  -3.159  1.00  0.00     0.000 G0
ENDBRANCH  18  20
ENDBRANCH  15  16
ENDBRANCH  10  11
BRANCH  10  23
ATOM     23  C   UNL     1      -5.989  -0.331 -11.376  1.00  0.00     0.015 C 
ATOM     24  C   UNL     1      -6.441  -1.721 -10.898  1.00  0.00     0.010 C 
BRANCH  23  25
ATOM     25  C   UNL     1      -6.611  -0.058 -12.764  1.00  0.00     0.002 C 
ATOM     26  C   UNL     1      -7.189  -1.296 -13.437  1.00  0.00     0.004 C 
ENDBRANCH  23  25
ENDBRANCH  10  23
ENDBRANCH   7  10
ENDBRANCH   4   6
BRANCH   3  27
ATOM     27  C   UNL     1     -10.957  -0.572  -5.837  1.00  0.00     0.171 C 
BRANCH  27  28
ATOM     28  N   UNL     1     -10.260   0.086  -4.737  1.00  0.00    -0.342 N 
ATOM     29  C   UNL     1      -9.372  -0.572  -3.915  1.00  0.00     0.245 C 
ATOM     30  O   UNL     1      -9.088  -1.760  -4.058  1.00  0.00    -0.273 OA
ATOM     31  H   UNL     1     -10.357   1.095  -4.629  1.00  0.00     0.164 HD
BRANCH  29  32
ATOM     32  C   UNL     1      -8.637   0.319  -2.891  1.00  0.00     0.200 C 
BRANCH  32  33
ATOM     33  N   UNL     1      -7.455   0.894  -3.545  1.00  0.00    -0.340 N 
ATOM     34  C   UNL     1      -6.179   0.548  -3.151  1.00  0.00     0.243 CG0
ATOM     35  O   UNL     1      -5.974  -0.202  -2.199  1.00  0.00    -0.273 OA
ATOM     36  H   UNL     1      -7.592   1.540  -4.314  1.00  0.00     0.164 HD
ATOM     37  G   UNL     1      -5.039   1.327  -3.826  1.00  0.00     0.000 G0
ENDBRANCH  32  33
BRANCH  32  38
ATOM     38  C   UNL     1      -9.578   1.391  -2.296  1.00  0.00     0.143 C 
ATOM     39  C   UNL     1      -9.148   1.907  -0.928  1.00  0.00     0.041 C 
BRANCH  38  40
ATOM     40  O   UNL     1      -9.690   2.506  -3.202  1.00  0.00    -0.391 OA
ATOM     41  H   UNL     1      -9.142   2.290  -3.980  1.00  0.00     0.211 HD
ENDBRANCH  38  40
ENDBRANCH  32  38
ENDBRANCH  29  32
ENDBRANCH  27  28
BRANCH  27  42
ATOM     42  C   UNL     1     -12.458  -0.781  -5.516  1.00  0.00     0.015 C 
ATOM     43  C   UNL     1     -13.088   0.266  -4.591  1.00  0.00     0.010 C 
ATOM     44  C   UNL     1     -13.298  -0.941  -6.787  1.00  0.00     0.010 C 
ENDBRANCH  27  42
ENDBRANCH   3  27
TORSDOF 5
ENDMDL
MODEL 17
REMARK VINA RESULT:    -6.217      2.824      6.028
REMARK INTER + INTRA:         -13.317
REMARK INTER:                 -11.298
REMARK INTRA:                  -2.020
REMARK UNBOUND:                -2.194
REMARK SMILES CC[C@H](C)[C@H]1NC(=O)c2coc(n2)[C@H](C(C)C)NC(=O)[C@H]([C@@H](C)O)NC(=O)[C@H](C)NC(=O)c2csc1n2
REMARK SMILES IDX 11 1 13 2 12 3 9 4 10 5 7 6 6 7 8 8 5 10 36 11 35 12 34 13
REMARK SMILES IDX 37 14 33 15 31 16 32 17 30 18 28 20 29 21 3 23 4 24 2 25
REMARK SMILES IDX 1 26 14 27 18 28 19 29 20 30 21 32 25 33 26 34 27 35 22 38
REMARK SMILES IDX 23 39 24 40 15 42 16 43 17 44
REMARK H PARENT 6 9 30 19 18 31 25 36 24 41
REMARK Flexibility Score:   94.900
ROOT
ATOM      1  O   UNL     1      -8.582   0.647  -5.119  1.00  0.00    -0.446 OA
ATOM      2  N   UNL     1     -10.520   1.193  -4.106  1.00  0.00    -0.207 NA
ATOM      3  C   UNL     1      -9.941   0.782  -5.220  1.00  0.00     0.217 A 
ATOM      4  C   UNL     1      -9.476   1.311  -3.205  1.00  0.00     0.167 A 
ATOM      5  C   UNL     1      -8.299   0.977  -3.828  1.00  0.00     0.231 A 
ENDROOT
BRANCH   4   6
ATOM      6  C   UNL     1      -9.658   1.757  -1.834  1.00  0.00     0.273 C 
ATOM      7  N   UNL     1      -9.688   0.704  -0.955  1.00  0.00    -0.341 N 
ATOM      8  O   UNL     1      -9.792   2.933  -1.516  1.00  0.00    -0.267 OA
ATOM      9  H   UNL     1      -9.657  -0.221  -1.375  1.00  0.00     0.164 HD
BRANCH   7  10
ATOM     10  C   UNL     1     -10.101   0.839   0.428  1.00  0.00     0.145 C 
BRANCH  10  11
ATOM     11  C   UNL     1     -11.617   0.710   0.471  1.00  0.00     0.116 A 
ATOM     12  S   UNL     1     -12.535   1.757   1.486  1.00  0.00    -0.124 S 
ATOM     13  C   UNL     1     -13.974   1.018   0.933  1.00  0.00     0.101 A 
ATOM     14  N   UNL     1     -12.324  -0.156  -0.236  1.00  0.00    -0.234 NA
ATOM     15  C   UNL     1     -13.686   0.028   0.013  1.00  0.00     0.139 A 
BRANCH  15  16
ATOM     16  C   UNL     1     -14.708  -0.772  -0.666  1.00  0.00     0.271 C 
ATOM     17  O   UNL     1     -15.016  -1.903  -0.305  1.00  0.00    -0.267 OA
ATOM     18  N   UNL     1     -15.285  -0.130  -1.741  1.00  0.00    -0.339 N 
ATOM     19  H   UNL     1     -14.866   0.757  -2.006  1.00  0.00     0.164 HD
BRANCH  18  20
ATOM     20  C   UNL     1     -16.273  -0.799  -2.577  1.00  0.00     0.168 CG0
ATOM     21  C   UNL     1     -17.690  -0.320  -2.254  1.00  0.00     0.041 C 
ATOM     22  G   UNL     1     -16.032  -0.573  -4.079  1.00  0.00     0.000 G0
ENDBRANCH  18  20
ENDBRANCH  15  16
ENDBRANCH  10  11
BRANCH  10  23
ATOM     23  C   UNL     1      -9.393  -0.186   1.353  1.00  0.00     0.015 C 
ATOM     24  C   UNL     1      -8.063  -0.705   0.782  1.00  0.00     0.010 C 
BRANCH  23  25
ATOM     25  C   UNL     1      -9.140   0.366   2.774  1.00  0.00     0.002 C 
ATOM     26  C   UNL     1      -9.135   1.886   2.855  1.00  0.00     0.004 C 
ENDBRANCH  23  25
ENDBRANCH  10  23
ENDBRANCH   7  10
ENDBRANCH   4   6
BRANCH   3  27
ATOM     27  C   UNL     1     -10.605   0.515  -6.542  1.00  0.00     0.171 C 
BRANCH  27  28
ATOM     28  N   UNL     1     -12.039   0.728  -6.373  1.00  0.00    -0.342 N 
ATOM     29  C   UNL     1     -12.913  -0.287  -6.056  1.00  0.00     0.245 C 
ATOM     30  O   UNL     1     -12.548  -1.448  -5.876  1.00  0.00    -0.273 OA
ATOM     31  H   UNL     1     -12.398   1.682  -6.393  1.00  0.00     0.164 HD
BRANCH  29  32
ATOM     32  C   UNL     1     -14.368   0.154  -5.791  1.00  0.00     0.200 C 
BRANCH  32  33
ATOM     33  N   UNL     1     -14.720  -0.222  -4.416  1.00  0.00    -0.340 N 
ATOM     34  C   UNL     1     -16.014  -0.557  -4.074  1.00  0.00     0.243 CG0
ATOM     35  O   UNL     1     -16.937  -0.495  -4.884  1.00  0.00    -0.273 OA
ATOM     36  H   UNL     1     -13.986  -0.253  -3.718  1.00  0.00     0.164 HD
ATOM     37  G   UNL     1     -16.268  -0.795  -2.577  1.00  0.00     0.000 G0
ENDBRANCH  32  33
BRANCH  32  38
ATOM     38  C   UNL     1     -14.562   1.662  -6.072  1.00  0.00     0.143 C 
ATOM     39  C   UNL     1     -15.014   1.977  -7.493  1.00  0.00     0.041 C 
BRANCH  38  40
ATOM     40  O   UNL     1     -15.514   2.218  -5.145  1.00  0.00    -0.391 OA
ATOM     41  H   UNL     1     -15.702   1.522  -4.487  1.00  0.00     0.211 HD
ENDBRANCH  38  40
ENDBRANCH  32  38
ENDBRANCH  29  32
ENDBRANCH  27  28
BRANCH  27  42
ATOM     42  C   UNL     1     -10.060   1.268  -7.780  1.00  0.00     0.015 C 
ATOM     43  C   UNL     1      -8.964   0.541  -8.567  1.00  0.00     0.010 C 
ATOM     44  C   UNL     1     -11.184   1.712  -8.722  1.00  0.00     0.010 C 
ENDBRANCH  27  42
ENDBRANCH   3  27
TORSDOF 5
ENDMDL
MODEL 18
REMARK VINA RESULT:    -6.203      2.498      6.678
REMARK INTER + INTRA:         -13.293
REMARK INTER:                 -10.977
REMARK INTRA:                  -2.316
REMARK UNBOUND:                -2.194
REMARK SMILES CC[C@H](C)[C@H]1NC(=O)c2coc(n2)[C@H](C(C)C)NC(=O)[C@H]([C@@H](C)O)NC(=O)[C@H](C)NC(=O)c2csc1n2
REMARK SMILES IDX 11 1 13 2 12 3 9 4 10 5 7 6 6 7 8 8 5 10 36 11 35 12 34 13
REMARK SMILES IDX 37 14 33 15 31 16 32 17 30 18 28 20 29 21 3 23 4 24 2 25
REMARK SMILES IDX 1 26 14 27 18 28 19 29 20 30 21 32 25 33 26 34 27 35 22 38
REMARK SMILES IDX 23 39 24 40 15 42 16 43 17 44
REMARK H PARENT 6 9 30 19 18 31 25 36 24 41
REMARK Flexibility Score:   94.900
ROOT
ATOM      1  O   UNL     1      -9.074   2.579  -2.160  1.00  0.00    -0.446 OA
ATOM      2  N   UNL     1     -10.594   0.936  -1.893  1.00  0.00    -0.207 NA
ATOM      3  C   UNL     1      -9.431   1.282  -2.415  1.00  0.00     0.217 A 
ATOM      4  C   UNL     1     -11.019   2.073  -1.228  1.00  0.00     0.167 A 
ATOM      5  C   UNL     1     -10.088   3.070  -1.394  1.00  0.00     0.231 A 
ENDROOT
BRANCH   4   6
ATOM      6  C   UNL     1     -12.280   2.148  -0.510  1.00  0.00     0.273 C 
ATOM      7  N   UNL     1     -13.221   1.305  -1.044  1.00  0.00    -0.341 N 
ATOM      8  O   UNL     1     -12.475   2.897   0.440  1.00  0.00    -0.267 OA
ATOM      9  H   UNL     1     -12.944   0.814  -1.889  1.00  0.00     0.164 HD
BRANCH   7  10
ATOM     10  C   UNL     1     -14.625   1.358  -0.686  1.00  0.00     0.145 C 
BRANCH  10  11
ATOM     11  C   UNL     1     -15.433   1.215  -1.968  1.00  0.00     0.116 A 
ATOM     12  S   UNL     1     -17.154   1.172  -1.894  1.00  0.00    -0.124 S 
ATOM     13  C   UNL     1     -17.217   1.051  -3.598  1.00  0.00     0.101 A 
ATOM     14  N   UNL     1     -14.917   1.131  -3.184  1.00  0.00    -0.234 NA
ATOM     15  C   UNL     1     -15.942   1.054  -4.130  1.00  0.00     0.139 A 
BRANCH  15  16
ATOM     16  C   UNL     1     -15.661   0.990  -5.566  1.00  0.00     0.271 C 
ATOM     17  O   UNL     1     -16.540   1.044  -6.419  1.00  0.00    -0.267 OA
ATOM     18  N   UNL     1     -14.320   0.865  -5.859  1.00  0.00    -0.339 N 
ATOM     19  H   UNL     1     -13.703   0.719  -5.065  1.00  0.00     0.164 HD
BRANCH  18  20
ATOM     20  C   UNL     1     -13.858   0.719  -7.233  1.00  0.00     0.168 CG0
ATOM     21  C   UNL     1     -13.651   2.081  -7.898  1.00  0.00     0.041 C 
ATOM     22  G   UNL     1     -12.537  -0.061  -7.337  1.00  0.00     0.000 G0
ENDBRANCH  18  20
ENDBRANCH  15  16
ENDBRANCH  10  11
BRANCH  10  23
ATOM     23  C   UNL     1     -15.000   0.287   0.372  1.00  0.00     0.015 C 
ATOM     24  C   UNL     1     -14.243  -1.039   0.191  1.00  0.00     0.010 C 
BRANCH  23  25
ATOM     25  C   UNL     1     -14.794   0.781   1.822  1.00  0.00     0.002 C 
ATOM     26  C   UNL     1     -15.639   1.993   2.188  1.00  0.00     0.004 C 
ENDBRANCH  23  25
ENDBRANCH  10  23
ENDBRANCH   7  10
ENDBRANCH   4   6
BRANCH   3  27
ATOM     27  C   UNL     1      -8.533   0.432  -3.271  1.00  0.00     0.171 C 
BRANCH  27  28
ATOM     28  N   UNL     1      -8.975   0.567  -4.655  1.00  0.00    -0.342 N 
ATOM     29  C   UNL     1      -9.617  -0.442  -5.337  1.00  0.00     0.245 C 
ATOM     30  O   UNL     1      -9.880  -1.529  -4.824  1.00  0.00    -0.273 OA
ATOM     31  H   UNL     1      -8.895   1.477  -5.108  1.00  0.00     0.164 HD
BRANCH  29  32
ATOM     32  C   UNL     1     -10.124  -0.068  -6.746  1.00  0.00     0.200 C 
BRANCH  32  33
ATOM     33  N   UNL     1     -11.482   0.474  -6.619  1.00  0.00    -0.340 N 
ATOM     34  C   UNL     1     -12.531  -0.046  -7.348  1.00  0.00     0.243 CG0
ATOM     35  O   UNL     1     -12.367  -0.936  -8.179  1.00  0.00    -0.273 OA
ATOM     36  H   UNL     1     -11.643   1.230  -5.964  1.00  0.00     0.164 HD
ATOM     37  G   UNL     1     -13.867   0.704  -7.221  1.00  0.00     0.000 G0
ENDBRANCH  32  33
BRANCH  32  38
ATOM     38  C   UNL     1      -9.152   0.902  -7.457  1.00  0.00     0.143 C 
ATOM     39  C   UNL     1      -9.144   0.773  -8.976  1.00  0.00     0.041 C 
BRANCH  38  40
ATOM     40  O   UNL     1      -9.468   2.263  -7.105  1.00  0.00    -0.391 OA
ATOM     41  H   UNL     1      -8.899   2.833  -7.656  1.00  0.00     0.211 HD
ENDBRANCH  38  40
ENDBRANCH  32  38
ENDBRANCH  29  32
ENDBRANCH  27  28
BRANCH  27  42
ATOM     42  C   UNL     1      -7.006   0.649  -3.138  1.00  0.00     0.015 C 
ATOM     43  C   UNL     1      -6.435   1.832  -3.928  1.00  0.00     0.010 C 
ATOM     44  C   UNL     1      -6.564   0.726  -1.673  1.00  0.00     0.010 C 
ENDBRANCH  27  42
ENDBRANCH   3  27
TORSDOF 5
ENDMDL
MODEL 19
REMARK VINA RESULT:    -6.177      3.799      7.673
REMARK INTER + INTRA:         -13.246
REMARK INTER:                 -11.560
REMARK INTRA:                  -1.686
REMARK UNBOUND:                -2.194
REMARK SMILES CC[C@H](C)[C@H]1NC(=O)c2coc(n2)[C@H](C(C)C)NC(=O)[C@H]([C@@H](C)O)NC(=O)[C@H](C)NC(=O)c2csc1n2
REMARK SMILES IDX 11 1 13 2 12 3 9 4 10 5 7 6 6 7 8 8 5 10 36 11 35 12 34 13
REMARK SMILES IDX 37 14 33 15 31 16 32 17 30 18 28 20 29 21 3 23 4 24 2 25
REMARK SMILES IDX 1 26 14 27 18 28 19 29 20 30 21 32 25 33 26 34 27 35 22 38
REMARK SMILES IDX 23 39 24 40 15 42 16 43 17 44
REMARK H PARENT 6 9 30 19 18 31 25 36 24 41
REMARK Flexibility Score:   94.900
ROOT
ATOM      1  O   UNL     1      -3.924   0.967  -6.660  1.00  0.00    -0.446 OA
ATOM      2  N   UNL     1      -5.562   2.130  -5.636  1.00  0.00    -0.207 NA
ATOM      3  C   UNL     1      -5.228   1.386  -6.675  1.00  0.00     0.217 A 
ATOM      4  C   UNL     1      -4.409   2.183  -4.873  1.00  0.00     0.167 A 
ATOM      5  C   UNL     1      -3.416   1.472  -5.501  1.00  0.00     0.231 A 
ENDROOT
BRANCH   4   6
ATOM      6  C   UNL     1      -4.317   2.920  -3.624  1.00  0.00     0.273 C 
ATOM      7  N   UNL     1      -4.443   2.096  -2.535  1.00  0.00    -0.341 N 
ATOM      8  O   UNL     1      -4.169   4.135  -3.564  1.00  0.00    -0.267 OA
ATOM      9  H   UNL     1      -4.654   1.124  -2.740  1.00  0.00     0.164 HD
BRANCH   7  10
ATOM     10  C   UNL     1      -4.636   2.591  -1.186  1.00  0.00     0.145 C 
BRANCH  10  11
ATOM     11  C   UNL     1      -5.824   1.850  -0.589  1.00  0.00     0.116 A 
ATOM     12  S   UNL     1      -5.994   1.746   1.123  1.00  0.00    -0.124 S 
ATOM     13  C   UNL     1      -7.453   0.881   0.918  1.00  0.00     0.101 A 
ATOM     14  N   UNL     1      -6.783   1.266  -1.289  1.00  0.00    -0.234 NA
ATOM     15  C   UNL     1      -7.735   0.720  -0.425  1.00  0.00     0.139 A 
BRANCH  15  16
ATOM     16  C   UNL     1      -8.932   0.043  -0.928  1.00  0.00     0.271 C 
ATOM     17  O   UNL     1      -9.606  -0.716  -0.240  1.00  0.00    -0.267 OA
ATOM     18  N   UNL     1      -9.223   0.343  -2.242  1.00  0.00    -0.339 N 
ATOM     19  H   UNL     1      -8.527   0.895  -2.737  1.00  0.00     0.164 HD
BRANCH  18  20
ATOM     20  C   UNL     1     -10.339  -0.291  -2.932  1.00  0.00     0.168 CG0
ATOM     21  C   UNL     1     -11.581   0.603  -2.919  1.00  0.00     0.041 C 
ATOM     22  G   UNL     1     -10.018  -0.629  -4.397  1.00  0.00     0.000 G0
ENDBRANCH  18  20
ENDBRANCH  15  16
ENDBRANCH  10  11
BRANCH  10  23
ATOM     23  C   UNL     1      -3.355   2.450  -0.321  1.00  0.00     0.015 C 
ATOM     24  C   UNL     1      -2.497   1.231  -0.699  1.00  0.00     0.010 C 
BRANCH  23  25
ATOM     25  C   UNL     1      -2.466   3.713  -0.360  1.00  0.00     0.002 C 
ATOM     26  C   UNL     1      -1.081   3.476  -0.947  1.00  0.00     0.004 C 
ENDBRANCH  23  25
ENDBRANCH  10  23
ENDBRANCH   7  10
ENDBRANCH   4   6
BRANCH   3  27
ATOM     27  C   UNL     1      -6.099   1.021  -7.846  1.00  0.00     0.171 C 
BRANCH  27  28
ATOM     28  N   UNL     1      -7.316   0.409  -7.324  1.00  0.00    -0.342 N 
ATOM     29  C   UNL     1      -8.474   1.121  -7.101  1.00  0.00     0.245 C 
ATOM     30  O   UNL     1      -8.572   2.323  -7.340  1.00  0.00    -0.273 OA
ATOM     31  H   UNL     1      -7.346  -0.603  -7.211  1.00  0.00     0.164 HD
BRANCH  29  32
ATOM     32  C   UNL     1      -9.693   0.278  -6.670  1.00  0.00     0.200 C 
BRANCH  32  33
ATOM     33  N   UNL     1      -9.889   0.456  -5.226  1.00  0.00    -0.340 N 
ATOM     34  C   UNL     1     -10.018  -0.628  -4.382  1.00  0.00     0.243 CG0
ATOM     35  O   UNL     1     -10.040  -1.782  -4.806  1.00  0.00    -0.273 OA
ATOM     36  H   UNL     1      -9.906   1.397  -4.851  1.00  0.00     0.164 HD
ATOM     37  G   UNL     1     -10.355  -0.298  -2.919  1.00  0.00     0.000 G0
ENDBRANCH  32  33
BRANCH  32  38
ATOM     38  C   UNL     1     -10.949   0.637  -7.497  1.00  0.00     0.143 C 
ATOM     39  C   UNL     1     -12.032  -0.435  -7.481  1.00  0.00     0.041 C 
BRANCH  38  40
ATOM     40  O   UNL     1     -11.511   1.877  -7.026  1.00  0.00    -0.391 OA
ATOM     41  H   UNL     1     -10.835   2.292  -6.458  1.00  0.00     0.211 HD
ENDBRANCH  38  40
ENDBRANCH  32  38
ENDBRANCH  29  32
ENDBRANCH  27  28
BRANCH  27  42
ATOM     42  C   UNL     1      -6.417   2.136  -8.873  1.00  0.00     0.015 C 
ATOM     43  C   UNL     1      -5.527   3.382  -8.794  1.00  0.00     0.010 C 
ATOM     44  C   UNL     1      -6.454   1.600 -10.308  1.00  0.00     0.010 C 
ENDBRANCH  27  42
ENDBRANCH   3  27
TORSDOF 5
ENDMDL
MODEL 20
REMARK VINA RESULT:    -6.161      3.752      7.211
REMARK INTER + INTRA:         -13.217
REMARK INTER:                 -11.617
REMARK INTRA:                  -1.601
REMARK UNBOUND:                -2.194
REMARK SMILES CC[C@H](C)[C@H]1NC(=O)c2coc(n2)[C@H](C(C)C)NC(=O)[C@H]([C@@H](C)O)NC(=O)[C@H](C)NC(=O)c2csc1n2
REMARK SMILES IDX 11 1 13 2 12 3 9 4 10 5 7 6 6 7 8 8 5 10 36 11 35 12 34 13
REMARK SMILES IDX 37 14 33 15 31 16 32 17 30 18 28 20 29 21 3 23 4 24 2 25
REMARK SMILES IDX 1 26 14 27 18 28 19 29 20 30 21 32 25 33 26 34 27 35 22 38
REMARK SMILES IDX 23 39 24 40 15 42 16 43 17 44
REMARK H PARENT 6 9 30 19 18 31 25 36 24 41
REMARK Flexibility Score:   94.900
ROOT
ATOM      1  O   UNL     1     -11.156   1.461  -6.813  1.00  0.00    -0.446 OA
ATOM      2  N   UNL     1      -9.210   0.348  -6.578  1.00  0.00    -0.207 NA
ATOM      3  C   UNL     1     -10.439   0.518  -6.125  1.00  0.00     0.217 A 
ATOM      4  C   UNL     1      -9.121   1.217  -7.652  1.00  0.00     0.167 A 
ATOM      5  C   UNL     1     -10.310   1.891  -7.789  1.00  0.00     0.231 A 
ENDROOT
BRANCH   4   6
ATOM      6  C   UNL     1      -7.917   1.372  -8.450  1.00  0.00     0.273 C 
ATOM      7  N   UNL     1      -6.808   0.897  -7.796  1.00  0.00    -0.341 N 
ATOM      8  O   UNL     1      -7.902   1.888  -9.560  1.00  0.00    -0.267 OA
ATOM      9  H   UNL     1      -6.960   0.581  -6.843  1.00  0.00     0.164 HD
BRANCH   7  10
ATOM     10  C   UNL     1      -5.454   1.148  -8.250  1.00  0.00     0.145 C 
BRANCH  10  11
ATOM     11  C   UNL     1      -4.590   1.373  -7.018  1.00  0.00     0.116 A 
ATOM     12  S   UNL     1      -2.885   1.555  -7.192  1.00  0.00    -0.124 S 
ATOM     13  C   UNL     1      -2.745   1.783  -5.503  1.00  0.00     0.101 A 
ATOM     14  N   UNL     1      -5.044   1.461  -5.779  1.00  0.00    -0.234 NA
ATOM     15  C   UNL     1      -3.987   1.714  -4.902  1.00  0.00     0.139 A 
BRANCH  15  16
ATOM     16  C   UNL     1      -4.205   1.896  -3.465  1.00  0.00     0.271 C 
ATOM     17  O   UNL     1      -3.314   2.240  -2.696  1.00  0.00    -0.267 OA
ATOM     18  N   UNL     1      -5.501   1.646  -3.069  1.00  0.00    -0.339 N 
ATOM     19  H   UNL     1      -6.117   1.261  -3.781  1.00  0.00     0.164 HD
BRANCH  18  20
ATOM     20  C   UNL     1      -5.888   1.711  -1.666  1.00  0.00     0.168 CG0
ATOM     21  C   UNL     1      -6.030   3.160  -1.195  1.00  0.00     0.041 C 
ATOM     22  G   UNL     1      -7.216   0.991  -1.381  1.00  0.00     0.000 G0
ENDBRANCH  18  20
ENDBRANCH  15  16
ENDBRANCH  10  11
BRANCH  10  23
ATOM     23  C   UNL     1      -4.916   0.002  -9.148  1.00  0.00     0.015 C 
ATOM     24  C   UNL     1      -5.993  -1.024  -9.537  1.00  0.00     0.010 C 
BRANCH  23  25
ATOM     25  C   UNL     1      -4.239   0.521 -10.437  1.00  0.00     0.002 C 
ATOM     26  C   UNL     1      -2.769   0.145 -10.558  1.00  0.00     0.004 C 
ENDBRANCH  23  25
ENDBRANCH  10  23
ENDBRANCH   7  10
ENDBRANCH   4   6
BRANCH   3  27
ATOM     27  C   UNL     1     -11.072  -0.162  -4.942  1.00  0.00     0.171 C 
BRANCH  27  28
ATOM     28  N   UNL     1     -10.720   0.599  -3.749  1.00  0.00    -0.342 N 
ATOM     29  C   UNL     1     -10.078   0.039  -2.667  1.00  0.00     0.245 C 
ATOM     30  O   UNL     1      -9.739  -1.143  -2.633  1.00  0.00    -0.273 OA
ATOM     31  H   UNL     1     -10.865   1.608  -3.751  1.00  0.00     0.164 HD
BRANCH  29  32
ATOM     32  C   UNL     1      -9.674   1.029  -1.554  1.00  0.00     0.200 C 
BRANCH  32  33
ATOM     33  N   UNL     1      -8.345   1.565  -1.875  1.00  0.00    -0.340 N 
ATOM     34  C   UNL     1      -7.199   0.981  -1.378  1.00  0.00     0.243 CG0
ATOM     35  O   UNL     1      -7.239   0.031  -0.599  1.00  0.00    -0.273 OA
ATOM     36  H   UNL     1      -8.282   2.367  -2.490  1.00  0.00     0.164 HD
ATOM     37  G   UNL     1      -5.888   1.725  -1.680  1.00  0.00     0.000 G0
ENDBRANCH  32  33
BRANCH  32  38
ATOM     38  C   UNL     1     -10.740   2.133  -1.365  1.00  0.00     0.143 C 
ATOM     39  C   UNL     1     -11.304   2.218   0.049  1.00  0.00     0.041 C 
BRANCH  38  40
ATOM     40  O   UNL     1     -10.192   3.415  -1.728  1.00  0.00    -0.391 OA
ATOM     41  H   UNL     1     -10.661   3.701  -2.535  1.00  0.00     0.211 HD
ENDBRANCH  38  40
ENDBRANCH  32  38
ENDBRANCH  29  32
ENDBRANCH  27  28
BRANCH  27  42
ATOM     42  C   UNL     1     -12.593  -0.444  -5.011  1.00  0.00     0.015 C 
ATOM     43  C   UNL     1     -13.088  -1.092  -6.309  1.00  0.00     0.010 C 
ATOM     44  C   UNL     1     -13.083  -1.242  -3.798  1.00  0.00     0.010 C 
ENDBRANCH  27  42
ENDBRANCH   3  27
TORSDOF 5
ENDMDL
MODEL 21
REMARK VINA RESULT:    -6.145      4.444      9.615
REMARK INTER + INTRA:         -13.188
REMARK INTER:                 -10.984
REMARK INTRA:                  -2.204
REMARK UNBOUND:                -2.194
REMARK SMILES CC[C@H](C)[C@H]1NC(=O)c2coc(n2)[C@H](C(C)C)NC(=O)[C@H]([C@@H](C)O)NC(=O)[C@H](C)NC(=O)c2csc1n2
REMARK SMILES IDX 11 1 13 2 12 3 9 4 10 5 7 6 6 7 8 8 5 10 36 11 35 12 34 13
REMARK SMILES IDX 37 14 33 15 31 16 32 17 30 18 28 20 29 21 3 23 4 24 2 25
REMARK SMILES IDX 1 26 14 27 18 28 19 29 20 30 21 32 25 33 26 34 27 35 22 38
REMARK SMILES IDX 23 39 24 40 15 42 16 43 17 44
REMARK H PARENT 6 9 30 19 18 31 25 36 24 41
REMARK Flexibility Score:   94.900
ROOT
ATOM      1  O   UNL     1      -2.947   0.604  -8.459  1.00  0.00    -0.446 OA
ATOM      2  N   UNL     1      -5.109   1.062  -8.014  1.00  0.00    -0.207 NA
ATOM      3  C   UNL     1      -3.850   1.256  -7.663  1.00  0.00     0.217 A 
ATOM      4  C   UNL     1      -5.028   0.249  -9.131  1.00  0.00     0.167 A 
ATOM      5  C   UNL     1      -3.709  -0.026  -9.397  1.00  0.00     0.231 A 
ENDROOT
BRANCH   4   6
ATOM      6  C   UNL     1      -6.195  -0.233  -9.848  1.00  0.00     0.273 C 
ATOM      7  N   UNL     1      -7.132   0.755 -10.020  1.00  0.00    -0.341 N 
ATOM      8  O   UNL     1      -6.328  -1.390 -10.228  1.00  0.00    -0.267 OA
ATOM      9  H   UNL     1      -6.924   1.642  -9.570  1.00  0.00     0.164 HD
BRANCH   7  10
ATOM     10  C   UNL     1      -8.483   0.495 -10.477  1.00  0.00     0.145 C 
BRANCH  10  11
ATOM     11  C   UNL     1      -9.435   0.945  -9.379  1.00  0.00     0.116 A 
ATOM     12  S   UNL     1     -10.832   1.870  -9.786  1.00  0.00    -0.124 S 
ATOM     13  C   UNL     1     -11.288   1.891  -8.139  1.00  0.00     0.101 A 
ATOM     14  N   UNL     1      -9.294   0.671  -8.093  1.00  0.00    -0.234 NA
ATOM     15  C   UNL     1     -10.369   1.200  -7.374  1.00  0.00     0.139 A 
BRANCH  15  16
ATOM     16  C   UNL     1     -10.492   1.014  -5.926  1.00  0.00     0.271 C 
ATOM     17  O   UNL     1     -11.547   1.177  -5.322  1.00  0.00    -0.267 OA
ATOM     18  N   UNL     1      -9.313   0.639  -5.317  1.00  0.00    -0.339 N 
ATOM     19  H   UNL     1      -8.486   0.645  -5.907  1.00  0.00     0.164 HD
BRANCH  18  20
ATOM     20  C   UNL     1      -9.230   0.474  -3.872  1.00  0.00     0.168 CG0
ATOM     21  C   UNL     1      -9.091  -1.000  -3.487  1.00  0.00     0.041 C 
ATOM     22  G   UNL     1      -8.046   1.235  -3.254  1.00  0.00     0.000 G0
ENDBRANCH  18  20
ENDBRANCH  15  16
ENDBRANCH  10  11
BRANCH  10  23
ATOM     23  C   UNL     1      -8.783   1.177 -11.838  1.00  0.00     0.015 C 
ATOM     24  C   UNL     1      -7.705   2.189 -12.262  1.00  0.00     0.010 C 
BRANCH  23  25
ATOM     25  C   UNL     1      -8.987   0.162 -12.985  1.00  0.00     0.002 C 
ATOM     26  C   UNL     1      -7.722  -0.590 -13.377  1.00  0.00     0.004 C 
ENDBRANCH  23  25
ENDBRANCH  10  23
ENDBRANCH   7  10
ENDBRANCH   4   6
BRANCH   3  27
ATOM     27  C   UNL     1      -3.349   2.050  -6.487  1.00  0.00     0.171 C 
BRANCH  27  28
ATOM     28  N   UNL     1      -4.033   1.562  -5.295  1.00  0.00    -0.342 N 
ATOM     29  C   UNL     1      -4.858   2.355  -4.529  1.00  0.00     0.245 C 
ATOM     30  O   UNL     1      -5.093   3.531  -4.803  1.00  0.00    -0.273 OA
ATOM     31  H   UNL     1      -3.978   0.569  -5.070  1.00  0.00     0.164 HD
BRANCH  29  32
ATOM     32  C   UNL     1      -5.594   1.629  -3.383  1.00  0.00     0.200 C 
BRANCH  32  33
ATOM     33  N   UNL     1      -6.840   1.068  -3.918  1.00  0.00    -0.340 N 
ATOM     34  C   UNL     1      -8.042   1.240  -3.262  1.00  0.00     0.243 CG0
ATOM     35  O   UNL     1      -8.113   1.811  -2.176  1.00  0.00    -0.273 OA
ATOM     36  H   UNL     1      -6.808   0.565  -4.796  1.00  0.00     0.164 HD
ATOM     37  G   UNL     1      -9.241   0.485  -3.859  1.00  0.00     0.000 G0
ENDBRANCH  32  33
BRANCH  32  38
ATOM     38  C   UNL     1      -4.691   0.564  -2.717  1.00  0.00     0.143 C 
ATOM     39  C   UNL     1      -4.479   0.775  -1.222  1.00  0.00     0.041 C 
BRANCH  38  40
ATOM     40  O   UNL     1      -5.239  -0.751  -2.930  1.00  0.00    -0.391 OA
ATOM     41  H   UNL     1      -4.749  -1.357  -2.343  1.00  0.00     0.211 HD
ENDBRANCH  38  40
ENDBRANCH  32  38
ENDBRANCH  29  32
ENDBRANCH  27  28
BRANCH  27  42
ATOM     42  C   UNL     1      -1.817   2.121  -6.276  1.00  0.00     0.015 C 
ATOM     43  C   UNL     1      -1.054   3.007  -7.268  1.00  0.00     0.010 C 
ATOM     44  C   UNL     1      -1.454   2.501  -4.837  1.00  0.00     0.010 C 
ENDBRANCH  27  42
ENDBRANCH   3  27
TORSDOF 5
ENDMDL
MODEL 22
REMARK VINA RESULT:    -6.136      4.101      6.486
REMARK INTER + INTRA:         -13.172
REMARK INTER:                 -11.302
REMARK INTRA:                  -1.871
REMARK UNBOUND:                -2.194
REMARK SMILES CC[C@H](C)[C@H]1NC(=O)c2coc(n2)[C@H](C(C)C)NC(=O)[C@H]([C@@H](C)O)NC(=O)[C@H](C)NC(=O)c2csc1n2
REMARK SMILES IDX 11 1 13 2 12 3 9 4 10 5 7 6 6 7 8 8 5 10 36 11 35 12 34 13
REMARK SMILES IDX 37 14 33 15 31 16 32 17 30 18 28 20 29 21 3 23 4 24 2 25
REMARK SMILES IDX 1 26 14 27 18 28 19 29 20 30 21 32 25 33 26 34 27 35 22 38
REMARK SMILES IDX 23 39 24 40 15 42 16 43 17 44
REMARK H PARENT 6 9 30 19 18 31 25 36 24 41
REMARK Flexibility Score:   94.900
ROOT
ATOM      1  O   UNL     1      -8.613   1.932  -2.477  1.00  0.00    -0.446 OA
ATOM      2  N   UNL     1      -7.576   0.307  -3.647  1.00  0.00    -0.207 NA
ATOM      3  C   UNL     1      -8.700   0.974  -3.452  1.00  0.00     0.217 A 
ATOM      4  C   UNL     1      -6.683   0.882  -2.760  1.00  0.00     0.167 A 
ATOM      5  C   UNL     1      -7.320   1.871  -2.051  1.00  0.00     0.231 A 
ENDROOT
BRANCH   4   6
ATOM      6  C   UNL     1      -5.305   0.441  -2.623  1.00  0.00     0.273 C 
ATOM      7  N   UNL     1      -4.431   1.498  -2.602  1.00  0.00    -0.341 N 
ATOM      8  O   UNL     1      -4.974  -0.737  -2.561  1.00  0.00    -0.267 OA
ATOM      9  H   UNL     1      -4.844   2.414  -2.756  1.00  0.00     0.164 HD
BRANCH   7  10
ATOM     10  C   UNL     1      -2.995   1.341  -2.722  1.00  0.00     0.145 C 
BRANCH  10  11
ATOM     11  C   UNL     1      -2.618   1.646  -4.165  1.00  0.00     0.116 A 
ATOM     12  S   UNL     1      -1.071   2.318  -4.520  1.00  0.00    -0.124 S 
ATOM     13  C   UNL     1      -1.452   2.292  -6.187  1.00  0.00     0.101 A 
ATOM     14  N   UNL     1      -3.392   1.423  -5.214  1.00  0.00    -0.234 NA
ATOM     15  C   UNL     1      -2.718   1.778  -6.385  1.00  0.00     0.139 A 
BRANCH  15  16
ATOM     16  C   UNL     1      -3.325   1.600  -7.707  1.00  0.00     0.271 C 
ATOM     17  O   UNL     1      -2.726   1.835  -8.750  1.00  0.00    -0.267 OA
ATOM     18  N   UNL     1      -4.626   1.146  -7.658  1.00  0.00    -0.339 N 
ATOM     19  H   UNL     1      -5.046   1.096  -6.734  1.00  0.00     0.164 HD
BRANCH  18  20
ATOM     20  C   UNL     1      -5.411   0.976  -8.873  1.00  0.00     0.168 CG0
ATOM     21  C   UNL     1      -5.572  -0.504  -9.230  1.00  0.00     0.041 C 
ATOM     22  G   UNL     1      -6.817   1.587  -8.763  1.00  0.00     0.000 G0
ENDBRANCH  18  20
ENDBRANCH  15  16
ENDBRANCH  10  11
BRANCH  10  23
ATOM     23  C   UNL     1      -2.222   2.226  -1.709  1.00  0.00     0.015 C 
ATOM     24  C   UNL     1      -3.036   3.429  -1.206  1.00  0.00     0.010 C 
BRANCH  23  25
ATOM     25  C   UNL     1      -1.711   1.429  -0.488  1.00  0.00     0.002 C 
ATOM     26  C   UNL     1      -0.482   2.035   0.176  1.00  0.00     0.004 C 
ENDBRANCH  23  25
ENDBRANCH  10  23
ENDBRANCH   7  10
ENDBRANCH   4   6
BRANCH   3  27
ATOM     27  C   UNL     1     -10.020   0.746  -4.137  1.00  0.00     0.171 C 
BRANCH  27  28
ATOM     28  N   UNL     1      -9.773   0.689  -5.573  1.00  0.00    -0.342 N 
ATOM     29  C   UNL     1      -9.427   1.795  -6.317  1.00  0.00     0.245 C 
ATOM     30  O   UNL     1      -9.285   2.912  -5.821  1.00  0.00    -0.273 OA
ATOM     31  H   UNL     1      -9.760  -0.221  -6.032  1.00  0.00     0.164 HD
BRANCH  29  32
ATOM     32  C   UNL     1      -9.080   1.514  -7.794  1.00  0.00     0.200 C 
BRANCH  32  33
ATOM     33  N   UNL     1      -7.683   1.070  -7.864  1.00  0.00    -0.340 N 
ATOM     34  C   UNL     1      -6.809   1.596  -8.792  1.00  0.00     0.243 CG0
ATOM     35  O   UNL     1      -7.174   2.409  -9.640  1.00  0.00    -0.273 OA
ATOM     36  H   UNL     1      -7.361   0.378  -7.197  1.00  0.00     0.164 HD
ATOM     37  G   UNL     1      -5.419   0.944  -8.844  1.00  0.00     0.000 G0
ENDBRANCH  32  33
BRANCH  32  38
ATOM     38  C   UNL     1     -10.067   0.504  -8.424  1.00  0.00     0.143 C 
ATOM     39  C   UNL     1     -11.533   0.892  -8.280  1.00  0.00     0.041 C 
BRANCH  38  40
ATOM     40  O   UNL     1      -9.766   0.327  -9.822  1.00  0.00    -0.391 OA
ATOM     41  H   UNL     1      -9.525   1.207 -10.169  1.00  0.00     0.211 HD
ENDBRANCH  38  40
ENDBRANCH  32  38
ENDBRANCH  29  32
ENDBRANCH  27  28
BRANCH  27  42
ATOM     42  C   UNL     1     -10.875  -0.453  -3.657  1.00  0.00     0.015 C 
ATOM     43  C   UNL     1     -11.794  -0.173  -2.463  1.00  0.00     0.010 C 
ATOM     44  C   UNL     1     -11.671  -1.083  -4.804  1.00  0.00     0.010 C 
ENDBRANCH  27  42
ENDBRANCH   3  27
TORSDOF 5
ENDMDL
MODEL 23
REMARK VINA RESULT:    -6.118      5.777      8.807
REMARK INTER + INTRA:         -13.141
REMARK INTER:                 -11.517
REMARK INTRA:                  -1.624
REMARK UNBOUND:                -2.194
REMARK SMILES CC[C@H](C)[C@H]1NC(=O)c2coc(n2)[C@H](C(C)C)NC(=O)[C@H]([C@@H](C)O)NC(=O)[C@H](C)NC(=O)c2csc1n2
REMARK SMILES IDX 11 1 13 2 12 3 9 4 10 5 7 6 6 7 8 8 5 10 36 11 35 12 34 13
REMARK SMILES IDX 37 14 33 15 31 16 32 17 30 18 28 20 29 21 3 23 4 24 2 25
REMARK SMILES IDX 1 26 14 27 18 28 19 29 20 30 21 32 25 33 26 34 27 35 22 38
REMARK SMILES IDX 23 39 24 40 15 42 16 43 17 44
REMARK H PARENT 6 9 30 19 18 31 25 36 24 41
REMARK Flexibility Score:   94.900
ROOT
ATOM      1  O   UNL     1      -8.939   2.438  -6.113  1.00  0.00    -0.446 OA
ATOM      2  N   UNL     1      -7.345   0.958  -6.705  1.00  0.00    -0.207 NA
ATOM      3  C   UNL     1      -8.485   1.537  -7.038  1.00  0.00     0.217 A 
ATOM      4  C   UNL     1      -7.014   1.537  -5.492  1.00  0.00     0.167 A 
ATOM      5  C   UNL     1      -7.988   2.437  -5.137  1.00  0.00     0.231 A 
ENDROOT
BRANCH   4   6
ATOM      6  C   UNL     1      -5.822   1.180  -4.741  1.00  0.00     0.273 C 
ATOM      7  N   UNL     1      -4.796   2.063  -4.965  1.00  0.00    -0.341 N 
ATOM      8  O   UNL     1      -5.746   0.193  -4.019  1.00  0.00    -0.267 OA
ATOM      9  H   UNL     1      -4.976   2.781  -5.661  1.00  0.00     0.164 HD
BRANCH   7  10
ATOM     10  C   UNL     1      -3.431   1.813  -4.545  1.00  0.00     0.145 C 
BRANCH  10  11
ATOM     11  C   UNL     1      -2.514   2.239  -5.682  1.00  0.00     0.116 A 
ATOM     12  S   UNL     1      -0.873   2.647  -5.350  1.00  0.00    -0.124 S 
ATOM     13  C   UNL     1      -0.613   2.926  -7.016  1.00  0.00     0.101 A 
ATOM     14  N   UNL     1      -2.869   2.313  -6.955  1.00  0.00    -0.234 NA
ATOM     15  C   UNL     1      -1.772   2.693  -7.732  1.00  0.00     0.139 A 
BRANCH  15  16
ATOM     16  C   UNL     1      -1.866   2.819  -9.188  1.00  0.00     0.271 C 
ATOM     17  O   UNL     1      -1.335   3.730  -9.813  1.00  0.00    -0.267 OA
ATOM     18  N   UNL     1      -2.606   1.816  -9.780  1.00  0.00    -0.339 N 
ATOM     19  H   UNL     1      -3.086   1.184  -9.145  1.00  0.00     0.164 HD
BRANCH  18  20
ATOM     20  C   UNL     1      -2.864   1.816 -11.214  1.00  0.00     0.168 CG0
ATOM     21  C   UNL     1      -2.061   0.723 -11.923  1.00  0.00     0.041 C 
ATOM     22  G   UNL     1      -4.349   1.602 -11.550  1.00  0.00     0.000 G0
ENDBRANCH  18  20
ENDBRANCH  15  16
ENDBRANCH  10  11
BRANCH  10  23
ATOM     23  C   UNL     1      -3.089   2.528  -3.210  1.00  0.00     0.015 C 
ATOM     24  C   UNL     1      -4.234   3.405  -2.678  1.00  0.00     0.010 C 
BRANCH  23  25
ATOM     25  C   UNL     1      -2.661   1.544  -2.098  1.00  0.00     0.002 C 
ATOM     26  C   UNL     1      -3.814   1.038  -1.243  1.00  0.00     0.004 C 
ENDBRANCH  23  25
ENDBRANCH  10  23
ENDBRANCH   7  10
ENDBRANCH   4   6
BRANCH   3  27
ATOM     27  C   UNL     1      -9.315   1.264  -8.262  1.00  0.00     0.171 C 
BRANCH  27  28
ATOM     28  N   UNL     1      -8.434   0.716  -9.287  1.00  0.00    -0.342 N 
ATOM     29  C   UNL     1      -7.371   1.417  -9.811  1.00  0.00     0.245 C 
ATOM     30  O   UNL     1      -7.076   2.553  -9.442  1.00  0.00    -0.273 OA
ATOM     31  H   UNL     1      -8.546  -0.260  -9.560  1.00  0.00     0.164 HD
BRANCH  29  32
ATOM     32  C   UNL     1      -6.477   0.626 -10.789  1.00  0.00     0.200 C 
BRANCH  32  33
ATOM     33  N   UNL     1      -5.082   1.024 -10.564  1.00  0.00    -0.340 N 
ATOM     34  C   UNL     1      -4.325   1.584 -11.572  1.00  0.00     0.243 CG0
ATOM     35  O   UNL     1      -4.760   1.714 -12.715  1.00  0.00    -0.273 OA
ATOM     36  H   UNL     1      -4.685   0.900  -9.640  1.00  0.00     0.164 HD
ATOM     37  G   UNL     1      -2.844   1.825 -11.239  1.00  0.00     0.000 G0
ENDBRANCH  32  33
BRANCH  32  38
ATOM     38  C   UNL     1      -6.698  -0.898 -10.651  1.00  0.00     0.143 C 
ATOM     39  C   UNL     1      -6.551  -1.670 -11.957  1.00  0.00     0.041 C 
BRANCH  38  40
ATOM     40  O   UNL     1      -5.783  -1.443  -9.681  1.00  0.00    -0.391 OA
ATOM     41  H   UNL     1      -4.936  -1.584 -10.144  1.00  0.00     0.211 HD
ENDBRANCH  38  40
ENDBRANCH  32  38
ENDBRANCH  29  32
ENDBRANCH  27  28
BRANCH  27  42
ATOM     42  C   UNL     1     -10.587   0.399  -8.083  1.00  0.00     0.015 C 
ATOM     43  C   UNL     1     -10.677  -0.379  -6.765  1.00  0.00     0.010 C 
ATOM     44  C   UNL     1     -11.868   1.209  -8.311  1.00  0.00     0.010 C 
ENDBRANCH  27  42
ENDBRANCH   3  27
TORSDOF 5
ENDMDL
MODEL 24
REMARK VINA RESULT:    -6.115      3.646      5.338
REMARK INTER + INTRA:         -13.134
REMARK INTER:                 -11.081
REMARK INTRA:                  -2.053
REMARK UNBOUND:                -2.194
REMARK SMILES CC[C@H](C)[C@H]1NC(=O)c2coc(n2)[C@H](C(C)C)NC(=O)[C@H]([C@@H](C)O)NC(=O)[C@H](C)NC(=O)c2csc1n2
REMARK SMILES IDX 11 1 13 2 12 3 9 4 10 5 7 6 6 7 8 8 5 10 36 11 35 12 34 13
REMARK SMILES IDX 37 14 33 15 31 16 32 17 30 18 28 20 29 21 3 23 4 24 2 25
REMARK SMILES IDX 1 26 14 27 18 28 19 29 20 30 21 32 25 33 26 34 27 35 22 38
REMARK SMILES IDX 23 39 24 40 15 42 16 43 17 44
REMARK H PARENT 6 9 30 19 18 31 25 36 24 41
REMARK Flexibility Score:   94.900
ROOT
ATOM      1  O   UNL     1      -8.715   0.242  -0.612  1.00  0.00    -0.446 OA
ATOM      2  N   UNL     1      -7.570   1.458  -2.125  1.00  0.00    -0.207 NA
ATOM      3  C   UNL     1      -8.755   1.175  -1.613  1.00  0.00     0.217 A 
ATOM      4  C   UNL     1      -6.690   0.679  -1.394  1.00  0.00     0.167 A 
ATOM      5  C   UNL     1      -7.394  -0.059  -0.474  1.00  0.00     0.231 A 
ENDROOT
BRANCH   4   6
ATOM      6  C   UNL     1      -5.257   0.664  -1.633  1.00  0.00     0.273 C 
ATOM      7  N   UNL     1      -4.876   1.647  -2.511  1.00  0.00    -0.341 N 
ATOM      8  O   UNL     1      -4.494  -0.150  -1.126  1.00  0.00    -0.267 OA
ATOM      9  H   UNL     1      -5.632   2.187  -2.922  1.00  0.00     0.164 HD
BRANCH   7  10
ATOM     10  C   UNL     1      -3.559   1.704  -3.113  1.00  0.00     0.145 C 
BRANCH  10  11
ATOM     11  C   UNL     1      -3.744   1.753  -4.623  1.00  0.00     0.116 A 
ATOM     12  S   UNL     1      -2.464   1.244  -5.658  1.00  0.00    -0.124 S 
ATOM     13  C   UNL     1      -3.449   1.561  -7.019  1.00  0.00     0.101 A 
ATOM     14  N   UNL     1      -4.844   2.154  -5.239  1.00  0.00    -0.234 NA
ATOM     15  C   UNL     1      -4.686   2.030  -6.621  1.00  0.00     0.139 A 
BRANCH  15  16
ATOM     16  C   UNL     1      -5.765   2.367  -7.553  1.00  0.00     0.271 C 
ATOM     17  O   UNL     1      -5.925   3.496  -8.004  1.00  0.00    -0.267 OA
ATOM     18  N   UNL     1      -6.574   1.297  -7.869  1.00  0.00    -0.339 N 
ATOM     19  H   UNL     1      -6.406   0.442  -7.345  1.00  0.00     0.164 HD
BRANCH  18  20
ATOM     20  C   UNL     1      -7.739   1.459  -8.729  1.00  0.00     0.168 CG0
ATOM     21  C   UNL     1      -7.883   0.285  -9.699  1.00  0.00     0.041 C 
ATOM     22  G   UNL     1      -9.051   1.577  -7.936  1.00  0.00     0.000 G0
ENDBRANCH  18  20
ENDBRANCH  15  16
ENDBRANCH  10  11
BRANCH  10  23
ATOM     23  C   UNL     1      -2.722   2.897  -2.580  1.00  0.00     0.015 C 
ATOM     24  C   UNL     1      -3.127   3.340  -1.165  1.00  0.00     0.010 C 
BRANCH  23  25
ATOM     25  C   UNL     1      -1.203   2.615  -2.595  1.00  0.00     0.002 C 
ATOM     26  C   UNL     1      -0.388   3.654  -3.353  1.00  0.00     0.004 C 
ENDBRANCH  23  25
ENDBRANCH  10  23
ENDBRANCH   7  10
ENDBRANCH   4   6
BRANCH   3  27
ATOM     27  C   UNL     1     -10.086   1.722  -2.051  1.00  0.00     0.171 C 
BRANCH  27  28
ATOM     28  N   UNL     1     -10.375   1.185  -3.377  1.00  0.00    -0.342 N 
ATOM     29  C   UNL     1      -9.962   1.800  -4.538  1.00  0.00     0.245 C 
ATOM     30  O   UNL     1      -9.305   2.840  -4.543  1.00  0.00    -0.273 OA
ATOM     31  H   UNL     1     -10.815   0.269  -3.450  1.00  0.00     0.164 HD
BRANCH  29  32
ATOM     32  C   UNL     1     -10.249   1.018  -5.837  1.00  0.00     0.200 C 
BRANCH  32  33
ATOM     33  N   UNL     1      -9.037   1.041  -6.666  1.00  0.00    -0.340 N 
ATOM     34  C   UNL     1      -9.048   1.587  -7.933  1.00  0.00     0.243 CG0
ATOM     35  O   UNL     1     -10.078   2.018  -8.446  1.00  0.00    -0.273 OA
ATOM     36  H   UNL     1      -8.179   0.665  -6.281  1.00  0.00     0.164 HD
ATOM     37  G   UNL     1      -7.750   1.422  -8.740  1.00  0.00     0.000 G0
ENDBRANCH  32  33
BRANCH  32  38
ATOM     38  C   UNL     1     -10.745  -0.416  -5.535  1.00  0.00     0.143 C 
ATOM     39  C   UNL     1     -11.585  -1.030  -6.649  1.00  0.00     0.041 C 
BRANCH  38  40
ATOM     40  O   UNL     1      -9.624  -1.279  -5.265  1.00  0.00    -0.391 OA
ATOM     41  H   UNL     1      -9.876  -2.170  -5.574  1.00  0.00     0.211 HD
ENDBRANCH  38  40
ENDBRANCH  32  38
ENDBRANCH  29  32
ENDBRANCH  27  28
BRANCH  27  42
ATOM     42  C   UNL     1     -11.284   1.537  -1.089  1.00  0.00     0.015 C 
ATOM     43  C   UNL     1     -11.658   2.767  -0.254  1.00  0.00     0.010 C 
ATOM     44  C   UNL     1     -12.520   0.990  -1.811  1.00  0.00     0.010 C 
ENDBRANCH  27  42
ENDBRANCH   3  27
TORSDOF 5
ENDMDL
MODEL 25
REMARK VINA RESULT:    -6.084      3.921      7.621
REMARK INTER + INTRA:         -13.080
REMARK INTER:                 -10.948
REMARK INTRA:                  -2.132
REMARK UNBOUND:                -2.194
REMARK SMILES CC[C@H](C)[C@H]1NC(=O)c2coc(n2)[C@H](C(C)C)NC(=O)[C@H]([C@@H](C)O)NC(=O)[C@H](C)NC(=O)c2csc1n2
REMARK SMILES IDX 11 1 13 2 12 3 9 4 10 5 7 6 6 7 8 8 5 10 36 11 35 12 34 13
REMARK SMILES IDX 37 14 33 15 31 16 32 17 30 18 28 20 29 21 3 23 4 24 2 25
REMARK SMILES IDX 1 26 14 27 18 28 19 29 20 30 21 32 25 33 26 34 27 35 22 38
REMARK SMILES IDX 23 39 24 40 15 42 16 43 17 44
REMARK H PARENT 6 9 30 19 18 31 25 36 24 41
REMARK Flexibility Score:   94.900
ROOT
ATOM      1  O   UNL     1     -17.030   1.080 -10.361  1.00  0.00    -0.446 OA
ATOM      2  N   UNL     1     -16.230   0.035  -8.532  1.00  0.00    -0.207 NA
ATOM      3  C   UNL     1     -17.128   0.020  -9.500  1.00  0.00     0.217 A 
ATOM      4  C   UNL     1     -15.475   1.167  -8.787  1.00  0.00     0.167 A 
ATOM      5  C   UNL     1     -15.967   1.798  -9.903  1.00  0.00     0.231 A 
ENDROOT
BRANCH   4   6
ATOM      6  C   UNL     1     -14.366   1.587  -7.948  1.00  0.00     0.273 C 
ATOM      7  N   UNL     1     -13.765   0.522  -7.326  1.00  0.00    -0.341 N 
ATOM      8  O   UNL     1     -14.032   2.757  -7.802  1.00  0.00    -0.267 OA
ATOM      9  H   UNL     1     -14.209  -0.380  -7.470  1.00  0.00     0.164 HD
BRANCH   7  10
ATOM     10  C   UNL     1     -12.804   0.672  -6.251  1.00  0.00     0.145 C 
BRANCH  10  11
ATOM     11  C   UNL     1     -13.395   0.021  -5.010  1.00  0.00     0.116 A 
ATOM     12  S   UNL     1     -12.398  -0.957  -4.000  1.00  0.00    -0.124 S 
ATOM     13  C   UNL     1     -13.722  -1.209  -2.949  1.00  0.00     0.101 A 
ATOM     14  N   UNL     1     -14.649   0.152  -4.610  1.00  0.00    -0.234 NA
ATOM     15  C   UNL     1     -14.840  -0.542  -3.412  1.00  0.00     0.139 A 
BRANCH  15  16
ATOM     16  C   UNL     1     -16.130  -0.539  -2.718  1.00  0.00     0.271 C 
ATOM     17  O   UNL     1     -16.228  -0.591  -1.497  1.00  0.00    -0.267 OA
ATOM     18  N   UNL     1     -17.213  -0.471  -3.569  1.00  0.00    -0.339 N 
ATOM     19  H   UNL     1     -17.004  -0.545  -4.561  1.00  0.00     0.164 HD
BRANCH  18  20
ATOM     20  C   UNL     1     -18.577  -0.525  -3.060  1.00  0.00     0.168 CG0
ATOM     21  C   UNL     1     -19.148   0.878  -2.847  1.00  0.00     0.041 C 
ATOM     22  G   UNL     1     -19.530  -1.284  -3.997  1.00  0.00     0.000 G0
ENDBRANCH  18  20
ENDBRANCH  15  16
ENDBRANCH  10  11
BRANCH  10  23
ATOM     23  C   UNL     1     -11.415   0.087  -6.622  1.00  0.00     0.015 C 
ATOM     24  C   UNL     1     -11.428  -0.735  -7.921  1.00  0.00     0.010 C 
BRANCH  23  25
ATOM     25  C   UNL     1     -10.320   1.172  -6.734  1.00  0.00     0.002 C 
ATOM     26  C   UNL     1      -8.966   0.639  -7.182  1.00  0.00     0.004 C 
ENDBRANCH  23  25
ENDBRANCH  10  23
ENDBRANCH   7  10
ENDBRANCH   4   6
BRANCH   3  27
ATOM     27  C   UNL     1     -18.229  -0.985  -9.699  1.00  0.00     0.171 C 
BRANCH  27  28
ATOM     28  N   UNL     1     -19.098  -0.932  -8.528  1.00  0.00    -0.342 N 
ATOM     29  C   UNL     1     -19.216  -1.975  -7.637  1.00  0.00     0.245 C 
ATOM     30  O   UNL     1     -18.584  -3.024  -7.754  1.00  0.00    -0.273 OA
ATOM     31  H   UNL     1     -19.565  -0.054  -8.303  1.00  0.00     0.164 HD
BRANCH  29  32
ATOM     32  C   UNL     1     -20.082  -1.685  -6.393  1.00  0.00     0.200 C 
BRANCH  32  33
ATOM     33  N   UNL     1     -19.217  -1.116  -5.352  1.00  0.00    -0.340 N 
ATOM     34  C   UNL     1     -19.502  -1.285  -4.013  1.00  0.00     0.243 CG0
ATOM     35  O   UNL     1     -20.520  -1.860  -3.633  1.00  0.00    -0.273 OA
ATOM     36  H   UNL     1     -18.386  -0.610  -5.635  1.00  0.00     0.164 HD
ATOM     37  G   UNL     1     -18.593  -0.522  -3.036  1.00  0.00     0.000 G0
ENDBRANCH  32  33
BRANCH  32  38
ATOM     38  C   UNL     1     -21.285  -0.778  -6.740  1.00  0.00     0.143 C 
ATOM     39  C   UNL     1     -22.460  -1.516  -7.371  1.00  0.00     0.041 C 
BRANCH  38  40
ATOM     40  O   UNL     1     -21.743  -0.093  -5.558  1.00  0.00    -0.391 OA
ATOM     41  H   UNL     1     -21.059  -0.227  -4.875  1.00  0.00     0.211 HD
ENDBRANCH  38  40
ENDBRANCH  32  38
ENDBRANCH  29  32
ENDBRANCH  27  28
BRANCH  27  42
ATOM     42  C   UNL     1     -19.041  -0.902 -11.015  1.00  0.00     0.015 C 
ATOM     43  C   UNL     1     -19.545  -2.241 -11.566  1.00  0.00     0.010 C 
ATOM     44  C   UNL     1     -20.197   0.099 -10.913  1.00  0.00     0.010 C 
ENDBRANCH  27  42
ENDBRANCH   3  27
TORSDOF 5
ENDMDL
MODEL 26
REMARK VINA RESULT:    -6.010      3.400      7.725
REMARK INTER + INTRA:         -12.947
REMARK INTER:                 -11.155
REMARK INTRA:                  -1.791
REMARK UNBOUND:                -2.194
REMARK SMILES CC[C@H](C)[C@H]1NC(=O)c2coc(n2)[C@H](C(C)C)NC(=O)[C@H]([C@@H](C)O)NC(=O)[C@H](C)NC(=O)c2csc1n2
REMARK SMILES IDX 11 1 13 2 12 3 9 4 10 5 7 6 6 7 8 8 5 10 36 11 35 12 34 13
REMARK SMILES IDX 37 14 33 15 31 16 32 17 30 18 28 20 29 21 3 23 4 24 2 25
REMARK SMILES IDX 1 26 14 27 18 28 19 29 20 30 21 32 25 33 26 34 27 35 22 38
REMARK SMILES IDX 23 39 24 40 15 42 16 43 17 44
REMARK H PARENT 6 9 30 19 18 31 25 36 24 41
REMARK Flexibility Score:   94.900
ROOT
ATOM      1  O   UNL     1     -10.322   1.491   1.626  1.00  0.00    -0.446 OA
ATOM      2  N   UNL     1     -10.123   0.866  -0.531  1.00  0.00    -0.207 NA
ATOM      3  C   UNL     1      -9.536   0.937   0.651  1.00  0.00     0.217 A 
ATOM      4  C   UNL     1     -11.388   1.383  -0.313  1.00  0.00     0.167 A 
ATOM      5  C   UNL     1     -11.503   1.762   1.003  1.00  0.00     0.231 A 
ENDROOT
BRANCH   4   6
ATOM      6  C   UNL     1     -12.385   1.511  -1.362  1.00  0.00     0.273 C 
ATOM      7  N   UNL     1     -12.369   0.436  -2.214  1.00  0.00    -0.341 N 
ATOM      8  O   UNL     1     -13.127   2.479  -1.477  1.00  0.00    -0.267 OA
ATOM      9  H   UNL     1     -11.636  -0.247  -2.047  1.00  0.00     0.164 HD
BRANCH   7  10
ATOM     10  C   UNL     1     -13.079   0.416  -3.477  1.00  0.00     0.145 C 
BRANCH  10  11
ATOM     11  C   UNL     1     -12.057   0.159  -4.575  1.00  0.00     0.116 A 
ATOM     12  S   UNL     1     -12.450  -0.898  -5.879  1.00  0.00    -0.124 S 
ATOM     13  C   UNL     1     -10.919  -0.597  -6.575  1.00  0.00     0.101 A 
ATOM     14  N   UNL     1     -10.852   0.703  -4.632  1.00  0.00    -0.234 NA
ATOM     15  C   UNL     1     -10.197   0.284  -5.793  1.00  0.00     0.139 A 
BRANCH  15  16
ATOM     16  C   UNL     1      -8.855   0.762  -6.135  1.00  0.00     0.271 C 
ATOM     17  O   UNL     1      -8.460   0.863  -7.291  1.00  0.00    -0.267 OA
ATOM     18  N   UNL     1      -8.090   1.086  -5.034  1.00  0.00    -0.339 N 
ATOM     19  H   UNL     1      -8.491   0.853  -4.130  1.00  0.00     0.164 HD
BRANCH  18  20
ATOM     20  C   UNL     1      -6.705   1.515  -5.179  1.00  0.00     0.168 CG0
ATOM     21  C   UNL     1      -6.612   3.023  -5.419  1.00  0.00     0.041 C 
ATOM     22  G   UNL     1      -5.848   1.181  -3.947  1.00  0.00     0.000 G0
ENDBRANCH  18  20
ENDBRANCH  15  16
ENDBRANCH  10  11
BRANCH  10  23
ATOM     23  C   UNL     1     -14.231  -0.623  -3.487  1.00  0.00     0.015 C 
ATOM     24  C   UNL     1     -14.408  -1.348  -2.142  1.00  0.00     0.010 C 
BRANCH  23  25
ATOM     25  C   UNL     1     -15.588  -0.008  -3.899  1.00  0.00     0.002 C 
ATOM     26  C   UNL     1     -15.611   1.514  -3.870  1.00  0.00     0.004 C 
ENDBRANCH  23  25
ENDBRANCH  10  23
ENDBRANCH   7  10
ENDBRANCH   4   6
BRANCH   3  27
ATOM     27  C   UNL     1      -8.128   0.531   0.990  1.00  0.00     0.171 C 
BRANCH  27  28
ATOM     28  N   UNL     1      -7.228   1.255   0.098  1.00  0.00    -0.342 N 
ATOM     29  C   UNL     1      -6.163   0.656  -0.536  1.00  0.00     0.245 C 
ATOM     30  O   UNL     1      -5.900  -0.539  -0.409  1.00  0.00    -0.273 OA
ATOM     31  H   UNL     1      -7.451   2.220  -0.146  1.00  0.00     0.164 HD
BRANCH  29  32
ATOM     32  C   UNL     1      -5.404   1.550  -1.540  1.00  0.00     0.200 C 
BRANCH  32  33
ATOM     33  N   UNL     1      -6.230   1.693  -2.745  1.00  0.00    -0.340 N 
ATOM     34  C   UNL     1      -5.822   1.176  -3.957  1.00  0.00     0.243 CG0
ATOM     35  O   UNL     1      -4.728   0.633  -4.097  1.00  0.00    -0.273 OA
ATOM     36  H   UNL     1      -7.124   2.163  -2.668  1.00  0.00     0.164 HD
ATOM     37  G   UNL     1      -6.715   1.517  -5.161  1.00  0.00     0.000 G0
ENDBRANCH  32  33
BRANCH  32  38
ATOM     38  C   UNL     1      -5.019   2.908  -0.908  1.00  0.00     0.143 C 
ATOM     39  C   UNL     1      -4.039   2.798   0.254  1.00  0.00     0.041 C 
BRANCH  38  40
ATOM     40  O   UNL     1      -4.459   3.777  -1.911  1.00  0.00    -0.391 OA
ATOM     41  H   UNL     1      -3.565   3.438  -2.107  1.00  0.00     0.211 HD
ENDBRANCH  38  40
ENDBRANCH  32  38
ENDBRANCH  29  32
ENDBRANCH  27  28
BRANCH  27  42
ATOM     42  C   UNL     1      -7.686   0.656   2.468  1.00  0.00     0.015 C 
ATOM     43  C   UNL     1      -7.345   2.075   2.938  1.00  0.00     0.010 C 
ATOM     44  C   UNL     1      -8.693   0.008   3.424  1.00  0.00     0.010 C 
ENDBRANCH  27  42
ENDBRANCH   3  27
TORSDOF 5
ENDMDL
MODEL 27
REMARK VINA RESULT:    -5.998      4.821      9.797
REMARK INTER + INTRA:         -12.925
REMARK INTER:                 -10.962
REMARK INTRA:                  -1.963
REMARK UNBOUND:                -2.194
REMARK SMILES CC[C@H](C)[C@H]1NC(=O)c2coc(n2)[C@H](C(C)C)NC(=O)[C@H]([C@@H](C)O)NC(=O)[C@H](C)NC(=O)c2csc1n2
REMARK SMILES IDX 11 1 13 2 12 3 9 4 10 5 7 6 6 7 8 8 5 10 36 11 35 12 34 13
REMARK SMILES IDX 37 14 33 15 31 16 32 17 30 18 28 20 29 21 3 23 4 24 2 25
REMARK SMILES IDX 1 26 14 27 18 28 19 29 20 30 21 32 25 33 26 34 27 35 22 38
REMARK SMILES IDX 23 39 24 40 15 42 16 43 17 44
REMARK H PARENT 6 9 30 19 18 31 25 36 24 41
REMARK Flexibility Score:   94.900
ROOT
ATOM      1  O   UNL     1      -5.340   0.743 -10.900  1.00  0.00    -0.446 OA
ATOM      2  N   UNL     1      -7.071   2.161 -10.627  1.00  0.00    -0.207 NA
ATOM      3  C   UNL     1      -5.917   1.732 -10.148  1.00  0.00     0.217 A 
ATOM      4  C   UNL     1      -7.253   1.424 -11.785  1.00  0.00     0.167 A 
ATOM      5  C   UNL     1      -6.195   0.563 -11.945  1.00  0.00     0.231 A 
ENDROOT
BRANCH   4   6
ATOM      6  C   UNL     1      -8.419   1.563 -12.639  1.00  0.00     0.273 C 
ATOM      7  N   UNL     1      -9.018   2.788 -12.489  1.00  0.00    -0.341 N 
ATOM      8  O   UNL     1      -8.825   0.676 -13.381  1.00  0.00    -0.267 OA
ATOM      9  H   UNL     1      -8.624   3.386 -11.769  1.00  0.00     0.164 HD
BRANCH   7  10
ATOM     10  C   UNL     1     -10.328   3.101 -13.027  1.00  0.00     0.145 C 
BRANCH  10  11
ATOM     11  C   UNL     1     -11.303   3.158 -11.860  1.00  0.00     0.116 A 
ATOM     12  S   UNL     1     -12.766   4.057 -12.013  1.00  0.00    -0.124 S 
ATOM     13  C   UNL     1     -13.212   3.586 -10.432  1.00  0.00     0.101 A 
ATOM     14  N   UNL     1     -11.133   2.548 -10.699  1.00  0.00    -0.234 NA
ATOM     15  C   UNL     1     -12.239   2.777  -9.876  1.00  0.00     0.139 A 
BRANCH  15  16
ATOM     16  C   UNL     1     -12.339   2.187  -8.539  1.00  0.00     0.271 C 
ATOM     17  O   UNL     1     -13.392   2.130  -7.915  1.00  0.00    -0.267 OA
ATOM     18  N   UNL     1     -11.139   1.706  -8.059  1.00  0.00    -0.339 N 
ATOM     19  H   UNL     1     -10.319   1.913  -8.623  1.00  0.00     0.164 HD
BRANCH  18  20
ATOM     20  C   UNL     1     -11.033   1.147  -6.718  1.00  0.00     0.168 CG0
ATOM     21  C   UNL     1     -10.818  -0.368  -6.763  1.00  0.00     0.041 C 
ATOM     22  G   UNL     1      -9.881   1.761  -5.907  1.00  0.00     0.000 G0
ENDBRANCH  18  20
ENDBRANCH  15  16
ENDBRANCH  10  11
BRANCH  10  23
ATOM     23  C   UNL     1     -10.322   4.411 -13.859  1.00  0.00     0.015 C 
ATOM     24  C   UNL     1      -9.734   5.611 -13.099  1.00  0.00     0.010 C 
BRANCH  23  25
ATOM     25  C   UNL     1      -9.575   4.262 -15.203  1.00  0.00     0.002 C 
ATOM     26  C   UNL     1      -9.234   5.587 -15.871  1.00  0.00     0.004 C 
ENDBRANCH  23  25
ENDBRANCH  10  23
ENDBRANCH   7  10
ENDBRANCH   4   6
BRANCH   3  27
ATOM     27  C   UNL     1      -5.241   2.175  -8.880  1.00  0.00     0.171 C 
BRANCH  27  28
ATOM     28  N   UNL     1      -6.104   1.809  -7.762  1.00  0.00    -0.342 N 
ATOM     29  C   UNL     1      -6.426   2.684  -6.749  1.00  0.00     0.245 C 
ATOM     30  O   UNL     1      -6.021   3.845  -6.719  1.00  0.00    -0.273 OA
ATOM     31  H   UNL     1      -6.568   0.902  -7.778  1.00  0.00     0.164 HD
BRANCH  29  32
ATOM     32  C   UNL     1      -7.453   2.158  -5.724  1.00  0.00     0.200 C 
BRANCH  32  33
ATOM     33  N   UNL     1      -8.636   1.689  -6.457  1.00  0.00    -0.340 N 
ATOM     34  C   UNL     1      -9.898   1.768  -5.906  1.00  0.00     0.243 CG0
ATOM     35  O   UNL     1     -10.082   2.172  -4.759  1.00  0.00    -0.273 OA
ATOM     36  H   UNL     1      -8.512   1.322  -7.394  1.00  0.00     0.164 HD
ATOM     37  G   UNL     1     -11.025   1.117  -6.724  1.00  0.00     0.000 G0
ENDBRANCH  32  33
BRANCH  32  38
ATOM     38  C   UNL     1      -6.838   1.070  -4.814  1.00  0.00     0.143 C 
ATOM     39  C   UNL     1      -5.572   1.509  -4.088  1.00  0.00     0.041 C 
BRANCH  38  40
ATOM     40  O   UNL     1      -7.808   0.636  -3.841  1.00  0.00    -0.391 OA
ATOM     41  H   UNL     1      -8.559   0.264  -4.341  1.00  0.00     0.211 HD
ENDBRANCH  38  40
ENDBRANCH  32  38
ENDBRANCH  29  32
ENDBRANCH  27  28
BRANCH  27  42
ATOM     42  C   UNL     1      -3.782   1.710  -8.649  1.00  0.00     0.015 C 
ATOM     43  C   UNL     1      -2.696   2.650  -9.185  1.00  0.00     0.010 C 
ATOM     44  C   UNL     1      -3.514   1.373  -7.179  1.00  0.00     0.010 C 
ENDBRANCH  27  42
ENDBRANCH   3  27
TORSDOF 5
ENDMDL
MODEL 28
REMARK VINA RESULT:    -5.967      2.677      6.412
REMARK INTER + INTRA:         -12.869
REMARK INTER:                 -11.301
REMARK INTRA:                  -1.568
REMARK UNBOUND:                -2.194
REMARK SMILES CC[C@H](C)[C@H]1NC(=O)c2coc(n2)[C@H](C(C)C)NC(=O)[C@H]([C@@H](C)O)NC(=O)[C@H](C)NC(=O)c2csc1n2
REMARK SMILES IDX 11 1 13 2 12 3 9 4 10 5 7 6 6 7 8 8 5 10 36 11 35 12 34 13
REMARK SMILES IDX 37 14 33 15 31 16 32 17 30 18 28 20 29 21 3 23 4 24 2 25
REMARK SMILES IDX 1 26 14 27 18 28 19 29 20 30 21 32 25 33 26 34 27 35 22 38
REMARK SMILES IDX 23 39 24 40 15 42 16 43 17 44
REMARK H PARENT 6 9 30 19 18 31 25 36 24 41
REMARK Flexibility Score:   94.900
ROOT
ATOM      1  O   UNL     1      -6.278   0.776  -4.061  1.00  0.00    -0.446 OA
ATOM      2  N   UNL     1      -8.395   1.521  -3.854  1.00  0.00    -0.207 NA
ATOM      3  C   UNL     1      -7.457   1.095  -4.681  1.00  0.00     0.217 A 
ATOM      4  C   UNL     1      -7.803   1.453  -2.605  1.00  0.00     0.167 A 
ATOM      5  C   UNL     1      -6.514   0.999  -2.738  1.00  0.00     0.231 A 
ENDROOT
BRANCH   4   6
ATOM      6  C   UNL     1      -8.482   1.848  -1.383  1.00  0.00     0.273 C 
ATOM      7  N   UNL     1      -8.844   0.762  -0.627  1.00  0.00    -0.341 N 
ATOM      8  O   UNL     1      -8.719   3.013  -1.086  1.00  0.00    -0.267 OA
ATOM      9  H   UNL     1      -8.664  -0.146  -1.046  1.00  0.00     0.164 HD
BRANCH   7  10
ATOM     10  C   UNL     1      -9.743   0.851   0.506  1.00  0.00     0.145 C 
BRANCH  10  11
ATOM     11  C   UNL     1     -11.166   0.771  -0.027  1.00  0.00     0.116 A 
ATOM     12  S   UNL     1     -12.406   1.721   0.700  1.00  0.00    -0.124 S 
ATOM     13  C   UNL     1     -13.531   1.106  -0.430  1.00  0.00     0.101 A 
ATOM     14  N   UNL     1     -11.553   0.022  -1.046  1.00  0.00    -0.234 NA
ATOM     15  C   UNL     1     -12.913   0.223  -1.295  1.00  0.00     0.139 A 
BRANCH  15  16
ATOM     16  C   UNL     1     -13.603  -0.453  -2.396  1.00  0.00     0.271 C 
ATOM     17  O   UNL     1     -14.182  -1.525  -2.259  1.00  0.00    -0.267 OA
ATOM     18  N   UNL     1     -13.537   0.232  -3.591  1.00  0.00    -0.339 N 
ATOM     19  H   UNL     1     -12.935   1.051  -3.601  1.00  0.00     0.164 HD
BRANCH  18  20
ATOM     20  C   UNL     1     -14.109  -0.322  -4.810  1.00  0.00     0.168 CG0
ATOM     21  C   UNL     1     -15.197   0.591  -5.380  1.00  0.00     0.041 C 
ATOM     22  G   UNL     1     -13.059  -0.544  -5.911  1.00  0.00     0.000 G0
ENDBRANCH  18  20
ENDBRANCH  15  16
ENDBRANCH  10  11
BRANCH  10  23
ATOM     23  C   UNL     1      -9.450  -0.237   1.573  1.00  0.00     0.015 C 
ATOM     24  C   UNL     1      -8.238  -1.118   1.227  1.00  0.00     0.010 C 
BRANCH  23  25
ATOM     25  C   UNL     1      -9.246   0.352   2.988  1.00  0.00     0.002 C 
ATOM     26  C   UNL     1      -9.437   1.861   3.063  1.00  0.00     0.004 C 
ENDBRANCH  23  25
ENDBRANCH  10  23
ENDBRANCH   7  10
ENDBRANCH   4   6
BRANCH   3  27
ATOM     27  C   UNL     1      -7.548   0.986  -6.178  1.00  0.00     0.171 C 
BRANCH  27  28
ATOM     28  N   UNL     1      -8.863   0.446  -6.507  1.00  0.00    -0.342 N 
ATOM     29  C   UNL     1      -9.955   1.244  -6.767  1.00  0.00     0.245 C 
ATOM     30  O   UNL     1      -9.898   2.473  -6.756  1.00  0.00    -0.273 OA
ATOM     31  H   UNL     1      -8.960  -0.559  -6.647  1.00  0.00     0.164 HD
BRANCH  29  32
ATOM     32  C   UNL     1     -11.226   0.496  -7.222  1.00  0.00     0.200 C 
BRANCH  32  33
ATOM     33  N   UNL     1     -12.192   0.515  -6.117  1.00  0.00    -0.340 N 
ATOM     34  C   UNL     1     -13.067  -0.532  -5.914  1.00  0.00     0.243 CG0
ATOM     35  O   UNL     1     -13.122  -1.492  -6.680  1.00  0.00    -0.273 OA
ATOM     36  H   UNL     1     -12.192   1.307  -5.486  1.00  0.00     0.164 HD
ATOM     37  G   UNL     1     -14.114  -0.321  -4.808  1.00  0.00     0.000 G0
ENDBRANCH  32  33
BRANCH  32  38
ATOM     38  C   UNL     1     -11.795   1.093  -8.530  1.00  0.00     0.143 C 
ATOM     39  C   UNL     1     -12.866   2.155  -8.316  1.00  0.00     0.041 C 
BRANCH  38  40
ATOM     40  O   UNL     1     -10.729   1.657  -9.319  1.00  0.00    -0.391 OA
ATOM     41  H   UNL     1     -10.325   0.918  -9.812  1.00  0.00     0.211 HD
ENDBRANCH  38  40
ENDBRANCH  32  38
ENDBRANCH  29  32
ENDBRANCH  27  28
BRANCH  27  42
ATOM     42  C   UNL     1      -7.230   2.255  -7.006  1.00  0.00     0.015 C 
ATOM     43  C   UNL     1      -6.357   3.301  -6.304  1.00  0.00     0.010 C 
ATOM     44  C   UNL     1      -6.644   1.910  -8.380  1.00  0.00     0.010 C 
ENDBRANCH  27  42
ENDBRANCH   3  27
TORSDOF 5
ENDMDL
MODEL 29
REMARK VINA RESULT:    -5.934      4.456      8.338
REMARK INTER + INTRA:         -12.811
REMARK INTER:                 -10.871
REMARK INTRA:                  -1.940
REMARK UNBOUND:                -2.194
REMARK SMILES CC[C@H](C)[C@H]1NC(=O)c2coc(n2)[C@H](C(C)C)NC(=O)[C@H]([C@@H](C)O)NC(=O)[C@H](C)NC(=O)c2csc1n2
REMARK SMILES IDX 11 1 13 2 12 3 9 4 10 5 7 6 6 7 8 8 5 10 36 11 35 12 34 13
REMARK SMILES IDX 37 14 33 15 31 16 32 17 30 18 28 20 29 21 3 23 4 24 2 25
REMARK SMILES IDX 1 26 14 27 18 28 19 29 20 30 21 32 25 33 26 34 27 35 22 38
REMARK SMILES IDX 23 39 24 40 15 42 16 43 17 44
REMARK H PARENT 6 9 30 19 18 31 25 36 24 41
REMARK Flexibility Score:   94.900
ROOT
ATOM      1  O   UNL     1      -3.476   1.479  -6.969  1.00  0.00    -0.446 OA
ATOM      2  N   UNL     1      -5.558   1.255  -7.804  1.00  0.00    -0.207 NA
ATOM      3  C   UNL     1      -4.821   1.662  -6.786  1.00  0.00     0.217 A 
ATOM      4  C   UNL     1      -4.635   0.798  -8.729  1.00  0.00     0.167 A 
ATOM      5  C   UNL     1      -3.369   0.937  -8.214  1.00  0.00     0.231 A 
ENDROOT
BRANCH   4   6
ATOM      6  C   UNL     1      -5.012   0.237 -10.015  1.00  0.00     0.273 C 
ATOM      7  N   UNL     1      -5.919   1.030 -10.671  1.00  0.00    -0.341 N 
ATOM      8  O   UNL     1      -4.584  -0.829 -10.441  1.00  0.00    -0.267 OA
ATOM      9  H   UNL     1      -6.252   1.838 -10.154  1.00  0.00     0.164 HD
BRANCH   7  10
ATOM     10  C   UNL     1      -6.645   0.596 -11.848  1.00  0.00     0.145 C 
BRANCH  10  11
ATOM     11  C   UNL     1      -8.038   1.206 -11.781  1.00  0.00     0.116 A 
ATOM     12  S   UNL     1      -8.703   1.972 -13.173  1.00  0.00    -0.124 S 
ATOM     13  C   UNL     1     -10.140   2.289 -12.303  1.00  0.00     0.101 A 
ATOM     14  N   UNL     1      -8.822   1.190 -10.715  1.00  0.00    -0.234 NA
ATOM     15  C   UNL     1     -10.043   1.799 -11.015  1.00  0.00     0.139 A 
BRANCH  15  16
ATOM     16  C   UNL     1     -11.121   1.889 -10.028  1.00  0.00     0.271 C 
ATOM     17  O   UNL     1     -12.067   2.661 -10.145  1.00  0.00    -0.267 OA
ATOM     18  N   UNL     1     -10.967   1.025  -8.964  1.00  0.00    -0.339 N 
ATOM     19  H   UNL     1     -10.087   0.518  -8.927  1.00  0.00     0.164 HD
BRANCH  18  20
ATOM     20  C   UNL     1     -11.908   1.024  -7.852  1.00  0.00     0.168 CG0
ATOM     21  C   UNL     1     -12.711  -0.278  -7.805  1.00  0.00     0.041 C 
ATOM     22  G   UNL     1     -11.217   1.199  -6.490  1.00  0.00     0.000 G0
ENDBRANCH  18  20
ENDBRANCH  15  16
ENDBRANCH  10  11
BRANCH  10  23
ATOM     23  C   UNL     1      -5.903   0.958 -13.162  1.00  0.00     0.015 C 
ATOM     24  C   UNL     1      -4.756   1.961 -12.956  1.00  0.00     0.010 C 
BRANCH  23  25
ATOM     25  C   UNL     1      -5.350  -0.282 -13.898  1.00  0.00     0.002 C 
ATOM     26  C   UNL     1      -5.449  -0.197 -15.415  1.00  0.00     0.004 C 
ENDBRANCH  23  25
ENDBRANCH  10  23
ENDBRANCH   7  10
ENDBRANCH   4   6
BRANCH   3  27
ATOM     27  C   UNL     1      -5.310   2.232  -5.483  1.00  0.00     0.171 C 
BRANCH  27  28
ATOM     28  N   UNL     1      -6.616   1.646  -5.202  1.00  0.00    -0.342 N 
ATOM     29  C   UNL     1      -7.801   2.283  -5.496  1.00  0.00     0.245 C 
ATOM     30  O   UNL     1      -7.846   3.389  -6.033  1.00  0.00    -0.273 OA
ATOM     31  H   UNL     1      -6.660   0.685  -4.864  1.00  0.00     0.164 HD
BRANCH  29  32
ATOM     32  C   UNL     1      -9.077   1.452  -5.245  1.00  0.00     0.200 C 
BRANCH  32  33
ATOM     33  N   UNL     1      -9.866   1.434  -6.483  1.00  0.00    -0.340 N 
ATOM     34  C   UNL     1     -11.220   1.171  -6.465  1.00  0.00     0.243 CG0
ATOM     35  O   UNL     1     -11.812   0.880  -5.428  1.00  0.00    -0.273 OA
ATOM     36  H   UNL     1      -9.399   1.640  -7.358  1.00  0.00     0.164 HD
ATOM     37  G   UNL     1     -11.893   1.047  -7.842  1.00  0.00     0.000 G0
ENDBRANCH  32  33
BRANCH  32  38
ATOM     38  C   UNL     1      -8.737   0.036  -4.726  1.00  0.00     0.143 C 
ATOM     39  C   UNL     1      -9.335  -0.287  -3.362  1.00  0.00     0.041 C 
BRANCH  38  40
ATOM     40  O   UNL     1      -9.175  -0.955  -5.675  1.00  0.00    -0.391 OA
ATOM     41  H   UNL     1     -10.119  -0.777  -5.849  1.00  0.00     0.211 HD
ENDBRANCH  38  40
ENDBRANCH  32  38
ENDBRANCH  29  32
ENDBRANCH  27  28
BRANCH  27  42
ATOM     42  C   UNL     1      -4.366   2.131  -4.261  1.00  0.00     0.015 C 
ATOM     43  C   UNL     1      -4.125   3.441  -3.501  1.00  0.00     0.010 C 
ATOM     44  C   UNL     1      -4.800   1.027  -3.291  1.00  0.00     0.010 C 
ENDBRANCH  27  42
ENDBRANCH   3  27
TORSDOF 5
ENDMDL
MODEL 30
REMARK VINA RESULT:    -5.918      3.545      7.191
REMARK INTER + INTRA:         -12.782
REMARK INTER:                 -11.412
REMARK INTRA:                  -1.370
REMARK UNBOUND:                -2.194
REMARK SMILES CC[C@H](C)[C@H]1NC(=O)c2coc(n2)[C@H](C(C)C)NC(=O)[C@H]([C@@H](C)O)NC(=O)[C@H](C)NC(=O)c2csc1n2
REMARK SMILES IDX 11 1 13 2 12 3 9 4 10 5 7 6 6 7 8 8 5 10 36 11 35 12 34 13
REMARK SMILES IDX 37 14 33 15 31 16 32 17 30 18 28 20 29 21 3 23 4 24 2 25
REMARK SMILES IDX 1 26 14 27 18 28 19 29 20 30 21 32 25 33 26 34 27 35 22 38
REMARK SMILES IDX 23 39 24 40 15 42 16 43 17 44
REMARK H PARENT 6 9 30 19 18 31 25 36 24 41
REMARK Flexibility Score:   94.900
ROOT
ATOM      1  O   UNL     1      -4.430   3.982  -2.665  1.00  0.00    -0.446 OA
ATOM      2  N   UNL     1      -5.319   1.945  -3.046  1.00  0.00    -0.207 NA
ATOM      3  C   UNL     1      -5.155   2.927  -2.177  1.00  0.00     0.217 A 
ATOM      4  C   UNL     1      -4.682   2.395  -4.189  1.00  0.00     0.167 A 
ATOM      5  C   UNL     1      -4.144   3.636  -3.951  1.00  0.00     0.231 A 
ENDROOT
BRANCH   4   6
ATOM      6  C   UNL     1      -4.601   1.614  -5.412  1.00  0.00     0.273 C 
ATOM      7  N   UNL     1      -5.610   1.929  -6.286  1.00  0.00    -0.341 N 
ATOM      8  O   UNL     1      -3.745   0.762  -5.616  1.00  0.00    -0.267 OA
ATOM      9  H   UNL     1      -6.301   2.590  -5.941  1.00  0.00     0.164 HD
BRANCH   7  10
ATOM     10  C   UNL     1      -5.914   1.139  -7.463  1.00  0.00     0.145 C 
BRANCH  10  11
ATOM     11  C   UNL     1      -7.429   1.031  -7.566  1.00  0.00     0.116 A 
ATOM     12  S   UNL     1      -8.166   0.810  -9.108  1.00  0.00    -0.124 S 
ATOM     13  C   UNL     1      -9.701   0.756  -8.358  1.00  0.00     0.101 A 
ATOM     14  N   UNL     1      -8.264   1.079  -6.541  1.00  0.00    -0.234 NA
ATOM     15  C   UNL     1      -9.576   0.904  -6.990  1.00  0.00     0.139 A 
BRANCH  15  16
ATOM     16  C   UNL     1     -10.709   0.875  -6.062  1.00  0.00     0.271 C 
ATOM     17  O   UNL     1     -11.866   1.060  -6.420  1.00  0.00    -0.267 OA
ATOM     18  N   UNL     1     -10.345   0.620  -4.756  1.00  0.00    -0.339 N 
ATOM     19  H   UNL     1      -9.346   0.596  -4.570  1.00  0.00     0.164 HD
BRANCH  18  20
ATOM     20  C   UNL     1     -11.331   0.620  -3.685  1.00  0.00     0.168 CG0
ATOM     21  C   UNL     1     -11.779  -0.802  -3.340  1.00  0.00     0.041 C 
ATOM     22  G   UNL     1     -10.808   1.274  -2.396  1.00  0.00     0.000 G0
ENDBRANCH  18  20
ENDBRANCH  15  16
ENDBRANCH  10  11
BRANCH  10  23
ATOM     23  C   UNL     1      -5.274   1.731  -8.747  1.00  0.00     0.015 C 
ATOM     24  C   UNL     1      -4.666   3.127  -8.536  1.00  0.00     0.010 C 
BRANCH  23  25
ATOM     25  C   UNL     1      -4.195   0.808  -9.356  1.00  0.00     0.002 C 
ATOM     26  C   UNL     1      -3.152   1.541 -10.189  1.00  0.00     0.004 C 
ENDBRANCH  23  25
ENDBRANCH  10  23
ENDBRANCH   7  10
ENDBRANCH   4   6
BRANCH   3  27
ATOM     27  C   UNL     1      -5.627   2.962  -0.749  1.00  0.00     0.171 C 
BRANCH  27  28
ATOM     28  N   UNL     1      -7.052   2.651  -0.742  1.00  0.00    -0.342 N 
ATOM     29  C   UNL     1      -7.536   1.362  -0.757  1.00  0.00     0.245 C 
ATOM     30  O   UNL     1      -6.801   0.376  -0.763  1.00  0.00    -0.273 OA
ATOM     31  H   UNL     1      -7.719   3.413  -0.622  1.00  0.00     0.164 HD
BRANCH  29  32
ATOM     32  C   UNL     1      -9.067   1.231  -0.615  1.00  0.00     0.200 C 
BRANCH  32  33
ATOM     33  N   UNL     1      -9.611   0.771  -1.899  1.00  0.00    -0.340 N 
ATOM     34  C   UNL     1     -10.797   1.272  -2.394  1.00  0.00     0.243 CG0
ATOM     35  O   UNL     1     -11.480   2.073  -1.759  1.00  0.00    -0.273 OA
ATOM     36  H   UNL     1      -9.086   0.088  -2.432  1.00  0.00     0.164 HD
ATOM     37  G   UNL     1     -11.319   0.604  -3.677  1.00  0.00     0.000 G0
ENDBRANCH  32  33
BRANCH  32  38
ATOM     38  C   UNL     1      -9.448   0.309   0.566  1.00  0.00     0.143 C 
ATOM     39  C   UNL     1      -9.101   0.877   1.937  1.00  0.00     0.041 C 
BRANCH  38  40
ATOM     40  O   UNL     1     -10.858   0.014   0.526  1.00  0.00    -0.391 OA
ATOM     41  H   UNL     1     -11.001  -0.563  -0.248  1.00  0.00     0.211 HD
ENDBRANCH  38  40
ENDBRANCH  32  38
ENDBRANCH  29  32
ENDBRANCH  27  28
BRANCH  27  42
ATOM     42  C   UNL     1      -4.851   2.103   0.279  1.00  0.00     0.015 C 
ATOM     43  C   UNL     1      -3.359   1.907  -0.014  1.00  0.00     0.010 C 
ATOM     44  C   UNL     1      -5.049   2.607   1.712  1.00  0.00     0.010 C 
ENDBRANCH  27  42
ENDBRANCH   3  27
TORSDOF 5
ENDMDL
MODEL 31
REMARK VINA RESULT:    -5.899      4.353      8.722
REMARK INTER + INTRA:         -12.748
REMARK INTER:                 -10.895
REMARK INTRA:                  -1.853
REMARK UNBOUND:                -2.194
REMARK SMILES CC[C@H](C)[C@H]1NC(=O)c2coc(n2)[C@H](C(C)C)NC(=O)[C@H]([C@@H](C)O)NC(=O)[C@H](C)NC(=O)c2csc1n2
REMARK SMILES IDX 11 1 13 2 12 3 9 4 10 5 7 6 6 7 8 8 5 10 36 11 35 12 34 13
REMARK SMILES IDX 37 14 33 15 31 16 32 17 30 18 28 20 29 21 3 23 4 24 2 25
REMARK SMILES IDX 1 26 14 27 18 28 19 29 20 30 21 32 25 33 26 34 27 35 22 38
REMARK SMILES IDX 23 39 24 40 15 42 16 43 17 44
REMARK H PARENT 6 9 30 19 18 31 25 36 24 41
REMARK Flexibility Score:   94.900
ROOT
ATOM      1  O   UNL     1      -5.125   0.808  -9.295  1.00  0.00    -0.446 OA
ATOM      2  N   UNL     1      -7.217   1.644  -9.362  1.00  0.00    -0.207 NA
ATOM      3  C   UNL     1      -6.141   1.434  -8.624  1.00  0.00     0.217 A 
ATOM      4  C   UNL     1      -6.876   1.147 -10.608  1.00  0.00     0.167 A 
ATOM      5  C   UNL     1      -5.601   0.640 -10.560  1.00  0.00     0.231 A 
ENDROOT
BRANCH   4   6
ATOM      6  C   UNL     1      -7.784   1.158 -11.742  1.00  0.00     0.273 C 
ATOM      7  N   UNL     1      -8.322   2.403 -11.951  1.00  0.00    -0.341 N 
ATOM      8  O   UNL     1      -8.049   0.165 -12.408  1.00  0.00    -0.267 OA
ATOM      9  H   UNL     1      -8.081   3.109 -11.262  1.00  0.00     0.164 HD
BRANCH   7  10
ATOM     10  C   UNL     1      -9.435   2.643 -12.849  1.00  0.00     0.145 C 
BRANCH  10  11
ATOM     11  C   UNL     1     -10.644   3.003 -11.998  1.00  0.00     0.116 A 
ATOM     12  S   UNL     1     -11.696   4.271 -12.501  1.00  0.00    -0.124 S 
ATOM     13  C   UNL     1     -12.682   3.985 -11.134  1.00  0.00     0.101 A 
ATOM     14  N   UNL     1     -10.984   2.399 -10.871  1.00  0.00    -0.234 NA
ATOM     15  C   UNL     1     -12.169   2.950 -10.376  1.00  0.00     0.139 A 
BRANCH  15  16
ATOM     16  C   UNL     1     -12.800   2.447  -9.155  1.00  0.00     0.271 C 
ATOM     17  O   UNL     1     -13.826   2.931  -8.688  1.00  0.00    -0.267 OA
ATOM     18  N   UNL     1     -12.132   1.382  -8.587  1.00  0.00    -0.339 N 
ATOM     19  H   UNL     1     -11.236   1.147  -9.006  1.00  0.00     0.164 HD
BRANCH  18  20
ATOM     20  C   UNL     1     -12.577   0.795  -7.331  1.00  0.00     0.168 CG0
ATOM     21  C   UNL     1     -12.668  -0.729  -7.430  1.00  0.00     0.041 C 
ATOM     22  G   UNL     1     -11.648   1.135  -6.154  1.00  0.00     0.000 G0
ENDBRANCH  18  20
ENDBRANCH  15  16
ENDBRANCH  10  11
BRANCH  10  23
ATOM     23  C   UNL     1      -9.110   3.733 -13.905  1.00  0.00     0.015 C 
ATOM     24  C   UNL     1      -7.908   4.613 -13.523  1.00  0.00     0.010 C 
BRANCH  23  25
ATOM     25  C   UNL     1      -8.865   3.146 -15.314  1.00  0.00     0.002 C 
ATOM     26  C   UNL     1      -7.678   2.196 -15.390  1.00  0.00     0.004 C 
ENDBRANCH  23  25
ENDBRANCH  10  23
ENDBRANCH   7  10
ENDBRANCH   4   6
BRANCH   3  27
ATOM     27  C   UNL     1      -5.964   1.758  -7.166  1.00  0.00     0.171 C 
BRANCH  27  28
ATOM     28  N   UNL     1      -7.147   1.284  -6.456  1.00  0.00    -0.342 N 
ATOM     29  C   UNL     1      -8.096   2.135  -5.934  1.00  0.00     0.245 C 
ATOM     30  O   UNL     1      -8.024   3.358  -6.042  1.00  0.00    -0.273 OA
ATOM     31  H   UNL     1      -7.333   0.283  -6.428  1.00  0.00     0.164 HD
BRANCH  29  32
ATOM     32  C   UNL     1      -9.340   1.446  -5.333  1.00  0.00     0.200 C 
BRANCH  32  33
ATOM     33  N   UNL     1     -10.321   1.249  -6.406  1.00  0.00    -0.340 N 
ATOM     34  C   UNL     1     -11.669   1.134  -6.132  1.00  0.00     0.243 CG0
ATOM     35  O   UNL     1     -12.099   1.127  -4.981  1.00  0.00    -0.273 OA
ATOM     36  H   UNL     1      -9.993   1.220  -7.365  1.00  0.00     0.164 HD
ATOM     37  G   UNL     1     -12.566   0.794  -7.333  1.00  0.00     0.000 G0
ENDBRANCH  32  33
BRANCH  32  38
ATOM     38  C   UNL     1      -8.964   0.132  -4.611  1.00  0.00     0.143 C 
ATOM     39  C   UNL     1      -9.561  -0.004  -3.215  1.00  0.00     0.041 C 
BRANCH  38  40
ATOM     40  O   UNL     1      -9.370  -1.000  -5.405  1.00  0.00    -0.391 OA
ATOM     41  H   UNL     1      -9.739  -0.642  -6.234  1.00  0.00     0.211 HD
ENDBRANCH  38  40
ENDBRANCH  32  38
ENDBRANCH  29  32
ENDBRANCH  27  28
BRANCH  27  42
ATOM     42  C   UNL     1      -4.660   1.280  -6.482  1.00  0.00     0.015 C 
ATOM     43  C   UNL     1      -3.362   1.865  -7.051  1.00  0.00     0.010 C 
ATOM     44  C   UNL     1      -4.707   1.469  -4.963  1.00  0.00     0.010 C 
ENDBRANCH  27  42
ENDBRANCH   3  27
TORSDOF 5
ENDMDL
MODEL 32
REMARK VINA RESULT:    -5.880      4.765      9.279
REMARK INTER + INTRA:         -12.714
REMARK INTER:                 -10.616
REMARK INTRA:                  -2.098
REMARK UNBOUND:                -2.194
REMARK SMILES CC[C@H](C)[C@H]1NC(=O)c2coc(n2)[C@H](C(C)C)NC(=O)[C@H]([C@@H](C)O)NC(=O)[C@H](C)NC(=O)c2csc1n2
REMARK SMILES IDX 11 1 13 2 12 3 9 4 10 5 7 6 6 7 8 8 5 10 36 11 35 12 34 13
REMARK SMILES IDX 37 14 33 15 31 16 32 17 30 18 28 20 29 21 3 23 4 24 2 25
REMARK SMILES IDX 1 26 14 27 18 28 19 29 20 30 21 32 25 33 26 34 27 35 22 38
REMARK SMILES IDX 23 39 24 40 15 42 16 43 17 44
REMARK H PARENT 6 9 30 19 18 31 25 36 24 41
REMARK Flexibility Score:   94.900
ROOT
ATOM      1  O   UNL     1      -2.800   0.868  -8.401  1.00  0.00    -0.446 OA
ATOM      2  N   UNL     1      -5.037   0.683  -8.187  1.00  0.00    -0.207 NA
ATOM      3  C   UNL     1      -3.912   1.108  -7.639  1.00  0.00     0.217 A 
ATOM      4  C   UNL     1      -4.641   0.152  -9.402  1.00  0.00     0.167 A 
ATOM      5  C   UNL     1      -3.279   0.268  -9.527  1.00  0.00     0.231 A 
ENDROOT
BRANCH   4   6
ATOM      6  C   UNL     1      -5.569  -0.452 -10.344  1.00  0.00     0.273 C 
ATOM      7  N   UNL     1      -6.017   0.456 -11.270  1.00  0.00    -0.341 N 
ATOM      8  O   UNL     1      -5.920  -1.624 -10.292  1.00  0.00    -0.267 OA
ATOM      9  H   UNL     1      -5.710   1.414 -11.133  1.00  0.00     0.164 HD
BRANCH   7  10
ATOM     10  C   UNL     1      -7.127   0.191 -12.165  1.00  0.00     0.145 C 
BRANCH  10  11
ATOM     11  C   UNL     1      -8.357   0.874 -11.587  1.00  0.00     0.116 A 
ATOM     12  S   UNL     1      -9.341   1.864 -12.599  1.00  0.00    -0.124 S 
ATOM     13  C   UNL     1     -10.394   2.150 -11.283  1.00  0.00     0.101 A 
ATOM     14  N   UNL     1      -8.767   0.764 -10.334  1.00  0.00    -0.234 NA
ATOM     15  C   UNL     1      -9.951   1.484 -10.156  1.00  0.00     0.139 A 
BRANCH  15  16
ATOM     16  C   UNL     1     -10.652   1.508  -8.870  1.00  0.00     0.271 C 
ATOM     17  O   UNL     1     -11.833   1.821  -8.763  1.00  0.00    -0.267 OA
ATOM     18  N   UNL     1      -9.858   1.146  -7.803  1.00  0.00    -0.339 N 
ATOM     19  H   UNL     1      -8.870   1.017  -8.008  1.00  0.00     0.164 HD
BRANCH  18  20
ATOM     20  C   UNL     1     -10.367   1.177  -6.439  1.00  0.00     0.168 CG0
ATOM     21  C   UNL     1     -10.672  -0.232  -5.927  1.00  0.00     0.041 C 
ATOM     22  G   UNL     1      -9.386   1.833  -5.454  1.00  0.00     0.000 G0
ENDBRANCH  18  20
ENDBRANCH  15  16
ENDBRANCH  10  11
BRANCH  10  23
ATOM     23  C   UNL     1      -6.828   0.643 -13.619  1.00  0.00     0.015 C 
ATOM     24  C   UNL     1      -5.667   1.647 -13.718  1.00  0.00     0.010 C 
BRANCH  23  25
ATOM     25  C   UNL     1      -6.538  -0.543 -14.566  1.00  0.00     0.002 C 
ATOM     26  C   UNL     1      -5.870  -1.729 -13.886  1.00  0.00     0.004 C 
ENDBRANCH  23  25
ENDBRANCH  10  23
ENDBRANCH   7  10
ENDBRANCH   4   6
BRANCH   3  27
ATOM     27  C   UNL     1      -3.749   1.753  -6.290  1.00  0.00     0.171 C 
BRANCH  27  28
ATOM     28  N   UNL     1      -4.916   1.408  -5.485  1.00  0.00    -0.342 N 
ATOM     29  C   UNL     1      -5.904   2.314  -5.174  1.00  0.00     0.245 C 
ATOM     30  O   UNL     1      -5.884   3.481  -5.564  1.00  0.00    -0.273 OA
ATOM     31  H   UNL     1      -5.059   0.433  -5.223  1.00  0.00     0.164 HD
BRANCH  29  32
ATOM     32  C   UNL     1      -7.121   1.733  -4.424  1.00  0.00     0.200 C 
BRANCH  32  33
ATOM     33  N   UNL     1      -8.108   1.295  -5.418  1.00  0.00    -0.340 N 
ATOM     34  C   UNL     1      -9.376   1.838  -5.456  1.00  0.00     0.243 CG0
ATOM     35  O   UNL     1      -9.755   2.661  -4.624  1.00  0.00    -0.273 OA
ATOM     36  H   UNL     1      -7.835   0.595  -6.098  1.00  0.00     0.164 HD
ATOM     37  G   UNL     1     -10.349   1.192  -6.455  1.00  0.00     0.000 G0
ENDBRANCH  32  33
BRANCH  32  38
ATOM     38  C   UNL     1      -6.701   0.603  -3.454  1.00  0.00     0.143 C 
ATOM     39  C   UNL     1      -6.011   1.096  -2.188  1.00  0.00     0.041 C 
BRANCH  38  40
ATOM     40  O   UNL     1      -7.851  -0.182  -3.085  1.00  0.00    -0.391 OA
ATOM     41  H   UNL     1      -8.619   0.221  -3.531  1.00  0.00     0.211 HD
ENDBRANCH  38  40
ENDBRANCH  32  38
ENDBRANCH  29  32
ENDBRANCH  27  28
BRANCH  27  42
ATOM     42  C   UNL     1      -2.430   1.483  -5.525  1.00  0.00     0.015 C 
ATOM     43  C   UNL     1      -1.239   2.360  -5.931  1.00  0.00     0.010 C 
ATOM     44  C   UNL     1      -2.628   1.527  -4.007  1.00  0.00     0.010 C 
ENDBRANCH  27  42
ENDBRANCH   3  27
TORSDOF 5
ENDMDL
MODEL 33
REMARK VINA RESULT:    -5.880      4.570      9.293
REMARK INTER + INTRA:         -12.713
REMARK INTER:                 -11.369
REMARK INTRA:                  -1.344
REMARK UNBOUND:                -2.194
REMARK SMILES CC[C@H](C)[C@H]1NC(=O)c2coc(n2)[C@H](C(C)C)NC(=O)[C@H]([C@@H](C)O)NC(=O)[C@H](C)NC(=O)c2csc1n2
REMARK SMILES IDX 11 1 13 2 12 3 9 4 10 5 7 6 6 7 8 8 5 10 36 11 35 12 34 13
REMARK SMILES IDX 37 14 33 15 31 16 32 17 30 18 28 20 29 21 3 23 4 24 2 25
REMARK SMILES IDX 1 26 14 27 18 28 19 29 20 30 21 32 25 33 26 34 27 35 22 38
REMARK SMILES IDX 23 39 24 40 15 42 16 43 17 44
REMARK H PARENT 6 9 30 19 18 31 25 36 24 41
REMARK Flexibility Score:   94.900
ROOT
ATOM      1  O   UNL     1      -5.955   0.059  -1.276  1.00  0.00    -0.446 OA
ATOM      2  N   UNL     1      -6.208   1.660  -2.842  1.00  0.00    -0.207 NA
ATOM      3  C   UNL     1      -5.357   0.973  -2.102  1.00  0.00     0.217 A 
ATOM      4  C   UNL     1      -7.447   1.146  -2.500  1.00  0.00     0.167 A 
ATOM      5  C   UNL     1      -7.286   0.171  -1.547  1.00  0.00     0.231 A 
ENDROOT
BRANCH   4   6
ATOM      6  C   UNL     1      -8.692   1.629  -3.073  1.00  0.00     0.273 C 
ATOM      7  N   UNL     1      -9.193   0.760  -4.009  1.00  0.00    -0.341 N 
ATOM      8  O   UNL     1      -9.209   2.696  -2.767  1.00  0.00    -0.267 OA
ATOM      9  H   UNL     1      -8.606  -0.041  -4.225  1.00  0.00     0.164 HD
BRANCH   7  10
ATOM     10  C   UNL     1     -10.278   1.103  -4.906  1.00  0.00     0.145 C 
BRANCH  10  11
ATOM     11  C   UNL     1      -9.737   1.046  -6.327  1.00  0.00     0.116 A 
ATOM     12  S   UNL     1     -10.818   1.195  -7.661  1.00  0.00    -0.124 S 
ATOM     13  C   UNL     1      -9.496   1.077  -8.737  1.00  0.00     0.101 A 
ATOM     14  N   UNL     1      -8.461   0.901  -6.647  1.00  0.00    -0.234 NA
ATOM     15  C   UNL     1      -8.313   0.935  -8.036  1.00  0.00     0.139 A 
BRANCH  15  16
ATOM     16  C   UNL     1      -6.998   0.836  -8.673  1.00  0.00     0.271 C 
ATOM     17  O   UNL     1      -6.776   0.100  -9.628  1.00  0.00    -0.267 OA
ATOM     18  N   UNL     1      -6.044   1.646  -8.095  1.00  0.00    -0.339 N 
ATOM     19  H   UNL     1      -6.323   2.123  -7.242  1.00  0.00     0.164 HD
BRANCH  18  20
ATOM     20  C   UNL     1      -4.661   1.628  -8.554  1.00  0.00     0.168 CG0
ATOM     21  C   UNL     1      -4.234   2.998  -9.086  1.00  0.00     0.041 C 
ATOM     22  G   UNL     1      -3.674   1.225  -7.447  1.00  0.00     0.000 G0
ENDBRANCH  18  20
ENDBRANCH  15  16
ENDBRANCH  10  11
BRANCH  10  23
ATOM     23  C   UNL     1     -11.514   0.186  -4.708  1.00  0.00     0.015 C 
ATOM     24  C   UNL     1     -11.163  -1.311  -4.677  1.00  0.00     0.010 C 
BRANCH  23  25
ATOM     25  C   UNL     1     -12.317   0.532  -3.433  1.00  0.00     0.002 C 
ATOM     26  C   UNL     1     -11.972  -0.336  -2.230  1.00  0.00     0.004 C 
ENDBRANCH  23  25
ENDBRANCH  10  23
ENDBRANCH   7  10
ENDBRANCH   4   6
BRANCH   3  27
ATOM     27  C   UNL     1      -3.863   1.137  -2.049  1.00  0.00     0.171 C 
BRANCH  27  28
ATOM     28  N   UNL     1      -3.362   1.111  -3.419  1.00  0.00    -0.342 N 
ATOM     29  C   UNL     1      -3.010   2.250  -4.108  1.00  0.00     0.245 C 
ATOM     30  O   UNL     1      -3.077   3.374  -3.613  1.00  0.00    -0.273 OA
ATOM     31  H   UNL     1      -3.172   0.209  -3.854  1.00  0.00     0.164 HD
BRANCH  29  32
ATOM     32  C   UNL     1      -2.381   2.013  -5.497  1.00  0.00     0.200 C 
BRANCH  32  33
ATOM     33  N   UNL     1      -3.422   2.208  -6.514  1.00  0.00    -0.340 N 
ATOM     34  C   UNL     1      -3.679   1.247  -7.470  1.00  0.00     0.243 CG0
ATOM     35  O   UNL     1      -3.010   0.219  -7.553  1.00  0.00    -0.273 OA
ATOM     36  H   UNL     1      -3.970   3.060  -6.490  1.00  0.00     0.164 HD
ATOM     37  G   UNL     1      -4.696   1.639  -8.553  1.00  0.00     0.000 G0
ENDBRANCH  32  33
BRANCH  32  38
ATOM     38  C   UNL     1      -1.145   2.914  -5.719  1.00  0.00     0.143 C 
ATOM     39  C   UNL     1       0.130   2.396  -5.063  1.00  0.00     0.041 C 
BRANCH  38  40
ATOM     40  O   UNL     1      -0.907   3.086  -7.130  1.00  0.00    -0.391 OA
ATOM     41  H   UNL     1      -0.029   2.701  -7.314  1.00  0.00     0.211 HD
ENDBRANCH  38  40
ENDBRANCH  32  38
ENDBRANCH  29  32
ENDBRANCH  27  28
BRANCH  27  42
ATOM     42  C   UNL     1      -3.305   2.348  -1.262  1.00  0.00     0.015 C 
ATOM     43  C   UNL     1      -4.302   3.045  -0.329  1.00  0.00     0.010 C 
ATOM     44  C   UNL     1      -2.022   1.997  -0.503  1.00  0.00     0.010 C 
ENDBRANCH  27  42
ENDBRANCH   3  27
TORSDOF 5
ENDMDL
MODEL 34
REMARK VINA RESULT:    -5.863      3.890      6.906
REMARK INTER + INTRA:         -12.683
REMARK INTER:                 -11.274
REMARK INTRA:                  -1.409
REMARK UNBOUND:                -2.194
REMARK SMILES CC[C@H](C)[C@H]1NC(=O)c2coc(n2)[C@H](C(C)C)NC(=O)[C@H]([C@@H](C)O)NC(=O)[C@H](C)NC(=O)c2csc1n2
REMARK SMILES IDX 11 1 13 2 12 3 9 4 10 5 7 6 6 7 8 8 5 10 36 11 35 12 34 13
REMARK SMILES IDX 37 14 33 15 31 16 32 17 30 18 28 20 29 21 3 23 4 24 2 25
REMARK SMILES IDX 1 26 14 27 18 28 19 29 20 30 21 32 25 33 26 34 27 35 22 38
REMARK SMILES IDX 23 39 24 40 15 42 16 43 17 44
REMARK H PARENT 6 9 30 19 18 31 25 36 24 41
REMARK Flexibility Score:   94.900
ROOT
ATOM      1  O   UNL     1     -11.596  -0.702  -5.905  1.00  0.00    -0.446 OA
ATOM      2  N   UNL     1     -10.590   0.949  -4.746  1.00  0.00    -0.207 NA
ATOM      3  C   UNL     1     -11.234   0.617  -5.851  1.00  0.00     0.217 A 
ATOM      4  C   UNL     1     -10.549  -0.224  -4.013  1.00  0.00     0.167 A 
ATOM      5  C   UNL     1     -11.164  -1.225  -4.723  1.00  0.00     0.231 A 
ENDROOT
BRANCH   4   6
ATOM      6  C   UNL     1      -9.911  -0.324  -2.712  1.00  0.00     0.273 C 
ATOM      7  N   UNL     1      -8.868   0.559  -2.586  1.00  0.00    -0.341 N 
ATOM      8  O   UNL     1     -10.254  -1.122  -1.848  1.00  0.00    -0.267 OA
ATOM      9  H   UNL     1      -8.641   1.094  -3.419  1.00  0.00     0.164 HD
BRANCH   7  10
ATOM     10  C   UNL     1      -7.910   0.503  -1.500  1.00  0.00     0.145 C 
BRANCH  10  11
ATOM     11  C   UNL     1      -6.568   0.969  -2.045  1.00  0.00     0.116 A 
ATOM     12  S   UNL     1      -5.188   0.991  -1.014  1.00  0.00    -0.124 S 
ATOM     13  C   UNL     1      -4.231   1.544  -2.318  1.00  0.00     0.101 A 
ATOM     14  N   UNL     1      -6.350   1.361  -3.290  1.00  0.00    -0.234 NA
ATOM     15  C   UNL     1      -5.000   1.678  -3.458  1.00  0.00     0.139 A 
BRANCH  15  16
ATOM     16  C   UNL     1      -4.466   2.107  -4.753  1.00  0.00     0.271 C 
ATOM     17  O   UNL     1      -3.501   2.856  -4.858  1.00  0.00    -0.267 OA
ATOM     18  N   UNL     1      -5.151   1.588  -5.831  1.00  0.00    -0.339 N 
ATOM     19  H   UNL     1      -5.999   1.071  -5.611  1.00  0.00     0.164 HD
BRANCH  18  20
ATOM     20  C   UNL     1      -4.803   1.959  -7.196  1.00  0.00     0.168 CG0
ATOM     21  C   UNL     1      -4.089   0.816  -7.918  1.00  0.00     0.041 C 
ATOM     22  G   UNL     1      -6.030   2.352  -8.035  1.00  0.00     0.000 G0
ENDBRANCH  18  20
ENDBRANCH  15  16
ENDBRANCH  10  11
BRANCH  10  23
ATOM     23  C   UNL     1      -8.369   1.332  -0.271  1.00  0.00     0.015 C 
ATOM     24  C   UNL     1      -9.498   2.326  -0.593  1.00  0.00     0.010 C 
BRANCH  23  25
ATOM     25  C   UNL     1      -8.814   0.447   0.916  1.00  0.00     0.002 C 
ATOM     26  C   UNL     1      -8.006  -0.835   1.067  1.00  0.00     0.004 C 
ENDBRANCH  23  25
ENDBRANCH  10  23
ENDBRANCH   7  10
ENDBRANCH   4   6
BRANCH   3  27
ATOM     27  C   UNL     1     -11.540   1.508  -7.024  1.00  0.00     0.171 C 
BRANCH  27  28
ATOM     28  N   UNL     1     -10.274   1.883  -7.644  1.00  0.00    -0.342 N 
ATOM     29  C   UNL     1      -9.441   0.971  -8.253  1.00  0.00     0.245 C 
ATOM     30  O   UNL     1      -9.711  -0.226  -8.334  1.00  0.00    -0.273 OA
ATOM     31  H   UNL     1     -10.038   2.872  -7.716  1.00  0.00     0.164 HD
BRANCH  29  32
ATOM     32  C   UNL     1      -8.211   1.574  -8.964  1.00  0.00     0.200 C 
BRANCH  32  33
ATOM     33  N   UNL     1      -7.042   1.396  -8.092  1.00  0.00    -0.340 N 
ATOM     34  C   UNL     1      -6.042   2.344  -8.035  1.00  0.00     0.243 CG0
ATOM     35  O   UNL     1      -6.050   3.342  -8.753  1.00  0.00    -0.273 OA
ATOM     36  H   UNL     1      -6.992   0.568  -7.511  1.00  0.00     0.164 HD
ATOM     37  G   UNL     1      -4.815   1.968  -7.188  1.00  0.00     0.000 G0
ENDBRANCH  32  33
BRANCH  32  38
ATOM     38  C   UNL     1      -8.013   0.960 -10.369  1.00  0.00     0.143 C 
ATOM     39  C   UNL     1      -7.105  -0.264 -10.392  1.00  0.00     0.041 C 
BRANCH  38  40
ATOM     40  O   UNL     1      -9.289   0.605 -10.936  1.00  0.00    -0.391 OA
ATOM     41  H   UNL     1      -9.143  -0.197 -11.473  1.00  0.00     0.211 HD
ENDBRANCH  38  40
ENDBRANCH  32  38
ENDBRANCH  29  32
ENDBRANCH  27  28
BRANCH  27  42
ATOM     42  C   UNL     1     -12.553   0.984  -8.072  1.00  0.00     0.015 C 
ATOM     43  C   UNL     1     -13.761   0.229  -7.504  1.00  0.00     0.010 C 
ATOM     44  C   UNL     1     -13.018   2.092  -9.023  1.00  0.00     0.010 C 
ENDBRANCH  27  42
ENDBRANCH   3  27
TORSDOF 5
ENDMDL
MODEL 35
REMARK VINA RESULT:    -5.851      3.137      7.712
REMARK INTER + INTRA:         -12.662
REMARK INTER:                 -10.490
REMARK INTRA:                  -2.172
REMARK UNBOUND:                -2.194
REMARK SMILES CC[C@H](C)[C@H]1NC(=O)c2coc(n2)[C@H](C(C)C)NC(=O)[C@H]([C@@H](C)O)NC(=O)[C@H](C)NC(=O)c2csc1n2
REMARK SMILES IDX 11 1 13 2 12 3 9 4 10 5 7 6 6 7 8 8 5 10 36 11 35 12 34 13
REMARK SMILES IDX 37 14 33 15 31 16 32 17 30 18 28 20 29 21 3 23 4 24 2 25
REMARK SMILES IDX 1 26 14 27 18 28 19 29 20 30 21 32 25 33 26 34 27 35 22 38
REMARK SMILES IDX 23 39 24 40 15 42 16 43 17 44
REMARK H PARENT 6 9 30 19 18 31 25 36 24 41
REMARK Flexibility Score:   94.900
ROOT
ATOM      1  O   UNL     1     -15.249   2.249  -1.856  1.00  0.00    -0.446 OA
ATOM      2  N   UNL     1     -15.884   0.472  -3.090  1.00  0.00    -0.207 NA
ATOM      3  C   UNL     1     -14.928   1.015  -2.357  1.00  0.00     0.217 A 
ATOM      4  C   UNL     1     -16.912   1.399  -3.047  1.00  0.00     0.167 A 
ATOM      5  C   UNL     1     -16.519   2.478  -2.293  1.00  0.00     0.231 A 
ENDROOT
BRANCH   4   6
ATOM      6  C   UNL     1     -18.175   1.215  -3.740  1.00  0.00     0.273 C 
ATOM      7  N   UNL     1     -18.126   0.162  -4.619  1.00  0.00    -0.341 N 
ATOM      8  O   UNL     1     -19.151   1.935  -3.571  1.00  0.00    -0.267 OA
ATOM      9  H   UNL     1     -17.219  -0.285  -4.720  1.00  0.00     0.164 HD
BRANCH   7  10
ATOM     10  C   UNL     1     -19.152  -0.089  -5.611  1.00  0.00     0.145 C 
BRANCH  10  11
ATOM     11  C   UNL     1     -18.541   0.168  -6.981  1.00  0.00     0.116 A 
ATOM     12  S   UNL     1     -19.531   0.078  -8.389  1.00  0.00    -0.124 S 
ATOM     13  C   UNL     1     -18.184   0.501  -9.353  1.00  0.00     0.101 A 
ATOM     14  N   UNL     1     -17.274   0.479  -7.199  1.00  0.00    -0.234 NA
ATOM     15  C   UNL     1     -17.065   0.689  -8.565  1.00  0.00     0.139 A 
BRANCH  15  16
ATOM     16  C   UNL     1     -15.758   1.086  -9.092  1.00  0.00     0.271 C 
ATOM     17  O   UNL     1     -15.610   1.572 -10.207  1.00  0.00    -0.267 OA
ATOM     18  N   UNL     1     -14.719   0.860  -8.213  1.00  0.00    -0.339 N 
ATOM     19  H   UNL     1     -14.956   0.350  -7.366  1.00  0.00     0.164 HD
BRANCH  18  20
ATOM     20  C   UNL     1     -13.338   1.130  -8.592  1.00  0.00     0.168 CG0
ATOM     21  C   UNL     1     -13.049   2.633  -8.605  1.00  0.00     0.041 C 
ATOM     22  G   UNL     1     -12.322   0.463  -7.651  1.00  0.00     0.000 G0
ENDBRANCH  18  20
ENDBRANCH  15  16
ENDBRANCH  10  11
BRANCH  10  23
ATOM     23  C   UNL     1     -19.749  -1.516  -5.488  1.00  0.00     0.015 C 
ATOM     24  C   UNL     1     -19.059  -2.374  -4.415  1.00  0.00     0.010 C 
BRANCH  23  25
ATOM     25  C   UNL     1     -21.270  -1.507  -5.212  1.00  0.00     0.002 C 
ATOM     26  C   UNL     1     -22.119  -1.905  -6.411  1.00  0.00     0.004 C 
ENDBRANCH  23  25
ENDBRANCH  10  23
ENDBRANCH   7  10
ENDBRANCH   4   6
BRANCH   3  27
ATOM     27  C   UNL     1     -13.563   0.447  -2.083  1.00  0.00     0.171 C 
BRANCH  27  28
ATOM     28  N   UNL     1     -12.726   0.714  -3.248  1.00  0.00    -0.342 N 
ATOM     29  C   UNL     1     -12.270  -0.280  -4.084  1.00  0.00     0.245 C 
ATOM     30  O   UNL     1     -12.548  -1.467  -3.920  1.00  0.00    -0.273 OA
ATOM     31  H   UNL     1     -12.549   1.682  -3.513  1.00  0.00     0.164 HD
BRANCH  29  32
ATOM     32  C   UNL     1     -11.508   0.207  -5.334  1.00  0.00     0.200 C 
BRANCH  32  33
ATOM     33  N   UNL     1     -12.489   0.687  -6.315  1.00  0.00    -0.340 N 
ATOM     34  C   UNL     1     -12.319   0.464  -7.665  1.00  0.00     0.243 CG0
ATOM     35  O   UNL     1     -11.314  -0.085  -8.112  1.00  0.00    -0.273 OA
ATOM     36  H   UNL     1     -13.314   1.171  -5.979  1.00  0.00     0.164 HD
ATOM     37  G   UNL     1     -13.349   1.139  -8.587  1.00  0.00     0.000 G0
ENDBRANCH  32  33
BRANCH  32  38
ATOM     38  C   UNL     1     -10.448   1.273  -4.970  1.00  0.00     0.143 C 
ATOM     39  C   UNL     1      -9.351   0.768  -4.041  1.00  0.00     0.041 C 
BRANCH  38  40
ATOM     40  O   UNL     1      -9.843   1.795  -6.169  1.00  0.00    -0.391 OA
ATOM     41  H   UNL     1     -10.473   2.439  -6.543  1.00  0.00     0.211 HD
ENDBRANCH  38  40
ENDBRANCH  32  38
ENDBRANCH  29  32
ENDBRANCH  27  28
BRANCH  27  42
ATOM     42  C   UNL     1     -12.863   0.874  -0.769  1.00  0.00     0.015 C 
ATOM     43  C   UNL     1     -13.202   0.030   0.465  1.00  0.00     0.010 C 
ATOM     44  C   UNL     1     -11.344   0.982  -0.938  1.00  0.00     0.010 C 
ENDBRANCH  27  42
ENDBRANCH   3  27
TORSDOF 5
ENDMDL
MODEL 36
REMARK VINA RESULT:    -5.841      3.576      8.867
REMARK INTER + INTRA:         -12.644
REMARK INTER:                 -10.881
REMARK INTRA:                  -1.763
REMARK UNBOUND:                -2.194
REMARK SMILES CC[C@H](C)[C@H]1NC(=O)c2coc(n2)[C@H](C(C)C)NC(=O)[C@H]([C@@H](C)O)NC(=O)[C@H](C)NC(=O)c2csc1n2
REMARK SMILES IDX 11 1 13 2 12 3 9 4 10 5 7 6 6 7 8 8 5 10 36 11 35 12 34 13
REMARK SMILES IDX 37 14 33 15 31 16 32 17 30 18 28 20 29 21 3 23 4 24 2 25
REMARK SMILES IDX 1 26 14 27 18 28 19 29 20 30 21 32 25 33 26 34 27 35 22 38
REMARK SMILES IDX 23 39 24 40 15 42 16 43 17 44
REMARK H PARENT 6 9 30 19 18 31 25 36 24 41
REMARK Flexibility Score:   94.900
ROOT
ATOM      1  O   UNL     1     -10.040   1.646  -6.919  1.00  0.00    -0.446 OA
ATOM      2  N   UNL     1      -9.454   0.145  -5.343  1.00  0.00    -0.207 NA
ATOM      3  C   UNL     1      -9.031   1.036  -6.223  1.00  0.00     0.217 A 
ATOM      4  C   UNL     1     -10.833   0.192  -5.449  1.00  0.00     0.167 A 
ATOM      5  C   UNL     1     -11.184   1.108  -6.410  1.00  0.00     0.231 A 
ENDROOT
BRANCH   4   6
ATOM      6  C   UNL     1     -11.718  -0.648  -4.661  1.00  0.00     0.273 C 
ATOM      7  N   UNL     1     -12.646   0.093  -3.973  1.00  0.00    -0.341 N 
ATOM      8  O   UNL     1     -11.623  -1.868  -4.605  1.00  0.00    -0.267 OA
ATOM      9  H   UNL     1     -12.545   1.101  -4.045  1.00  0.00     0.164 HD
BRANCH   7  10
ATOM     10  C   UNL     1     -13.485  -0.461  -2.929  1.00  0.00     0.145 C 
BRANCH  10  11
ATOM     11  C   UNL     1     -13.028   0.138  -1.606  1.00  0.00     0.116 A 
ATOM     12  S   UNL     1     -14.198   0.685  -0.466  1.00  0.00    -0.124 S 
ATOM     13  C   UNL     1     -12.940   1.109   0.611  1.00  0.00     0.101 A 
ATOM     14  N   UNL     1     -11.767   0.269  -1.229  1.00  0.00    -0.234 NA
ATOM     15  C   UNL     1     -11.710   0.814   0.056  1.00  0.00     0.139 A 
BRANCH  15  16
ATOM     16  C   UNL     1     -10.435   1.036   0.742  1.00  0.00     0.271 C 
ATOM     17  O   UNL     1     -10.361   1.322   1.932  1.00  0.00    -0.267 OA
ATOM     18  N   UNL     1      -9.336   0.890  -0.077  1.00  0.00    -0.339 N 
ATOM     19  H   UNL     1      -9.533   0.762  -1.066  1.00  0.00     0.164 HD
BRANCH  18  20
ATOM     20  C   UNL     1      -7.988   1.139   0.416  1.00  0.00     0.168 CG0
ATOM     21  C   UNL     1      -7.318  -0.155   0.881  1.00  0.00     0.041 C 
ATOM     22  G   UNL     1      -7.078   1.787  -0.640  1.00  0.00     0.000 G0
ENDBRANCH  18  20
ENDBRANCH  15  16
ENDBRANCH  10  11
BRANCH  10  23
ATOM     23  C   UNL     1     -14.993  -0.217  -3.198  1.00  0.00     0.015 C 
ATOM     24  C   UNL     1     -15.291   0.222  -4.641  1.00  0.00     0.010 C 
BRANCH  23  25
ATOM     25  C   UNL     1     -15.866  -1.449  -2.865  1.00  0.00     0.002 C 
ATOM     26  C   UNL     1     -17.201  -1.104  -2.220  1.00  0.00     0.004 C 
ENDBRANCH  23  25
ENDBRANCH  10  23
ENDBRANCH   7  10
ENDBRANCH   4   6
BRANCH   3  27
ATOM     27  C   UNL     1      -7.604   1.381  -6.549  1.00  0.00     0.171 C 
BRANCH  27  28
ATOM     28  N   UNL     1      -6.822   1.249  -5.325  1.00  0.00    -0.342 N 
ATOM     29  C   UNL     1      -7.038   2.030  -4.211  1.00  0.00     0.245 C 
ATOM     30  O   UNL     1      -7.919   2.887  -4.161  1.00  0.00    -0.273 OA
ATOM     31  H   UNL     1      -6.152   0.484  -5.251  1.00  0.00     0.164 HD
BRANCH  29  32
ATOM     32  C   UNL     1      -6.200   1.657  -2.971  1.00  0.00     0.200 C 
BRANCH  32  33
ATOM     33  N   UNL     1      -7.116   1.224  -1.908  1.00  0.00    -0.340 N 
ATOM     34  C   UNL     1      -7.063   1.781  -0.647  1.00  0.00     0.243 CG0
ATOM     35  O   UNL     1      -6.212   2.613  -0.339  1.00  0.00    -0.273 OA
ATOM     36  H   UNL     1      -7.809   0.518  -2.124  1.00  0.00     0.164 HD
ATOM     37  G   UNL     1      -7.985   1.140   0.403  1.00  0.00     0.000 G0
ENDBRANCH  32  33
BRANCH  32  38
ATOM     38  C   UNL     1      -5.127   0.596  -3.311  1.00  0.00     0.143 C 
ATOM     39  C   UNL     1      -3.783   0.829  -2.632  1.00  0.00     0.041 C 
BRANCH  38  40
ATOM     40  O   UNL     1      -5.606  -0.718  -2.963  1.00  0.00    -0.391 OA
ATOM     41  H   UNL     1      -6.581  -0.674  -2.982  1.00  0.00     0.211 HD
ENDBRANCH  38  40
ENDBRANCH  32  38
ENDBRANCH  29  32
ENDBRANCH  27  28
BRANCH  27  42
ATOM     42  C   UNL     1      -6.942   0.634  -7.732  1.00  0.00     0.015 C 
ATOM     43  C   UNL     1      -7.752   0.605  -9.033  1.00  0.00     0.010 C 
ATOM     44  C   UNL     1      -5.520   1.136  -8.003  1.00  0.00     0.010 C 
ENDBRANCH  27  42
ENDBRANCH   3  27
TORSDOF 5
ENDMDL
MODEL 37
REMARK VINA RESULT:    -5.826      4.214      8.130
REMARK INTER + INTRA:         -12.617
REMARK INTER:                 -10.979
REMARK INTRA:                  -1.638
REMARK UNBOUND:                -2.194
REMARK SMILES CC[C@H](C)[C@H]1NC(=O)c2coc(n2)[C@H](C(C)C)NC(=O)[C@H]([C@@H](C)O)NC(=O)[C@H](C)NC(=O)c2csc1n2
REMARK SMILES IDX 11 1 13 2 12 3 9 4 10 5 7 6 6 7 8 8 5 10 36 11 35 12 34 13
REMARK SMILES IDX 37 14 33 15 31 16 32 17 30 18 28 20 29 21 3 23 4 24 2 25
REMARK SMILES IDX 1 26 14 27 18 28 19 29 20 30 21 32 25 33 26 34 27 35 22 38
REMARK SMILES IDX 23 39 24 40 15 42 16 43 17 44
REMARK H PARENT 6 9 30 19 18 31 25 36 24 41
REMARK Flexibility Score:   94.900
ROOT
ATOM      1  O   UNL     1      -9.723  -0.511  -0.849  1.00  0.00    -0.446 OA
ATOM      2  N   UNL     1      -8.990   1.495  -1.569  1.00  0.00    -0.207 NA
ATOM      3  C   UNL     1      -8.965   0.601  -0.597  1.00  0.00     0.217 A 
ATOM      4  C   UNL     1      -9.796   0.921  -2.537  1.00  0.00     0.167 A 
ATOM      5  C   UNL     1     -10.239  -0.300  -2.092  1.00  0.00     0.231 A 
ENDROOT
BRANCH   4   6
ATOM      6  C   UNL     1     -10.114   1.575  -3.794  1.00  0.00     0.273 C 
ATOM      7  N   UNL     1     -10.403   0.667  -4.782  1.00  0.00    -0.341 N 
ATOM      8  O   UNL     1     -10.099   2.790  -3.949  1.00  0.00    -0.267 OA
ATOM      9  H   UNL     1     -10.285  -0.310  -4.531  1.00  0.00     0.164 HD
BRANCH   7  10
ATOM     10  C   UNL     1     -10.511   1.028  -6.182  1.00  0.00     0.145 C 
BRANCH  10  11
ATOM     11  C   UNL     1      -9.100   1.128  -6.742  1.00  0.00     0.116 A 
ATOM     12  S   UNL     1      -8.856   1.128  -8.448  1.00  0.00    -0.124 S 
ATOM     13  C   UNL     1      -7.173   1.296  -8.200  1.00  0.00     0.101 A 
ATOM     14  N   UNL     1      -8.001   1.232  -6.014  1.00  0.00    -0.234 NA
ATOM     15  C   UNL     1      -6.887   1.347  -6.849  1.00  0.00     0.139 A 
BRANCH  15  16
ATOM     16  C   UNL     1      -5.535   1.515  -6.311  1.00  0.00     0.271 C 
ATOM     17  O   UNL     1      -4.531   1.490  -7.015  1.00  0.00    -0.267 OA
ATOM     18  N   UNL     1      -5.506   1.705  -4.946  1.00  0.00    -0.339 N 
ATOM     19  H   UNL     1      -6.393   1.594  -4.462  1.00  0.00     0.164 HD
BRANCH  18  20
ATOM     20  C   UNL     1      -4.244   1.823  -4.227  1.00  0.00     0.168 CG0
ATOM     21  C   UNL     1      -3.839   3.288  -4.051  1.00  0.00     0.041 C 
ATOM     22  G   UNL     1      -4.292   1.177  -2.833  1.00  0.00     0.000 G0
ENDBRANCH  18  20
ENDBRANCH  15  16
ENDBRANCH  10  11
BRANCH  10  23
ATOM     23  C   UNL     1     -11.395   0.031  -6.977  1.00  0.00     0.015 C 
ATOM     24  C   UNL     1     -11.954  -1.111  -6.112  1.00  0.00     0.010 C 
BRANCH  23  25
ATOM     25  C   UNL     1     -12.570   0.722  -7.705  1.00  0.00     0.002 C 
ATOM     26  C   UNL     1     -13.826  -0.134  -7.803  1.00  0.00     0.004 C 
ENDBRANCH  23  25
ENDBRANCH  10  23
ENDBRANCH   7  10
ENDBRANCH   4   6
BRANCH   3  27
ATOM     27  C   UNL     1      -8.254   0.718   0.724  1.00  0.00     0.171 C 
BRANCH  27  28
ATOM     28  N   UNL     1      -6.958   1.342   0.480  1.00  0.00    -0.342 N 
ATOM     29  C   UNL     1      -5.914   0.682  -0.130  1.00  0.00     0.245 C 
ATOM     30  O   UNL     1      -6.003  -0.478  -0.528  1.00  0.00    -0.273 OA
ATOM     31  H   UNL     1      -6.847   2.335   0.679  1.00  0.00     0.164 HD
BRANCH  29  32
ATOM     32  C   UNL     1      -4.668   1.545  -0.418  1.00  0.00     0.200 C 
BRANCH  32  33
ATOM     33  N   UNL     1      -4.730   1.992  -1.815  1.00  0.00    -0.340 N 
ATOM     34  C   UNL     1      -4.270   1.196  -2.843  1.00  0.00     0.243 CG0
ATOM     35  O   UNL     1      -3.733   0.110  -2.633  1.00  0.00    -0.273 OA
ATOM     36  H   UNL     1      -5.139   2.897  -2.016  1.00  0.00     0.164 HD
ATOM     37  G   UNL     1      -4.268   1.842  -4.237  1.00  0.00     0.000 G0
ENDBRANCH  32  33
BRANCH  32  38
ATOM     38  C   UNL     1      -4.546   2.715   0.586  1.00  0.00     0.143 C 
ATOM     39  C   UNL     1      -3.120   3.215   0.789  1.00  0.00     0.041 C 
BRANCH  38  40
ATOM     40  O   UNL     1      -5.371   3.817   0.160  1.00  0.00    -0.391 OA
ATOM     41  H   UNL     1      -4.786   4.435  -0.319  1.00  0.00     0.211 HD
ENDBRANCH  38  40
ENDBRANCH  32  38
ENDBRANCH  29  32
ENDBRANCH  27  28
BRANCH  27  42
ATOM     42  C   UNL     1      -9.012   1.412   1.882  1.00  0.00     0.015 C 
ATOM     43  C   UNL     1     -10.537   1.458   1.741  1.00  0.00     0.010 C 
ATOM     44  C   UNL     1      -8.622   0.836   3.248  1.00  0.00     0.010 C 
ENDBRANCH  27  42
ENDBRANCH   3  27
TORSDOF 5
ENDMDL
MODEL 38
REMARK VINA RESULT:    -5.735      2.863      8.233
REMARK INTER + INTRA:         -12.454
REMARK INTER:                 -11.298
REMARK INTRA:                  -1.156
REMARK UNBOUND:                -2.194
REMARK SMILES CC[C@H](C)[C@H]1NC(=O)c2coc(n2)[C@H](C(C)C)NC(=O)[C@H]([C@@H](C)O)NC(=O)[C@H](C)NC(=O)c2csc1n2
REMARK SMILES IDX 11 1 13 2 12 3 9 4 10 5 7 6 6 7 8 8 5 10 36 11 35 12 34 13
REMARK SMILES IDX 37 14 33 15 31 16 32 17 30 18 28 20 29 21 3 23 4 24 2 25
REMARK SMILES IDX 1 26 14 27 18 28 19 29 20 30 21 32 25 33 26 34 27 35 22 38
REMARK SMILES IDX 23 39 24 40 15 42 16 43 17 44
REMARK H PARENT 6 9 30 19 18 31 25 36 24 41
REMARK Flexibility Score:   94.900
ROOT
ATOM      1  O   UNL     1     -10.642   1.885  -7.609  1.00  0.00    -0.446 OA
ATOM      2  N   UNL     1     -11.543   0.713  -5.908  1.00  0.00    -0.207 NA
ATOM      3  C   UNL     1     -10.552   1.494  -6.300  1.00  0.00     0.217 A 
ATOM      4  C   UNL     1     -12.352   0.604  -7.025  1.00  0.00     0.167 A 
ATOM      5  C   UNL     1     -11.798   1.321  -8.058  1.00  0.00     0.231 A 
ENDROOT
BRANCH   4   6
ATOM      6  C   UNL     1     -13.569  -0.188  -7.049  1.00  0.00     0.273 C 
ATOM      7  N   UNL     1     -14.661   0.565  -7.401  1.00  0.00    -0.341 N 
ATOM      8  O   UNL     1     -13.609  -1.379  -6.764  1.00  0.00    -0.267 OA
ATOM      9  H   UNL     1     -14.490   1.560  -7.519  1.00  0.00     0.164 HD
BRANCH   7  10
ATOM     10  C   UNL     1     -16.025   0.094  -7.265  1.00  0.00     0.145 C 
BRANCH  10  11
ATOM     11  C   UNL     1     -16.495   0.443  -5.860  1.00  0.00     0.116 A 
ATOM     12  S   UNL     1     -18.172   0.356  -5.474  1.00  0.00    -0.124 S 
ATOM     13  C   UNL     1     -17.818   0.818  -3.867  1.00  0.00     0.101 A 
ATOM     14  N   UNL     1     -15.703   0.807  -4.865  1.00  0.00    -0.234 NA
ATOM     15  C   UNL     1     -16.459   1.009  -3.707  1.00  0.00     0.139 A 
BRANCH  15  16
ATOM     16  C   UNL     1     -15.835   1.384  -2.436  1.00  0.00     0.271 C 
ATOM     17  O   UNL     1     -16.392   2.094  -1.606  1.00  0.00    -0.267 OA
ATOM     18  N   UNL     1     -14.570   0.862  -2.269  1.00  0.00    -0.339 N 
ATOM     19  H   UNL     1     -14.177   0.383  -3.075  1.00  0.00     0.164 HD
BRANCH  18  20
ATOM     20  C   UNL     1     -13.770   1.184  -1.095  1.00  0.00     0.168 CG0
ATOM     21  C   UNL     1     -13.667  -0.012  -0.146  1.00  0.00     0.041 C 
ATOM     22  G   UNL     1     -12.341   1.625  -1.452  1.00  0.00     0.000 G0
ENDBRANCH  18  20
ENDBRANCH  15  16
ENDBRANCH  10  11
BRANCH  10  23
ATOM     23  C   UNL     1     -16.957   0.674  -8.362  1.00  0.00     0.015 C 
ATOM     24  C   UNL     1     -16.312   1.812  -9.169  1.00  0.00     0.010 C 
BRANCH  23  25
ATOM     25  C   UNL     1     -17.466  -0.404  -9.345  1.00  0.00     0.002 C 
ATOM     26  C   UNL     1     -17.033  -1.820  -8.990  1.00  0.00     0.004 C 
ENDBRANCH  23  25
ENDBRANCH  10  23
ENDBRANCH   7  10
ENDBRANCH   4   6
BRANCH   3  27
ATOM     27  C   UNL     1      -9.363   1.927  -5.488  1.00  0.00     0.171 C 
BRANCH  27  28
ATOM     28  N   UNL     1      -9.740   1.875  -4.080  1.00  0.00    -0.342 N 
ATOM     29  C   UNL     1      -9.669   0.723  -3.329  1.00  0.00     0.245 C 
ATOM     30  O   UNL     1      -9.266  -0.346  -3.787  1.00  0.00    -0.273 OA
ATOM     31  H   UNL     1      -9.974   2.745  -3.603  1.00  0.00     0.164 HD
BRANCH  29  32
ATOM     32  C   UNL     1      -9.986   0.893  -1.828  1.00  0.00     0.200 C 
BRANCH  32  33
ATOM     33  N   UNL     1     -11.411   0.604  -1.623  1.00  0.00    -0.340 N 
ATOM     34  C   UNL     1     -12.328   1.618  -1.442  1.00  0.00     0.243 CG0
ATOM     35  O   UNL     1     -11.988   2.798  -1.380  1.00  0.00    -0.273 OA
ATOM     36  H   UNL     1     -11.717  -0.362  -1.638  1.00  0.00     0.164 HD
ATOM     37  G   UNL     1     -13.759   1.170  -1.101  1.00  0.00     0.000 G0
ENDBRANCH  32  33
BRANCH  32  38
ATOM     38  C   UNL     1      -9.061   0.016  -0.952  1.00  0.00     0.143 C 
ATOM     39  C   UNL     1      -7.721   0.663  -0.622  1.00  0.00     0.041 C 
BRANCH  38  40
ATOM     40  O   UNL     1      -9.729  -0.329   0.277  1.00  0.00    -0.391 OA
ATOM     41  H   UNL     1     -10.047   0.507   0.667  1.00  0.00     0.211 HD
ENDBRANCH  38  40
ENDBRANCH  32  38
ENDBRANCH  29  32
ENDBRANCH  27  28
BRANCH  27  42
ATOM     42  C   UNL     1      -8.021   1.198  -5.745  1.00  0.00     0.015 C 
ATOM     43  C   UNL     1      -7.822   0.661  -7.167  1.00  0.00     0.010 C 
ATOM     44  C   UNL     1      -6.817   2.049  -5.326  1.00  0.00     0.010 C 
ENDBRANCH  27  42
ENDBRANCH   3  27
TORSDOF 5
ENDMDL
MODEL 39
REMARK VINA RESULT:    -5.720      3.845      7.190
REMARK INTER + INTRA:         -12.428
REMARK INTER:                 -10.369
REMARK INTRA:                  -2.059
REMARK UNBOUND:                -2.194
REMARK SMILES CC[C@H](C)[C@H]1NC(=O)c2coc(n2)[C@H](C(C)C)NC(=O)[C@H]([C@@H](C)O)NC(=O)[C@H](C)NC(=O)c2csc1n2
REMARK SMILES IDX 11 1 13 2 12 3 9 4 10 5 7 6 6 7 8 8 5 10 36 11 35 12 34 13
REMARK SMILES IDX 37 14 33 15 31 16 32 17 30 18 28 20 29 21 3 23 4 24 2 25
REMARK SMILES IDX 1 26 14 27 18 28 19 29 20 30 21 32 25 33 26 34 27 35 22 38
REMARK SMILES IDX 23 39 24 40 15 42 16 43 17 44
REMARK H PARENT 6 9 30 19 18 31 25 36 24 41
REMARK Flexibility Score:   94.900
ROOT
ATOM      1  O   UNL     1     -17.923  -1.882  -8.500  1.00  0.00    -0.446 OA
ATOM      2  N   UNL     1     -17.600  -0.375  -6.855  1.00  0.00    -0.207 NA
ATOM      3  C   UNL     1     -18.379  -1.329  -7.333  1.00  0.00     0.217 A 
ATOM      4  C   UNL     1     -16.549  -0.313  -7.753  1.00  0.00     0.167 A 
ATOM      5  C   UNL     1     -16.751  -1.234  -8.752  1.00  0.00     0.231 A 
ENDROOT
BRANCH   4   6
ATOM      6  C   UNL     1     -15.448   0.625  -7.622  1.00  0.00     0.273 C 
ATOM      7  N   UNL     1     -14.404   0.090  -6.911  1.00  0.00    -0.341 N 
ATOM      8  O   UNL     1     -15.470   1.763  -8.075  1.00  0.00    -0.267 OA
ATOM      9  H   UNL     1     -14.565  -0.833  -6.518  1.00  0.00     0.164 HD
BRANCH   7  10
ATOM     10  C   UNL     1     -13.291   0.880  -6.422  1.00  0.00     0.145 C 
BRANCH  10  11
ATOM     11  C   UNL     1     -13.275   0.764  -4.905  1.00  0.00     0.116 A 
ATOM     12  S   UNL     1     -11.836   0.263  -4.101  1.00  0.00    -0.124 S 
ATOM     13  C   UNL     1     -12.625   0.438  -2.595  1.00  0.00     0.101 A 
ATOM     14  N   UNL     1     -14.299   1.036  -4.113  1.00  0.00    -0.234 NA
ATOM     15  C   UNL     1     -13.926   0.866  -2.778  1.00  0.00     0.139 A 
BRANCH  15  16
ATOM     16  C   UNL     1     -14.855   1.135  -1.678  1.00  0.00     0.271 C 
ATOM     17  O   UNL     1     -14.507   1.150  -0.502  1.00  0.00    -0.267 OA
ATOM     18  N   UNL     1     -16.148   1.371  -2.095  1.00  0.00    -0.339 N 
ATOM     19  H   UNL     1     -16.330   1.221  -3.084  1.00  0.00     0.164 HD
BRANCH  18  20
ATOM     20  C   UNL     1     -17.222   1.590  -1.135  1.00  0.00     0.168 CG0
ATOM     21  C   UNL     1     -17.558   3.078  -1.007  1.00  0.00     0.041 C 
ATOM     22  G   UNL     1     -18.514   0.847  -1.509  1.00  0.00     0.000 G0
ENDBRANCH  18  20
ENDBRANCH  15  16
ENDBRANCH  10  11
BRANCH  10  23
ATOM     23  C   UNL     1     -11.943   0.453  -7.062  1.00  0.00     0.015 C 
ATOM     24  C   UNL     1     -12.018  -0.897  -7.795  1.00  0.00     0.010 C 
BRANCH  23  25
ATOM     25  C   UNL     1     -11.380   1.514  -8.034  1.00  0.00     0.002 C 
ATOM     26  C   UNL     1      -9.989   1.192  -8.563  1.00  0.00     0.004 C 
ENDBRANCH  23  25
ENDBRANCH  10  23
ENDBRANCH   7  10
ENDBRANCH   4   6
BRANCH   3  27
ATOM     27  C   UNL     1     -19.688  -1.802  -6.763  1.00  0.00     0.171 C 
BRANCH  27  28
ATOM     28  N   UNL     1     -20.020  -0.940  -5.633  1.00  0.00    -0.342 N 
ATOM     29  C   UNL     1     -19.554  -1.168  -4.358  1.00  0.00     0.245 C 
ATOM     30  O   UNL     1     -18.809  -2.106  -4.079  1.00  0.00    -0.273 OA
ATOM     31  H   UNL     1     -20.538  -0.080  -5.808  1.00  0.00     0.164 HD
BRANCH  29  32
ATOM     32  C   UNL     1     -19.905  -0.078  -3.323  1.00  0.00     0.200 C 
BRANCH  32  33
ATOM     33  N   UNL     1     -18.654   0.502  -2.820  1.00  0.00    -0.340 N 
ATOM     34  C   UNL     1     -18.513   0.864  -1.497  1.00  0.00     0.243 CG0
ATOM     35  O   UNL     1     -19.443   0.778  -0.697  1.00  0.00    -0.273 OA
ATOM     36  H   UNL     1     -17.878   0.613  -3.463  1.00  0.00     0.164 HD
ATOM     37  G   UNL     1     -17.203   1.583  -1.138  1.00  0.00     0.000 G0
ENDBRANCH  32  33
BRANCH  32  38
ATOM     38  C   UNL     1     -20.863   0.980  -3.919  1.00  0.00     0.143 C 
ATOM     39  C   UNL     1     -21.708   1.710  -2.881  1.00  0.00     0.041 C 
BRANCH  38  40
ATOM     40  O   UNL     1     -20.115   1.949  -4.678  1.00  0.00    -0.391 OA
ATOM     41  H   UNL     1     -19.213   1.590  -4.778  1.00  0.00     0.211 HD
ENDBRANCH  38  40
ENDBRANCH  32  38
ENDBRANCH  29  32
ENDBRANCH  27  28
BRANCH  27  42
ATOM     42  C   UNL     1     -20.881  -1.945  -7.739  1.00  0.00     0.015 C 
ATOM     43  C   UNL     1     -20.912  -3.241  -8.558  1.00  0.00     0.010 C 
ATOM     44  C   UNL     1     -22.225  -1.728  -7.037  1.00  0.00     0.010 C 
ENDBRANCH  27  42
ENDBRANCH   3  27
TORSDOF 5
ENDMDL
MODEL 40
REMARK VINA RESULT:    -5.691      2.553      5.558
REMARK INTER + INTRA:         -12.375
REMARK INTER:                 -11.291
REMARK INTRA:                  -1.084
REMARK UNBOUND:                -2.194
REMARK SMILES CC[C@H](C)[C@H]1NC(=O)c2coc(n2)[C@H](C(C)C)NC(=O)[C@H]([C@@H](C)O)NC(=O)[C@H](C)NC(=O)c2csc1n2
REMARK SMILES IDX 11 1 13 2 12 3 9 4 10 5 7 6 6 7 8 8 5 10 36 11 35 12 34 13
REMARK SMILES IDX 37 14 33 15 31 16 32 17 30 18 28 20 29 21 3 23 4 24 2 25
REMARK SMILES IDX 1 26 14 27 18 28 19 29 20 30 21 32 25 33 26 34 27 35 22 38
REMARK SMILES IDX 23 39 24 40 15 42 16 43 17 44
REMARK H PARENT 6 9 30 19 18 31 25 36 24 41
REMARK Flexibility Score:   94.900
ROOT
ATOM      1  O   UNL     1     -10.874  -0.218  -7.352  1.00  0.00    -0.446 OA
ATOM      2  N   UNL     1     -11.220   1.033  -5.509  1.00  0.00    -0.207 NA
ATOM      3  C   UNL     1     -11.736   0.163  -6.359  1.00  0.00     0.217 A 
ATOM      4  C   UNL     1      -9.924   1.217  -5.958  1.00  0.00     0.167 A 
ATOM      5  C   UNL     1      -9.719   0.452  -7.080  1.00  0.00     0.231 A 
ENDROOT
BRANCH   4   6
ATOM      6  C   UNL     1      -8.982   2.119  -5.317  1.00  0.00     0.273 C 
ATOM      7  N   UNL     1      -8.098   1.446  -4.513  1.00  0.00    -0.341 N 
ATOM      8  O   UNL     1      -9.001   3.335  -5.464  1.00  0.00    -0.267 OA
ATOM      9  H   UNL     1      -8.262   0.448  -4.417  1.00  0.00     0.164 HD
BRANCH   7  10
ATOM     10  C   UNL     1      -7.219   2.111  -3.572  1.00  0.00     0.145 C 
BRANCH  10  11
ATOM     11  C   UNL     1      -7.581   1.621  -2.177  1.00  0.00     0.116 A 
ATOM     12  S   UNL     1      -6.332   1.267  -1.044  1.00  0.00    -0.124 S 
ATOM     13  C   UNL     1      -7.515   0.873   0.125  1.00  0.00     0.101 A 
ATOM     14  N   UNL     1      -8.815   1.447  -1.732  1.00  0.00    -0.234 NA
ATOM     15  C   UNL     1      -8.784   1.032  -0.398  1.00  0.00     0.139 A 
BRANCH  15  16
ATOM     16  C   UNL     1     -10.013   0.799   0.364  1.00  0.00     0.271 C 
ATOM     17  O   UNL     1     -10.030   0.715   1.587  1.00  0.00    -0.267 OA
ATOM     18  N   UNL     1     -11.138   0.687  -0.425  1.00  0.00    -0.339 N 
ATOM     19  H   UNL     1     -10.976   0.663  -1.429  1.00  0.00     0.164 HD
BRANCH  18  20
ATOM     20  C   UNL     1     -12.440   0.386   0.155  1.00  0.00     0.168 CG0
ATOM     21  C   UNL     1     -13.130   1.655   0.660  1.00  0.00     0.041 C 
ATOM     22  G   UNL     1     -13.389  -0.301  -0.840  1.00  0.00     0.000 G0
ENDBRANCH  18  20
ENDBRANCH  15  16
ENDBRANCH  10  11
BRANCH  10  23
ATOM     23  C   UNL     1      -5.721   1.884  -3.907  1.00  0.00     0.015 C 
ATOM     24  C   UNL     1      -5.487   1.387  -5.344  1.00  0.00     0.010 C 
BRANCH  23  25
ATOM     25  C   UNL     1      -4.858   3.145  -3.674  1.00  0.00     0.002 C 
ATOM     26  C   UNL     1      -3.382   2.953  -3.997  1.00  0.00     0.004 C 
ENDBRANCH  23  25
ENDBRANCH  10  23
ENDBRANCH   7  10
ENDBRANCH   4   6
BRANCH   3  27
ATOM     27  C   UNL     1     -13.140  -0.378  -6.361  1.00  0.00     0.171 C 
BRANCH  27  28
ATOM     28  N   UNL     1     -13.556  -0.546  -4.973  1.00  0.00    -0.342 N 
ATOM     29  C   UNL     1     -14.322   0.383  -4.305  1.00  0.00     0.245 C 
ATOM     30  O   UNL     1     -14.725   1.417  -4.834  1.00  0.00    -0.273 OA
ATOM     31  H   UNL     1     -13.357  -1.430  -4.505  1.00  0.00     0.164 HD
BRANCH  29  32
ATOM     32  C   UNL     1     -14.770  -0.029  -2.887  1.00  0.00     0.200 C 
BRANCH  32  33
ATOM     33  N   UNL     1     -13.772   0.460  -1.927  1.00  0.00    -0.340 N 
ATOM     34  C   UNL     1     -13.392  -0.300  -0.841  1.00  0.00     0.243 CG0
ATOM     35  O   UNL     1     -13.913  -1.385  -0.592  1.00  0.00    -0.273 OA
ATOM     36  H   UNL     1     -13.347   1.365  -2.089  1.00  0.00     0.164 HD
ATOM     37  G   UNL     1     -12.444   0.388   0.155  1.00  0.00     0.000 G0
ENDBRANCH  32  33
BRANCH  32  38
ATOM     38  C   UNL     1     -16.200   0.473  -2.578  1.00  0.00     0.143 C 
ATOM     39  C   UNL     1     -17.225  -0.640  -2.394  1.00  0.00     0.041 C 
BRANCH  38  40
ATOM     40  O   UNL     1     -16.188   1.297  -1.396  1.00  0.00    -0.391 OA
ATOM     41  H   UNL     1     -15.251   1.470  -1.185  1.00  0.00     0.211 HD
ENDBRANCH  38  40
ENDBRANCH  32  38
ENDBRANCH  29  32
ENDBRANCH  27  28
BRANCH  27  42
ATOM     42  C   UNL     1     -14.200   0.394  -7.184  1.00  0.00     0.015 C 
ATOM     43  C   UNL     1     -13.645   1.384  -8.215  1.00  0.00     0.010 C 
ATOM     44  C   UNL     1     -15.210  -0.550  -7.845  1.00  0.00     0.010 C 
ENDBRANCH  27  42
ENDBRANCH   3  27
TORSDOF 5
ENDMDL
MODEL 41
REMARK VINA RESULT:    -5.682      3.607      8.574
REMARK INTER + INTRA:         -12.360
REMARK INTER:                 -10.271
REMARK INTRA:                  -2.088
REMARK UNBOUND:                -2.194
REMARK SMILES CC[C@H](C)[C@H]1NC(=O)c2coc(n2)[C@H](C(C)C)NC(=O)[C@H]([C@@H](C)O)NC(=O)[C@H](C)NC(=O)c2csc1n2
REMARK SMILES IDX 11 1 13 2 12 3 9 4 10 5 7 6 6 7 8 8 5 10 36 11 35 12 34 13
REMARK SMILES IDX 37 14 33 15 31 16 32 17 30 18 28 20 29 21 3 23 4 24 2 25
REMARK SMILES IDX 1 26 14 27 18 28 19 29 20 30 21 32 25 33 26 34 27 35 22 38
REMARK SMILES IDX 23 39 24 40 15 42 16 43 17 44
REMARK H PARENT 6 9 30 19 18 31 25 36 24 41
REMARK Flexibility Score:   94.900
ROOT
ATOM      1  O   UNL     1     -11.408  -1.110  -5.628  1.00  0.00    -0.446 OA
ATOM      2  N   UNL     1     -12.125   0.661  -4.431  1.00  0.00    -0.207 NA
ATOM      3  C   UNL     1     -11.238   0.209  -5.299  1.00  0.00     0.217 A 
ATOM      4  C   UNL     1     -12.950  -0.425  -4.193  1.00  0.00     0.167 A 
ATOM      5  C   UNL     1     -12.508  -1.499  -4.926  1.00  0.00     0.231 A 
ENDROOT
BRANCH   4   6
ATOM      6  C   UNL     1     -14.073  -0.381  -3.274  1.00  0.00     0.273 C 
ATOM      7  N   UNL     1     -13.886   0.550  -2.283  1.00  0.00    -0.341 N 
ATOM      8  O   UNL     1     -15.054  -1.110  -3.366  1.00  0.00    -0.267 OA
ATOM      9  H   UNL     1     -12.982   1.015  -2.281  1.00  0.00     0.164 HD
BRANCH   7  10
ATOM     10  C   UNL     1     -14.724   0.631  -1.104  1.00  0.00     0.145 C 
BRANCH  10  11
ATOM     11  C   UNL     1     -13.848   1.086   0.054  1.00  0.00     0.116 A 
ATOM     12  S   UNL     1     -14.574   1.779   1.455  1.00  0.00    -0.124 S 
ATOM     13  C   UNL     1     -13.029   1.935   2.170  1.00  0.00     0.101 A 
ATOM     14  N   UNL     1     -12.529   0.983   0.093  1.00  0.00    -0.234 NA
ATOM     15  C   UNL     1     -12.052   1.455   1.318  1.00  0.00     0.139 A 
BRANCH  15  16
ATOM     16  C   UNL     1     -10.626   1.426   1.652  1.00  0.00     0.271 C 
ATOM     17  O   UNL     1     -10.203   1.641   2.782  1.00  0.00    -0.267 OA
ATOM     18  N   UNL     1      -9.815   1.132   0.576  1.00  0.00    -0.339 N 
ATOM     19  H   UNL     1     -10.276   1.084  -0.328  1.00  0.00     0.164 HD
BRANCH  18  20
ATOM     20  C   UNL     1      -8.364   1.125   0.705  1.00  0.00     0.168 CG0
ATOM     21  C   UNL     1      -7.839  -0.278   1.017  1.00  0.00     0.041 C 
ATOM     22  G   UNL     1      -7.652   1.622  -0.564  1.00  0.00     0.000 G0
ENDBRANCH  18  20
ENDBRANCH  15  16
ENDBRANCH  10  11
BRANCH  10  23
ATOM     23  C   UNL     1     -15.949   1.559  -1.318  1.00  0.00     0.015 C 
ATOM     24  C   UNL     1     -15.862   2.394  -2.607  1.00  0.00     0.010 C 
BRANCH  23  25
ATOM     25  C   UNL     1     -17.290   0.791  -1.317  1.00  0.00     0.002 C 
ATOM     26  C   UNL     1     -18.402   1.489  -0.546  1.00  0.00     0.004 C 
ENDBRANCH  23  25
ENDBRANCH  10  23
ENDBRANCH   7  10
ENDBRANCH   4   6
BRANCH   3  27
ATOM     27  C   UNL     1     -10.079   0.965  -5.889  1.00  0.00     0.171 C 
BRANCH  27  28
ATOM     28  N   UNL     1      -8.989   0.938  -4.919  1.00  0.00    -0.342 N 
ATOM     29  C   UNL     1      -8.712   1.992  -4.077  1.00  0.00     0.245 C 
ATOM     30  O   UNL     1      -9.373   3.029  -4.070  1.00  0.00    -0.273 OA
ATOM     31  H   UNL     1      -8.471   0.070  -4.788  1.00  0.00     0.164 HD
BRANCH  29  32
ATOM     32  C   UNL     1      -7.605   1.729  -3.034  1.00  0.00     0.200 C 
BRANCH  32  33
ATOM     33  N   UNL     1      -8.247   1.373  -1.762  1.00  0.00    -0.340 N 
ATOM     34  C   UNL     1      -7.642   1.648  -0.553  1.00  0.00     0.243 CG0
ATOM     35  O   UNL     1      -6.518   2.143  -0.487  1.00  0.00    -0.273 OA
ATOM     36  H   UNL     1      -9.160   0.935  -1.786  1.00  0.00     0.164 HD
ATOM     37  G   UNL     1      -8.358   1.098   0.691  1.00  0.00     0.000 G0
ENDBRANCH  32  33
BRANCH  32  38
ATOM     38  C   UNL     1      -6.606   0.657  -3.527  1.00  0.00     0.143 C 
ATOM     39  C   UNL     1      -5.242   1.211  -3.921  1.00  0.00     0.041 C 
BRANCH  38  40
ATOM     40  O   UNL     1      -6.426  -0.352  -2.514  1.00  0.00    -0.391 OA
ATOM     41  H   UNL     1      -7.254  -0.867  -2.482  1.00  0.00     0.211 HD
ENDBRANCH  38  40
ENDBRANCH  32  38
ENDBRANCH  29  32
ENDBRANCH  27  28
BRANCH  27  42
ATOM     42  C   UNL     1      -9.596   0.546  -7.299  1.00  0.00     0.015 C 
ATOM     43  C   UNL     1     -10.545   0.894  -8.452  1.00  0.00     0.010 C 
ATOM     44  C   UNL     1      -8.185   1.061  -7.598  1.00  0.00     0.010 C 
ENDBRANCH  27  42
ENDBRANCH   3  27
TORSDOF 5
ENDMDL
MODEL 42
REMARK VINA RESULT:    -5.621      5.046     10.140
REMARK INTER + INTRA:         -12.251
REMARK INTER:                 -10.498
REMARK INTRA:                  -1.753
REMARK UNBOUND:                -2.194
REMARK SMILES CC[C@H](C)[C@H]1NC(=O)c2coc(n2)[C@H](C(C)C)NC(=O)[C@H]([C@@H](C)O)NC(=O)[C@H](C)NC(=O)c2csc1n2
REMARK SMILES IDX 11 1 13 2 12 3 9 4 10 5 7 6 6 7 8 8 5 10 36 11 35 12 34 13
REMARK SMILES IDX 37 14 33 15 31 16 32 17 30 18 28 20 29 21 3 23 4 24 2 25
REMARK SMILES IDX 1 26 14 27 18 28 19 29 20 30 21 32 25 33 26 34 27 35 22 38
REMARK SMILES IDX 23 39 24 40 15 42 16 43 17 44
REMARK H PARENT 6 9 30 19 18 31 25 36 24 41
REMARK Flexibility Score:   94.900
ROOT
ATOM      1  O   UNL     1      -1.481   3.384  -7.392  1.00  0.00    -0.446 OA
ATOM      2  N   UNL     1      -2.880   1.808  -6.591  1.00  0.00    -0.207 NA
ATOM      3  C   UNL     1      -2.069   2.808  -6.297  1.00  0.00     0.217 A 
ATOM      4  C   UNL     1      -2.845   1.738  -7.973  1.00  0.00     0.167 A 
ATOM      5  C   UNL     1      -1.992   2.701  -8.454  1.00  0.00     0.231 A 
ENDROOT
BRANCH   4   6
ATOM      6  C   UNL     1      -3.592   0.754  -8.737  1.00  0.00     0.273 C 
ATOM      7  N   UNL     1      -4.863   1.185  -9.018  1.00  0.00    -0.341 N 
ATOM      8  O   UNL     1      -3.139  -0.337  -9.063  1.00  0.00    -0.267 OA
ATOM      9  H   UNL     1      -5.129   2.073  -8.603  1.00  0.00     0.164 HD
BRANCH   7  10
ATOM     10  C   UNL     1      -5.896   0.315  -9.547  1.00  0.00     0.145 C 
BRANCH  10  11
ATOM     11  C   UNL     1      -7.200   0.672  -8.848  1.00  0.00     0.116 A 
ATOM     12  S   UNL     1      -8.660   0.767  -9.759  1.00  0.00    -0.124 S 
ATOM     13  C   UNL     1      -9.520   1.135  -8.329  1.00  0.00     0.101 A 
ATOM     14  N   UNL     1      -7.325   0.912  -7.553  1.00  0.00    -0.234 NA
ATOM     15  C   UNL     1      -8.665   1.163  -7.244  1.00  0.00     0.139 A 
BRANCH  15  16
ATOM     16  C   UNL     1      -9.102   1.424  -5.871  1.00  0.00     0.271 C 
ATOM     17  O   UNL     1     -10.220   1.849  -5.599  1.00  0.00    -0.267 OA
ATOM     18  N   UNL     1      -8.140   1.145  -4.924  1.00  0.00    -0.339 N 
ATOM     19  H   UNL     1      -7.219   0.906  -5.283  1.00  0.00     0.164 HD
BRANCH  18  20
ATOM     20  C   UNL     1      -8.373   1.408  -3.511  1.00  0.00     0.168 CG0
ATOM     21  C   UNL     1      -8.813   0.141  -2.775  1.00  0.00     0.041 C 
ATOM     22  G   UNL     1      -7.130   1.960  -2.795  1.00  0.00     0.000 G0
ENDBRANCH  18  20
ENDBRANCH  15  16
ENDBRANCH  10  11
BRANCH  10  23
ATOM     23  C   UNL     1      -6.007   0.409 -11.091  1.00  0.00     0.015 C 
ATOM     24  C   UNL     1      -4.900   1.263 -11.731  1.00  0.00     0.010 C 
BRANCH  23  25
ATOM     25  C   UNL     1      -6.021  -0.977 -11.775  1.00  0.00     0.002 C 
ATOM     26  C   UNL     1      -5.992  -2.147 -10.802  1.00  0.00     0.004 C 
ENDBRANCH  23  25
ENDBRANCH  10  23
ENDBRANCH   7  10
ENDBRANCH   4   6
BRANCH   3  27
ATOM     27  C   UNL     1      -1.709   3.310  -4.925  1.00  0.00     0.171 C 
BRANCH  27  28
ATOM     28  N   UNL     1      -2.564   2.627  -3.961  1.00  0.00    -0.342 N 
ATOM     29  C   UNL     1      -3.875   2.987  -3.739  1.00  0.00     0.245 C 
ATOM     30  O   UNL     1      -4.426   3.902  -4.348  1.00  0.00    -0.273 OA
ATOM     31  H   UNL     1      -2.213   1.788  -3.502  1.00  0.00     0.164 HD
BRANCH  29  32
ATOM     32  C   UNL     1      -4.657   2.067  -2.777  1.00  0.00     0.200 C 
BRANCH  32  33
ATOM     33  N   UNL     1      -5.927   1.704  -3.418  1.00  0.00    -0.340 N 
ATOM     34  C   UNL     1      -7.137   1.960  -2.806  1.00  0.00     0.243 CG0
ATOM     35  O   UNL     1      -7.204   2.440  -1.676  1.00  0.00    -0.273 OA
ATOM     36  H   UNL     1      -5.902   1.278  -4.337  1.00  0.00     0.164 HD
ATOM     37  G   UNL     1      -8.377   1.405  -3.524  1.00  0.00     0.000 G0
ENDBRANCH  32  33
BRANCH  32  38
ATOM     38  C   UNL     1      -3.817   0.836  -2.364  1.00  0.00     0.143 C 
ATOM     39  C   UNL     1      -3.752   0.605  -0.859  1.00  0.00     0.041 C 
BRANCH  38  40
ATOM     40  O   UNL     1      -4.336  -0.350  -2.997  1.00  0.00    -0.391 OA
ATOM     41  H   UNL     1      -4.013  -0.339  -3.917  1.00  0.00     0.211 HD
ENDBRANCH  38  40
ENDBRANCH  32  38
ENDBRANCH  29  32
ENDBRANCH  27  28
BRANCH  27  42
ATOM     42  C   UNL     1      -0.218   3.245  -4.511  1.00  0.00     0.015 C 
ATOM     43  C   UNL     1       0.043   3.055  -3.012  1.00  0.00     0.010 C 
ATOM     44  C   UNL     1       0.557   2.201  -5.321  1.00  0.00     0.010 C 
ENDBRANCH  27  42
ENDBRANCH   3  27
TORSDOF 5
ENDMDL
MODEL 43
REMARK VINA RESULT:    -5.577      7.611     10.912
REMARK INTER + INTRA:         -12.172
REMARK INTER:                  -9.937
REMARK INTRA:                  -2.235
REMARK UNBOUND:                -2.194
REMARK SMILES CC[C@H](C)[C@H]1NC(=O)c2coc(n2)[C@H](C(C)C)NC(=O)[C@H]([C@@H](C)O)NC(=O)[C@H](C)NC(=O)c2csc1n2
REMARK SMILES IDX 11 1 13 2 12 3 9 4 10 5 7 6 6 7 8 8 5 10 36 11 35 12 34 13
REMARK SMILES IDX 37 14 33 15 31 16 32 17 30 18 28 20 29 21 3 23 4 24 2 25
REMARK SMILES IDX 1 26 14 27 18 28 19 29 20 30 21 32 25 33 26 34 27 35 22 38
REMARK SMILES IDX 23 39 24 40 15 42 16 43 17 44
REMARK H PARENT 6 9 30 19 18 31 25 36 24 41
REMARK Flexibility Score:   94.900
ROOT
ATOM      1  O   UNL     1       0.518   3.886  -1.108  1.00  0.00    -0.446 OA
ATOM      2  N   UNL     1      -0.434   2.284  -2.377  1.00  0.00    -0.207 NA
ATOM      3  C   UNL     1      -0.379   2.853  -1.186  1.00  0.00     0.217 A 
ATOM      4  C   UNL     1       0.467   3.007  -3.141  1.00  0.00     0.167 A 
ATOM      5  C   UNL     1       1.042   3.981  -2.362  1.00  0.00     0.231 A 
ENDROOT
BRANCH   4   6
ATOM      6  C   UNL     1       0.741   2.711  -4.536  1.00  0.00     0.273 C 
ATOM      7  N   UNL     1      -0.137   3.349  -5.375  1.00  0.00    -0.341 N 
ATOM      8  O   UNL     1       1.636   1.960  -4.906  1.00  0.00    -0.267 OA
ATOM      9  H   UNL     1      -0.884   3.865  -4.920  1.00  0.00     0.164 HD
BRANCH   7  10
ATOM     10  C   UNL     1      -0.249   3.040  -6.787  1.00  0.00     0.145 C 
BRANCH  10  11
ATOM     11  C   UNL     1      -1.682   2.599  -7.049  1.00  0.00     0.116 A 
ATOM     12  S   UNL     1      -2.232   2.401  -8.670  1.00  0.00    -0.124 S 
ATOM     13  C   UNL     1      -3.759   1.905  -8.083  1.00  0.00     0.101 A 
ATOM     14  N   UNL     1      -2.576   2.330  -6.112  1.00  0.00    -0.234 NA
ATOM     15  C   UNL     1      -3.772   1.913  -6.702  1.00  0.00     0.139 A 
BRANCH  15  16
ATOM     16  C   UNL     1      -4.928   1.512  -5.897  1.00  0.00     0.271 C 
ATOM     17  O   UNL     1      -6.028   1.278  -6.385  1.00  0.00    -0.267 OA
ATOM     18  N   UNL     1      -4.657   1.423  -4.548  1.00  0.00    -0.339 N 
ATOM     19  H   UNL     1      -3.739   1.749  -4.257  1.00  0.00     0.164 HD
BRANCH  18  20
ATOM     20  C   UNL     1      -5.704   1.104  -3.587  1.00  0.00     0.168 CG0
ATOM     21  C   UNL     1      -5.459  -0.257  -2.930  1.00  0.00     0.041 C 
ATOM     22  G   UNL     1      -5.823   2.151  -2.469  1.00  0.00     0.000 G0
ENDBRANCH  18  20
ENDBRANCH  15  16
ENDBRANCH  10  11
BRANCH  10  23
ATOM     23  C   UNL     1       0.175   4.234  -7.683  1.00  0.00     0.015 C 
ATOM     24  C   UNL     1      -0.001   5.601  -7.001  1.00  0.00     0.010 C 
BRANCH  23  25
ATOM     25  C   UNL     1       1.633   4.116  -8.185  1.00  0.00     0.002 C 
ATOM     26  C   UNL     1       2.131   5.346  -8.931  1.00  0.00     0.004 C 
ENDBRANCH  23  25
ENDBRANCH  10  23
ENDBRANCH   7  10
ENDBRANCH   4   6
BRANCH   3  27
ATOM     27  C   UNL     1      -1.139   2.450   0.047  1.00  0.00     0.171 C 
BRANCH  27  28
ATOM     28  N   UNL     1      -2.550   2.357  -0.309  1.00  0.00    -0.342 N 
ATOM     29  C   UNL     1      -3.524   3.128   0.287  1.00  0.00     0.245 C 
ATOM     30  O   UNL     1      -3.273   3.964   1.153  1.00  0.00    -0.273 OA
ATOM     31  H   UNL     1      -2.819   1.769  -1.097  1.00  0.00     0.164 HD
BRANCH  29  32
ATOM     32  C   UNL     1      -4.939   2.981  -0.311  1.00  0.00     0.200 C 
BRANCH  32  33
ATOM     33  N   UNL     1      -4.849   2.129  -1.504  1.00  0.00    -0.340 N 
ATOM     34  C   UNL     1      -5.834   2.144  -2.470  1.00  0.00     0.243 CG0
ATOM     35  O   UNL     1      -6.855   2.818  -2.346  1.00  0.00    -0.273 OA
ATOM     36  H   UNL     1      -4.033   1.540  -1.619  1.00  0.00     0.164 HD
ATOM     37  G   UNL     1      -5.681   1.106  -3.593  1.00  0.00     0.000 G0
ENDBRANCH  32  33
BRANCH  32  38
ATOM     38  C   UNL     1      -5.943   2.446   0.737  1.00  0.00     0.143 C 
ATOM     39  C   UNL     1      -6.028   0.926   0.798  1.00  0.00     0.041 C 
BRANCH  38  40
ATOM     40  O   UNL     1      -5.604   2.948   2.044  1.00  0.00    -0.391 OA
ATOM     41  H   UNL     1      -5.997   3.839   2.112  1.00  0.00     0.211 HD
ENDBRANCH  38  40
ENDBRANCH  32  38
ENDBRANCH  29  32
ENDBRANCH  27  28
BRANCH  27  42
ATOM     42  C   UNL     1      -0.656   1.187   0.801  1.00  0.00     0.015 C 
ATOM     43  C   UNL     1       0.864   1.013   0.895  1.00  0.00     0.010 C 
ATOM     44  C   UNL     1      -1.291   1.072   2.191  1.00  0.00     0.010 C 
ENDBRANCH  27  42
ENDBRANCH   3  27
TORSDOF 5
ENDMDL
MODEL 44
REMARK VINA RESULT:    -5.572      3.879      7.951
REMARK INTER + INTRA:         -12.163
REMARK INTER:                 -10.300
REMARK INTRA:                  -1.863
REMARK UNBOUND:                -2.194
REMARK SMILES CC[C@H](C)[C@H]1NC(=O)c2coc(n2)[C@H](C(C)C)NC(=O)[C@H]([C@@H](C)O)NC(=O)[C@H](C)NC(=O)c2csc1n2
REMARK SMILES IDX 11 1 13 2 12 3 9 4 10 5 7 6 6 7 8 8 5 10 36 11 35 12 34 13
REMARK SMILES IDX 37 14 33 15 31 16 32 17 30 18 28 20 29 21 3 23 4 24 2 25
REMARK SMILES IDX 1 26 14 27 18 28 19 29 20 30 21 32 25 33 26 34 27 35 22 38
REMARK SMILES IDX 23 39 24 40 15 42 16 43 17 44
REMARK H PARENT 6 9 30 19 18 31 25 36 24 41
REMARK Flexibility Score:   94.900
ROOT
ATOM      1  O   UNL     1     -11.031  -0.670  -6.032  1.00  0.00    -0.446 OA
ATOM      2  N   UNL     1     -11.161   1.035  -4.563  1.00  0.00    -0.207 NA
ATOM      3  C   UNL     1     -10.931   0.679  -5.814  1.00  0.00     0.217 A 
ATOM      4  C   UNL     1     -11.459  -0.155  -3.921  1.00  0.00     0.167 A 
ATOM      5  C   UNL     1     -11.379  -1.189  -4.821  1.00  0.00     0.231 A 
ENDROOT
BRANCH   4   6
ATOM      6  C   UNL     1     -11.768  -0.236  -2.504  1.00  0.00     0.273 C 
ATOM      7  N   UNL     1     -10.889   0.497  -1.747  1.00  0.00    -0.341 N 
ATOM      8  O   UNL     1     -12.690  -0.902  -2.049  1.00  0.00    -0.267 OA
ATOM      9  H   UNL     1     -10.120   0.923  -2.256  1.00  0.00     0.164 HD
BRANCH   7  10
ATOM     10  C   UNL     1     -10.813   0.397  -0.303  1.00  0.00     0.145 C 
BRANCH  10  11
ATOM     11  C   UNL     1      -9.368   0.655   0.100  1.00  0.00     0.116 A 
ATOM     12  S   UNL     1      -8.884   0.427   1.738  1.00  0.00    -0.124 S 
ATOM     13  C   UNL     1      -7.283   0.853   1.317  1.00  0.00     0.101 A 
ATOM     14  N   UNL     1      -8.408   1.040  -0.725  1.00  0.00    -0.234 NA
ATOM     15  C   UNL     1      -7.199   1.140  -0.032  1.00  0.00     0.139 A 
BRANCH  15  16
ATOM     16  C   UNL     1      -5.953   1.512  -0.707  1.00  0.00     0.271 C 
ATOM     17  O   UNL     1      -4.944   1.853  -0.100  1.00  0.00    -0.267 OA
ATOM     18  N   UNL     1      -6.030   1.441  -2.082  1.00  0.00    -0.339 N 
ATOM     19  H   UNL     1      -6.952   1.254  -2.467  1.00  0.00     0.164 HD
BRANCH  18  20
ATOM     20  C   UNL     1      -4.908   1.839  -2.922  1.00  0.00     0.168 CG0
ATOM     21  C   UNL     1      -4.033   0.639  -3.288  1.00  0.00     0.041 C 
ATOM     22  G   UNL     1      -5.355   2.512  -4.230  1.00  0.00     0.000 G0
ENDBRANCH  18  20
ENDBRANCH  15  16
ENDBRANCH  10  11
BRANCH  10  23
ATOM     23  C   UNL     1     -11.805   1.357   0.404  1.00  0.00     0.015 C 
ATOM     24  C   UNL     1     -11.903   2.736  -0.269  1.00  0.00     0.010 C 
BRANCH  23  25
ATOM     25  C   UNL     1     -13.227   0.764   0.527  1.00  0.00     0.002 C 
ATOM     26  C   UNL     1     -14.227   1.691   1.203  1.00  0.00     0.004 C 
ENDBRANCH  23  25
ENDBRANCH  10  23
ENDBRANCH   7  10
ENDBRANCH   4   6
BRANCH   3  27
ATOM     27  C   UNL     1     -10.533   1.576  -6.954  1.00  0.00     0.171 C 
BRANCH  27  28
ATOM     28  N   UNL     1      -9.078   1.691  -6.944  1.00  0.00    -0.342 N 
ATOM     29  C   UNL     1      -8.406   2.608  -6.168  1.00  0.00     0.245 C 
ATOM     30  O   UNL     1      -8.982   3.389  -5.412  1.00  0.00    -0.273 OA
ATOM     31  H   UNL     1      -8.529   1.003  -7.458  1.00  0.00     0.164 HD
BRANCH  29  32
ATOM     32  C   UNL     1      -6.867   2.493  -6.194  1.00  0.00     0.200 C 
BRANCH  32  33
ATOM     33  N   UNL     1      -6.422   1.981  -4.892  1.00  0.00    -0.340 N 
ATOM     34  C   UNL     1      -5.343   2.537  -4.236  1.00  0.00     0.243 CG0
ATOM     35  O   UNL     1      -4.671   3.437  -4.736  1.00  0.00    -0.273 OA
ATOM     36  H   UNL     1      -6.937   1.219  -4.469  1.00  0.00     0.164 HD
ATOM     37  G   UNL     1      -4.901   1.817  -2.952  1.00  0.00     0.000 G0
ENDBRANCH  32  33
BRANCH  32  38
ATOM     38  C   UNL     1      -6.386   1.626  -7.380  1.00  0.00     0.143 C 
ATOM     39  C   UNL     1      -4.879   1.667  -7.610  1.00  0.00     0.041 C 
BRANCH  38  40
ATOM     40  O   UNL     1      -6.791   0.257  -7.187  1.00  0.00    -0.391 OA
ATOM     41  H   UNL     1      -6.778  -0.165  -8.066  1.00  0.00     0.211 HD
ENDBRANCH  38  40
ENDBRANCH  32  38
ENDBRANCH  29  32
ENDBRANCH  27  28
BRANCH  27  42
ATOM     42  C   UNL     1     -11.067   1.219  -8.362  1.00  0.00     0.015 C 
ATOM     43  C   UNL     1     -12.491   1.696  -8.670  1.00  0.00     0.010 C 
ATOM     44  C   UNL     1     -10.107   1.667  -9.469  1.00  0.00     0.010 C 
ENDBRANCH  27  42
ENDBRANCH   3  27
TORSDOF 5
ENDMDL
MODEL 45
REMARK VINA RESULT:    -5.532      3.904      7.421
REMARK INTER + INTRA:         -12.092
REMARK INTER:                  -9.585
REMARK INTRA:                  -2.507
REMARK UNBOUND:                -2.194
REMARK SMILES CC[C@H](C)[C@H]1NC(=O)c2coc(n2)[C@H](C(C)C)NC(=O)[C@H]([C@@H](C)O)NC(=O)[C@H](C)NC(=O)c2csc1n2
REMARK SMILES IDX 11 1 13 2 12 3 9 4 10 5 7 6 6 7 8 8 5 10 36 11 35 12 34 13
REMARK SMILES IDX 37 14 33 15 31 16 32 17 30 18 28 20 29 21 3 23 4 24 2 25
REMARK SMILES IDX 1 26 14 27 18 28 19 29 20 30 21 32 25 33 26 34 27 35 22 38
REMARK SMILES IDX 23 39 24 40 15 42 16 43 17 44
REMARK H PARENT 6 9 30 19 18 31 25 36 24 41
REMARK Flexibility Score:   94.900
ROOT
ATOM      1  O   UNL     1     -16.625  -1.523  -8.110  1.00  0.00    -0.446 OA
ATOM      2  N   UNL     1     -16.876  -0.300  -6.233  1.00  0.00    -0.207 NA
ATOM      3  C   UNL     1     -17.466  -1.072  -7.128  1.00  0.00     0.217 A 
ATOM      4  C   UNL     1     -15.553  -0.261  -6.639  1.00  0.00     0.167 A 
ATOM      5  C   UNL     1     -15.407  -1.008  -7.782  1.00  0.00     0.231 A 
ENDROOT
BRANCH   4   6
ATOM      6  C   UNL     1     -14.531   0.498  -5.940  1.00  0.00     0.273 C 
ATOM      7  N   UNL     1     -14.221  -0.062  -4.726  1.00  0.00    -0.341 N 
ATOM      8  O   UNL     1     -14.031   1.526  -6.379  1.00  0.00    -0.267 OA
ATOM      9  H   UNL     1     -14.783  -0.863  -4.454  1.00  0.00     0.164 HD
BRANCH   7  10
ATOM     10  C   UNL     1     -13.423   0.614  -3.722  1.00  0.00     0.145 C 
BRANCH  10  11
ATOM     11  C   UNL     1     -14.244   0.668  -2.442  1.00  0.00     0.116 A 
ATOM     12  S   UNL     1     -13.535   0.176  -0.950  1.00  0.00    -0.124 S 
ATOM     13  C   UNL     1     -14.988   0.564  -0.139  1.00  0.00     0.101 A 
ATOM     14  N   UNL     1     -15.496   1.088  -2.361  1.00  0.00    -0.234 NA
ATOM     15  C   UNL     1     -15.926   1.047  -1.032  1.00  0.00     0.139 A 
BRANCH  15  16
ATOM     16  C   UNL     1     -17.266   1.492  -0.642  1.00  0.00     0.271 C 
ATOM     17  O   UNL     1     -17.611   1.614   0.528  1.00  0.00    -0.267 OA
ATOM     18  N   UNL     1     -18.091   1.760  -1.714  1.00  0.00    -0.339 N 
ATOM     19  H   UNL     1     -17.724   1.513  -2.630  1.00  0.00     0.164 HD
BRANCH  18  20
ATOM     20  C   UNL     1     -19.480   2.150  -1.518  1.00  0.00     0.168 CG0
ATOM     21  C   UNL     1     -19.677   3.648  -1.755  1.00  0.00     0.041 C 
ATOM     22  G   UNL     1     -20.446   1.396  -2.447  1.00  0.00     0.000 G0
ENDBRANCH  18  20
ENDBRANCH  15  16
ENDBRANCH  10  11
BRANCH  10  23
ATOM     23  C   UNL     1     -12.045  -0.066  -3.513  1.00  0.00     0.015 C 
ATOM     24  C   UNL     1     -11.971  -1.486  -4.098  1.00  0.00     0.010 C 
BRANCH  23  25
ATOM     25  C   UNL     1     -10.874   0.766  -4.084  1.00  0.00     0.002 C 
ATOM     26  C   UNL     1     -10.798   0.763  -5.605  1.00  0.00     0.004 C 
ENDBRANCH  23  25
ENDBRANCH  10  23
ENDBRANCH   7  10
ENDBRANCH   4   6
BRANCH   3  27
ATOM     27  C   UNL     1     -18.924  -1.438  -7.189  1.00  0.00     0.171 C 
BRANCH  27  28
ATOM     28  N   UNL     1     -19.684  -0.342  -6.598  1.00  0.00    -0.342 N 
ATOM     29  C   UNL     1     -20.256  -0.419  -5.347  1.00  0.00     0.245 C 
ATOM     30  O   UNL     1     -20.154  -1.413  -4.629  1.00  0.00    -0.273 OA
ATOM     31  H   UNL     1     -19.714   0.553  -7.084  1.00  0.00     0.164 HD
BRANCH  29  32
ATOM     32  C   UNL     1     -20.909   0.884  -4.839  1.00  0.00     0.200 C 
BRANCH  32  33
ATOM     33  N   UNL     1     -20.053   1.449  -3.789  1.00  0.00    -0.340 N 
ATOM     34  C   UNL     1     -20.424   1.404  -2.461  1.00  0.00     0.243 CG0
ATOM     35  O   UNL     1     -21.510   0.949  -2.105  1.00  0.00    -0.273 OA
ATOM     36  H   UNL     1     -19.165   1.858  -4.054  1.00  0.00     0.164 HD
ATOM     37  G   UNL     1     -19.503   2.153  -1.485  1.00  0.00     0.000 G0
ENDBRANCH  32  33
BRANCH  32  38
ATOM     38  C   UNL     1     -21.174   1.873  -5.998  1.00  0.00     0.143 C 
ATOM     39  C   UNL     1     -22.117   3.015  -5.638  1.00  0.00     0.041 C 
BRANCH  38  40
ATOM     40  O   UNL     1     -19.929   2.425  -6.469  1.00  0.00    -0.391 OA
ATOM     41  H   UNL     1     -19.371   2.566  -5.681  1.00  0.00     0.211 HD
ENDBRANCH  38  40
ENDBRANCH  32  38
ENDBRANCH  29  32
ENDBRANCH  27  28
BRANCH  27  42
ATOM     42  C   UNL     1     -19.498  -1.850  -8.567  1.00  0.00     0.015 C 
ATOM     43  C   UNL     1     -20.469  -3.037  -8.550  1.00  0.00     0.010 C 
ATOM     44  C   UNL     1     -20.124  -0.663  -9.306  1.00  0.00     0.010 C 
ENDBRANCH  27  42
ENDBRANCH   3  27
TORSDOF 5
ENDMDL
MODEL 46
REMARK VINA RESULT:    -5.344      4.149      8.437
REMARK INTER + INTRA:         -11.755
REMARK INTER:                 -10.889
REMARK INTRA:                  -0.866
REMARK UNBOUND:                -2.194
REMARK SMILES CC[C@H](C)[C@H]1NC(=O)c2coc(n2)[C@H](C(C)C)NC(=O)[C@H]([C@@H](C)O)NC(=O)[C@H](C)NC(=O)c2csc1n2
REMARK SMILES IDX 11 1 13 2 12 3 9 4 10 5 7 6 6 7 8 8 5 10 36 11 35 12 34 13
REMARK SMILES IDX 37 14 33 15 31 16 32 17 30 18 28 20 29 21 3 23 4 24 2 25
REMARK SMILES IDX 1 26 14 27 18 28 19 29 20 30 21 32 25 33 26 34 27 35 22 38
REMARK SMILES IDX 23 39 24 40 15 42 16 43 17 44
REMARK H PARENT 6 9 30 19 18 31 25 36 24 41
REMARK Flexibility Score:   94.900
ROOT
ATOM      1  O   UNL     1      -3.158   1.024  -1.654  1.00  0.00    -0.446 OA
ATOM      2  N   UNL     1      -4.769   2.414  -2.397  1.00  0.00    -0.207 NA
ATOM      3  C   UNL     1      -3.629   1.807  -2.674  1.00  0.00     0.217 A 
ATOM      4  C   UNL     1      -5.082   1.982  -1.120  1.00  0.00     0.167 A 
ATOM      5  C   UNL     1      -4.098   1.135  -0.674  1.00  0.00     0.231 A 
ENDROOT
BRANCH   4   6
ATOM      6  C   UNL     1      -6.268   2.419  -0.403  1.00  0.00     0.273 C 
ATOM      7  N   UNL     1      -7.026   1.358   0.023  1.00  0.00    -0.341 N 
ATOM      8  O   UNL     1      -6.558   3.596  -0.228  1.00  0.00    -0.267 OA
ATOM      9  H   UNL     1      -6.707   0.440  -0.276  1.00  0.00     0.164 HD
BRANCH   7  10
ATOM     10  C   UNL     1      -8.372   1.503   0.541  1.00  0.00     0.145 C 
BRANCH  10  11
ATOM     11  C   UNL     1      -9.331   1.410  -0.636  1.00  0.00     0.116 A 
ATOM     12  S   UNL     1     -10.840   2.241  -0.578  1.00  0.00    -0.124 S 
ATOM     13  C   UNL     1     -11.202   1.679  -2.151  1.00  0.00     0.101 A 
ATOM     14  N   UNL     1      -9.100   0.736  -1.751  1.00  0.00    -0.234 NA
ATOM     15  C   UNL     1     -10.168   0.901  -2.636  1.00  0.00     0.139 A 
BRANCH  15  16
ATOM     16  C   UNL     1     -10.165   0.293  -3.968  1.00  0.00     0.271 C 
ATOM     17  O   UNL     1     -10.584  -0.839  -4.184  1.00  0.00    -0.267 OA
ATOM     18  N   UNL     1      -9.649   1.117  -4.947  1.00  0.00    -0.339 N 
ATOM     19  H   UNL     1      -9.234   1.986  -4.623  1.00  0.00     0.164 HD
BRANCH  18  20
ATOM     20  C   UNL     1      -9.505   0.656  -6.321  1.00  0.00     0.168 CG0
ATOM     21  C   UNL     1     -10.388   1.463  -7.275  1.00  0.00     0.041 C 
ATOM     22  G   UNL     1      -8.057   0.749  -6.830  1.00  0.00     0.000 G0
ENDBRANCH  18  20
ENDBRANCH  15  16
ENDBRANCH  10  11
BRANCH  10  23
ATOM     23  C   UNL     1      -8.690   0.463   1.647  1.00  0.00     0.015 C 
ATOM     24  C   UNL     1      -7.895  -0.845   1.499  1.00  0.00     0.010 C 
BRANCH  23  25
ATOM     25  C   UNL     1      -8.468   1.017   3.073  1.00  0.00     0.002 C 
ATOM     26  C   UNL     1      -9.744   1.140   3.894  1.00  0.00     0.004 C 
ENDBRANCH  23  25
ENDBRANCH  10  23
ENDBRANCH   7  10
ENDBRANCH   4   6
BRANCH   3  27
ATOM     27  C   UNL     1      -2.815   1.936  -3.932  1.00  0.00     0.171 C 
BRANCH  27  28
ATOM     28  N   UNL     1      -3.741   2.068  -5.052  1.00  0.00    -0.342 N 
ATOM     29  C   UNL     1      -4.848   1.264  -5.205  1.00  0.00     0.245 C 
ATOM     30  O   UNL     1      -5.147   0.384  -4.399  1.00  0.00    -0.273 OA
ATOM     31  H   UNL     1      -3.622   2.849  -5.697  1.00  0.00     0.164 HD
BRANCH  29  32
ATOM     32  C   UNL     1      -5.778   1.638  -6.378  1.00  0.00     0.200 C 
BRANCH  32  33
ATOM     33  N   UNL     1      -7.163   1.371  -5.972  1.00  0.00    -0.340 N 
ATOM     34  C   UNL     1      -8.054   0.756  -6.827  1.00  0.00     0.243 CG0
ATOM     35  O   UNL     1      -7.751   0.463  -7.981  1.00  0.00    -0.273 OA
ATOM     36  H   UNL     1      -7.452   1.629  -5.036  1.00  0.00     0.164 HD
ATOM     37  G   UNL     1      -9.504   0.663  -6.324  1.00  0.00     0.000 G0
ENDBRANCH  32  33
BRANCH  32  38
ATOM     38  C   UNL     1      -5.554   3.098  -6.834  1.00  0.00     0.143 C 
ATOM     39  C   UNL     1      -5.784   3.328  -8.323  1.00  0.00     0.041 C 
BRANCH  38  40
ATOM     40  O   UNL     1      -6.410   3.984  -6.087  1.00  0.00    -0.391 OA
ATOM     41  H   UNL     1      -5.843   4.436  -5.434  1.00  0.00     0.211 HD
ENDBRANCH  38  40
ENDBRANCH  32  38
ENDBRANCH  29  32
ENDBRANCH  27  28
BRANCH  27  42
ATOM     42  C   UNL     1      -1.722   3.033  -3.964  1.00  0.00     0.015 C 
ATOM     43  C   UNL     1      -0.826   3.110  -2.723  1.00  0.00     0.010 C 
ATOM     44  C   UNL     1      -0.867   2.952  -5.233  1.00  0.00     0.010 C 
ENDBRANCH  27  42
ENDBRANCH   3  27
TORSDOF 5
ENDMDL
MODEL 47
REMARK VINA RESULT:    -5.339      2.500      7.120
REMARK INTER + INTRA:         -11.746
REMARK INTER:                 -10.745
REMARK INTRA:                  -1.001
REMARK UNBOUND:                -2.194
REMARK SMILES CC[C@H](C)[C@H]1NC(=O)c2coc(n2)[C@H](C(C)C)NC(=O)[C@H]([C@@H](C)O)NC(=O)[C@H](C)NC(=O)c2csc1n2
REMARK SMILES IDX 11 1 13 2 12 3 9 4 10 5 7 6 6 7 8 8 5 10 36 11 35 12 34 13
REMARK SMILES IDX 37 14 33 15 31 16 32 17 30 18 28 20 29 21 3 23 4 24 2 25
REMARK SMILES IDX 1 26 14 27 18 28 19 29 20 30 21 32 25 33 26 34 27 35 22 38
REMARK SMILES IDX 23 39 24 40 15 42 16 43 17 44
REMARK H PARENT 6 9 30 19 18 31 25 36 24 41
REMARK Flexibility Score:   94.900
ROOT
ATOM      1  O   UNL     1     -11.439   1.868  -1.487  1.00  0.00    -0.446 OA
ATOM      2  N   UNL     1     -12.558   0.706  -3.061  1.00  0.00    -0.207 NA
ATOM      3  C   UNL     1     -11.385   0.956  -2.507  1.00  0.00     0.217 A 
ATOM      4  C   UNL     1     -13.447   1.485  -2.341  1.00  0.00     0.167 A 
ATOM      5  C   UNL     1     -12.759   2.189  -1.383  1.00  0.00     0.231 A 
ENDROOT
BRANCH   4   6
ATOM      6  C   UNL     1     -14.871   1.532  -2.623  1.00  0.00     0.273 C 
ATOM      7  N   UNL     1     -15.382   0.284  -2.878  1.00  0.00    -0.341 N 
ATOM      8  O   UNL     1     -15.522   2.569  -2.653  1.00  0.00    -0.267 OA
ATOM      9  H   UNL     1     -14.703  -0.472  -2.908  1.00  0.00     0.164 HD
BRANCH   7  10
ATOM     10  C   UNL     1     -16.706   0.067  -3.426  1.00  0.00     0.145 C 
BRANCH  10  11
ATOM     11  C   UNL     1     -16.675   0.494  -4.886  1.00  0.00     0.116 A 
ATOM     12  S   UNL     1     -18.098   1.130  -5.621  1.00  0.00    -0.124 S 
ATOM     13  C   UNL     1     -17.235   1.356  -7.079  1.00  0.00     0.101 A 
ATOM     14  N   UNL     1     -15.612   0.433  -5.672  1.00  0.00    -0.234 NA
ATOM     15  C   UNL     1     -15.925   0.944  -6.934  1.00  0.00     0.139 A 
BRANCH  15  16
ATOM     16  C   UNL     1     -14.922   1.034  -7.997  1.00  0.00     0.271 C 
ATOM     17  O   UNL     1     -15.204   0.943  -9.187  1.00  0.00    -0.267 OA
ATOM     18  N   UNL     1     -13.640   1.232  -7.530  1.00  0.00    -0.339 N 
ATOM     19  H   UNL     1     -13.521   1.179  -6.522  1.00  0.00     0.164 HD
BRANCH  18  20
ATOM     20  C   UNL     1     -12.504   1.279  -8.441  1.00  0.00     0.168 CG0
ATOM     21  C   UNL     1     -12.180   2.716  -8.854  1.00  0.00     0.041 C 
ATOM     22  G   UNL     1     -11.231   0.666  -7.834  1.00  0.00     0.000 G0
ENDBRANCH  18  20
ENDBRANCH  15  16
ENDBRANCH  10  11
BRANCH  10  23
ATOM     23  C   UNL     1     -17.181  -1.399  -3.248  1.00  0.00     0.015 C 
ATOM     24  C   UNL     1     -16.378  -2.175  -2.191  1.00  0.00     0.010 C 
BRANCH  23  25
ATOM     25  C   UNL     1     -18.684  -1.503  -2.902  1.00  0.00     0.002 C 
ATOM     26  C   UNL     1     -19.604  -1.416  -4.111  1.00  0.00     0.004 C 
ENDBRANCH  23  25
ENDBRANCH  10  23
ENDBRANCH   7  10
ENDBRANCH   4   6
BRANCH   3  27
ATOM     27  C   UNL     1     -10.051   0.395  -2.916  1.00  0.00     0.171 C 
BRANCH  27  28
ATOM     28  N   UNL     1      -9.685   0.998  -4.193  1.00  0.00    -0.342 N 
ATOM     29  C   UNL     1      -9.372   0.254  -5.309  1.00  0.00     0.245 C 
ATOM     30  O   UNL     1      -9.392  -0.976  -5.315  1.00  0.00    -0.273 OA
ATOM     31  H   UNL     1      -9.758   2.010  -4.296  1.00  0.00     0.164 HD
BRANCH  29  32
ATOM     32  C   UNL     1      -9.137   1.067  -6.599  1.00  0.00     0.200 C 
BRANCH  32  33
ATOM     33  N   UNL     1     -10.441   1.508  -7.110  1.00  0.00    -0.340 N 
ATOM     34  C   UNL     1     -11.240   0.666  -7.856  1.00  0.00     0.243 CG0
ATOM     35  O   UNL     1     -10.872  -0.461  -8.179  1.00  0.00    -0.273 OA
ATOM     36  H   UNL     1     -10.759   2.443  -6.885  1.00  0.00     0.164 HD
ATOM     37  G   UNL     1     -12.513   1.299  -8.441  1.00  0.00     0.000 G0
ENDBRANCH  32  33
BRANCH  32  38
ATOM     38  C   UNL     1      -8.157   2.238  -6.359  1.00  0.00     0.143 C 
ATOM     39  C   UNL     1      -7.057   1.932  -5.349  1.00  0.00     0.041 C 
BRANCH  38  40
ATOM     40  O   UNL     1      -7.550   2.636  -7.604  1.00  0.00    -0.391 OA
ATOM     41  H   UNL     1      -6.873   3.303  -7.384  1.00  0.00     0.211 HD
ENDBRANCH  38  40
ENDBRANCH  32  38
ENDBRANCH  29  32
ENDBRANCH  27  28
BRANCH  27  42
ATOM     42  C   UNL     1      -8.895   0.486  -1.891  1.00  0.00     0.015 C 
ATOM     43  C   UNL     1      -8.238   1.865  -1.756  1.00  0.00     0.010 C 
ATOM     44  C   UNL     1      -9.307  -0.044  -0.514  1.00  0.00     0.010 C 
ENDBRANCH  27  42
ENDBRANCH   3  27
TORSDOF 5
ENDMDL
MODEL 48
REMARK VINA RESULT:    -5.327      3.167      7.106
REMARK INTER + INTRA:         -11.725
REMARK INTER:                 -10.685
REMARK INTRA:                  -1.040
REMARK UNBOUND:                -2.194
REMARK SMILES CC[C@H](C)[C@H]1NC(=O)c2coc(n2)[C@H](C(C)C)NC(=O)[C@H]([C@@H](C)O)NC(=O)[C@H](C)NC(=O)c2csc1n2
REMARK SMILES IDX 11 1 13 2 12 3 9 4 10 5 7 6 6 7 8 8 5 10 36 11 35 12 34 13
REMARK SMILES IDX 37 14 33 15 31 16 32 17 30 18 28 20 29 21 3 23 4 24 2 25
REMARK SMILES IDX 1 26 14 27 18 28 19 29 20 30 21 32 25 33 26 34 27 35 22 38
REMARK SMILES IDX 23 39 24 40 15 42 16 43 17 44
REMARK H PARENT 6 9 30 19 18 31 25 36 24 41
REMARK Flexibility Score:   94.900
ROOT
ATOM      1  O   UNL     1      -9.826  -0.230   0.474  1.00  0.00    -0.446 OA
ATOM      2  N   UNL     1     -10.837   1.359  -0.765  1.00  0.00    -0.207 NA
ATOM      3  C   UNL     1      -9.870   0.460  -0.708  1.00  0.00     0.217 A 
ATOM      4  C   UNL     1     -11.489   1.233   0.449  1.00  0.00     0.167 A 
ATOM      5  C   UNL     1     -10.869   0.264   1.199  1.00  0.00     0.231 A 
ENDROOT
BRANCH   4   6
ATOM      6  C   UNL     1     -12.627   2.053   0.826  1.00  0.00     0.273 C 
ATOM      7  N   UNL     1     -13.789   1.324   0.866  1.00  0.00    -0.341 N 
ATOM      8  O   UNL     1     -12.552   3.254   1.055  1.00  0.00    -0.267 OA
ATOM      9  H   UNL     1     -13.714   0.358   0.562  1.00  0.00     0.164 HD
BRANCH   7  10
ATOM     10  C   UNL     1     -15.102   1.931   0.970  1.00  0.00     0.145 C 
BRANCH  10  11
ATOM     11  C   UNL     1     -15.889   1.541  -0.273  1.00  0.00     0.116 A 
ATOM     12  S   UNL     1     -17.601   1.738  -0.296  1.00  0.00    -0.124 S 
ATOM     13  C   UNL     1     -17.638   1.158  -1.904  1.00  0.00     0.101 A 
ATOM     14  N   UNL     1     -15.360   1.058  -1.385  1.00  0.00    -0.234 NA
ATOM     15  C   UNL     1     -16.362   0.851  -2.336  1.00  0.00     0.139 A 
BRANCH  15  16
ATOM     16  C   UNL     1     -16.057   0.355  -3.680  1.00  0.00     0.271 C 
ATOM     17  O   UNL     1     -16.901  -0.156  -4.408  1.00  0.00    -0.267 OA
ATOM     18  N   UNL     1     -14.737   0.522  -4.042  1.00  0.00    -0.339 N 
ATOM     19  H   UNL     1     -14.114   0.855  -3.311  1.00  0.00     0.164 HD
BRANCH  18  20
ATOM     20  C   UNL     1     -14.236   0.027  -5.317  1.00  0.00     0.168 CG0
ATOM     21  C   UNL     1     -14.411   1.068  -6.425  1.00  0.00     0.041 C 
ATOM     22  G   UNL     1     -12.748  -0.356  -5.263  1.00  0.00     0.000 G0
ENDBRANCH  18  20
ENDBRANCH  15  16
ENDBRANCH  10  11
BRANCH  10  23
ATOM     23  C   UNL     1     -15.830   1.533   2.281  1.00  0.00     0.015 C 
ATOM     24  C   UNL     1     -14.872   1.075   3.394  1.00  0.00     0.010 C 
BRANCH  23  25
ATOM     25  C   UNL     1     -16.727   2.663   2.834  1.00  0.00     0.002 C 
ATOM     26  C   UNL     1     -16.994   2.564   4.329  1.00  0.00     0.004 C 
ENDBRANCH  23  25
ENDBRANCH  10  23
ENDBRANCH   7  10
ENDBRANCH   4   6
BRANCH   3  27
ATOM     27  C   UNL     1      -8.828   0.181  -1.756  1.00  0.00     0.171 C 
BRANCH  27  28
ATOM     28  N   UNL     1      -9.518  -0.042  -3.022  1.00  0.00    -0.342 N 
ATOM     29  C   UNL     1      -9.790   0.972  -3.913  1.00  0.00     0.245 C 
ATOM     30  O   UNL     1      -9.458   2.139  -3.714  1.00  0.00    -0.273 OA
ATOM     31  H   UNL     1      -9.721  -0.999  -3.308  1.00  0.00     0.164 HD
BRANCH  29  32
ATOM     32  C   UNL     1     -10.409   0.523  -5.254  1.00  0.00     0.200 C 
BRANCH  32  33
ATOM     33  N   UNL     1     -11.861   0.730  -5.183  1.00  0.00    -0.340 N 
ATOM     34  C   UNL     1     -12.739  -0.333  -5.245  1.00  0.00     0.243 CG0
ATOM     35  O   UNL     1     -12.353  -1.486  -5.425  1.00  0.00    -0.273 OA
ATOM     36  H   UNL     1     -12.211   1.673  -5.065  1.00  0.00     0.164 HD
ATOM     37  G   UNL     1     -14.230   0.038  -5.298  1.00  0.00     0.000 G0
ENDBRANCH  32  33
BRANCH  32  38
ATOM     38  C   UNL     1      -9.755   1.251  -6.451  1.00  0.00     0.143 C 
ATOM     39  C   UNL     1      -9.138   0.317  -7.486  1.00  0.00     0.041 C 
BRANCH  38  40
ATOM     40  O   UNL     1     -10.722   2.097  -7.102  1.00  0.00    -0.391 OA
ATOM     41  H   UNL     1     -10.242   2.893  -7.400  1.00  0.00     0.211 HD
ENDBRANCH  38  40
ENDBRANCH  32  38
ENDBRANCH  29  32
ENDBRANCH  27  28
BRANCH  27  42
ATOM     42  C   UNL     1      -7.676   1.204  -1.907  1.00  0.00     0.015 C 
ATOM     43  C   UNL     1      -7.182   1.841  -0.603  1.00  0.00     0.010 C 
ATOM     44  C   UNL     1      -6.496   0.625  -2.696  1.00  0.00     0.010 C 
ENDBRANCH  27  42
ENDBRANCH   3  27
TORSDOF 5
ENDMDL
MODEL 49
REMARK VINA RESULT:    -5.292      3.651      8.208
REMARK INTER + INTRA:         -11.662
REMARK INTER:                 -10.459
REMARK INTRA:                  -1.202
REMARK UNBOUND:                -2.194
REMARK SMILES CC[C@H](C)[C@H]1NC(=O)c2coc(n2)[C@H](C(C)C)NC(=O)[C@H]([C@@H](C)O)NC(=O)[C@H](C)NC(=O)c2csc1n2
REMARK SMILES IDX 11 1 13 2 12 3 9 4 10 5 7 6 6 7 8 8 5 10 36 11 35 12 34 13
REMARK SMILES IDX 37 14 33 15 31 16 32 17 30 18 28 20 29 21 3 23 4 24 2 25
REMARK SMILES IDX 1 26 14 27 18 28 19 29 20 30 21 32 25 33 26 34 27 35 22 38
REMARK SMILES IDX 23 39 24 40 15 42 16 43 17 44
REMARK H PARENT 6 9 30 19 18 31 25 36 24 41
REMARK Flexibility Score:   94.900
ROOT
ATOM      1  O   UNL     1      -9.003  -0.364  -3.149  1.00  0.00    -0.446 OA
ATOM      2  N   UNL     1     -11.012   0.623  -2.883  1.00  0.00    -0.207 NA
ATOM      3  C   UNL     1      -9.711   0.706  -2.669  1.00  0.00     0.217 A 
ATOM      4  C   UNL     1     -11.168  -0.568  -3.572  1.00  0.00     0.167 A 
ATOM      5  C   UNL     1      -9.940  -1.163  -3.731  1.00  0.00     0.231 A 
ENDROOT
BRANCH   4   6
ATOM      6  C   UNL     1     -12.460  -1.071  -4.005  1.00  0.00     0.273 C 
ATOM      7  N   UNL     1     -13.215  -0.093  -4.600  1.00  0.00    -0.341 N 
ATOM      8  O   UNL     1     -12.830  -2.226  -3.830  1.00  0.00    -0.267 OA
ATOM      9  H   UNL     1     -12.813   0.840  -4.591  1.00  0.00     0.164 HD
BRANCH   7  10
ATOM     10  C   UNL     1     -14.624  -0.252  -4.899  1.00  0.00     0.145 C 
BRANCH  10  11
ATOM     11  C   UNL     1     -15.398  -0.014  -3.610  1.00  0.00     0.116 A 
ATOM     12  S   UNL     1     -16.876  -0.856  -3.333  1.00  0.00    -0.124 S 
ATOM     13  C   UNL     1     -17.013  -0.097  -1.807  1.00  0.00     0.101 A 
ATOM     14  N   UNL     1     -15.020   0.800  -2.639  1.00  0.00    -0.234 NA
ATOM     15  C   UNL     1     -15.939   0.744  -1.588  1.00  0.00     0.139 A 
BRANCH  15  16
ATOM     16  C   UNL     1     -15.751   1.518  -0.359  1.00  0.00     0.271 C 
ATOM     17  O   UNL     1     -16.578   2.325   0.051  1.00  0.00    -0.267 OA
ATOM     18  N   UNL     1     -14.562   1.249   0.285  1.00  0.00    -0.339 N 
ATOM     19  H   UNL     1     -13.913   0.645  -0.213  1.00  0.00     0.164 HD
BRANCH  18  20
ATOM     20  C   UNL     1     -14.174   1.975   1.487  1.00  0.00     0.168 CG0
ATOM     21  C   UNL     1     -14.421   1.139   2.745  1.00  0.00     0.041 C 
ATOM     22  G   UNL     1     -12.693   2.387   1.481  1.00  0.00     0.000 G0
ENDBRANCH  18  20
ENDBRANCH  15  16
ENDBRANCH  10  11
BRANCH  10  23
ATOM     23  C   UNL     1     -15.089   0.680  -6.049  1.00  0.00     0.015 C 
ATOM     24  C   UNL     1     -13.943   1.494  -6.673  1.00  0.00     0.010 C 
BRANCH  23  25
ATOM     25  C   UNL     1     -15.826  -0.080  -7.175  1.00  0.00     0.002 C 
ATOM     26  C   UNL     1     -15.371   0.298  -8.577  1.00  0.00     0.004 C 
ENDBRANCH  23  25
ENDBRANCH  10  23
ENDBRANCH   7  10
ENDBRANCH   4   6
BRANCH   3  27
ATOM     27  C   UNL     1      -8.981   1.794  -1.932  1.00  0.00     0.171 C 
BRANCH  27  28
ATOM     28  N   UNL     1      -9.691   2.040  -0.681  1.00  0.00    -0.342 N 
ATOM     29  C   UNL     1      -9.617   1.189   0.399  1.00  0.00     0.245 C 
ATOM     30  O   UNL     1      -8.935   0.165   0.395  1.00  0.00    -0.273 OA
ATOM     31  H   UNL     1     -10.184   2.924  -0.562  1.00  0.00     0.164 HD
BRANCH  29  32
ATOM     32  C   UNL     1     -10.331   1.680   1.676  1.00  0.00     0.200 C 
BRANCH  32  33
ATOM     33  N   UNL     1     -11.764   1.388   1.545  1.00  0.00    -0.340 N 
ATOM     34  C   UNL     1     -12.698   2.400   1.476  1.00  0.00     0.243 CG0
ATOM     35  O   UNL     1     -12.383   3.583   1.583  1.00  0.00    -0.273 OA
ATOM     36  H   UNL     1     -12.057   0.420   1.485  1.00  0.00     0.164 HD
ATOM     37  G   UNL     1     -14.168   1.952   1.479  1.00  0.00     0.000 G0
ENDBRANCH  32  33
BRANCH  32  38
ATOM     38  C   UNL     1      -9.703   1.064   2.948  1.00  0.00     0.143 C 
ATOM     39  C   UNL     1      -8.506   1.837   3.488  1.00  0.00     0.041 C 
BRANCH  38  40
ATOM     40  O   UNL     1     -10.697   0.956   3.985  1.00  0.00    -0.391 OA
ATOM     41  H   UNL     1     -10.937   1.868   4.238  1.00  0.00     0.211 HD
ENDBRANCH  38  40
ENDBRANCH  32  38
ENDBRANCH  29  32
ENDBRANCH  27  28
BRANCH  27  42
ATOM     42  C   UNL     1      -7.463   1.602  -1.697  1.00  0.00     0.015 C 
ATOM     43  C   UNL     1      -6.594   1.598  -2.960  1.00  0.00     0.010 C 
ATOM     44  C   UNL     1      -6.910   2.603  -0.676  1.00  0.00     0.010 C 
ENDBRANCH  27  42
ENDBRANCH   3  27
TORSDOF 5
ENDMDL
MODEL 50
REMARK VINA RESULT:    -5.177      3.513      8.165
REMARK INTER + INTRA:         -11.457
REMARK INTER:                 -10.714
REMARK INTRA:                  -0.743
REMARK UNBOUND:                -2.194
REMARK SMILES CC[C@H](C)[C@H]1NC(=O)c2coc(n2)[C@H](C(C)C)NC(=O)[C@H]([C@@H](C)O)NC(=O)[C@H](C)NC(=O)c2csc1n2
REMARK SMILES IDX 11 1 13 2 12 3 9 4 10 5 7 6 6 7 8 8 5 10 36 11 35 12 34 13
REMARK SMILES IDX 37 14 33 15 31 16 32 17 30 18 28 20 29 21 3 23 4 24 2 25
REMARK SMILES IDX 1 26 14 27 18 28 19 29 20 30 21 32 25 33 26 34 27 35 22 38
REMARK SMILES IDX 23 39 24 40 15 42 16 43 17 44
REMARK H PARENT 6 9 30 19 18 31 25 36 24 41
REMARK Flexibility Score:   94.900
ROOT
ATOM      1  O   UNL     1      -8.700   0.394   2.282  1.00  0.00    -0.446 OA
ATOM      2  N   UNL     1      -8.878   1.694   0.449  1.00  0.00    -0.207 NA
ATOM      3  C   UNL     1      -8.065   1.168   1.348  1.00  0.00     0.217 A 
ATOM      4  C   UNL     1     -10.128   1.212   0.799  1.00  0.00     0.167 A 
ATOM      5  C   UNL     1     -10.012   0.421   1.916  1.00  0.00     0.231 A 
ENDROOT
BRANCH   4   6
ATOM      6  C   UNL     1     -11.341   1.554   0.077  1.00  0.00     0.273 C 
ATOM      7  N   UNL     1     -12.011   0.436  -0.352  1.00  0.00    -0.341 N 
ATOM      8  O   UNL     1     -11.699   2.705  -0.139  1.00  0.00    -0.267 OA
ATOM      9  H   UNL     1     -11.545  -0.450  -0.180  1.00  0.00     0.164 HD
BRANCH   7  10
ATOM     10  C   UNL     1     -13.107   0.485  -1.300  1.00  0.00     0.145 C 
BRANCH  10  11
ATOM     11  C   UNL     1     -12.517   0.334  -2.694  1.00  0.00     0.116 A 
ATOM     12  S   UNL     1     -13.553   0.387  -4.071  1.00  0.00    -0.124 S 
ATOM     13  C   UNL     1     -12.194   0.202  -5.091  1.00  0.00     0.101 A 
ATOM     14  N   UNL     1     -11.231   0.174  -2.960  1.00  0.00    -0.234 NA
ATOM     15  C   UNL     1     -11.036   0.114  -4.343  1.00  0.00     0.139 A 
BRANCH  15  16
ATOM     16  C   UNL     1      -9.700  -0.023  -4.926  1.00  0.00     0.271 C 
ATOM     17  O   UNL     1      -9.430  -0.861  -5.779  1.00  0.00    -0.267 OA
ATOM     18  N   UNL     1      -8.785   0.879  -4.425  1.00  0.00    -0.339 N 
ATOM     19  H   UNL     1      -9.103   1.446  -3.644  1.00  0.00     0.164 HD
BRANCH  18  20
ATOM     20  C   UNL     1      -7.389   0.847  -4.840  1.00  0.00     0.168 CG0
ATOM     21  C   UNL     1      -7.029   2.076  -5.677  1.00  0.00     0.041 C 
ATOM     22  G   UNL     1      -6.417   0.786  -3.651  1.00  0.00     0.000 G0
ENDBRANCH  18  20
ENDBRANCH  15  16
ENDBRANCH  10  11
BRANCH  10  23
ATOM     23  C   UNL     1     -14.191  -0.583  -0.997  1.00  0.00     0.015 C 
ATOM     24  C   UNL     1     -14.169  -1.078   0.459  1.00  0.00     0.010 C 
BRANCH  23  25
ATOM     25  C   UNL     1     -15.619  -0.098  -1.333  1.00  0.00     0.002 C 
ATOM     26  C   UNL     1     -15.732   1.408  -1.523  1.00  0.00     0.004 C 
ENDBRANCH  23  25
ENDBRANCH  10  23
ENDBRANCH   7  10
ENDBRANCH   4   6
BRANCH   3  27
ATOM     27  C   UNL     1      -6.581   1.380   1.462  1.00  0.00     0.171 C 
BRANCH  27  28
ATOM     28  N   UNL     1      -6.012   1.289   0.121  1.00  0.00    -0.342 N 
ATOM     29  C   UNL     1      -5.832   2.386  -0.691  1.00  0.00     0.245 C 
ATOM     30  O   UNL     1      -6.123   3.528  -0.340  1.00  0.00    -0.273 OA
ATOM     31  H   UNL     1      -5.642   0.392  -0.194  1.00  0.00     0.164 HD
BRANCH  29  32
ATOM     32  C   UNL     1      -5.099   2.109  -2.020  1.00  0.00     0.200 C 
BRANCH  32  33
ATOM     33  N   UNL     1      -6.103   2.003  -3.086  1.00  0.00    -0.340 N 
ATOM     34  C   UNL     1      -6.424   0.785  -3.648  1.00  0.00     0.243 CG0
ATOM     35  O   UNL     1      -5.844  -0.251  -3.329  1.00  0.00    -0.273 OA
ATOM     36  H   UNL     1      -6.576   2.845  -3.392  1.00  0.00     0.164 HD
ATOM     37  G   UNL     1      -7.387   0.836  -4.845  1.00  0.00     0.000 G0
ENDBRANCH  32  33
BRANCH  32  38
ATOM     38  C   UNL     1      -4.025   3.184  -2.308  1.00  0.00     0.143 C 
ATOM     39  C   UNL     1      -2.592   2.674  -2.210  1.00  0.00     0.041 C 
BRANCH  38  40
ATOM     40  O   UNL     1      -4.232   3.749  -3.617  1.00  0.00    -0.391 OA
ATOM     41  H   UNL     1      -5.195   3.871  -3.720  1.00  0.00     0.211 HD
ENDBRANCH  38  40
ENDBRANCH  32  38
ENDBRANCH  29  32
ENDBRANCH  27  28
BRANCH  27  42
ATOM     42  C   UNL     1      -6.096   2.653   2.200  1.00  0.00     0.015 C 
ATOM     43  C   UNL     1      -6.830   2.979   3.506  1.00  0.00     0.010 C 
ATOM     44  C   UNL     1      -4.582   2.640   2.431  1.00  0.00     0.010 C 
ENDBRANCH  27  42
ENDBRANCH   3  27
TORSDOF 5
ENDMDL
