MODEL 1
REMARK VINA RESULT:    -7.957      0.000      0.000
REMARK INTER + INTRA:         -25.211
REMARK INTER:                 -19.820
REMARK INTRA:                  -5.391
REMARK UNBOUND:                -5.391
REMARK SMILES CCCCCCC[C@H](N)[C@H](O)C(=O)N[C@H](C)C(=O)N(C)[C@H](CC(C)C)C(=O)N[C@@H](Cc1ccc(O)cc1)C(=O)N[C@@H](Cc1ccc(O)cc1)C(=O)O
REMARK SMILES IDX 18 1 17 2 15 3 16 4 14 5 12 6 13 7 10 9 11 10 8 12 9 13 7 16
REMARK SMILES IDX 6 17 5 18 4 19 3 20 2 21 1 22 19 23 20 24 21 25 22 26 23 27
REMARK SMILES IDX 24 28 25 29 26 30 27 31 28 32 29 34 30 35 31 36 32 37 37 38
REMARK SMILES IDX 33 39 36 40 34 41 35 42 38 44 39 45 40 46 41 48 42 49 43 50
REMARK SMILES IDX 44 51 49 52 45 53 48 54 46 55 47 56 50 58 51 59 52 60
REMARK H PARENT 14 8 11 11 9 14 9 15 28 33 35 43 40 47 47 57 52 61
ROOT
ATOM      1  O   UNL     1      -7.402   2.425   5.821  1.00  0.00    -0.272 OA
ATOM      2  C   UNL     1      -6.687   1.834   6.644  1.00  0.00     0.245 C 
ENDROOT
BRANCH   2   3
ATOM      3  C   UNL     1      -5.196   1.598   6.294  1.00  0.00     0.168 C 
ATOM      4  C   UNL     1      -4.911   1.987   4.847  1.00  0.00     0.041 C 
BRANCH   3   5
ATOM      5  N   UNL     1      -4.249   2.206   7.215  1.00  0.00    -0.342 N 
ATOM      6  C   UNL     1      -3.451   1.447   8.045  1.00  0.00     0.251 C 
ATOM      7  O   UNL     1      -3.506   0.224   8.102  1.00  0.00    -0.272 OA
ATOM      8  H   UNL     1      -4.139   3.215   7.283  1.00  0.00     0.164 HD
BRANCH   6   9
ATOM      9  C   UNL     1      -2.430   2.292   8.824  1.00  0.00     0.219 C 
BRANCH   9  10
ATOM     10  O   UNL     1      -2.073   1.706  10.082  1.00  0.00    -0.382 OA
ATOM     11  H   UNL     1      -1.869   0.773   9.853  1.00  0.00     0.211 HD
ENDBRANCH   9  10
BRANCH   9  12
ATOM     12  C   UNL     1      -1.164   2.634   7.997  1.00  0.00     0.089 C 
BRANCH  12  13
ATOM     13  N   UNL     1      -1.425   2.289   6.580  1.00  0.00    -0.325 NA
ATOM     14  H   UNL     1      -1.153   1.318   6.415  1.00  0.00     0.119 HD
ATOM     15  H   UNL     1      -0.805   2.845   5.985  1.00  0.00     0.119 HD
ENDBRANCH  12  13
BRANCH  12  16
ATOM     16  C   UNL     1      -0.657   4.092   8.104  1.00  0.00     0.022 C 
BRANCH  16  17
ATOM     17  C   UNL     1       0.383   4.597   7.094  1.00  0.00     0.002 C 
BRANCH  17  18
ATOM     18  C   UNL     1       0.122   5.999   6.548  1.00  0.00     0.000 C 
BRANCH  18  19
ATOM     19  C   UNL     1       0.326   6.127   5.032  1.00  0.00    -0.000 C 
BRANCH  19  20
ATOM     20  C   UNL     1       0.819   7.497   4.556  1.00  0.00    -0.000 C 
BRANCH  20  21
ATOM     21  C   UNL     1       1.250   7.501   3.087  1.00  0.00    -0.003 C 
ATOM     22  C   UNL     1       0.049   7.465   2.156  1.00  0.00     0.004 C 
ENDBRANCH  20  21
ENDBRANCH  19  20
ENDBRANCH  18  19
ENDBRANCH  17  18
ENDBRANCH  16  17
ENDBRANCH  12  16
ENDBRANCH   9  12
ENDBRANCH   6   9
ENDBRANCH   3   5
ENDBRANCH   2   3
BRANCH   2  23
ATOM     23  N   UNL     1      -7.192   1.507   7.897  1.00  0.00    -0.332 N 
ATOM     24  C   UNL     1      -6.864   2.209   9.129  1.00  0.00     0.147 C 
BRANCH  23  25
ATOM     25  C   UNL     1      -8.237   0.456   8.035  1.00  0.00     0.174 C 
BRANCH  25  26
ATOM     26  C   UNL     1      -8.792   0.343   9.474  1.00  0.00     0.038 C 
BRANCH  26  27
ATOM     27  C   UNL     1     -10.257  -0.124   9.626  1.00  0.00    -0.015 C 
ATOM     28  C   UNL     1     -10.393  -1.332  10.552  1.00  0.00     0.007 C 
ATOM     29  C   UNL     1     -11.208   0.991  10.053  1.00  0.00     0.007 C 
ENDBRANCH  26  27
ENDBRANCH  25  26
BRANCH  25  30
ATOM     30  C   UNL     1      -7.724  -0.884   7.459  1.00  0.00     0.243 C 
ATOM     31  O   UNL     1      -8.345  -1.500   6.595  1.00  0.00    -0.273 OA
ATOM     32  N   UNL     1      -6.539  -1.338   7.980  1.00  0.00    -0.342 N 
ATOM     33  H   UNL     1      -6.015  -0.703   8.587  1.00  0.00     0.164 HD
BRANCH  32  34
ATOM     34  C   UNL     1      -5.917  -2.600   7.573  1.00  0.00     0.175 C 
BRANCH  34  35
ATOM     35  C   UNL     1      -4.906  -2.385   6.436  1.00  0.00     0.070 C 
BRANCH  35  36
ATOM     36  C   UNL     1      -5.229  -3.201   5.205  1.00  0.00    -0.045 A 
ATOM     37  C   UNL     1      -6.267  -2.801   4.350  1.00  0.00     0.007 A 
ATOM     38  C   UNL     1      -4.518  -4.372   4.911  1.00  0.00     0.007 A 
ATOM     39  C   UNL     1      -6.582  -3.554   3.219  1.00  0.00     0.046 A 
ATOM     40  C   UNL     1      -4.833  -5.128   3.780  1.00  0.00     0.046 A 
ATOM     41  C   UNL     1      -5.862  -4.711   2.942  1.00  0.00     0.115 A 
BRANCH  41  42
ATOM     42  O   UNL     1      -6.203  -5.420   1.829  1.00  0.00    -0.508 OA
ATOM     43  H   UNL     1      -5.444  -5.418   1.222  1.00  0.00     0.293 HD
ENDBRANCH  41  42
ENDBRANCH  35  36
ENDBRANCH  34  35
BRANCH  34  44
ATOM     44  C   UNL     1      -5.257  -3.232   8.820  1.00  0.00     0.243 C 
ATOM     45  O   UNL     1      -5.755  -4.135   9.486  1.00  0.00    -0.273 OA
ATOM     46  N   UNL     1      -4.096  -2.596   9.208  1.00  0.00    -0.341 N 
ATOM     47  H   UNL     1      -3.785  -1.777   8.691  1.00  0.00     0.164 HD
BRANCH  46  48
ATOM     48  C   UNL     1      -3.331  -2.972  10.398  1.00  0.00     0.196 C 
BRANCH  48  49
ATOM     49  C   UNL     1      -1.881  -3.338  10.040  1.00  0.00     0.072 C 
BRANCH  49  50
ATOM     50  C   UNL     1      -1.347  -2.528   8.880  1.00  0.00    -0.045 A 
ATOM     51  C   UNL     1      -0.558  -1.394   9.123  1.00  0.00     0.007 A 
ATOM     52  C   UNL     1      -1.644  -2.881   7.557  1.00  0.00     0.007 A 
ATOM     53  C   UNL     1      -0.071  -0.632   8.061  1.00  0.00     0.046 A 
ATOM     54  C   UNL     1      -1.157  -2.118   6.494  1.00  0.00     0.046 A 
ATOM     55  C   UNL     1      -0.373  -0.999   6.755  1.00  0.00     0.115 A 
BRANCH  55  56
ATOM     56  O   UNL     1       0.120  -0.227   5.746  1.00  0.00    -0.508 OA
ATOM     57  H   UNL     1       1.086  -0.187   5.835  1.00  0.00     0.293 HD
ENDBRANCH  55  56
ENDBRANCH  49  50
ENDBRANCH  48  49
BRANCH  48  58
ATOM     58  C   UNL     1      -3.336  -1.798  11.387  1.00  0.00     0.326 C 
ATOM     59  O   UNL     1      -2.951  -1.805  12.545  1.00  0.00    -0.250 OA
BRANCH  58  60
ATOM     60  O   UNL     1      -3.821  -0.647  10.857  1.00  0.00    -0.480 OA
ATOM     61  H   UNL     1      -3.317  -0.554  10.019  1.00  0.00     0.296 HD
ENDBRANCH  58  60
ENDBRANCH  48  58
ENDBRANCH  46  48
ENDBRANCH  34  44
ENDBRANCH  32  34
ENDBRANCH  25  30
ENDBRANCH  23  25
ENDBRANCH   2  23
TORSDOF 28
ENDMDL
MODEL 2
REMARK VINA RESULT:    -7.788      2.586      8.444
REMARK INTER + INTRA:         -24.788
REMARK INTER:                 -19.242
REMARK INTRA:                  -5.546
REMARK UNBOUND:                -5.391
REMARK SMILES CCCCCCC[C@H](N)[C@H](O)C(=O)N[C@H](C)C(=O)N(C)[C@H](CC(C)C)C(=O)N[C@@H](Cc1ccc(O)cc1)C(=O)N[C@@H](Cc1ccc(O)cc1)C(=O)O
REMARK SMILES IDX 18 1 17 2 15 3 16 4 14 5 12 6 13 7 10 9 11 10 8 12 9 13 7 16
REMARK SMILES IDX 6 17 5 18 4 19 3 20 2 21 1 22 19 23 20 24 21 25 22 26 23 27
REMARK SMILES IDX 24 28 25 29 26 30 27 31 28 32 29 34 30 35 31 36 32 37 37 38
REMARK SMILES IDX 33 39 36 40 34 41 35 42 38 44 39 45 40 46 41 48 42 49 43 50
REMARK SMILES IDX 44 51 49 52 45 53 48 54 46 55 47 56 50 58 51 59 52 60
REMARK H PARENT 14 8 11 11 9 14 9 15 28 33 35 43 40 47 47 57 52 61
ROOT
ATOM      1  O   UNL     1      -5.448  -2.528  12.053  1.00  0.00    -0.272 OA
ATOM      2  C   UNL     1      -5.034  -1.368  11.916  1.00  0.00     0.245 C 
ENDROOT
BRANCH   2   3
ATOM      3  C   UNL     1      -3.513  -1.141  11.729  1.00  0.00     0.168 C 
ATOM      4  C   UNL     1      -2.813  -1.024  13.079  1.00  0.00     0.041 C 
BRANCH   3   5
ATOM      5  N   UNL     1      -2.854  -2.103  10.859  1.00  0.00    -0.342 N 
ATOM      6  C   UNL     1      -2.413  -1.760   9.598  1.00  0.00     0.251 C 
ATOM      7  O   UNL     1      -2.576  -0.650   9.103  1.00  0.00    -0.272 OA
ATOM      8  H   UNL     1      -2.694  -3.065  11.147  1.00  0.00     0.164 HD
BRANCH   6   9
ATOM      9  C   UNL     1      -1.623  -2.890   8.918  1.00  0.00     0.219 C 
BRANCH   9  10
ATOM     10  O   UNL     1      -0.689  -3.521   9.802  1.00  0.00    -0.382 OA
ATOM     11  H   UNL     1      -0.998  -4.453   9.837  1.00  0.00     0.211 HD
ENDBRANCH   9  10
BRANCH   9  12
ATOM     12  C   UNL     1      -2.533  -3.944   8.234  1.00  0.00     0.089 C 
BRANCH  12  13
ATOM     13  N   UNL     1      -2.406  -5.221   8.973  1.00  0.00    -0.325 NA
ATOM     14  H   UNL     1      -3.260  -5.767   8.850  1.00  0.00     0.119 HD
ATOM     15  H   UNL     1      -2.359  -5.020   9.975  1.00  0.00     0.119 HD
ENDBRANCH  12  13
BRANCH  12  16
ATOM     16  C   UNL     1      -4.025  -3.560   8.090  1.00  0.00     0.022 C 
BRANCH  16  17
ATOM     17  C   UNL     1      -4.680  -3.616   6.703  1.00  0.00     0.002 C 
BRANCH  17  18
ATOM     18  C   UNL     1      -3.919  -4.436   5.663  1.00  0.00     0.000 C 
BRANCH  18  19
ATOM     19  C   UNL     1      -4.238  -4.055   4.212  1.00  0.00    -0.000 C 
BRANCH  19  20
ATOM     20  C   UNL     1      -5.009  -5.113   3.417  1.00  0.00    -0.000 C 
BRANCH  20  21
ATOM     21  C   UNL     1      -6.293  -4.571   2.785  1.00  0.00    -0.003 C 
ATOM     22  C   UNL     1      -6.930  -3.499   3.655  1.00  0.00     0.004 C 
ENDBRANCH  20  21
ENDBRANCH  19  20
ENDBRANCH  18  19
ENDBRANCH  17  18
ENDBRANCH  16  17
ENDBRANCH  12  16
ENDBRANCH   9  12
ENDBRANCH   6   9
ENDBRANCH   3   5
ENDBRANCH   2   3
BRANCH   2  23
ATOM     23  N   UNL     1      -5.936  -0.315  11.809  1.00  0.00    -0.332 N 
ATOM     24  C   UNL     1      -6.507   0.402  12.940  1.00  0.00     0.147 C 
BRANCH  23  25
ATOM     25  C   UNL     1      -6.286   0.242  10.474  1.00  0.00     0.174 C 
BRANCH  25  26
ATOM     26  C   UNL     1      -6.021  -0.752   9.318  1.00  0.00     0.038 C 
BRANCH  26  27
ATOM     27  C   UNL     1      -6.747  -0.481   7.982  1.00  0.00    -0.015 C 
ATOM     28  C   UNL     1      -5.776  -0.178   6.841  1.00  0.00     0.007 C 
ATOM     29  C   UNL     1      -7.717  -1.590   7.581  1.00  0.00     0.007 C 
ENDBRANCH  26  27
ENDBRANCH  25  26
BRANCH  25  30
ATOM     30  C   UNL     1      -5.609   1.618  10.277  1.00  0.00     0.243 C 
ATOM     31  O   UNL     1      -6.232   2.672  10.394  1.00  0.00    -0.273 OA
ATOM     32  N   UNL     1      -4.276   1.583   9.959  1.00  0.00    -0.342 N 
ATOM     33  H   UNL     1      -3.798   0.680  10.019  1.00  0.00     0.164 HD
BRANCH  32  34
ATOM     34  C   UNL     1      -3.479   2.787   9.710  1.00  0.00     0.175 C 
BRANCH  34  35
ATOM     35  C   UNL     1      -2.276   2.868  10.662  1.00  0.00     0.070 C 
BRANCH  35  36
ATOM     36  C   UNL     1      -1.578   4.209  10.611  1.00  0.00    -0.045 A 
ATOM     37  C   UNL     1      -2.322   5.392  10.731  1.00  0.00     0.007 A 
ATOM     38  C   UNL     1      -0.192   4.291  10.420  1.00  0.00     0.007 A 
ATOM     39  C   UNL     1      -1.689   6.634  10.671  1.00  0.00     0.046 A 
ATOM     40  C   UNL     1       0.442   5.534  10.359  1.00  0.00     0.046 A 
ATOM     41  C   UNL     1      -0.313   6.695  10.486  1.00  0.00     0.115 A 
BRANCH  41  42
ATOM     42  O   UNL     1       0.267   7.928  10.430  1.00  0.00    -0.508 OA
ATOM     43  H   UNL     1      -0.282   8.546  10.941  1.00  0.00     0.293 HD
ENDBRANCH  41  42
ENDBRANCH  35  36
ENDBRANCH  34  35
BRANCH  34  44
ATOM     44  C   UNL     1      -3.042   2.775   8.228  1.00  0.00     0.243 C 
ATOM     45  O   UNL     1      -3.755   3.125   7.291  1.00  0.00    -0.273 OA
ATOM     46  N   UNL     1      -1.803   2.204   8.026  1.00  0.00    -0.341 N 
ATOM     47  H   UNL     1      -1.299   1.822   8.822  1.00  0.00     0.164 HD
BRANCH  46  48
ATOM     48  C   UNL     1      -1.208   2.019   6.700  1.00  0.00     0.196 C 
BRANCH  48  49
ATOM     49  C   UNL     1       0.226   2.575   6.648  1.00  0.00     0.072 C 
BRANCH  49  50
ATOM     50  C   UNL     1       0.286   3.977   6.085  1.00  0.00    -0.045 A 
ATOM     51  C   UNL     1       0.922   4.209   4.856  1.00  0.00     0.007 A 
ATOM     52  C   UNL     1      -0.267   5.058   6.782  1.00  0.00     0.007 A 
ATOM     53  C   UNL     1       0.996   5.500   4.333  1.00  0.00     0.046 A 
ATOM     54  C   UNL     1      -0.192   6.351   6.258  1.00  0.00     0.046 A 
ATOM     55  C   UNL     1       0.438   6.561   5.037  1.00  0.00     0.115 A 
BRANCH  55  56
ATOM     56  O   UNL     1       0.533   7.807   4.492  1.00  0.00    -0.508 OA
ATOM     57  H   UNL     1       0.546   8.456   5.213  1.00  0.00     0.293 HD
ENDBRANCH  55  56
ENDBRANCH  49  50
ENDBRANCH  48  49
BRANCH  48  58
ATOM     58  C   UNL     1      -1.192   0.522   6.364  1.00  0.00     0.326 C 
ATOM     59  O   UNL     1      -0.224  -0.221   6.343  1.00  0.00    -0.250 OA
BRANCH  58  60
ATOM     60  O   UNL     1      -2.419   0.018   6.081  1.00  0.00    -0.480 OA
ATOM     61  H   UNL     1      -2.752   0.617   5.377  1.00  0.00     0.296 HD
ENDBRANCH  58  60
ENDBRANCH  48  58
ENDBRANCH  46  48
ENDBRANCH  34  44
ENDBRANCH  32  34
ENDBRANCH  25  30
ENDBRANCH  23  25
ENDBRANCH   2  23
TORSDOF 28
ENDMDL
MODEL 3
REMARK VINA RESULT:    -7.754      2.427      8.037
REMARK INTER + INTRA:         -24.703
REMARK INTER:                 -19.584
REMARK INTRA:                  -5.119
REMARK UNBOUND:                -5.391
REMARK SMILES CCCCCCC[C@H](N)[C@H](O)C(=O)N[C@H](C)C(=O)N(C)[C@H](CC(C)C)C(=O)N[C@@H](Cc1ccc(O)cc1)C(=O)N[C@@H](Cc1ccc(O)cc1)C(=O)O
REMARK SMILES IDX 18 1 17 2 15 3 16 4 14 5 12 6 13 7 10 9 11 10 8 12 9 13 7 16
REMARK SMILES IDX 6 17 5 18 4 19 3 20 2 21 1 22 19 23 20 24 21 25 22 26 23 27
REMARK SMILES IDX 24 28 25 29 26 30 27 31 28 32 29 34 30 35 31 36 32 37 37 38
REMARK SMILES IDX 33 39 36 40 34 41 35 42 38 44 39 45 40 46 41 48 42 49 43 50
REMARK SMILES IDX 44 51 49 52 45 53 48 54 46 55 47 56 50 58 51 59 52 60
REMARK H PARENT 14 8 11 11 9 14 9 15 28 33 35 43 40 47 47 57 52 61
ROOT
ATOM      1  O   UNL     1      -5.610   1.534  11.788  1.00  0.00    -0.272 OA
ATOM      2  C   UNL     1      -4.471   1.268  12.198  1.00  0.00     0.245 C 
ENDROOT
BRANCH   2   3
ATOM      3  C   UNL     1      -4.129  -0.206  12.533  1.00  0.00     0.168 C 
ATOM      4  C   UNL     1      -4.107  -0.427  14.042  1.00  0.00     0.041 C 
BRANCH   3   5
ATOM      5  N   UNL     1      -4.952  -1.194  11.853  1.00  0.00    -0.342 N 
ATOM      6  C   UNL     1      -4.435  -2.395  11.415  1.00  0.00     0.251 C 
ATOM      7  O   UNL     1      -3.253  -2.702  11.525  1.00  0.00    -0.272 OA
ATOM      8  H   UNL     1      -5.941  -1.036  11.673  1.00  0.00     0.164 HD
BRANCH   6   9
ATOM      9  C   UNL     1      -5.513  -3.337  10.856  1.00  0.00     0.219 C 
BRANCH   9  10
ATOM     10  O   UNL     1      -6.246  -4.011  11.885  1.00  0.00    -0.382 OA
ATOM     11  H   UNL     1      -6.482  -3.291  12.510  1.00  0.00     0.211 HD
ENDBRANCH   9  10
BRANCH   9  12
ATOM     12  C   UNL     1      -6.477  -2.638   9.861  1.00  0.00     0.089 C 
BRANCH  12  13
ATOM     13  N   UNL     1      -6.397  -3.341   8.561  1.00  0.00    -0.325 NA
ATOM     14  H   UNL     1      -5.416  -3.468   8.307  1.00  0.00     0.119 HD
ATOM     15  H   UNL     1      -6.786  -2.737   7.833  1.00  0.00     0.119 HD
ENDBRANCH  12  13
BRANCH  12  16
ATOM     16  C   UNL     1      -7.952  -2.523  10.314  1.00  0.00     0.022 C 
BRANCH  16  17
ATOM     17  C   UNL     1      -8.499  -1.153  10.737  1.00  0.00     0.002 C 
BRANCH  17  18
ATOM     18  C   UNL     1      -9.518  -0.542   9.778  1.00  0.00     0.000 C 
BRANCH  18  19
ATOM     19  C   UNL     1     -10.060  -1.526   8.733  1.00  0.00    -0.000 C 
BRANCH  19  20
ATOM     20  C   UNL     1      -9.469  -1.374   7.328  1.00  0.00    -0.000 C 
BRANCH  20  21
ATOM     21  C   UNL     1      -8.807  -0.012   7.101  1.00  0.00    -0.003 C 
ATOM     22  C   UNL     1      -7.316  -0.158   6.840  1.00  0.00     0.004 C 
ENDBRANCH  20  21
ENDBRANCH  19  20
ENDBRANCH  18  19
ENDBRANCH  17  18
ENDBRANCH  16  17
ENDBRANCH  12  16
ENDBRANCH   9  12
ENDBRANCH   6   9
ENDBRANCH   3   5
ENDBRANCH   2   3
BRANCH   2  23
ATOM     23  N   UNL     1      -3.495   2.258  12.234  1.00  0.00    -0.332 N 
ATOM     24  C   UNL     1      -3.448   3.336  13.210  1.00  0.00     0.147 C 
BRANCH  23  25
ATOM     25  C   UNL     1      -2.327   2.195  11.313  1.00  0.00     0.174 C 
BRANCH  25  26
ATOM     26  C   UNL     1      -1.381   3.411  11.456  1.00  0.00     0.038 C 
BRANCH  26  27
ATOM     27  C   UNL     1      -1.443   4.480  10.342  1.00  0.00    -0.015 C 
ATOM     28  C   UNL     1      -2.114   5.772  10.809  1.00  0.00     0.007 C 
ATOM     29  C   UNL     1      -0.086   4.778   9.709  1.00  0.00     0.007 C 
ENDBRANCH  26  27
ENDBRANCH  25  26
BRANCH  25  30
ATOM     30  C   UNL     1      -2.804   1.946   9.864  1.00  0.00     0.243 C 
ATOM     31  O   UNL     1      -3.734   2.579   9.368  1.00  0.00    -0.273 OA
ATOM     32  N   UNL     1      -2.128   0.971   9.176  1.00  0.00    -0.342 N 
ATOM     33  H   UNL     1      -1.280   0.591   9.604  1.00  0.00     0.164 HD
BRANCH  32  34
ATOM     34  C   UNL     1      -2.460   0.581   7.803  1.00  0.00     0.175 C 
BRANCH  34  35
ATOM     35  C   UNL     1      -1.209   0.556   6.911  1.00  0.00     0.070 C 
BRANCH  35  36
ATOM     36  C   UNL     1      -0.754   1.939   6.503  1.00  0.00    -0.045 A 
ATOM     37  C   UNL     1      -1.682   2.989   6.425  1.00  0.00     0.007 A 
ATOM     38  C   UNL     1       0.585   2.187   6.175  1.00  0.00     0.007 A 
ATOM     39  C   UNL     1      -1.274   4.265   6.036  1.00  0.00     0.046 A 
ATOM     40  C   UNL     1       0.994   3.465   5.784  1.00  0.00     0.046 A 
ATOM     41  C   UNL     1       0.060   4.493   5.719  1.00  0.00     0.115 A 
BRANCH  41  42
ATOM     42  O   UNL     1       0.416   5.753   5.340  1.00  0.00    -0.508 OA
ATOM     43  H   UNL     1       0.571   6.280   6.142  1.00  0.00     0.293 HD
ENDBRANCH  41  42
ENDBRANCH  35  36
ENDBRANCH  34  35
BRANCH  34  44
ATOM     44  C   UNL     1      -3.162  -0.794   7.853  1.00  0.00     0.243 C 
ATOM     45  O   UNL     1      -4.296  -0.980   8.285  1.00  0.00    -0.273 OA
ATOM     46  N   UNL     1      -2.344  -1.841   7.483  1.00  0.00    -0.341 N 
ATOM     47  H   UNL     1      -1.374  -1.650   7.244  1.00  0.00     0.164 HD
BRANCH  46  48
ATOM     48  C   UNL     1      -2.766  -3.243   7.515  1.00  0.00     0.196 C 
BRANCH  48  49
ATOM     49  C   UNL     1      -2.478  -3.946   6.177  1.00  0.00     0.072 C 
BRANCH  49  50
ATOM     50  C   UNL     1      -3.697  -4.025   5.287  1.00  0.00    -0.045 A 
ATOM     51  C   UNL     1      -3.832  -5.085   4.379  1.00  0.00     0.007 A 
ATOM     52  C   UNL     1      -4.692  -3.040   5.338  1.00  0.00     0.007 A 
ATOM     53  C   UNL     1      -4.947  -5.161   3.543  1.00  0.00     0.046 A 
ATOM     54  C   UNL     1      -5.808  -3.116   4.501  1.00  0.00     0.046 A 
ATOM     55  C   UNL     1      -5.925  -4.177   3.610  1.00  0.00     0.115 A 
BRANCH  55  56
ATOM     56  O   UNL     1      -6.998  -4.287   2.775  1.00  0.00    -0.508 OA
ATOM     57  H   UNL     1      -7.206  -5.229   2.668  1.00  0.00     0.293 HD
ENDBRANCH  55  56
ENDBRANCH  49  50
ENDBRANCH  48  49
BRANCH  48  58
ATOM     58  C   UNL     1      -2.019  -3.964   8.646  1.00  0.00     0.326 C 
ATOM     59  O   UNL     1      -2.086  -5.146   8.940  1.00  0.00    -0.250 OA
BRANCH  58  60
ATOM     60  O   UNL     1      -1.197  -3.150   9.356  1.00  0.00    -0.480 OA
ATOM     61  H   UNL     1      -0.350  -3.646   9.374  1.00  0.00     0.296 HD
ENDBRANCH  58  60
ENDBRANCH  48  58
ENDBRANCH  46  48
ENDBRANCH  34  44
ENDBRANCH  32  34
ENDBRANCH  25  30
ENDBRANCH  23  25
ENDBRANCH   2  23
TORSDOF 28
ENDMDL
MODEL 4
REMARK VINA RESULT:    -7.712      2.497      3.944
REMARK INTER + INTRA:         -24.598
REMARK INTER:                 -18.677
REMARK INTRA:                  -5.921
REMARK UNBOUND:                -5.391
REMARK SMILES CCCCCCC[C@H](N)[C@H](O)C(=O)N[C@H](C)C(=O)N(C)[C@H](CC(C)C)C(=O)N[C@@H](Cc1ccc(O)cc1)C(=O)N[C@@H](Cc1ccc(O)cc1)C(=O)O
REMARK SMILES IDX 18 1 17 2 15 3 16 4 14 5 12 6 13 7 10 9 11 10 8 12 9 13 7 16
REMARK SMILES IDX 6 17 5 18 4 19 3 20 2 21 1 22 19 23 20 24 21 25 22 26 23 27
REMARK SMILES IDX 24 28 25 29 26 30 27 31 28 32 29 34 30 35 31 36 32 37 37 38
REMARK SMILES IDX 33 39 36 40 34 41 35 42 38 44 39 45 40 46 41 48 42 49 43 50
REMARK SMILES IDX 44 51 49 52 45 53 48 54 46 55 47 56 50 58 51 59 52 60
REMARK H PARENT 14 8 11 11 9 14 9 15 28 33 35 43 40 47 47 57 52 61
ROOT
ATOM      1  O   UNL     1      -5.210  -2.637  12.055  1.00  0.00    -0.272 OA
ATOM      2  C   UNL     1      -6.051  -1.726  12.078  1.00  0.00     0.245 C 
ENDROOT
BRANCH   2   3
ATOM      3  C   UNL     1      -5.671  -0.384  12.752  1.00  0.00     0.168 C 
ATOM      4  C   UNL     1      -4.877  -0.625  14.031  1.00  0.00     0.041 C 
BRANCH   3   5
ATOM      5  N   UNL     1      -5.012   0.573  11.877  1.00  0.00    -0.342 N 
ATOM      6  C   UNL     1      -5.253   1.928  11.968  1.00  0.00     0.251 C 
ATOM      7  O   UNL     1      -6.058   2.421  12.750  1.00  0.00    -0.272 OA
ATOM      8  H   UNL     1      -4.348   0.280  11.164  1.00  0.00     0.164 HD
BRANCH   6   9
ATOM      9  C   UNL     1      -4.343   2.756  11.046  1.00  0.00     0.219 C 
BRANCH   9  10
ATOM     10  O   UNL     1      -5.078   3.656  10.208  1.00  0.00    -0.382 OA
ATOM     11  H   UNL     1      -5.497   3.064   9.546  1.00  0.00     0.211 HD
ENDBRANCH   9  10
BRANCH   9  12
ATOM     12  C   UNL     1      -3.222   3.507  11.812  1.00  0.00     0.089 C 
BRANCH  12  13
ATOM     13  N   UNL     1      -2.419   2.513  12.558  1.00  0.00    -0.325 NA
ATOM     14  H   UNL     1      -1.504   2.418  12.114  1.00  0.00     0.119 HD
ATOM     15  H   UNL     1      -2.857   1.594  12.463  1.00  0.00     0.119 HD
ENDBRANCH  12  13
BRANCH  12  16
ATOM     16  C   UNL     1      -2.297   4.402  10.953  1.00  0.00     0.022 C 
BRANCH  16  17
ATOM     17  C   UNL     1      -0.825   4.004  10.779  1.00  0.00     0.002 C 
BRANCH  17  18
ATOM     18  C   UNL     1       0.081   5.107  10.237  1.00  0.00     0.000 C 
BRANCH  18  19
ATOM     19  C   UNL     1      -0.518   5.884   9.057  1.00  0.00    -0.000 C 
BRANCH  19  20
ATOM     20  C   UNL     1       0.116   5.588   7.695  1.00  0.00    -0.000 C 
BRANCH  20  21
ATOM     21  C   UNL     1       0.235   4.090   7.401  1.00  0.00    -0.003 C 
ATOM     22  C   UNL     1       0.488   3.833   5.924  1.00  0.00     0.004 C 
ENDBRANCH  20  21
ENDBRANCH  19  20
ENDBRANCH  18  19
ENDBRANCH  17  18
ENDBRANCH  16  17
ENDBRANCH  12  16
ENDBRANCH   9  12
ENDBRANCH   6   9
ENDBRANCH   3   5
ENDBRANCH   2   3
BRANCH   2  23
ATOM     23  N   UNL     1      -7.258  -1.877  11.404  1.00  0.00    -0.332 N 
ATOM     24  C   UNL     1      -8.514  -2.256  12.033  1.00  0.00     0.147 C 
BRANCH  23  25
ATOM     25  C   UNL     1      -7.361  -1.520   9.962  1.00  0.00     0.174 C 
BRANCH  25  26
ATOM     26  C   UNL     1      -8.559  -2.201   9.258  1.00  0.00     0.038 C 
BRANCH  26  27
ATOM     27  C   UNL     1      -9.558  -1.277   8.526  1.00  0.00    -0.015 C 
ATOM     28  C   UNL     1      -9.767  -1.681   7.067  1.00  0.00     0.007 C 
ATOM     29  C   UNL     1     -10.899  -1.142   9.244  1.00  0.00     0.007 C 
ENDBRANCH  26  27
ENDBRANCH  25  26
BRANCH  25  30
ATOM     30  C   UNL     1      -6.007  -1.761   9.256  1.00  0.00     0.243 C 
ATOM     31  O   UNL     1      -5.189  -0.857   9.095  1.00  0.00    -0.273 OA
ATOM     32  N   UNL     1      -5.785  -3.041   8.818  1.00  0.00    -0.342 N 
ATOM     33  H   UNL     1      -6.447  -3.764   9.113  1.00  0.00     0.164 HD
BRANCH  32  34
ATOM     34  C   UNL     1      -4.571  -3.445   8.104  1.00  0.00     0.175 C 
BRANCH  34  35
ATOM     35  C   UNL     1      -4.330  -2.565   6.868  1.00  0.00     0.070 C 
BRANCH  35  36
ATOM     36  C   UNL     1      -4.925  -3.152   5.608  1.00  0.00    -0.045 A 
ATOM     37  C   UNL     1      -4.303  -4.241   4.979  1.00  0.00     0.007 A 
ATOM     38  C   UNL     1      -6.084  -2.607   5.040  1.00  0.00     0.007 A 
ATOM     39  C   UNL     1      -4.837  -4.780   3.808  1.00  0.00     0.046 A 
ATOM     40  C   UNL     1      -6.619  -3.146   3.867  1.00  0.00     0.046 A 
ATOM     41  C   UNL     1      -5.990  -4.229   3.262  1.00  0.00     0.115 A 
BRANCH  41  42
ATOM     42  O   UNL     1      -6.478  -4.783   2.116  1.00  0.00    -0.508 OA
ATOM     43  H   UNL     1      -7.199  -5.389   2.353  1.00  0.00     0.293 HD
ENDBRANCH  41  42
ENDBRANCH  35  36
ENDBRANCH  34  35
BRANCH  34  44
ATOM     44  C   UNL     1      -3.389  -3.382   9.098  1.00  0.00     0.243 C 
ATOM     45  O   UNL     1      -3.150  -4.235   9.947  1.00  0.00    -0.273 OA
ATOM     46  N   UNL     1      -2.683  -2.199   9.036  1.00  0.00    -0.341 N 
ATOM     47  H   UNL     1      -2.992  -1.472   8.394  1.00  0.00     0.164 HD
BRANCH  46  48
ATOM     48  C   UNL     1      -1.564  -1.881   9.925  1.00  0.00     0.196 C 
BRANCH  48  49
ATOM     49  C   UNL     1      -0.631  -0.831   9.299  1.00  0.00     0.072 C 
BRANCH  49  50
ATOM     50  C   UNL     1      -1.331   0.030   8.271  1.00  0.00    -0.045 A 
ATOM     51  C   UNL     1      -1.191  -0.259   6.906  1.00  0.00     0.007 A 
ATOM     52  C   UNL     1      -2.105   1.130   8.659  1.00  0.00     0.007 A 
ATOM     53  C   UNL     1      -1.822   0.535   5.948  1.00  0.00     0.046 A 
ATOM     54  C   UNL     1      -2.735   1.927   7.700  1.00  0.00     0.046 A 
ATOM     55  C   UNL     1      -2.589   1.621   6.352  1.00  0.00     0.115 A 
BRANCH  55  56
ATOM     56  O   UNL     1      -3.186   2.374   5.384  1.00  0.00    -0.508 OA
ATOM     57  H   UNL     1      -3.154   3.304   5.657  1.00  0.00     0.293 HD
ENDBRANCH  55  56
ENDBRANCH  49  50
ENDBRANCH  48  49
BRANCH  48  58
ATOM     58  C   UNL     1      -2.118  -1.349  11.255  1.00  0.00     0.326 C 
ATOM     59  O   UNL     1      -2.291  -0.183  11.569  1.00  0.00    -0.250 OA
BRANCH  58  60
ATOM     60  O   UNL     1      -2.446  -2.329  12.134  1.00  0.00    -0.480 OA
ATOM     61  H   UNL     1      -2.715  -3.073  11.554  1.00  0.00     0.296 HD
ENDBRANCH  58  60
ENDBRANCH  48  58
ENDBRANCH  46  48
ENDBRANCH  34  44
ENDBRANCH  32  34
ENDBRANCH  25  30
ENDBRANCH  23  25
ENDBRANCH   2  23
TORSDOF 28
ENDMDL
MODEL 5
REMARK VINA RESULT:    -7.613      2.533      7.261
REMARK INTER + INTRA:         -24.353
REMARK INTER:                 -19.414
REMARK INTRA:                  -4.939
REMARK UNBOUND:                -5.391
REMARK SMILES CCCCCCC[C@H](N)[C@H](O)C(=O)N[C@H](C)C(=O)N(C)[C@H](CC(C)C)C(=O)N[C@@H](Cc1ccc(O)cc1)C(=O)N[C@@H](Cc1ccc(O)cc1)C(=O)O
REMARK SMILES IDX 18 1 17 2 15 3 16 4 14 5 12 6 13 7 10 9 11 10 8 12 9 13 7 16
REMARK SMILES IDX 6 17 5 18 4 19 3 20 2 21 1 22 19 23 20 24 21 25 22 26 23 27
REMARK SMILES IDX 24 28 25 29 26 30 27 31 28 32 29 34 30 35 31 36 32 37 37 38
REMARK SMILES IDX 33 39 36 40 34 41 35 42 38 44 39 45 40 46 41 48 42 49 43 50
REMARK SMILES IDX 44 51 49 52 45 53 48 54 46 55 47 56 50 58 51 59 52 60
REMARK H PARENT 14 8 11 11 9 14 9 15 28 33 35 43 40 47 47 57 52 61
ROOT
ATOM      1  O   UNL     1      -4.886  -0.218  14.605  1.00  0.00    -0.272 OA
ATOM      2  C   UNL     1      -4.813  -0.455  13.390  1.00  0.00     0.245 C 
ENDROOT
BRANCH   2   3
ATOM      3  C   UNL     1      -6.127  -0.572  12.577  1.00  0.00     0.168 C 
ATOM      4  C   UNL     1      -6.771   0.797  12.388  1.00  0.00     0.041 C 
BRANCH   3   5
ATOM      5  N   UNL     1      -6.005  -1.293  11.319  1.00  0.00    -0.342 N 
ATOM      6  C   UNL     1      -6.863  -2.318  10.981  1.00  0.00     0.251 C 
ATOM      7  O   UNL     1      -7.755  -2.724  11.719  1.00  0.00    -0.272 OA
ATOM      8  H   UNL     1      -5.281  -1.068  10.641  1.00  0.00     0.164 HD
BRANCH   6   9
ATOM      9  C   UNL     1      -6.638  -2.835   9.552  1.00  0.00     0.219 C 
BRANCH   9  10
ATOM     10  O   UNL     1      -6.601  -4.265   9.481  1.00  0.00    -0.382 OA
ATOM     11  H   UNL     1      -6.906  -4.459   8.567  1.00  0.00     0.211 HD
ENDBRANCH   9  10
BRANCH   9  12
ATOM     12  C   UNL     1      -7.651  -2.259   8.529  1.00  0.00     0.089 C 
BRANCH  12  13
ATOM     13  N   UNL     1      -8.900  -3.051   8.611  1.00  0.00    -0.325 NA
ATOM     14  H   UNL     1      -8.669  -4.016   8.852  1.00  0.00     0.119 HD
ATOM     15  H   UNL     1      -9.321  -3.102   7.680  1.00  0.00     0.119 HD
ENDBRANCH  12  13
BRANCH  12  16
ATOM     16  C   UNL     1      -7.969  -0.750   8.665  1.00  0.00     0.022 C 
BRANCH  16  17
ATOM     17  C   UNL     1      -7.990   0.125   7.404  1.00  0.00     0.002 C 
BRANCH  17  18
ATOM     18  C   UNL     1      -6.909   1.202   7.349  1.00  0.00     0.000 C 
BRANCH  18  19
ATOM     19  C   UNL     1      -7.067   2.188   6.183  1.00  0.00    -0.000 C 
BRANCH  19  20
ATOM     20  C   UNL     1      -5.767   2.555   5.462  1.00  0.00    -0.000 C 
BRANCH  20  21
ATOM     21  C   UNL     1      -4.519   2.012   6.162  1.00  0.00    -0.003 C 
ATOM     22  C   UNL     1      -3.462   1.583   5.156  1.00  0.00     0.004 C 
ENDBRANCH  20  21
ENDBRANCH  19  20
ENDBRANCH  18  19
ENDBRANCH  17  18
ENDBRANCH  16  17
ENDBRANCH  12  16
ENDBRANCH   9  12
ENDBRANCH   6   9
ENDBRANCH   3   5
ENDBRANCH   2   3
BRANCH   2  23
ATOM     23  N   UNL     1      -3.573  -0.490  12.761  1.00  0.00    -0.332 N 
ATOM     24  C   UNL     1      -2.808  -1.702  12.509  1.00  0.00     0.147 C 
BRANCH  23  25
ATOM     25  C   UNL     1      -2.993   0.750  12.175  1.00  0.00     0.174 C 
BRANCH  25  26
ATOM     26  C   UNL     1      -3.453   2.034  12.906  1.00  0.00     0.038 C 
BRANCH  26  27
ATOM     27  C   UNL     1      -2.756   3.354  12.509  1.00  0.00    -0.015 C 
ATOM     28  C   UNL     1      -1.518   3.123  11.642  1.00  0.00     0.007 C 
ATOM     29  C   UNL     1      -3.694   4.361  11.848  1.00  0.00     0.007 C 
ENDBRANCH  26  27
ENDBRANCH  25  26
BRANCH  25  30
ATOM     30  C   UNL     1      -3.238   0.783  10.649  1.00  0.00     0.243 C 
ATOM     31  O   UNL     1      -4.259   1.270  10.165  1.00  0.00    -0.273 OA
ATOM     32  N   UNL     1      -2.249   0.229   9.878  1.00  0.00    -0.342 N 
ATOM     33  H   UNL     1      -1.374  -0.026  10.341  1.00  0.00     0.164 HD
BRANCH  32  34
ATOM     34  C   UNL     1      -2.324   0.147   8.417  1.00  0.00     0.175 C 
BRANCH  34  35
ATOM     35  C   UNL     1      -0.923   0.095   7.788  1.00  0.00     0.070 C 
BRANCH  35  36
ATOM     36  C   UNL     1      -0.478   1.432   7.239  1.00  0.00    -0.045 A 
ATOM     37  C   UNL     1      -1.096   2.612   7.680  1.00  0.00     0.007 A 
ATOM     38  C   UNL     1       0.534   1.513   6.274  1.00  0.00     0.007 A 
ATOM     39  C   UNL     1      -0.702   3.849   7.170  1.00  0.00     0.046 A 
ATOM     40  C   UNL     1       0.928   2.751   5.761  1.00  0.00     0.046 A 
ATOM     41  C   UNL     1       0.306   3.909   6.215  1.00  0.00     0.115 A 
BRANCH  41  42
ATOM     42  O   UNL     1       0.659   5.137   5.740  1.00  0.00    -0.508 OA
ATOM     43  H   UNL     1       1.520   5.056   5.297  1.00  0.00     0.293 HD
ENDBRANCH  41  42
ENDBRANCH  35  36
ENDBRANCH  34  35
BRANCH  34  44
ATOM     44  C   UNL     1      -3.168  -1.094   8.049  1.00  0.00     0.243 C 
ATOM     45  O   UNL     1      -4.381  -1.077   7.861  1.00  0.00    -0.273 OA
ATOM     46  N   UNL     1      -2.452  -2.272   8.076  1.00  0.00    -0.341 N 
ATOM     47  H   UNL     1      -1.473  -2.250   8.352  1.00  0.00     0.164 HD
BRANCH  46  48
ATOM     48  C   UNL     1      -3.052  -3.585   7.828  1.00  0.00     0.196 C 
BRANCH  48  49
ATOM     49  C   UNL     1      -2.553  -4.188   6.504  1.00  0.00     0.072 C 
BRANCH  49  50
ATOM     50  C   UNL     1      -3.635  -4.251   5.450  1.00  0.00    -0.045 A 
ATOM     51  C   UNL     1      -4.576  -3.216   5.352  1.00  0.00     0.007 A 
ATOM     52  C   UNL     1      -3.727  -5.341   4.575  1.00  0.00     0.007 A 
ATOM     53  C   UNL     1      -5.586  -3.269   4.392  1.00  0.00     0.046 A 
ATOM     54  C   UNL     1      -4.739  -5.395   3.615  1.00  0.00     0.046 A 
ATOM     55  C   UNL     1      -5.660  -4.357   3.530  1.00  0.00     0.115 A 
BRANCH  55  56
ATOM     56  O   UNL     1      -6.664  -4.371   2.607  1.00  0.00    -0.508 OA
ATOM     57  H   UNL     1      -7.230  -5.140   2.783  1.00  0.00     0.293 HD
ENDBRANCH  55  56
ENDBRANCH  49  50
ENDBRANCH  48  49
BRANCH  48  58
ATOM     58  C   UNL     1      -2.694  -4.524   8.989  1.00  0.00     0.326 C 
ATOM     59  O   UNL     1      -1.730  -5.269   9.066  1.00  0.00    -0.250 OA
BRANCH  58  60
ATOM     60  O   UNL     1      -3.573  -4.469  10.021  1.00  0.00    -0.480 OA
ATOM     61  H   UNL     1      -3.770  -5.414  10.200  1.00  0.00     0.296 HD
ENDBRANCH  58  60
ENDBRANCH  48  58
ENDBRANCH  46  48
ENDBRANCH  34  44
ENDBRANCH  32  34
ENDBRANCH  25  30
ENDBRANCH  23  25
ENDBRANCH   2  23
TORSDOF 28
ENDMDL
MODEL 6
REMARK VINA RESULT:    -7.600      2.402      5.978
REMARK INTER + INTRA:         -24.320
REMARK INTER:                 -19.173
REMARK INTRA:                  -5.148
REMARK UNBOUND:                -5.391
REMARK SMILES CCCCCCC[C@H](N)[C@H](O)C(=O)N[C@H](C)C(=O)N(C)[C@H](CC(C)C)C(=O)N[C@@H](Cc1ccc(O)cc1)C(=O)N[C@@H](Cc1ccc(O)cc1)C(=O)O
REMARK SMILES IDX 18 1 17 2 15 3 16 4 14 5 12 6 13 7 10 9 11 10 8 12 9 13 7 16
REMARK SMILES IDX 6 17 5 18 4 19 3 20 2 21 1 22 19 23 20 24 21 25 22 26 23 27
REMARK SMILES IDX 24 28 25 29 26 30 27 31 28 32 29 34 30 35 31 36 32 37 37 38
REMARK SMILES IDX 33 39 36 40 34 41 35 42 38 44 39 45 40 46 41 48 42 49 43 50
REMARK SMILES IDX 44 51 49 52 45 53 48 54 46 55 47 56 50 58 51 59 52 60
REMARK H PARENT 14 8 11 11 9 14 9 15 28 33 35 43 40 47 47 57 52 61
ROOT
ATOM      1  O   UNL     1      -3.040   1.108  12.344  1.00  0.00    -0.272 OA
ATOM      2  C   UNL     1      -3.583   1.686  11.391  1.00  0.00     0.245 C 
ENDROOT
BRANCH   2   3
ATOM      3  C   UNL     1      -2.726   2.033  10.148  1.00  0.00     0.168 C 
ATOM      4  C   UNL     1      -2.171   3.449  10.252  1.00  0.00     0.041 C 
BRANCH   3   5
ATOM      5  N   UNL     1      -1.687   1.065   9.833  1.00  0.00    -0.342 N 
ATOM      6  C   UNL     1      -1.895   0.041   8.933  1.00  0.00     0.251 C 
ATOM      7  O   UNL     1      -2.966  -0.156   8.368  1.00  0.00    -0.272 OA
ATOM      8  H   UNL     1      -0.767   1.106  10.265  1.00  0.00     0.164 HD
BRANCH   6   9
ATOM      9  C   UNL     1      -0.620  -0.769   8.649  1.00  0.00     0.219 C 
BRANCH   9  10
ATOM     10  O   UNL     1      -0.667  -2.087   9.208  1.00  0.00    -0.382 OA
ATOM     11  H   UNL     1      -1.609  -2.195   9.466  1.00  0.00     0.211 HD
ENDBRANCH   9  10
BRANCH   9  12
ATOM     12  C   UNL     1      -0.255  -0.822   7.143  1.00  0.00     0.089 C 
BRANCH  12  13
ATOM     13  N   UNL     1      -1.075  -1.875   6.500  1.00  0.00    -0.325 NA
ATOM     14  H   UNL     1      -0.618  -2.176   5.637  1.00  0.00     0.119 HD
ATOM     15  H   UNL     1      -1.964  -1.466   6.203  1.00  0.00     0.119 HD
ENDBRANCH  12  13
BRANCH  12  16
ATOM     16  C   UNL     1      -0.392   0.508   6.364  1.00  0.00     0.022 C 
BRANCH  16  17
ATOM     17  C   UNL     1       0.845   1.398   6.183  1.00  0.00     0.002 C 
BRANCH  17  18
ATOM     18  C   UNL     1       0.546   2.874   5.928  1.00  0.00     0.000 C 
BRANCH  18  19
ATOM     19  C   UNL     1      -0.137   3.585   7.104  1.00  0.00    -0.000 C 
BRANCH  19  20
ATOM     20  C   UNL     1       0.517   4.900   7.537  1.00  0.00    -0.000 C 
BRANCH  20  21
ATOM     21  C   UNL     1      -0.490   5.927   8.060  1.00  0.00    -0.003 C 
ATOM     22  C   UNL     1      -0.109   6.422   9.447  1.00  0.00     0.004 C 
ENDBRANCH  20  21
ENDBRANCH  19  20
ENDBRANCH  18  19
ENDBRANCH  17  18
ENDBRANCH  16  17
ENDBRANCH  12  16
ENDBRANCH   9  12
ENDBRANCH   6   9
ENDBRANCH   3   5
ENDBRANCH   2   3
BRANCH   2  23
ATOM     23  N   UNL     1      -4.958   1.900  11.400  1.00  0.00    -0.332 N 
ATOM     24  C   UNL     1      -5.656   2.744  12.359  1.00  0.00     0.147 C 
BRANCH  23  25
ATOM     25  C   UNL     1      -5.810   1.356  10.307  1.00  0.00     0.174 C 
BRANCH  25  26
ATOM     26  C   UNL     1      -6.844   2.379   9.784  1.00  0.00     0.038 C 
BRANCH  26  27
ATOM     27  C   UNL     1      -6.617   2.940   8.362  1.00  0.00    -0.015 C 
ATOM     28  C   UNL     1      -5.351   3.792   8.266  1.00  0.00     0.007 C 
ATOM     29  C   UNL     1      -6.625   1.867   7.277  1.00  0.00     0.007 C 
ENDBRANCH  26  27
ENDBRANCH  25  26
BRANCH  25  30
ATOM     30  C   UNL     1      -6.432   0.008  10.739  1.00  0.00     0.243 C 
ATOM     31  O   UNL     1      -6.340  -0.411  11.892  1.00  0.00    -0.273 OA
ATOM     32  N   UNL     1      -7.084  -0.687   9.753  1.00  0.00    -0.342 N 
ATOM     33  H   UNL     1      -7.240  -0.211   8.861  1.00  0.00     0.164 HD
BRANCH  32  34
ATOM     34  C   UNL     1      -7.711  -1.994   9.974  1.00  0.00     0.175 C 
BRANCH  34  35
ATOM     35  C   UNL     1      -9.184  -1.988   9.537  1.00  0.00     0.070 C 
BRANCH  35  36
ATOM     36  C   UNL     1     -10.059  -1.150  10.442  1.00  0.00    -0.045 A 
ATOM     37  C   UNL     1     -11.104  -0.388   9.898  1.00  0.00     0.007 A 
ATOM     38  C   UNL     1      -9.829  -1.104  11.823  1.00  0.00     0.007 A 
ATOM     39  C   UNL     1     -11.908   0.399  10.723  1.00  0.00     0.046 A 
ATOM     40  C   UNL     1     -10.633  -0.315  12.650  1.00  0.00     0.046 A 
ATOM     41  C   UNL     1     -11.667   0.428  12.091  1.00  0.00     0.115 A 
BRANCH  41  42
ATOM     42  O   UNL     1     -12.473   1.212  12.862  1.00  0.00    -0.508 OA
ATOM     43  H   UNL     1     -11.910   1.786  13.407  1.00  0.00     0.293 HD
ENDBRANCH  41  42
ENDBRANCH  35  36
ENDBRANCH  34  35
BRANCH  34  44
ATOM     44  C   UNL     1      -6.886  -3.054   9.211  1.00  0.00     0.243 C 
ATOM     45  O   UNL     1      -7.033  -4.267   9.332  1.00  0.00    -0.273 OA
ATOM     46  N   UNL     1      -5.861  -2.518   8.461  1.00  0.00    -0.341 N 
ATOM     47  H   UNL     1      -5.705  -1.513   8.485  1.00  0.00     0.164 HD
BRANCH  46  48
ATOM     48  C   UNL     1      -4.904  -3.330   7.706  1.00  0.00     0.196 C 
BRANCH  48  49
ATOM     49  C   UNL     1      -4.518  -2.652   6.380  1.00  0.00     0.072 C 
BRANCH  49  50
ATOM     50  C   UNL     1      -5.040  -3.397   5.173  1.00  0.00    -0.045 A 
ATOM     51  C   UNL     1      -6.177  -2.926   4.499  1.00  0.00     0.007 A 
ATOM     52  C   UNL     1      -4.418  -4.569   4.724  1.00  0.00     0.007 A 
ATOM     53  C   UNL     1      -6.676  -3.613   3.391  1.00  0.00     0.046 A 
ATOM     54  C   UNL     1      -4.918  -5.257   3.616  1.00  0.00     0.046 A 
ATOM     55  C   UNL     1      -6.043  -4.771   2.958  1.00  0.00     0.115 A 
BRANCH  55  56
ATOM     56  O   UNL     1      -6.563  -5.413   1.873  1.00  0.00    -0.508 OA
ATOM     57  H   UNL     1      -7.496  -5.160   1.786  1.00  0.00     0.293 HD
ENDBRANCH  55  56
ENDBRANCH  49  50
ENDBRANCH  48  49
BRANCH  48  58
ATOM     58  C   UNL     1      -3.646  -3.543   8.560  1.00  0.00     0.326 C 
ATOM     59  O   UNL     1      -3.506  -3.289   9.745  1.00  0.00    -0.250 OA
BRANCH  58  60
ATOM     60  O   UNL     1      -2.612  -4.090   7.873  1.00  0.00    -0.480 OA
ATOM     61  H   UNL     1      -2.102  -4.560   8.568  1.00  0.00     0.296 HD
ENDBRANCH  58  60
ENDBRANCH  48  58
ENDBRANCH  46  48
ENDBRANCH  34  44
ENDBRANCH  32  34
ENDBRANCH  25  30
ENDBRANCH  23  25
ENDBRANCH   2  23
TORSDOF 28
ENDMDL
MODEL 7
REMARK VINA RESULT:    -7.557      2.872      4.353
REMARK INTER + INTRA:         -24.213
REMARK INTER:                 -19.182
REMARK INTRA:                  -5.031
REMARK UNBOUND:                -5.391
REMARK SMILES CCCCCCC[C@H](N)[C@H](O)C(=O)N[C@H](C)C(=O)N(C)[C@H](CC(C)C)C(=O)N[C@@H](Cc1ccc(O)cc1)C(=O)N[C@@H](Cc1ccc(O)cc1)C(=O)O
REMARK SMILES IDX 18 1 17 2 15 3 16 4 14 5 12 6 13 7 10 9 11 10 8 12 9 13 7 16
REMARK SMILES IDX 6 17 5 18 4 19 3 20 2 21 1 22 19 23 20 24 21 25 22 26 23 27
REMARK SMILES IDX 24 28 25 29 26 30 27 31 28 32 29 34 30 35 31 36 32 37 37 38
REMARK SMILES IDX 33 39 36 40 34 41 35 42 38 44 39 45 40 46 41 48 42 49 43 50
REMARK SMILES IDX 44 51 49 52 45 53 48 54 46 55 47 56 50 58 51 59 52 60
REMARK H PARENT 14 8 11 11 9 14 9 15 28 33 35 43 40 47 47 57 52 61
ROOT
ATOM      1  O   UNL     1      -4.727  -0.554  10.643  1.00  0.00    -0.272 OA
ATOM      2  C   UNL     1      -5.491  -0.758  11.599  1.00  0.00     0.245 C 
ENDROOT
BRANCH   2   3
ATOM      3  C   UNL     1      -5.316   0.093  12.882  1.00  0.00     0.168 C 
ATOM      4  C   UNL     1      -4.394  -0.607  13.874  1.00  0.00     0.041 C 
BRANCH   3   5
ATOM      5  N   UNL     1      -4.917   1.472  12.650  1.00  0.00    -0.342 N 
ATOM      6  C   UNL     1      -3.596   1.829  12.482  1.00  0.00     0.251 C 
ATOM      7  O   UNL     1      -2.666   1.033  12.554  1.00  0.00    -0.272 OA
ATOM      8  H   UNL     1      -5.598   2.227  12.604  1.00  0.00     0.164 HD
BRANCH   6   9
ATOM      9  C   UNL     1      -3.423   3.311  12.109  1.00  0.00     0.219 C 
BRANCH   9  10
ATOM     10  O   UNL     1      -2.132   3.595  11.558  1.00  0.00    -0.382 OA
ATOM     11  H   UNL     1      -1.609   2.790  11.768  1.00  0.00     0.211 HD
ENDBRANCH   9  10
BRANCH   9  12
ATOM     12  C   UNL     1      -4.547   3.840  11.180  1.00  0.00     0.089 C 
BRANCH  12  13
ATOM     13  N   UNL     1      -4.579   5.317  11.281  1.00  0.00    -0.325 NA
ATOM     14  H   UNL     1      -5.368   5.674  10.737  1.00  0.00     0.119 HD
ATOM     15  H   UNL     1      -3.747   5.698  10.824  1.00  0.00     0.119 HD
ENDBRANCH  12  13
BRANCH  12  16
ATOM     16  C   UNL     1      -4.459   3.410   9.697  1.00  0.00     0.022 C 
BRANCH  16  17
ATOM     17  C   UNL     1      -5.386   4.075   8.670  1.00  0.00     0.002 C 
BRANCH  17  18
ATOM     18  C   UNL     1      -6.267   3.112   7.877  1.00  0.00     0.000 C 
BRANCH  18  19
ATOM     19  C   UNL     1      -5.628   1.739   7.631  1.00  0.00    -0.000 C 
BRANCH  19  20
ATOM     20  C   UNL     1      -5.815   1.179   6.218  1.00  0.00    -0.000 C 
BRANCH  20  21
ATOM     21  C   UNL     1      -4.545   1.260   5.368  1.00  0.00    -0.003 C 
ATOM     22  C   UNL     1      -4.658   2.339   4.302  1.00  0.00     0.004 C 
ENDBRANCH  20  21
ENDBRANCH  19  20
ENDBRANCH  18  19
ENDBRANCH  17  18
ENDBRANCH  16  17
ENDBRANCH  12  16
ENDBRANCH   9  12
ENDBRANCH   6   9
ENDBRANCH   3   5
ENDBRANCH   2   3
BRANCH   2  23
ATOM     23  N   UNL     1      -6.553  -1.645  11.463  1.00  0.00    -0.332 N 
ATOM     24  C   UNL     1      -7.148  -2.396  12.560  1.00  0.00     0.147 C 
BRANCH  23  25
ATOM     25  C   UNL     1      -7.251  -1.787  10.156  1.00  0.00     0.174 C 
BRANCH  25  26
ATOM     26  C   UNL     1      -8.769  -2.042  10.309  1.00  0.00     0.038 C 
BRANCH  26  27
ATOM     27  C   UNL     1      -9.682  -1.533   9.171  1.00  0.00    -0.015 C 
ATOM     28  C   UNL     1     -11.117  -1.288   9.638  1.00  0.00     0.007 C 
ATOM     29  C   UNL     1      -9.133  -0.301   8.456  1.00  0.00     0.007 C 
ENDBRANCH  26  27
ENDBRANCH  25  26
BRANCH  25  30
ATOM     30  C   UNL     1      -6.530  -2.837   9.279  1.00  0.00     0.243 C 
ATOM     31  O   UNL     1      -6.740  -4.042   9.404  1.00  0.00    -0.273 OA
ATOM     32  N   UNL     1      -5.642  -2.335   8.363  1.00  0.00    -0.342 N 
ATOM     33  H   UNL     1      -5.629  -1.321   8.222  1.00  0.00     0.164 HD
BRANCH  32  34
ATOM     34  C   UNL     1      -4.850  -3.181   7.467  1.00  0.00     0.175 C 
BRANCH  34  35
ATOM     35  C   UNL     1      -4.618  -2.497   6.111  1.00  0.00     0.070 C 
BRANCH  35  36
ATOM     36  C   UNL     1      -5.145  -3.307   4.949  1.00  0.00    -0.045 A 
ATOM     37  C   UNL     1      -4.502  -4.497   4.574  1.00  0.00     0.007 A 
ATOM     38  C   UNL     1      -6.260  -2.876   4.219  1.00  0.00     0.007 A 
ATOM     39  C   UNL     1      -4.973  -5.244   3.494  1.00  0.00     0.046 A 
ATOM     40  C   UNL     1      -6.732  -3.623   3.137  1.00  0.00     0.046 A 
ATOM     41  C   UNL     1      -6.084  -4.802   2.785  1.00  0.00     0.115 A 
BRANCH  41  42
ATOM     42  O   UNL     1      -6.510  -5.560   1.734  1.00  0.00    -0.508 OA
ATOM     43  H   UNL     1      -5.752  -6.062   1.394  1.00  0.00     0.293 HD
ENDBRANCH  41  42
ENDBRANCH  35  36
ENDBRANCH  34  35
BRANCH  34  44
ATOM     44  C   UNL     1      -3.521  -3.519   8.179  1.00  0.00     0.243 C 
ATOM     45  O   UNL     1      -2.963  -4.612   8.126  1.00  0.00    -0.273 OA
ATOM     46  N   UNL     1      -3.067  -2.510   9.002  1.00  0.00    -0.341 N 
ATOM     47  H   UNL     1      -3.626  -1.666   9.103  1.00  0.00     0.164 HD
BRANCH  46  48
ATOM     48  C   UNL     1      -1.865  -2.625   9.831  1.00  0.00     0.196 C 
BRANCH  48  49
ATOM     49  C   UNL     1      -1.354  -1.243  10.271  1.00  0.00     0.072 C 
BRANCH  49  50
ATOM     50  C   UNL     1      -1.099  -0.318   9.103  1.00  0.00    -0.045 A 
ATOM     51  C   UNL     1      -0.175  -0.681   8.113  1.00  0.00     0.007 A 
ATOM     52  C   UNL     1      -1.758   0.914   9.002  1.00  0.00     0.007 A 
ATOM     53  C   UNL     1       0.079   0.170   7.037  1.00  0.00     0.046 A 
ATOM     54  C   UNL     1      -1.503   1.767   7.926  1.00  0.00     0.046 A 
ATOM     55  C   UNL     1      -0.587   1.387   6.951  1.00  0.00     0.115 A 
BRANCH  55  56
ATOM     56  O   UNL     1      -0.309   2.191   5.885  1.00  0.00    -0.508 OA
ATOM     57  H   UNL     1      -1.040   2.819   5.778  1.00  0.00     0.293 HD
ENDBRANCH  55  56
ENDBRANCH  49  50
ENDBRANCH  48  49
BRANCH  48  58
ATOM     58  C   UNL     1      -2.192  -3.472  11.069  1.00  0.00     0.326 C 
ATOM     59  O   UNL     1      -2.738  -3.100  12.095  1.00  0.00    -0.250 OA
BRANCH  58  60
ATOM     60  O   UNL     1      -1.823  -4.772  10.949  1.00  0.00    -0.480 OA
ATOM     61  H   UNL     1      -1.781  -5.082  11.879  1.00  0.00     0.296 HD
ENDBRANCH  58  60
ENDBRANCH  48  58
ENDBRANCH  46  48
ENDBRANCH  34  44
ENDBRANCH  32  34
ENDBRANCH  25  30
ENDBRANCH  23  25
ENDBRANCH   2  23
TORSDOF 28
ENDMDL
MODEL 8
REMARK VINA RESULT:    -7.554      2.288      7.437
REMARK INTER + INTRA:         -24.206
REMARK INTER:                 -18.479
REMARK INTRA:                  -5.727
REMARK UNBOUND:                -5.391
REMARK SMILES CCCCCCC[C@H](N)[C@H](O)C(=O)N[C@H](C)C(=O)N(C)[C@H](CC(C)C)C(=O)N[C@@H](Cc1ccc(O)cc1)C(=O)N[C@@H](Cc1ccc(O)cc1)C(=O)O
REMARK SMILES IDX 18 1 17 2 15 3 16 4 14 5 12 6 13 7 10 9 11 10 8 12 9 13 7 16
REMARK SMILES IDX 6 17 5 18 4 19 3 20 2 21 1 22 19 23 20 24 21 25 22 26 23 27
REMARK SMILES IDX 24 28 25 29 26 30 27 31 28 32 29 34 30 35 31 36 32 37 37 38
REMARK SMILES IDX 33 39 36 40 34 41 35 42 38 44 39 45 40 46 41 48 42 49 43 50
REMARK SMILES IDX 44 51 49 52 45 53 48 54 46 55 47 56 50 58 51 59 52 60
REMARK H PARENT 14 8 11 11 9 14 9 15 28 33 35 43 40 47 47 57 52 61
ROOT
ATOM      1  O   UNL     1      -3.854   1.727  13.289  1.00  0.00    -0.272 OA
ATOM      2  C   UNL     1      -4.422   1.530  12.205  1.00  0.00     0.245 C 
ENDROOT
BRANCH   2   3
ATOM      3  C   UNL     1      -4.957   0.110  11.895  1.00  0.00     0.168 C 
ATOM      4  C   UNL     1      -6.258   0.182  11.103  1.00  0.00     0.041 C 
BRANCH   3   5
ATOM      5  N   UNL     1      -3.993  -0.785  11.274  1.00  0.00    -0.342 N 
ATOM      6  C   UNL     1      -3.112  -1.538  12.022  1.00  0.00     0.251 C 
ATOM      7  O   UNL     1      -3.044  -1.483  13.245  1.00  0.00    -0.272 OA
ATOM      8  H   UNL     1      -3.931  -0.889  10.264  1.00  0.00     0.164 HD
BRANCH   6   9
ATOM      9  C   UNL     1      -2.289  -2.513  11.165  1.00  0.00     0.219 C 
BRANCH   9  10
ATOM     10  O   UNL     1      -2.543  -3.885  11.491  1.00  0.00    -0.382 OA
ATOM     11  H   UNL     1      -2.942  -3.839  12.387  1.00  0.00     0.211 HD
ENDBRANCH   9  10
BRANCH   9  12
ATOM     12  C   UNL     1      -2.448  -2.270   9.642  1.00  0.00     0.089 C 
BRANCH  12  13
ATOM     13  N   UNL     1      -1.131  -1.879   9.090  1.00  0.00    -0.325 NA
ATOM     14  H   UNL     1      -0.510  -1.616   9.858  1.00  0.00     0.119 HD
ATOM     15  H   UNL     1      -1.244  -1.027   8.535  1.00  0.00     0.119 HD
ENDBRANCH  12  13
BRANCH  12  16
ATOM     16  C   UNL     1      -3.039  -3.444   8.826  1.00  0.00     0.022 C 
BRANCH  16  17
ATOM     17  C   UNL     1      -2.624  -3.617   7.358  1.00  0.00     0.002 C 
BRANCH  17  18
ATOM     18  C   UNL     1      -3.649  -4.330   6.478  1.00  0.00     0.000 C 
BRANCH  18  19
ATOM     19  C   UNL     1      -3.161  -4.608   5.051  1.00  0.00    -0.000 C 
BRANCH  19  20
ATOM     20  C   UNL     1      -4.251  -4.592   3.976  1.00  0.00    -0.000 C 
BRANCH  20  21
ATOM     21  C   UNL     1      -5.617  -4.158   4.514  1.00  0.00    -0.003 C 
ATOM     22  C   UNL     1      -5.972  -2.752   4.056  1.00  0.00     0.004 C 
ENDBRANCH  20  21
ENDBRANCH  19  20
ENDBRANCH  18  19
ENDBRANCH  17  18
ENDBRANCH  16  17
ENDBRANCH  12  16
ENDBRANCH   9  12
ENDBRANCH   6   9
ENDBRANCH   3   5
ENDBRANCH   2   3
BRANCH   2  23
ATOM     23  N   UNL     1      -4.675   2.597  11.349  1.00  0.00    -0.332 N 
ATOM     24  C   UNL     1      -5.859   3.442  11.410  1.00  0.00     0.147 C 
BRANCH  23  25
ATOM     25  C   UNL     1      -3.648   3.029  10.362  1.00  0.00     0.174 C 
BRANCH  25  26
ATOM     26  C   UNL     1      -3.940   4.423   9.759  1.00  0.00     0.038 C 
BRANCH  26  27
ATOM     27  C   UNL     1      -2.796   5.099   8.971  1.00  0.00    -0.015 C 
ATOM     28  C   UNL     1      -3.311   5.971   7.826  1.00  0.00     0.007 C 
ATOM     29  C   UNL     1      -1.833   5.887   9.855  1.00  0.00     0.007 C 
ENDBRANCH  26  27
ENDBRANCH  25  26
BRANCH  25  30
ATOM     30  C   UNL     1      -3.432   1.925   9.301  1.00  0.00     0.243 C 
ATOM     31  O   UNL     1      -2.598   1.034   9.450  1.00  0.00    -0.273 OA
ATOM     32  N   UNL     1      -4.226   2.011   8.186  1.00  0.00    -0.342 N 
ATOM     33  H   UNL     1      -4.989   2.693   8.199  1.00  0.00     0.164 HD
BRANCH  32  34
ATOM     34  C   UNL     1      -4.141   1.069   7.067  1.00  0.00     0.175 C 
BRANCH  34  35
ATOM     35  C   UNL     1      -5.488   0.944   6.338  1.00  0.00     0.070 C 
BRANCH  35  36
ATOM     36  C   UNL     1      -6.376  -0.126   6.932  1.00  0.00    -0.045 A 
ATOM     37  C   UNL     1      -7.760   0.086   7.031  1.00  0.00     0.007 A 
ATOM     38  C   UNL     1      -5.835  -1.327   7.410  1.00  0.00     0.007 A 
ATOM     39  C   UNL     1      -8.586  -0.890   7.590  1.00  0.00     0.046 A 
ATOM     40  C   UNL     1      -6.661  -2.304   7.970  1.00  0.00     0.046 A 
ATOM     41  C   UNL     1      -8.031  -2.076   8.054  1.00  0.00     0.115 A 
BRANCH  41  42
ATOM     42  O   UNL     1      -8.872  -3.002   8.596  1.00  0.00    -0.508 OA
ATOM     43  H   UNL     1      -9.763  -2.849   8.240  1.00  0.00     0.293 HD
ENDBRANCH  41  42
ENDBRANCH  35  36
ENDBRANCH  34  35
BRANCH  34  44
ATOM     44  C   UNL     1      -3.016   1.549   6.122  1.00  0.00     0.243 C 
ATOM     45  O   UNL     1      -3.116   1.611   4.900  1.00  0.00    -0.273 OA
ATOM     46  N   UNL     1      -1.820   1.784   6.767  1.00  0.00    -0.341 N 
ATOM     47  H   UNL     1      -1.755   1.606   7.767  1.00  0.00     0.164 HD
BRANCH  46  48
ATOM     48  C   UNL     1      -0.594   2.181   6.072  1.00  0.00     0.196 C 
BRANCH  48  49
ATOM     49  C   UNL     1       0.169   3.262   6.856  1.00  0.00     0.072 C 
BRANCH  49  50
ATOM     50  C   UNL     1       0.357   4.534   6.060  1.00  0.00    -0.045 A 
ATOM     51  C   UNL     1       0.885   4.475   4.762  1.00  0.00     0.007 A 
ATOM     52  C   UNL     1       0.031   5.781   6.608  1.00  0.00     0.007 A 
ATOM     53  C   UNL     1       1.076   5.643   4.024  1.00  0.00     0.046 A 
ATOM     54  C   UNL     1       0.223   6.951   5.869  1.00  0.00     0.046 A 
ATOM     55  C   UNL     1       0.743   6.871   4.582  1.00  0.00     0.115 A 
BRANCH  55  56
ATOM     56  O   UNL     1       0.946   7.989   3.828  1.00  0.00    -0.508 OA
ATOM     57  H   UNL     1       0.787   8.767   4.385  1.00  0.00     0.293 HD
ENDBRANCH  55  56
ENDBRANCH  49  50
ENDBRANCH  48  49
BRANCH  48  58
ATOM     58  C   UNL     1       0.301   0.947   5.894  1.00  0.00     0.326 C 
ATOM     59  O   UNL     1       1.043   0.701   4.957  1.00  0.00    -0.250 OA
BRANCH  58  60
ATOM     60  O   UNL     1       0.228   0.071   6.928  1.00  0.00    -0.480 OA
ATOM     61  H   UNL     1       1.052  -0.455   6.837  1.00  0.00     0.296 HD
ENDBRANCH  58  60
ENDBRANCH  48  58
ENDBRANCH  46  48
ENDBRANCH  34  44
ENDBRANCH  32  34
ENDBRANCH  25  30
ENDBRANCH  23  25
ENDBRANCH   2  23
TORSDOF 28
ENDMDL
MODEL 9
REMARK VINA RESULT:    -7.509      2.391      3.443
REMARK INTER + INTRA:         -24.094
REMARK INTER:                 -20.018
REMARK INTRA:                  -4.076
REMARK UNBOUND:                -5.391
REMARK SMILES CCCCCCC[C@H](N)[C@H](O)C(=O)N[C@H](C)C(=O)N(C)[C@H](CC(C)C)C(=O)N[C@@H](Cc1ccc(O)cc1)C(=O)N[C@@H](Cc1ccc(O)cc1)C(=O)O
REMARK SMILES IDX 18 1 17 2 15 3 16 4 14 5 12 6 13 7 10 9 11 10 8 12 9 13 7 16
REMARK SMILES IDX 6 17 5 18 4 19 3 20 2 21 1 22 19 23 20 24 21 25 22 26 23 27
REMARK SMILES IDX 24 28 25 29 26 30 27 31 28 32 29 34 30 35 31 36 32 37 37 38
REMARK SMILES IDX 33 39 36 40 34 41 35 42 38 44 39 45 40 46 41 48 42 49 43 50
REMARK SMILES IDX 44 51 49 52 45 53 48 54 46 55 47 56 50 58 51 59 52 60
REMARK H PARENT 14 8 11 11 9 14 9 15 28 33 35 43 40 47 47 57 52 61
ROOT
ATOM      1  O   UNL     1      -5.915  -1.300  12.001  1.00  0.00    -0.272 OA
ATOM      2  C   UNL     1      -6.859  -0.618  11.577  1.00  0.00     0.245 C 
ENDROOT
BRANCH   2   3
ATOM      3  C   UNL     1      -6.713   0.924  11.565  1.00  0.00     0.168 C 
ATOM      4  C   UNL     1      -7.780   1.576  12.437  1.00  0.00     0.041 C 
BRANCH   3   5
ATOM      5  N   UNL     1      -5.380   1.414  11.883  1.00  0.00    -0.342 N 
ATOM      6  C   UNL     1      -4.808   2.464  11.196  1.00  0.00     0.251 C 
ATOM      7  O   UNL     1      -5.349   3.030  10.253  1.00  0.00    -0.272 OA
ATOM      8  H   UNL     1      -4.819   1.000  12.624  1.00  0.00     0.164 HD
BRANCH   6   9
ATOM      9  C   UNL     1      -3.461   2.901  11.794  1.00  0.00     0.219 C 
BRANCH   9  10
ATOM     10  O   UNL     1      -2.647   1.791  12.194  1.00  0.00    -0.382 OA
ATOM     11  H   UNL     1      -3.290   1.053  12.280  1.00  0.00     0.211 HD
ENDBRANCH   9  10
BRANCH   9  12
ATOM     12  C   UNL     1      -2.667   3.861  10.870  1.00  0.00     0.089 C 
BRANCH  12  13
ATOM     13  N   UNL     1      -3.250   5.217  10.994  1.00  0.00    -0.325 NA
ATOM     14  H   UNL     1      -3.750   5.447  10.133  1.00  0.00     0.119 HD
ATOM     15  H   UNL     1      -2.490   5.899  11.052  1.00  0.00     0.119 HD
ENDBRANCH  12  13
BRANCH  12  16
ATOM     16  C   UNL     1      -1.138   3.916  11.103  1.00  0.00     0.022 C 
BRANCH  16  17
ATOM     17  C   UNL     1      -0.352   5.141  10.614  1.00  0.00     0.002 C 
BRANCH  17  18
ATOM     18  C   UNL     1       0.112   5.072   9.161  1.00  0.00     0.000 C 
BRANCH  18  19
ATOM     19  C   UNL     1      -0.686   5.971   8.207  1.00  0.00    -0.000 C 
BRANCH  19  20
ATOM     20  C   UNL     1       0.088   6.469   6.984  1.00  0.00    -0.000 C 
BRANCH  20  21
ATOM     21  C   UNL     1      -0.758   6.494   5.708  1.00  0.00    -0.003 C 
ATOM     22  C   UNL     1      -2.235   6.668   6.026  1.00  0.00     0.004 C 
ENDBRANCH  20  21
ENDBRANCH  19  20
ENDBRANCH  18  19
ENDBRANCH  17  18
ENDBRANCH  16  17
ENDBRANCH  12  16
ENDBRANCH   9  12
ENDBRANCH   6   9
ENDBRANCH   3   5
ENDBRANCH   2   3
BRANCH   2  23
ATOM     23  N   UNL     1      -7.969  -1.240  11.014  1.00  0.00    -0.332 N 
ATOM     24  C   UNL     1      -9.102  -1.750  11.771  1.00  0.00     0.147 C 
BRANCH  23  25
ATOM     25  C   UNL     1      -8.122  -1.307   9.535  1.00  0.00     0.174 C 
BRANCH  25  26
ATOM     26  C   UNL     1      -9.597  -1.430   9.087  1.00  0.00     0.038 C 
BRANCH  26  27
ATOM     27  C   UNL     1      -9.935  -0.961   7.654  1.00  0.00    -0.015 C 
ATOM     28  C   UNL     1      -9.009   0.154   7.170  1.00  0.00     0.007 C 
ATOM     29  C   UNL     1      -9.982  -2.099   6.638  1.00  0.00     0.007 C 
ENDBRANCH  26  27
ENDBRANCH  25  26
BRANCH  25  30
ATOM     30  C   UNL     1      -7.203  -2.406   8.955  1.00  0.00     0.243 C 
ATOM     31  O   UNL     1      -7.379  -3.598   9.203  1.00  0.00    -0.273 OA
ATOM     32  N   UNL     1      -6.181  -1.964   8.154  1.00  0.00    -0.342 N 
ATOM     33  H   UNL     1      -6.186  -0.978   7.882  1.00  0.00     0.164 HD
BRANCH  32  34
ATOM     34  C   UNL     1      -5.198  -2.861   7.541  1.00  0.00     0.175 C 
BRANCH  34  35
ATOM     35  C   UNL     1      -4.738  -2.333   6.173  1.00  0.00     0.070 C 
BRANCH  35  36
ATOM     36  C   UNL     1      -5.190  -3.210   5.026  1.00  0.00    -0.045 A 
ATOM     37  C   UNL     1      -6.312  -2.847   4.266  1.00  0.00     0.007 A 
ATOM     38  C   UNL     1      -4.515  -4.399   4.722  1.00  0.00     0.007 A 
ATOM     39  C   UNL     1      -6.745  -3.656   3.215  1.00  0.00     0.046 A 
ATOM     40  C   UNL     1      -4.949  -5.211   3.670  1.00  0.00     0.046 A 
ATOM     41  C   UNL     1      -6.060  -4.830   2.925  1.00  0.00     0.115 A 
BRANCH  41  42
ATOM     42  O   UNL     1      -6.517  -5.594   1.892  1.00  0.00    -0.508 OA
ATOM     43  H   UNL     1      -5.769  -6.097   1.531  1.00  0.00     0.293 HD
ENDBRANCH  41  42
ENDBRANCH  35  36
ENDBRANCH  34  35
BRANCH  34  44
ATOM     44  C   UNL     1      -4.017  -3.021   8.525  1.00  0.00     0.243 C 
ATOM     45  O   UNL     1      -4.139  -3.173   9.737  1.00  0.00    -0.273 OA
ATOM     46  N   UNL     1      -2.783  -2.845   7.934  1.00  0.00    -0.341 N 
ATOM     47  H   UNL     1      -2.737  -2.604   6.947  1.00  0.00     0.164 HD
BRANCH  46  48
ATOM     48  C   UNL     1      -1.521  -2.883   8.677  1.00  0.00     0.196 C 
BRANCH  48  49
ATOM     49  C   UNL     1      -1.319  -1.601   9.502  1.00  0.00     0.072 C 
BRANCH  49  50
ATOM     50  C   UNL     1      -1.026  -0.394   8.639  1.00  0.00    -0.045 A 
ATOM     51  C   UNL     1      -1.758   0.788   8.820  1.00  0.00     0.007 A 
ATOM     52  C   UNL     1      -0.044  -0.443   7.642  1.00  0.00     0.007 A 
ATOM     53  C   UNL     1      -1.506   1.904   8.021  1.00  0.00     0.046 A 
ATOM     54  C   UNL     1       0.207   0.674   6.841  1.00  0.00     0.046 A 
ATOM     55  C   UNL     1      -0.526   1.839   7.038  1.00  0.00     0.115 A 
BRANCH  55  56
ATOM     56  O   UNL     1      -0.312   2.950   6.278  1.00  0.00    -0.508 OA
ATOM     57  H   UNL     1       0.294   2.715   5.557  1.00  0.00     0.293 HD
ENDBRANCH  55  56
ENDBRANCH  49  50
ENDBRANCH  48  49
BRANCH  48  58
ATOM     58  C   UNL     1      -1.529  -4.101   9.612  1.00  0.00     0.326 C 
ATOM     59  O   UNL     1      -1.544  -5.278   9.292  1.00  0.00    -0.250 OA
BRANCH  58  60
ATOM     60  O   UNL     1      -1.501  -3.773  10.928  1.00  0.00    -0.480 OA
ATOM     61  H   UNL     1      -1.748  -4.611  11.375  1.00  0.00     0.296 HD
ENDBRANCH  58  60
ENDBRANCH  48  58
ENDBRANCH  46  48
ENDBRANCH  34  44
ENDBRANCH  32  34
ENDBRANCH  25  30
ENDBRANCH  23  25
ENDBRANCH   2  23
TORSDOF 28
ENDMDL
MODEL 10
REMARK VINA RESULT:    -7.470      2.451      7.630
REMARK INTER + INTRA:         -23.996
REMARK INTER:                 -17.674
REMARK INTRA:                  -6.323
REMARK UNBOUND:                -5.391
REMARK SMILES CCCCCCC[C@H](N)[C@H](O)C(=O)N[C@H](C)C(=O)N(C)[C@H](CC(C)C)C(=O)N[C@@H](Cc1ccc(O)cc1)C(=O)N[C@@H](Cc1ccc(O)cc1)C(=O)O
REMARK SMILES IDX 18 1 17 2 15 3 16 4 14 5 12 6 13 7 10 9 11 10 8 12 9 13 7 16
REMARK SMILES IDX 6 17 5 18 4 19 3 20 2 21 1 22 19 23 20 24 21 25 22 26 23 27
REMARK SMILES IDX 24 28 25 29 26 30 27 31 28 32 29 34 30 35 31 36 32 37 37 38
REMARK SMILES IDX 33 39 36 40 34 41 35 42 38 44 39 45 40 46 41 48 42 49 43 50
REMARK SMILES IDX 44 51 49 52 45 53 48 54 46 55 47 56 50 58 51 59 52 60
REMARK H PARENT 14 8 11 11 9 14 9 15 28 33 35 43 40 47 47 57 52 61
ROOT
ATOM      1  O   UNL     1      -5.759   2.006  13.426  1.00  0.00    -0.272 OA
ATOM      2  C   UNL     1      -5.062   1.315  12.668  1.00  0.00     0.245 C 
ENDROOT
BRANCH   2   3
ATOM      3  C   UNL     1      -4.201   0.181  13.280  1.00  0.00     0.168 C 
ATOM      4  C   UNL     1      -4.765  -0.260  14.626  1.00  0.00     0.041 C 
BRANCH   3   5
ATOM      5  N   UNL     1      -3.961  -0.949  12.397  1.00  0.00    -0.342 N 
ATOM      6  C   UNL     1      -2.770  -1.103  11.719  1.00  0.00     0.251 C 
ATOM      7  O   UNL     1      -1.851  -0.293  11.773  1.00  0.00    -0.272 OA
ATOM      8  H   UNL     1      -4.663  -1.669  12.244  1.00  0.00     0.164 HD
BRANCH   6   9
ATOM      9  C   UNL     1      -2.686  -2.437  10.960  1.00  0.00     0.219 C 
BRANCH   9  10
ATOM     10  O   UNL     1      -2.583  -3.566  11.837  1.00  0.00    -0.382 OA
ATOM     11  H   UNL     1      -1.933  -3.274  12.513  1.00  0.00     0.211 HD
ENDBRANCH   9  10
BRANCH   9  12
ATOM     12  C   UNL     1      -3.841  -2.633   9.944  1.00  0.00     0.089 C 
BRANCH  12  13
ATOM     13  N   UNL     1      -4.105  -1.336   9.280  1.00  0.00    -0.325 NA
ATOM     14  H   UNL     1      -4.687  -0.759   9.890  1.00  0.00     0.119 HD
ATOM     15  H   UNL     1      -4.674  -1.501   8.446  1.00  0.00     0.119 HD
ENDBRANCH  12  13
BRANCH  12  16
ATOM     16  C   UNL     1      -3.630  -3.740   8.883  1.00  0.00     0.022 C 
BRANCH  16  17
ATOM     17  C   UNL     1      -2.210  -4.026   8.374  1.00  0.00     0.002 C 
BRANCH  17  18
ATOM     18  C   UNL     1      -1.772  -3.182   7.179  1.00  0.00     0.000 C 
BRANCH  18  19
ATOM     19  C   UNL     1      -0.978  -1.925   7.560  1.00  0.00    -0.000 C 
BRANCH  19  20
ATOM     20  C   UNL     1      -1.268  -0.689   6.703  1.00  0.00    -0.000 C 
BRANCH  20  21
ATOM     21  C   UNL     1      -0.175   0.379   6.803  1.00  0.00    -0.003 C 
ATOM     22  C   UNL     1       0.527   0.580   5.469  1.00  0.00     0.004 C 
ENDBRANCH  20  21
ENDBRANCH  19  20
ENDBRANCH  18  19
ENDBRANCH  17  18
ENDBRANCH  16  17
ENDBRANCH  12  16
ENDBRANCH   9  12
ENDBRANCH   6   9
ENDBRANCH   3   5
ENDBRANCH   2   3
BRANCH   2  23
ATOM     23  N   UNL     1      -5.155   1.483  11.291  1.00  0.00    -0.332 N 
ATOM     24  C   UNL     1      -6.304   1.094  10.487  1.00  0.00     0.147 C 
BRANCH  23  25
ATOM     25  C   UNL     1      -4.092   2.216  10.550  1.00  0.00     0.174 C 
BRANCH  25  26
ATOM     26  C   UNL     1      -3.337   3.237  11.434  1.00  0.00     0.038 C 
BRANCH  26  27
ATOM     27  C   UNL     1      -2.450   4.272  10.706  1.00  0.00    -0.015 C 
ATOM     28  C   UNL     1      -2.845   5.712  11.033  1.00  0.00     0.007 C 
ATOM     29  C   UNL     1      -0.956   4.060  10.936  1.00  0.00     0.007 C 
ENDBRANCH  26  27
ENDBRANCH  25  26
BRANCH  25  30
ATOM     30  C   UNL     1      -4.670   2.826   9.253  1.00  0.00     0.243 C 
ATOM     31  O   UNL     1      -5.506   3.728   9.275  1.00  0.00    -0.273 OA
ATOM     32  N   UNL     1      -4.195   2.291   8.083  1.00  0.00    -0.342 N 
ATOM     33  H   UNL     1      -3.402   1.648   8.144  1.00  0.00     0.164 HD
BRANCH  32  34
ATOM     34  C   UNL     1      -4.650   2.726   6.760  1.00  0.00     0.175 C 
BRANCH  34  35
ATOM     35  C   UNL     1      -3.464   3.040   5.836  1.00  0.00     0.070 C 
BRANCH  35  36
ATOM     36  C   UNL     1      -2.504   4.042   6.436  1.00  0.00    -0.045 A 
ATOM     37  C   UNL     1      -1.165   3.686   6.660  1.00  0.00     0.007 A 
ATOM     38  C   UNL     1      -2.937   5.325   6.796  1.00  0.00     0.007 A 
ATOM     39  C   UNL     1      -0.276   4.599   7.226  1.00  0.00     0.046 A 
ATOM     40  C   UNL     1      -2.047   6.240   7.364  1.00  0.00     0.046 A 
ATOM     41  C   UNL     1      -0.723   5.869   7.572  1.00  0.00     0.115 A 
BRANCH  41  42
ATOM     42  O   UNL     1       0.177   6.730   8.126  1.00  0.00    -0.508 OA
ATOM     43  H   UNL     1       1.060   6.509   7.784  1.00  0.00     0.293 HD
ENDBRANCH  41  42
ENDBRANCH  35  36
ENDBRANCH  34  35
BRANCH  34  44
ATOM     44  C   UNL     1      -5.558   1.620   6.178  1.00  0.00     0.243 C 
ATOM     45  O   UNL     1      -6.598   1.829   5.560  1.00  0.00    -0.273 OA
ATOM     46  N   UNL     1      -5.164   0.346   6.529  1.00  0.00    -0.341 N 
ATOM     47  H   UNL     1      -4.360   0.228   7.141  1.00  0.00     0.164 HD
BRANCH  46  48
ATOM     48  C   UNL     1      -5.906  -0.860   6.152  1.00  0.00     0.196 C 
BRANCH  48  49
ATOM     49  C   UNL     1      -4.980  -2.085   6.074  1.00  0.00     0.072 C 
BRANCH  49  50
ATOM     50  C   UNL     1      -5.389  -3.055   4.988  1.00  0.00    -0.045 A 
ATOM     51  C   UNL     1      -4.615  -4.199   4.745  1.00  0.00     0.007 A 
ATOM     52  C   UNL     1      -6.522  -2.818   4.200  1.00  0.00     0.007 A 
ATOM     53  C   UNL     1      -4.974  -5.093   3.737  1.00  0.00     0.046 A 
ATOM     54  C   UNL     1      -6.881  -3.713   3.189  1.00  0.00     0.046 A 
ATOM     55  C   UNL     1      -6.104  -4.844   2.967  1.00  0.00     0.115 A 
BRANCH  55  56
ATOM     56  O   UNL     1      -6.420  -5.742   1.990  1.00  0.00    -0.508 OA
ATOM     57  H   UNL     1      -5.618  -6.238   1.760  1.00  0.00     0.293 HD
ENDBRANCH  55  56
ENDBRANCH  49  50
ENDBRANCH  48  49
BRANCH  48  58
ATOM     58  C   UNL     1      -7.008  -1.112   7.190  1.00  0.00     0.326 C 
ATOM     59  O   UNL     1      -6.948  -1.837   8.171  1.00  0.00    -0.250 OA
BRANCH  58  60
ATOM     60  O   UNL     1      -8.148  -0.418   6.949  1.00  0.00    -0.480 OA
ATOM     61  H   UNL     1      -8.647  -1.006   6.341  1.00  0.00     0.296 HD
ENDBRANCH  58  60
ENDBRANCH  48  58
ENDBRANCH  46  48
ENDBRANCH  34  44
ENDBRANCH  32  34
ENDBRANCH  25  30
ENDBRANCH  23  25
ENDBRANCH   2  23
TORSDOF 28
ENDMDL
MODEL 11
REMARK VINA RESULT:    -7.430      2.149      3.508
REMARK INTER + INTRA:         -23.898
REMARK INTER:                 -18.499
REMARK INTRA:                  -5.399
REMARK UNBOUND:                -5.391
REMARK SMILES CCCCCCC[C@H](N)[C@H](O)C(=O)N[C@H](C)C(=O)N(C)[C@H](CC(C)C)C(=O)N[C@@H](Cc1ccc(O)cc1)C(=O)N[C@@H](Cc1ccc(O)cc1)C(=O)O
REMARK SMILES IDX 18 1 17 2 15 3 16 4 14 5 12 6 13 7 10 9 11 10 8 12 9 13 7 16
REMARK SMILES IDX 6 17 5 18 4 19 3 20 2 21 1 22 19 23 20 24 21 25 22 26 23 27
REMARK SMILES IDX 24 28 25 29 26 30 27 31 28 32 29 34 30 35 31 36 32 37 37 38
REMARK SMILES IDX 33 39 36 40 34 41 35 42 38 44 39 45 40 46 41 48 42 49 43 50
REMARK SMILES IDX 44 51 49 52 45 53 48 54 46 55 47 56 50 58 51 59 52 60
REMARK H PARENT 14 8 11 11 9 14 9 15 28 33 35 43 40 47 47 57 52 61
ROOT
ATOM      1  O   UNL     1      -4.582   1.159   9.562  1.00  0.00    -0.272 OA
ATOM      2  C   UNL     1      -5.562   1.911   9.451  1.00  0.00     0.245 C 
ENDROOT
BRANCH   2   3
ATOM      3  C   UNL     1      -5.533   3.278  10.177  1.00  0.00     0.168 C 
ATOM      4  C   UNL     1      -6.273   3.201  11.508  1.00  0.00     0.041 C 
BRANCH   3   5
ATOM      5  N   UNL     1      -4.210   3.864  10.326  1.00  0.00    -0.342 N 
ATOM      6  C   UNL     1      -3.634   4.624   9.330  1.00  0.00     0.251 C 
ATOM      7  O   UNL     1      -4.165   4.830   8.244  1.00  0.00    -0.272 OA
ATOM      8  H   UNL     1      -3.658   3.733  11.170  1.00  0.00     0.164 HD
BRANCH   6   9
ATOM      9  C   UNL     1      -2.300   5.256   9.761  1.00  0.00     0.219 C 
BRANCH   9  10
ATOM     10  O   UNL     1      -2.315   5.704  11.121  1.00  0.00    -0.382 OA
ATOM     11  H   UNL     1      -2.415   6.678  11.042  1.00  0.00     0.211 HD
ENDBRANCH   9  10
BRANCH   9  12
ATOM     12  C   UNL     1      -1.079   4.337   9.497  1.00  0.00     0.089 C 
BRANCH  12  13
ATOM     13  N   UNL     1      -1.550   3.124   8.791  1.00  0.00    -0.325 NA
ATOM     14  H   UNL     1      -2.375   3.357   8.236  1.00  0.00     0.119 HD
ATOM     15  H   UNL     1      -1.877   2.445   9.483  1.00  0.00     0.119 HD
ENDBRANCH  12  13
BRANCH  12  16
ATOM     16  C   UNL     1       0.097   4.979   8.722  1.00  0.00     0.022 C 
BRANCH  16  17
ATOM     17  C   UNL     1      -0.132   6.301   7.977  1.00  0.00     0.002 C 
BRANCH  17  18
ATOM     18  C   UNL     1      -0.162   6.186   6.454  1.00  0.00     0.000 C 
BRANCH  18  19
ATOM     19  C   UNL     1      -0.378   4.757   5.940  1.00  0.00    -0.000 C 
BRANCH  19  20
ATOM     20  C   UNL     1       0.871   4.072   5.378  1.00  0.00    -0.000 C 
BRANCH  20  21
ATOM     21  C   UNL     1       1.201   2.755   6.086  1.00  0.00    -0.003 C 
ATOM     22  C   UNL     1       0.098   1.727   5.888  1.00  0.00     0.004 C 
ENDBRANCH  20  21
ENDBRANCH  19  20
ENDBRANCH  18  19
ENDBRANCH  17  18
ENDBRANCH  16  17
ENDBRANCH  12  16
ENDBRANCH   9  12
ENDBRANCH   6   9
ENDBRANCH   3   5
ENDBRANCH   2   3
BRANCH   2  23
ATOM     23  N   UNL     1      -6.603   1.574   8.591  1.00  0.00    -0.332 N 
ATOM     24  C   UNL     1      -6.887   2.251   7.334  1.00  0.00     0.147 C 
BRANCH  23  25
ATOM     25  C   UNL     1      -7.440   0.373   8.860  1.00  0.00     0.174 C 
BRANCH  25  26
ATOM     26  C   UNL     1      -8.001   0.340  10.301  1.00  0.00     0.038 C 
BRANCH  26  27
ATOM     27  C   UNL     1      -9.532   0.471  10.460  1.00  0.00    -0.015 C 
ATOM     28  C   UNL     1      -9.944   1.807  11.077  1.00  0.00     0.007 C 
ATOM     29  C   UNL     1     -10.301   0.217   9.165  1.00  0.00     0.007 C 
ENDBRANCH  26  27
ENDBRANCH  25  26
BRANCH  25  30
ATOM     30  C   UNL     1      -6.675  -0.909   8.461  1.00  0.00     0.243 C 
ATOM     31  O   UNL     1      -6.936  -2.003   8.959  1.00  0.00    -0.273 OA
ATOM     32  N   UNL     1      -5.687  -0.744   7.525  1.00  0.00    -0.342 N 
ATOM     33  H   UNL     1      -5.626   0.164   7.056  1.00  0.00     0.164 HD
BRANCH  32  34
ATOM     34  C   UNL     1      -4.842  -1.842   7.048  1.00  0.00     0.175 C 
BRANCH  34  35
ATOM     35  C   UNL     1      -4.514  -1.687   5.555  1.00  0.00     0.070 C 
BRANCH  35  36
ATOM     36  C   UNL     1      -5.066  -2.817   4.715  1.00  0.00    -0.045 A 
ATOM     37  C   UNL     1      -6.331  -2.695   4.119  1.00  0.00     0.007 A 
ATOM     38  C   UNL     1      -4.341  -4.002   4.538  1.00  0.00     0.007 A 
ATOM     39  C   UNL     1      -6.855  -3.737   3.353  1.00  0.00     0.046 A 
ATOM     40  C   UNL     1      -4.866  -5.047   3.772  1.00  0.00     0.046 A 
ATOM     41  C   UNL     1      -6.119  -4.903   3.186  1.00  0.00     0.115 A 
BRANCH  41  42
ATOM     42  O   UNL     1      -6.668  -5.899   2.433  1.00  0.00    -0.508 OA
ATOM     43  H   UNL     1      -7.605  -5.687   2.285  1.00  0.00     0.293 HD
ENDBRANCH  41  42
ENDBRANCH  35  36
ENDBRANCH  34  35
BRANCH  34  44
ATOM     44  C   UNL     1      -3.566  -1.877   7.919  1.00  0.00     0.243 C 
ATOM     45  O   UNL     1      -2.511  -1.322   7.626  1.00  0.00    -0.273 OA
ATOM     46  N   UNL     1      -3.672  -2.708   9.014  1.00  0.00    -0.341 N 
ATOM     47  H   UNL     1      -4.529  -3.239   9.151  1.00  0.00     0.164 HD
BRANCH  46  48
ATOM     48  C   UNL     1      -2.571  -2.955   9.947  1.00  0.00     0.196 C 
BRANCH  48  49
ATOM     49  C   UNL     1      -2.975  -2.619  11.392  1.00  0.00     0.072 C 
BRANCH  49  50
ATOM     50  C   UNL     1      -2.844  -1.145  11.705  1.00  0.00    -0.045 A 
ATOM     51  C   UNL     1      -1.826  -0.391  11.104  1.00  0.00     0.007 A 
ATOM     52  C   UNL     1      -3.714  -0.520  12.607  1.00  0.00     0.007 A 
ATOM     53  C   UNL     1      -1.688   0.966  11.394  1.00  0.00     0.046 A 
ATOM     54  C   UNL     1      -3.575   0.839  12.899  1.00  0.00     0.046 A 
ATOM     55  C   UNL     1      -2.562   1.571  12.289  1.00  0.00     0.115 A 
BRANCH  55  56
ATOM     56  O   UNL     1      -2.392   2.899  12.547  1.00  0.00    -0.508 OA
ATOM     57  H   UNL     1      -1.551   3.014  13.017  1.00  0.00     0.293 HD
ENDBRANCH  55  56
ENDBRANCH  49  50
ENDBRANCH  48  49
BRANCH  48  58
ATOM     58  C   UNL     1      -2.162  -4.432   9.858  1.00  0.00     0.326 C 
ATOM     59  O   UNL     1      -2.176  -5.144   8.866  1.00  0.00    -0.250 OA
BRANCH  58  60
ATOM     60  O   UNL     1      -1.735  -4.948  11.038  1.00  0.00    -0.480 OA
ATOM     61  H   UNL     1      -1.490  -5.870  10.805  1.00  0.00     0.296 HD
ENDBRANCH  58  60
ENDBRANCH  48  58
ENDBRANCH  46  48
ENDBRANCH  34  44
ENDBRANCH  32  34
ENDBRANCH  25  30
ENDBRANCH  23  25
ENDBRANCH   2  23
TORSDOF 28
ENDMDL
MODEL 12
REMARK VINA RESULT:    -7.426      2.406      8.641
REMARK INTER + INTRA:         -23.886
REMARK INTER:                 -18.666
REMARK INTRA:                  -5.221
REMARK UNBOUND:                -5.391
REMARK SMILES CCCCCCC[C@H](N)[C@H](O)C(=O)N[C@H](C)C(=O)N(C)[C@H](CC(C)C)C(=O)N[C@@H](Cc1ccc(O)cc1)C(=O)N[C@@H](Cc1ccc(O)cc1)C(=O)O
REMARK SMILES IDX 18 1 17 2 15 3 16 4 14 5 12 6 13 7 10 9 11 10 8 12 9 13 7 16
REMARK SMILES IDX 6 17 5 18 4 19 3 20 2 21 1 22 19 23 20 24 21 25 22 26 23 27
REMARK SMILES IDX 24 28 25 29 26 30 27 31 28 32 29 34 30 35 31 36 32 37 37 38
REMARK SMILES IDX 33 39 36 40 34 41 35 42 38 44 39 45 40 46 41 48 42 49 43 50
REMARK SMILES IDX 44 51 49 52 45 53 48 54 46 55 47 56 50 58 51 59 52 60
REMARK H PARENT 14 8 11 11 9 14 9 15 28 33 35 43 40 47 47 57 52 61
ROOT
ATOM      1  O   UNL     1      -4.528  -1.056  10.130  1.00  0.00    -0.272 OA
ATOM      2  C   UNL     1      -4.379  -0.551  11.253  1.00  0.00     0.245 C 
ENDROOT
BRANCH   2   3
ATOM      3  C   UNL     1      -5.070  -1.225  12.465  1.00  0.00     0.168 C 
ATOM      4  C   UNL     1      -4.543  -0.652  13.776  1.00  0.00     0.041 C 
BRANCH   3   5
ATOM      5  N   UNL     1      -6.524  -1.223  12.419  1.00  0.00    -0.342 N 
ATOM      6  C   UNL     1      -7.238  -2.300  11.939  1.00  0.00     0.251 C 
ATOM      7  O   UNL     1      -6.714  -3.311  11.483  1.00  0.00    -0.272 OA
ATOM      8  H   UNL     1      -7.069  -0.425  12.737  1.00  0.00     0.164 HD
BRANCH   6   9
ATOM      9  C   UNL     1      -8.756  -2.134  12.117  1.00  0.00     0.219 C 
BRANCH   9  10
ATOM     10  O   UNL     1      -9.100  -1.473  13.342  1.00  0.00    -0.382 OA
ATOM     11  H   UNL     1      -9.849  -0.891  13.088  1.00  0.00     0.211 HD
ENDBRANCH   9  10
BRANCH   9  12
ATOM     12  C   UNL     1      -9.439  -1.442  10.909  1.00  0.00     0.089 C 
BRANCH  12  13
ATOM     13  N   UNL     1      -9.459  -2.395   9.775  1.00  0.00    -0.325 NA
ATOM     14  H   UNL     1      -8.498  -2.606   9.497  1.00  0.00     0.119 HD
ATOM     15  H   UNL     1      -9.877  -1.935   8.963  1.00  0.00     0.119 HD
ENDBRANCH  12  13
BRANCH  12  16
ATOM     16  C   UNL     1     -10.861  -0.886  11.160  1.00  0.00     0.022 C 
BRANCH  16  17
ATOM     17  C   UNL     1     -11.584  -0.145  10.027  1.00  0.00     0.002 C 
BRANCH  17  18
ATOM     18  C   UNL     1     -11.744   1.359  10.239  1.00  0.00     0.000 C 
BRANCH  18  19
ATOM     19  C   UNL     1     -10.874   1.926  11.368  1.00  0.00    -0.000 C 
BRANCH  19  20
ATOM     20  C   UNL     1     -11.628   2.743  12.422  1.00  0.00    -0.000 C 
BRANCH  20  21
ATOM     21  C   UNL     1     -11.742   2.024  13.769  1.00  0.00    -0.003 C 
ATOM     22  C   UNL     1     -13.165   2.072  14.304  1.00  0.00     0.004 C 
ENDBRANCH  20  21
ENDBRANCH  19  20
ENDBRANCH  18  19
ENDBRANCH  17  18
ENDBRANCH  16  17
ENDBRANCH  12  16
ENDBRANCH   9  12
ENDBRANCH   6   9
ENDBRANCH   3   5
ENDBRANCH   2   3
BRANCH   2  23
ATOM     23  N   UNL     1      -3.510   0.520  11.425  1.00  0.00    -0.332 N 
ATOM     24  C   UNL     1      -2.096   0.394  11.747  1.00  0.00     0.147 C 
BRANCH  23  25
ATOM     25  C   UNL     1      -3.968   1.910  11.153  1.00  0.00     0.174 C 
BRANCH  25  26
ATOM     26  C   UNL     1      -5.479   2.109  11.421  1.00  0.00     0.038 C 
BRANCH  26  27
ATOM     27  C   UNL     1      -6.367   2.448  10.203  1.00  0.00    -0.015 C 
ATOM     28  C   UNL     1      -7.361   1.334   9.876  1.00  0.00     0.007 C 
ATOM     29  C   UNL     1      -7.087   3.789  10.331  1.00  0.00     0.007 C 
ENDBRANCH  26  27
ENDBRANCH  25  26
BRANCH  25  30
ATOM     30  C   UNL     1      -3.525   2.350   9.739  1.00  0.00     0.243 C 
ATOM     31  O   UNL     1      -3.240   3.519   9.481  1.00  0.00    -0.273 OA
ATOM     32  N   UNL     1      -3.477   1.356   8.796  1.00  0.00    -0.342 N 
ATOM     33  H   UNL     1      -3.589   0.391   9.119  1.00  0.00     0.164 HD
BRANCH  32  34
ATOM     34  C   UNL     1      -3.105   1.593   7.399  1.00  0.00     0.175 C 
BRANCH  34  35
ATOM     35  C   UNL     1      -1.588   1.460   7.194  1.00  0.00     0.070 C 
BRANCH  35  36
ATOM     36  C   UNL     1      -0.972   2.693   6.572  1.00  0.00    -0.045 A 
ATOM     37  C   UNL     1      -1.755   3.838   6.359  1.00  0.00     0.007 A 
ATOM     38  C   UNL     1       0.373   2.704   6.179  1.00  0.00     0.007 A 
ATOM     39  C   UNL     1      -1.198   4.975   5.773  1.00  0.00     0.046 A 
ATOM     40  C   UNL     1       0.930   3.842   5.591  1.00  0.00     0.046 A 
ATOM     41  C   UNL     1       0.139   4.969   5.394  1.00  0.00     0.115 A 
BRANCH  41  42
ATOM     42  O   UNL     1       0.642   6.099   4.822  1.00  0.00    -0.508 OA
ATOM     43  H   UNL     1       1.257   6.512   5.452  1.00  0.00     0.293 HD
ENDBRANCH  41  42
ENDBRANCH  35  36
ENDBRANCH  34  35
BRANCH  34  44
ATOM     44  C   UNL     1      -3.896   0.600   6.518  1.00  0.00     0.243 C 
ATOM     45  O   UNL     1      -3.967   0.663   5.293  1.00  0.00    -0.273 OA
ATOM     46  N   UNL     1      -4.637  -0.308   7.244  1.00  0.00    -0.341 N 
ATOM     47  H   UNL     1      -4.637  -0.246   8.259  1.00  0.00     0.164 HD
BRANCH  46  48
ATOM     48  C   UNL     1      -5.518  -1.304   6.630  1.00  0.00     0.196 C 
BRANCH  48  49
ATOM     49  C   UNL     1      -4.795  -2.647   6.434  1.00  0.00     0.072 C 
BRANCH  49  50
ATOM     50  C   UNL     1      -5.218  -3.355   5.167  1.00  0.00    -0.045 A 
ATOM     51  C   UNL     1      -4.529  -4.502   4.744  1.00  0.00     0.007 A 
ATOM     52  C   UNL     1      -6.279  -2.873   4.390  1.00  0.00     0.007 A 
ATOM     53  C   UNL     1      -4.902  -5.157   3.570  1.00  0.00     0.046 A 
ATOM     54  C   UNL     1      -6.651  -3.527   3.214  1.00  0.00     0.046 A 
ATOM     55  C   UNL     1      -5.960  -4.665   2.814  1.00  0.00     0.115 A 
BRANCH  55  56
ATOM     56  O   UNL     1      -6.291  -5.333   1.673  1.00  0.00    -0.508 OA
ATOM     57  H   UNL     1      -7.258  -5.399   1.627  1.00  0.00     0.293 HD
ENDBRANCH  55  56
ENDBRANCH  49  50
ENDBRANCH  48  49
BRANCH  48  58
ATOM     58  C   UNL     1      -6.746  -1.506   7.529  1.00  0.00     0.326 C 
ATOM     59  O   UNL     1      -7.857  -1.024   7.382  1.00  0.00    -0.250 OA
BRANCH  58  60
ATOM     60  O   UNL     1      -6.516  -2.332   8.581  1.00  0.00    -0.480 OA
ATOM     61  H   UNL     1      -6.728  -3.220   8.221  1.00  0.00     0.296 HD
ENDBRANCH  58  60
ENDBRANCH  48  58
ENDBRANCH  46  48
ENDBRANCH  34  44
ENDBRANCH  32  34
ENDBRANCH  25  30
ENDBRANCH  23  25
ENDBRANCH   2  23
TORSDOF 28
ENDMDL
MODEL 13
REMARK VINA RESULT:    -7.404      2.349      6.294
REMARK INTER + INTRA:         -23.833
REMARK INTER:                 -20.465
REMARK INTRA:                  -3.367
REMARK UNBOUND:                -5.391
REMARK SMILES CCCCCCC[C@H](N)[C@H](O)C(=O)N[C@H](C)C(=O)N(C)[C@H](CC(C)C)C(=O)N[C@@H](Cc1ccc(O)cc1)C(=O)N[C@@H](Cc1ccc(O)cc1)C(=O)O
REMARK SMILES IDX 18 1 17 2 15 3 16 4 14 5 12 6 13 7 10 9 11 10 8 12 9 13 7 16
REMARK SMILES IDX 6 17 5 18 4 19 3 20 2 21 1 22 19 23 20 24 21 25 22 26 23 27
REMARK SMILES IDX 24 28 25 29 26 30 27 31 28 32 29 34 30 35 31 36 32 37 37 38
REMARK SMILES IDX 33 39 36 40 34 41 35 42 38 44 39 45 40 46 41 48 42 49 43 50
REMARK SMILES IDX 44 51 49 52 45 53 48 54 46 55 47 56 50 58 51 59 52 60
REMARK H PARENT 14 8 11 11 9 14 9 15 28 33 35 43 40 47 47 57 52 61
ROOT
ATOM      1  O   UNL     1      -5.362   3.071   8.385  1.00  0.00    -0.272 OA
ATOM      2  C   UNL     1      -4.183   3.365   8.137  1.00  0.00     0.245 C 
ENDROOT
BRANCH   2   3
ATOM      3  C   UNL     1      -3.311   3.952   9.275  1.00  0.00     0.168 C 
ATOM      4  C   UNL     1      -2.568   2.844  10.014  1.00  0.00     0.041 C 
BRANCH   3   5
ATOM      5  N   UNL     1      -2.417   5.026   8.868  1.00  0.00    -0.342 N 
ATOM      6  C   UNL     1      -1.431   5.507   9.703  1.00  0.00     0.251 C 
ATOM      7  O   UNL     1      -1.259   5.106  10.849  1.00  0.00    -0.272 OA
ATOM      8  H   UNL     1      -2.486   5.462   7.952  1.00  0.00     0.164 HD
BRANCH   6   9
ATOM      9  C   UNL     1      -0.520   6.537   9.014  1.00  0.00     0.219 C 
BRANCH   9  10
ATOM     10  O   UNL     1       0.285   7.271   9.944  1.00  0.00    -0.382 OA
ATOM     11  H   UNL     1       0.440   6.630  10.672  1.00  0.00     0.211 HD
ENDBRANCH   9  10
BRANCH   9  12
ATOM     12  C   UNL     1       0.357   5.920   7.893  1.00  0.00     0.089 C 
BRANCH  12  13
ATOM     13  N   UNL     1       0.304   4.445   8.016  1.00  0.00    -0.325 NA
ATOM     14  H   UNL     1       0.339   4.189   9.005  1.00  0.00     0.119 HD
ATOM     15  H   UNL     1       1.153   4.048   7.607  1.00  0.00     0.119 HD
ENDBRANCH  12  13
BRANCH  12  16
ATOM     16  C   UNL     1       0.007   6.346   6.447  1.00  0.00     0.022 C 
BRANCH  16  17
ATOM     17  C   UNL     1      -0.056   5.276   5.348  1.00  0.00     0.002 C 
BRANCH  17  18
ATOM     18  C   UNL     1       1.284   4.945   4.694  1.00  0.00     0.000 C 
BRANCH  18  19
ATOM     19  C   UNL     1       1.312   5.177   3.177  1.00  0.00    -0.000 C 
BRANCH  19  20
ATOM     20  C   UNL     1       0.781   6.538   2.717  1.00  0.00    -0.000 C 
BRANCH  20  21
ATOM     21  C   UNL     1       1.569   7.716   3.298  1.00  0.00    -0.003 C 
ATOM     22  C   UNL     1       0.679   8.932   3.499  1.00  0.00     0.004 C 
ENDBRANCH  20  21
ENDBRANCH  19  20
ENDBRANCH  18  19
ENDBRANCH  17  18
ENDBRANCH  16  17
ENDBRANCH  12  16
ENDBRANCH   9  12
ENDBRANCH   6   9
ENDBRANCH   3   5
ENDBRANCH   2   3
BRANCH   2  23
ATOM     23  N   UNL     1      -3.635   3.055   6.897  1.00  0.00    -0.332 N 
ATOM     24  C   UNL     1      -3.587   3.968   5.764  1.00  0.00     0.147 C 
BRANCH  23  25
ATOM     25  C   UNL     1      -2.925   1.763   6.691  1.00  0.00     0.174 C 
BRANCH  25  26
ATOM     26  C   UNL     1      -1.606   1.920   5.899  1.00  0.00     0.038 C 
BRANCH  26  27
ATOM     27  C   UNL     1      -0.370   1.169   6.442  1.00  0.00    -0.015 C 
ATOM     28  C   UNL     1      -0.497  -0.347   6.296  1.00  0.00     0.007 C 
ATOM     29  C   UNL     1       0.948   1.657   5.845  1.00  0.00     0.007 C 
ENDBRANCH  26  27
ENDBRANCH  25  26
BRANCH  25  30
ATOM     30  C   UNL     1      -3.890   0.716   6.090  1.00  0.00     0.243 C 
ATOM     31  O   UNL     1      -4.417   0.873   4.990  1.00  0.00    -0.273 OA
ATOM     32  N   UNL     1      -4.122  -0.391   6.865  1.00  0.00    -0.342 N 
ATOM     33  H   UNL     1      -3.541  -0.516   7.698  1.00  0.00     0.164 HD
BRANCH  32  34
ATOM     34  C   UNL     1      -5.028  -1.473   6.469  1.00  0.00     0.175 C 
BRANCH  34  35
ATOM     35  C   UNL     1      -4.253  -2.757   6.136  1.00  0.00     0.070 C 
BRANCH  35  36
ATOM     36  C   UNL     1      -4.857  -3.521   4.979  1.00  0.00    -0.045 A 
ATOM     37  C   UNL     1      -5.943  -2.982   4.272  1.00  0.00     0.007 A 
ATOM     38  C   UNL     1      -4.362  -4.779   4.611  1.00  0.00     0.007 A 
ATOM     39  C   UNL     1      -6.516  -3.685   3.213  1.00  0.00     0.046 A 
ATOM     40  C   UNL     1      -4.936  -5.484   3.551  1.00  0.00     0.046 A 
ATOM     41  C   UNL     1      -6.008  -4.930   2.860  1.00  0.00     0.115 A 
BRANCH  41  42
ATOM     42  O   UNL     1      -6.598  -5.586   1.821  1.00  0.00    -0.508 OA
ATOM     43  H   UNL     1      -7.052  -6.369   2.173  1.00  0.00     0.293 HD
ENDBRANCH  41  42
ENDBRANCH  35  36
ENDBRANCH  34  35
BRANCH  34  44
ATOM     44  C   UNL     1      -6.042  -1.691   7.614  1.00  0.00     0.243 C 
ATOM     45  O   UNL     1      -5.940  -2.559   8.476  1.00  0.00    -0.273 OA
ATOM     46  N   UNL     1      -7.165  -0.896   7.511  1.00  0.00    -0.341 N 
ATOM     47  H   UNL     1      -7.258  -0.274   6.713  1.00  0.00     0.164 HD
BRANCH  46  48
ATOM     48  C   UNL     1      -8.294  -0.973   8.441  1.00  0.00     0.196 C 
BRANCH  48  49
ATOM     49  C   UNL     1      -9.069   0.354   8.491  1.00  0.00     0.072 C 
BRANCH  49  50
ATOM     50  C   UNL     1      -9.917   0.486   9.736  1.00  0.00    -0.045 A 
ATOM     51  C   UNL     1     -11.291   0.741   9.622  1.00  0.00     0.007 A 
ATOM     52  C   UNL     1      -9.347   0.379  11.011  1.00  0.00     0.007 A 
ATOM     53  C   UNL     1     -12.081   0.878  10.763  1.00  0.00     0.046 A 
ATOM     54  C   UNL     1     -10.138   0.518  12.154  1.00  0.00     0.046 A 
ATOM     55  C   UNL     1     -11.499   0.765  12.020  1.00  0.00     0.115 A 
BRANCH  55  56
ATOM     56  O   UNL     1     -12.306   0.907  13.110  1.00  0.00    -0.508 OA
ATOM     57  H   UNL     1     -11.882   0.466  13.863  1.00  0.00     0.293 HD
ENDBRANCH  55  56
ENDBRANCH  49  50
ENDBRANCH  48  49
BRANCH  48  58
ATOM     58  C   UNL     1      -9.233  -2.102   7.994  1.00  0.00     0.326 C 
ATOM     59  O   UNL     1     -10.177  -2.016   7.225  1.00  0.00    -0.250 OA
BRANCH  58  60
ATOM     60  O   UNL     1      -8.926  -3.308   8.534  1.00  0.00    -0.480 OA
ATOM     61  H   UNL     1      -9.168  -3.941   7.824  1.00  0.00     0.296 HD
ENDBRANCH  58  60
ENDBRANCH  48  58
ENDBRANCH  46  48
ENDBRANCH  34  44
ENDBRANCH  32  34
ENDBRANCH  25  30
ENDBRANCH  23  25
ENDBRANCH   2  23
TORSDOF 28
ENDMDL
MODEL 14
REMARK VINA RESULT:    -7.393      2.557      7.283
REMARK INTER + INTRA:         -23.805
REMARK INTER:                 -18.334
REMARK INTRA:                  -5.471
REMARK UNBOUND:                -5.391
REMARK SMILES CCCCCCC[C@H](N)[C@H](O)C(=O)N[C@H](C)C(=O)N(C)[C@H](CC(C)C)C(=O)N[C@@H](Cc1ccc(O)cc1)C(=O)N[C@@H](Cc1ccc(O)cc1)C(=O)O
REMARK SMILES IDX 18 1 17 2 15 3 16 4 14 5 12 6 13 7 10 9 11 10 8 12 9 13 7 16
REMARK SMILES IDX 6 17 5 18 4 19 3 20 2 21 1 22 19 23 20 24 21 25 22 26 23 27
REMARK SMILES IDX 24 28 25 29 26 30 27 31 28 32 29 34 30 35 31 36 32 37 37 38
REMARK SMILES IDX 33 39 36 40 34 41 35 42 38 44 39 45 40 46 41 48 42 49 43 50
REMARK SMILES IDX 44 51 49 52 45 53 48 54 46 55 47 56 50 58 51 59 52 60
REMARK H PARENT 14 8 11 11 9 14 9 15 28 33 35 43 40 47 47 57 52 61
ROOT
ATOM      1  O   UNL     1      -1.327   3.314   9.458  1.00  0.00    -0.272 OA
ATOM      2  C   UNL     1      -2.182   3.361  10.354  1.00  0.00     0.245 C 
ENDROOT
BRANCH   2   3
ATOM      3  C   UNL     1      -2.183   2.251  11.435  1.00  0.00     0.168 C 
ATOM      4  C   UNL     1      -2.657   2.802  12.776  1.00  0.00     0.041 C 
BRANCH   3   5
ATOM      5  N   UNL     1      -2.895   1.038  11.065  1.00  0.00    -0.342 N 
ATOM      6  C   UNL     1      -2.243  -0.057  10.538  1.00  0.00     0.251 C 
ATOM      7  O   UNL     1      -1.040  -0.079  10.305  1.00  0.00    -0.272 OA
ATOM      8  H   UNL     1      -3.902   0.951  11.180  1.00  0.00     0.164 HD
BRANCH   6   9
ATOM      9  C   UNL     1      -3.170  -1.270  10.357  1.00  0.00     0.219 C 
BRANCH   9  10
ATOM     10  O   UNL     1      -4.537  -0.971  10.663  1.00  0.00    -0.382 OA
ATOM     11  H   UNL     1      -4.493  -0.079  11.071  1.00  0.00     0.211 HD
ENDBRANCH   9  10
BRANCH   9  12
ATOM     12  C   UNL     1      -3.049  -1.925   8.956  1.00  0.00     0.089 C 
BRANCH  12  13
ATOM     13  N   UNL     1      -2.444  -0.940   8.030  1.00  0.00    -0.325 NA
ATOM     14  H   UNL     1      -2.444  -0.019   8.473  1.00  0.00     0.119 HD
ATOM     15  H   UNL     1      -3.048  -0.841   7.211  1.00  0.00     0.119 HD
ENDBRANCH  12  13
BRANCH  12  16
ATOM     16  C   UNL     1      -2.268  -3.259   8.897  1.00  0.00     0.022 C 
BRANCH  16  17
ATOM     17  C   UNL     1      -2.843  -4.426   8.082  1.00  0.00     0.002 C 
BRANCH  17  18
ATOM     18  C   UNL     1      -3.939  -4.041   7.090  1.00  0.00     0.000 C 
BRANCH  18  19
ATOM     19  C   UNL     1      -3.429  -3.783   5.666  1.00  0.00    -0.000 C 
BRANCH  19  20
ATOM     20  C   UNL     1      -3.681  -4.919   4.670  1.00  0.00    -0.000 C 
BRANCH  20  21
ATOM     21  C   UNL     1      -5.083  -4.878   4.056  1.00  0.00    -0.003 C 
ATOM     22  C   UNL     1      -5.440  -3.478   3.582  1.00  0.00     0.004 C 
ENDBRANCH  20  21
ENDBRANCH  19  20
ENDBRANCH  18  19
ENDBRANCH  17  18
ENDBRANCH  16  17
ENDBRANCH  12  16
ENDBRANCH   9  12
ENDBRANCH   6   9
ENDBRANCH   3   5
ENDBRANCH   2   3
BRANCH   2  23
ATOM     23  N   UNL     1      -3.035   4.455  10.446  1.00  0.00    -0.332 N 
ATOM     24  C   UNL     1      -2.620   5.797  10.825  1.00  0.00     0.147 C 
BRANCH  23  25
ATOM     25  C   UNL     1      -4.457   4.336  10.021  1.00  0.00     0.174 C 
BRANCH  25  26
ATOM     26  C   UNL     1      -5.451   4.473  11.198  1.00  0.00     0.038 C 
BRANCH  26  27
ATOM     27  C   UNL     1      -6.335   5.740  11.225  1.00  0.00    -0.015 C 
ATOM     28  C   UNL     1      -6.255   6.536   9.923  1.00  0.00     0.007 C 
ATOM     29  C   UNL     1      -7.789   5.459  11.594  1.00  0.00     0.007 C 
ENDBRANCH  26  27
ENDBRANCH  25  26
BRANCH  25  30
ATOM     30  C   UNL     1      -4.657   3.052   9.185  1.00  0.00     0.243 C 
ATOM     31  O   UNL     1      -5.207   2.054   9.648  1.00  0.00    -0.273 OA
ATOM     32  N   UNL     1      -4.177   3.098   7.901  1.00  0.00    -0.342 N 
ATOM     33  H   UNL     1      -3.862   4.005   7.546  1.00  0.00     0.164 HD
BRANCH  32  34
ATOM     34  C   UNL     1      -4.254   1.965   6.975  1.00  0.00     0.175 C 
BRANCH  34  35
ATOM     35  C   UNL     1      -5.563   1.990   6.171  1.00  0.00     0.070 C 
BRANCH  35  36
ATOM     36  C   UNL     1      -6.456   0.807   6.472  1.00  0.00    -0.045 A 
ATOM     37  C   UNL     1      -6.011  -0.496   6.202  1.00  0.00     0.007 A 
ATOM     38  C   UNL     1      -7.741   0.993   6.998  1.00  0.00     0.007 A 
ATOM     39  C   UNL     1      -6.833  -1.592   6.464  1.00  0.00     0.046 A 
ATOM     40  C   UNL     1      -8.566  -0.104   7.259  1.00  0.00     0.046 A 
ATOM     41  C   UNL     1      -8.103  -1.388   6.990  1.00  0.00     0.115 A 
BRANCH  41  42
ATOM     42  O   UNL     1      -8.876  -2.486   7.228  1.00  0.00    -0.508 OA
ATOM     43  H   UNL     1      -9.248  -2.408   8.122  1.00  0.00     0.293 HD
ENDBRANCH  41  42
ENDBRANCH  35  36
ENDBRANCH  34  35
BRANCH  34  44
ATOM     44  C   UNL     1      -3.012   2.012   6.057  1.00  0.00     0.243 C 
ATOM     45  O   UNL     1      -2.960   1.518   4.934  1.00  0.00    -0.273 OA
ATOM     46  N   UNL     1      -1.900   2.554   6.666  1.00  0.00    -0.341 N 
ATOM     47  H   UNL     1      -1.961   2.844   7.639  1.00  0.00     0.164 HD
BRANCH  46  48
ATOM     48  C   UNL     1      -0.589   2.642   6.018  1.00  0.00     0.196 C 
BRANCH  48  49
ATOM     49  C   UNL     1       0.223   3.832   6.557  1.00  0.00     0.072 C 
BRANCH  49  50
ATOM     50  C   UNL     1       0.555   4.843   5.483  1.00  0.00    -0.045 A 
ATOM     51  C   UNL     1       0.086   6.160   5.594  1.00  0.00     0.007 A 
ATOM     52  C   UNL     1       1.311   4.481   4.361  1.00  0.00     0.007 A 
ATOM     53  C   UNL     1       0.375   7.098   4.603  1.00  0.00     0.046 A 
ATOM     54  C   UNL     1       1.600   5.420   3.368  1.00  0.00     0.046 A 
ATOM     55  C   UNL     1       1.129   6.722   3.498  1.00  0.00     0.115 A 
BRANCH  55  56
ATOM     56  O   UNL     1       1.388   7.668   2.551  1.00  0.00    -0.508 OA
ATOM     57  H   UNL     1       2.121   8.222   2.864  1.00  0.00     0.293 HD
ENDBRANCH  55  56
ENDBRANCH  49  50
ENDBRANCH  48  49
BRANCH  48  58
ATOM     58  C   UNL     1       0.181   1.338   6.270  1.00  0.00     0.326 C 
ATOM     59  O   UNL     1       0.175   0.660   7.285  1.00  0.00    -0.250 OA
BRANCH  58  60
ATOM     60  O   UNL     1       0.922   0.933   5.207  1.00  0.00    -0.480 OA
ATOM     61  H   UNL     1       1.677   1.560   5.207  1.00  0.00     0.296 HD
ENDBRANCH  58  60
ENDBRANCH  48  58
ENDBRANCH  46  48
ENDBRANCH  34  44
ENDBRANCH  32  34
ENDBRANCH  25  30
ENDBRANCH  23  25
ENDBRANCH   2  23
TORSDOF 28
ENDMDL
MODEL 15
REMARK VINA RESULT:    -7.376      2.598      8.250
REMARK INTER + INTRA:         -23.763
REMARK INTER:                 -17.507
REMARK INTRA:                  -6.255
REMARK UNBOUND:                -5.391
REMARK SMILES CCCCCCC[C@H](N)[C@H](O)C(=O)N[C@H](C)C(=O)N(C)[C@H](CC(C)C)C(=O)N[C@@H](Cc1ccc(O)cc1)C(=O)N[C@@H](Cc1ccc(O)cc1)C(=O)O
REMARK SMILES IDX 18 1 17 2 15 3 16 4 14 5 12 6 13 7 10 9 11 10 8 12 9 13 7 16
REMARK SMILES IDX 6 17 5 18 4 19 3 20 2 21 1 22 19 23 20 24 21 25 22 26 23 27
REMARK SMILES IDX 24 28 25 29 26 30 27 31 28 32 29 34 30 35 31 36 32 37 37 38
REMARK SMILES IDX 33 39 36 40 34 41 35 42 38 44 39 45 40 46 41 48 42 49 43 50
REMARK SMILES IDX 44 51 49 52 45 53 48 54 46 55 47 56 50 58 51 59 52 60
REMARK H PARENT 14 8 11 11 9 14 9 15 28 33 35 43 40 47 47 57 52 61
ROOT
ATOM      1  O   UNL     1      -4.549  -2.709  11.704  1.00  0.00    -0.272 OA
ATOM      2  C   UNL     1      -4.383  -1.538  12.079  1.00  0.00     0.245 C 
ENDROOT
BRANCH   2   3
ATOM      3  C   UNL     1      -3.068  -0.817  11.695  1.00  0.00     0.168 C 
ATOM      4  C   UNL     1      -2.185  -0.611  12.922  1.00  0.00     0.041 C 
BRANCH   3   5
ATOM      5  N   UNL     1      -2.335  -1.425  10.596  1.00  0.00    -0.342 N 
ATOM      6  C   UNL     1      -2.605  -1.115   9.280  1.00  0.00     0.251 C 
ATOM      7  O   UNL     1      -3.497  -0.346   8.936  1.00  0.00    -0.272 OA
ATOM      8  H   UNL     1      -1.595  -2.105  10.756  1.00  0.00     0.164 HD
BRANCH   6   9
ATOM      9  C   UNL     1      -1.616  -1.766   8.300  1.00  0.00     0.219 C 
BRANCH   9  10
ATOM     10  O   UNL     1      -0.263  -1.722   8.770  1.00  0.00    -0.382 OA
ATOM     11  H   UNL     1      -0.175  -0.813   9.134  1.00  0.00     0.211 HD
ENDBRANCH   9  10
BRANCH   9  12
ATOM     12  C   UNL     1      -2.014  -3.212   7.904  1.00  0.00     0.089 C 
BRANCH  12  13
ATOM     13  N   UNL     1      -2.921  -3.748   8.944  1.00  0.00    -0.325 NA
ATOM     14  H   UNL     1      -2.636  -4.701   9.180  1.00  0.00     0.119 HD
ATOM     15  H   UNL     1      -3.860  -3.841   8.549  1.00  0.00     0.119 HD
ENDBRANCH  12  13
BRANCH  12  16
ATOM     16  C   UNL     1      -2.653  -3.380   6.504  1.00  0.00     0.022 C 
BRANCH  16  17
ATOM     17  C   UNL     1      -4.170  -3.582   6.395  1.00  0.00     0.002 C 
BRANCH  17  18
ATOM     18  C   UNL     1      -4.991  -2.295   6.355  1.00  0.00     0.000 C 
BRANCH  18  19
ATOM     19  C   UNL     1      -6.186  -2.345   5.394  1.00  0.00    -0.000 C 
BRANCH  19  20
ATOM     20  C   UNL     1      -5.836  -2.662   3.937  1.00  0.00    -0.000 C 
BRANCH  20  21
ATOM     21  C   UNL     1      -6.686  -3.790   3.347  1.00  0.00    -0.003 C 
ATOM     22  C   UNL     1      -5.846  -5.024   3.058  1.00  0.00     0.004 C 
ENDBRANCH  20  21
ENDBRANCH  19  20
ENDBRANCH  18  19
ENDBRANCH  17  18
ENDBRANCH  16  17
ENDBRANCH  12  16
ENDBRANCH   9  12
ENDBRANCH   6   9
ENDBRANCH   3   5
ENDBRANCH   2   3
BRANCH   2  23
ATOM     23  N   UNL     1      -5.414  -0.862  12.722  1.00  0.00    -0.332 N 
ATOM     24  C   UNL     1      -5.727  -0.985  14.138  1.00  0.00     0.147 C 
BRANCH  23  25
ATOM     25  C   UNL     1      -6.209   0.165  11.993  1.00  0.00     0.174 C 
BRANCH  25  26
ATOM     26  C   UNL     1      -6.741  -0.341  10.631  1.00  0.00     0.038 C 
BRANCH  26  27
ATOM     27  C   UNL     1      -8.274  -0.379  10.450  1.00  0.00    -0.015 C 
ATOM     28  C   UNL     1      -8.748   0.502   9.294  1.00  0.00     0.007 C 
ATOM     29  C   UNL     1      -8.835  -1.793  10.312  1.00  0.00     0.007 C 
ENDBRANCH  26  27
ENDBRANCH  25  26
BRANCH  25  30
ATOM     30  C   UNL     1      -5.411   1.486  11.897  1.00  0.00     0.243 C 
ATOM     31  O   UNL     1      -5.200   2.191  12.882  1.00  0.00    -0.273 OA
ATOM     32  N   UNL     1      -4.963   1.818  10.644  1.00  0.00    -0.342 N 
ATOM     33  H   UNL     1      -5.054   1.115   9.906  1.00  0.00     0.164 HD
BRANCH  32  34
ATOM     34  C   UNL     1      -4.214   3.045  10.360  1.00  0.00     0.175 C 
BRANCH  34  35
ATOM     35  C   UNL     1      -2.716   2.867  10.653  1.00  0.00     0.070 C 
BRANCH  35  36
ATOM     36  C   UNL     1      -1.943   4.162  10.555  1.00  0.00    -0.045 A 
ATOM     37  C   UNL     1      -0.552   4.137  10.372  1.00  0.00     0.007 A 
ATOM     38  C   UNL     1      -2.593   5.398  10.666  1.00  0.00     0.007 A 
ATOM     39  C   UNL     1       0.173   5.327  10.294  1.00  0.00     0.046 A 
ATOM     40  C   UNL     1      -1.868   6.590  10.589  1.00  0.00     0.046 A 
ATOM     41  C   UNL     1      -0.491   6.543  10.402  1.00  0.00     0.115 A 
BRANCH  41  42
ATOM     42  O   UNL     1       0.254   7.682  10.324  1.00  0.00    -0.508 OA
ATOM     43  H   UNL     1       1.175   7.459  10.539  1.00  0.00     0.293 HD
ENDBRANCH  41  42
ENDBRANCH  35  36
ENDBRANCH  34  35
BRANCH  34  44
ATOM     44  C   UNL     1      -4.472   3.433   8.887  1.00  0.00     0.243 C 
ATOM     45  O   UNL     1      -5.165   4.382   8.530  1.00  0.00    -0.273 OA
ATOM     46  N   UNL     1      -3.954   2.530   7.983  1.00  0.00    -0.341 N 
ATOM     47  H   UNL     1      -3.487   1.696   8.330  1.00  0.00     0.164 HD
BRANCH  46  48
ATOM     48  C   UNL     1      -4.130   2.649   6.534  1.00  0.00     0.196 C 
BRANCH  48  49
ATOM     49  C   UNL     1      -2.778   2.620   5.801  1.00  0.00     0.072 C 
BRANCH  49  50
ATOM     50  C   UNL     1      -1.890   3.786   6.173  1.00  0.00    -0.045 A 
ATOM     51  C   UNL     1      -2.429   5.078   6.254  1.00  0.00     0.007 A 
ATOM     52  C   UNL     1      -0.523   3.601   6.419  1.00  0.00     0.007 A 
ATOM     53  C   UNL     1      -1.617   6.163   6.583  1.00  0.00     0.046 A 
ATOM     54  C   UNL     1       0.291   4.688   6.748  1.00  0.00     0.046 A 
ATOM     55  C   UNL     1      -0.264   5.961   6.828  1.00  0.00     0.115 A 
BRANCH  55  56
ATOM     56  O   UNL     1       0.495   7.048   7.144  1.00  0.00    -0.508 OA
ATOM     57  H   UNL     1       1.265   7.065   6.554  1.00  0.00     0.293 HD
ENDBRANCH  55  56
ENDBRANCH  49  50
ENDBRANCH  48  49
BRANCH  48  58
ATOM     58  C   UNL     1      -5.007   1.491   6.040  1.00  0.00     0.326 C 
ATOM     59  O   UNL     1      -5.977   1.007   6.602  1.00  0.00    -0.250 OA
BRANCH  58  60
ATOM     60  O   UNL     1      -4.626   0.998   4.835  1.00  0.00    -0.480 OA
ATOM     61  H   UNL     1      -3.671   1.223   4.791  1.00  0.00     0.296 HD
ENDBRANCH  58  60
ENDBRANCH  48  58
ENDBRANCH  46  48
ENDBRANCH  34  44
ENDBRANCH  32  34
ENDBRANCH  25  30
ENDBRANCH  23  25
ENDBRANCH   2  23
TORSDOF 28
ENDMDL
MODEL 16
REMARK VINA RESULT:    -7.359      2.530      8.173
REMARK INTER + INTRA:         -23.720
REMARK INTER:                 -17.576
REMARK INTRA:                  -6.144
REMARK UNBOUND:                -5.391
REMARK SMILES CCCCCCC[C@H](N)[C@H](O)C(=O)N[C@H](C)C(=O)N(C)[C@H](CC(C)C)C(=O)N[C@@H](Cc1ccc(O)cc1)C(=O)N[C@@H](Cc1ccc(O)cc1)C(=O)O
REMARK SMILES IDX 18 1 17 2 15 3 16 4 14 5 12 6 13 7 10 9 11 10 8 12 9 13 7 16
REMARK SMILES IDX 6 17 5 18 4 19 3 20 2 21 1 22 19 23 20 24 21 25 22 26 23 27
REMARK SMILES IDX 24 28 25 29 26 30 27 31 28 32 29 34 30 35 31 36 32 37 37 38
REMARK SMILES IDX 33 39 36 40 34 41 35 42 38 44 39 45 40 46 41 48 42 49 43 50
REMARK SMILES IDX 44 51 49 52 45 53 48 54 46 55 47 56 50 58 51 59 52 60
REMARK H PARENT 14 8 11 11 9 14 9 15 28 33 35 43 40 47 47 57 52 61
ROOT
ATOM      1  O   UNL     1      -5.057   0.661   5.717  1.00  0.00    -0.272 OA
ATOM      2  C   UNL     1      -5.773  -0.167   6.298  1.00  0.00     0.245 C 
ENDROOT
BRANCH   2   3
ATOM      3  C   UNL     1      -5.338  -1.654   6.297  1.00  0.00     0.168 C 
ATOM      4  C   UNL     1      -5.758  -2.340   5.002  1.00  0.00     0.041 C 
BRANCH   3   5
ATOM      5  N   UNL     1      -3.932  -1.879   6.599  1.00  0.00    -0.342 N 
ATOM      6  C   UNL     1      -3.531  -2.761   7.580  1.00  0.00     0.251 C 
ATOM      7  O   UNL     1      -4.312  -3.382   8.292  1.00  0.00    -0.272 OA
ATOM      8  H   UNL     1      -3.192  -1.394   6.097  1.00  0.00     0.164 HD
BRANCH   6   9
ATOM      9  C   UNL     1      -2.005  -2.944   7.626  1.00  0.00     0.219 C 
BRANCH   9  10
ATOM     10  O   UNL     1      -1.385  -2.736   6.351  1.00  0.00    -0.382 OA
ATOM     11  H   UNL     1      -1.813  -1.917   6.017  1.00  0.00     0.211 HD
ENDBRANCH   9  10
BRANCH   9  12
ATOM     12  C   UNL     1      -1.321  -2.083   8.718  1.00  0.00     0.089 C 
BRANCH  12  13
ATOM     13  N   UNL     1      -0.048  -1.559   8.172  1.00  0.00    -0.325 NA
ATOM     14  H   UNL     1       0.729  -1.906   8.737  1.00  0.00     0.119 HD
ATOM     15  H   UNL     1      -0.030  -0.543   8.289  1.00  0.00     0.119 HD
ENDBRANCH  12  13
BRANCH  12  16
ATOM     16  C   UNL     1      -2.167  -0.924   9.297  1.00  0.00     0.022 C 
BRANCH  16  17
ATOM     17  C   UNL     1      -2.426  -0.871  10.809  1.00  0.00     0.002 C 
BRANCH  17  18
ATOM     18  C   UNL     1      -3.260  -2.025  11.361  1.00  0.00     0.000 C 
BRANCH  18  19
ATOM     19  C   UNL     1      -4.669  -1.617  11.814  1.00  0.00    -0.000 C 
BRANCH  19  20
ATOM     20  C   UNL     1      -5.747  -2.687  11.625  1.00  0.00    -0.000 C 
BRANCH  20  21
ATOM     21  C   UNL     1      -6.729  -2.357  10.498  1.00  0.00    -0.003 C 
ATOM     22  C   UNL     1      -8.155  -2.251  11.017  1.00  0.00     0.004 C 
ENDBRANCH  20  21
ENDBRANCH  19  20
ENDBRANCH  18  19
ENDBRANCH  17  18
ENDBRANCH  16  17
ENDBRANCH  12  16
ENDBRANCH   9  12
ENDBRANCH   6   9
ENDBRANCH   3   5
ENDBRANCH   2   3
BRANCH   2  23
ATOM     23  N   UNL     1      -6.873   0.259   7.035  1.00  0.00    -0.332 N 
ATOM     24  C   UNL     1      -8.259   0.096   6.620  1.00  0.00     0.147 C 
BRANCH  23  25
ATOM     25  C   UNL     1      -6.691   0.817   8.403  1.00  0.00     0.174 C 
BRANCH  25  26
ATOM     26  C   UNL     1      -8.018   0.929   9.189  1.00  0.00     0.038 C 
BRANCH  26  27
ATOM     27  C   UNL     1      -7.979   1.714  10.520  1.00  0.00    -0.015 C 
ATOM     28  C   UNL     1      -9.345   1.774  11.203  1.00  0.00     0.007 C 
ATOM     29  C   UNL     1      -6.914   1.210  11.491  1.00  0.00     0.007 C 
ENDBRANCH  26  27
ENDBRANCH  25  26
BRANCH  25  30
ATOM     30  C   UNL     1      -5.894   2.140   8.336  1.00  0.00     0.243 C 
ATOM     31  O   UNL     1      -6.384   3.172   7.880  1.00  0.00    -0.273 OA
ATOM     32  N   UNL     1      -4.609   2.084   8.811  1.00  0.00    -0.342 N 
ATOM     33  H   UNL     1      -4.323   1.233   9.302  1.00  0.00     0.164 HD
BRANCH  32  34
ATOM     34  C   UNL     1      -3.699   3.232   8.802  1.00  0.00     0.175 C 
BRANCH  34  35
ATOM     35  C   UNL     1      -2.707   3.169   9.973  1.00  0.00     0.070 C 
BRANCH  35  36
ATOM     36  C   UNL     1      -1.868   4.421  10.097  1.00  0.00    -0.045 A 
ATOM     37  C   UNL     1      -0.469   4.339  10.020  1.00  0.00     0.007 A 
ATOM     38  C   UNL     1      -2.467   5.669  10.313  1.00  0.00     0.007 A 
ATOM     39  C   UNL     1       0.314   5.487  10.147  1.00  0.00     0.046 A 
ATOM     40  C   UNL     1      -1.683   6.819  10.442  1.00  0.00     0.046 A 
ATOM     41  C   UNL     1      -0.299   6.717  10.356  1.00  0.00     0.115 A 
BRANCH  41  42
ATOM     42  O   UNL     1       0.503   7.813  10.478  1.00  0.00    -0.508 OA
ATOM     43  H   UNL     1       1.068   7.692  11.259  1.00  0.00     0.293 HD
ENDBRANCH  41  42
ENDBRANCH  35  36
ENDBRANCH  34  35
BRANCH  34  44
ATOM     44  C   UNL     1      -2.978   3.261   7.436  1.00  0.00     0.243 C 
ATOM     45  O   UNL     1      -3.418   3.812   6.430  1.00  0.00    -0.273 OA
ATOM     46  N   UNL     1      -1.836   2.489   7.402  1.00  0.00    -0.341 N 
ATOM     47  H   UNL     1      -1.575   1.956   8.228  1.00  0.00     0.164 HD
BRANCH  46  48
ATOM     48  C   UNL     1      -1.022   2.306   6.198  1.00  0.00     0.196 C 
BRANCH  48  49
ATOM     49  C   UNL     1       0.382   2.909   6.374  1.00  0.00     0.072 C 
BRANCH  49  50
ATOM     50  C   UNL     1       0.491   4.306   5.807  1.00  0.00    -0.045 A 
ATOM     51  C   UNL     1       1.103   4.509   4.562  1.00  0.00     0.007 A 
ATOM     52  C   UNL     1       0.006   5.412   6.517  1.00  0.00     0.007 A 
ATOM     53  C   UNL     1       1.221   5.795   4.034  1.00  0.00     0.046 A 
ATOM     54  C   UNL     1       0.125   6.700   5.989  1.00  0.00     0.046 A 
ATOM     55  C   UNL     1       0.732   6.880   4.751  1.00  0.00     0.115 A 
BRANCH  55  56
ATOM     56  O   UNL     1       0.869   8.121   4.201  1.00  0.00    -0.508 OA
ATOM     57  H   UNL     1       1.656   8.539   4.584  1.00  0.00     0.293 HD
ENDBRANCH  55  56
ENDBRANCH  49  50
ENDBRANCH  48  49
BRANCH  48  58
ATOM     58  C   UNL     1      -0.904   0.806   5.898  1.00  0.00     0.326 C 
ATOM     59  O   UNL     1      -1.813  -0.005   5.813  1.00  0.00    -0.250 OA
BRANCH  58  60
ATOM     60  O   UNL     1       0.373   0.392   5.700  1.00  0.00    -0.480 OA
ATOM     61  H   UNL     1       0.897   1.000   6.265  1.00  0.00     0.296 HD
ENDBRANCH  58  60
ENDBRANCH  48  58
ENDBRANCH  46  48
ENDBRANCH  34  44
ENDBRANCH  32  34
ENDBRANCH  25  30
ENDBRANCH  23  25
ENDBRANCH   2  23
TORSDOF 28
ENDMDL
MODEL 17
REMARK VINA RESULT:    -7.358      2.833      7.490
REMARK INTER + INTRA:         -23.717
REMARK INTER:                 -18.141
REMARK INTRA:                  -5.576
REMARK UNBOUND:                -5.391
REMARK SMILES CCCCCCC[C@H](N)[C@H](O)C(=O)N[C@H](C)C(=O)N(C)[C@H](CC(C)C)C(=O)N[C@@H](Cc1ccc(O)cc1)C(=O)N[C@@H](Cc1ccc(O)cc1)C(=O)O
REMARK SMILES IDX 18 1 17 2 15 3 16 4 14 5 12 6 13 7 10 9 11 10 8 12 9 13 7 16
REMARK SMILES IDX 6 17 5 18 4 19 3 20 2 21 1 22 19 23 20 24 21 25 22 26 23 27
REMARK SMILES IDX 24 28 25 29 26 30 27 31 28 32 29 34 30 35 31 36 32 37 37 38
REMARK SMILES IDX 33 39 36 40 34 41 35 42 38 44 39 45 40 46 41 48 42 49 43 50
REMARK SMILES IDX 44 51 49 52 45 53 48 54 46 55 47 56 50 58 51 59 52 60
REMARK H PARENT 14 8 11 11 9 14 9 15 28 33 35 43 40 47 47 57 52 61
ROOT
ATOM      1  O   UNL     1      -2.092   6.619  10.725  1.00  0.00    -0.272 OA
ATOM      2  C   UNL     1      -2.457   5.450  10.536  1.00  0.00     0.245 C 
ENDROOT
BRANCH   2   3
ATOM      3  C   UNL     1      -1.382   4.379  10.222  1.00  0.00     0.168 C 
ATOM      4  C   UNL     1       0.019   4.970  10.336  1.00  0.00     0.041 C 
BRANCH   3   5
ATOM      5  N   UNL     1      -1.512   3.143  10.977  1.00  0.00    -0.342 N 
ATOM      6  C   UNL     1      -1.773   1.938  10.360  1.00  0.00     0.251 C 
ATOM      7  O   UNL     1      -1.955   1.821   9.152  1.00  0.00    -0.272 OA
ATOM      8  H   UNL     1      -1.416   3.120  11.989  1.00  0.00     0.164 HD
BRANCH   6   9
ATOM      9  C   UNL     1      -1.726   0.749  11.333  1.00  0.00     0.219 C 
BRANCH   9  10
ATOM     10  O   UNL     1      -2.307   1.054  12.607  1.00  0.00    -0.382 OA
ATOM     11  H   UNL     1      -1.531   1.118  13.206  1.00  0.00     0.211 HD
ENDBRANCH   9  10
BRANCH   9  12
ATOM     12  C   UNL     1      -2.342  -0.546  10.743  1.00  0.00     0.089 C 
BRANCH  12  13
ATOM     13  N   UNL     1      -1.340  -1.178   9.855  1.00  0.00    -0.325 NA
ATOM     14  H   UNL     1      -0.409  -0.834  10.101  1.00  0.00     0.119 HD
ATOM     15  H   UNL     1      -1.498  -0.857   8.897  1.00  0.00     0.119 HD
ENDBRANCH  12  13
BRANCH  12  16
ATOM     16  C   UNL     1      -2.866  -1.578  11.771  1.00  0.00     0.022 C 
BRANCH  16  17
ATOM     17  C   UNL     1      -4.380  -1.788  11.913  1.00  0.00     0.002 C 
BRANCH  17  18
ATOM     18  C   UNL     1      -4.959  -2.905  11.047  1.00  0.00     0.000 C 
BRANCH  18  19
ATOM     19  C   UNL     1      -5.289  -2.474   9.612  1.00  0.00    -0.000 C 
BRANCH  19  20
ATOM     20  C   UNL     1      -4.281  -2.922   8.550  1.00  0.00    -0.000 C 
BRANCH  20  21
ATOM     21  C   UNL     1      -3.348  -4.033   9.040  1.00  0.00    -0.003 C 
ATOM     22  C   UNL     1      -2.475  -4.562   7.913  1.00  0.00     0.004 C 
ENDBRANCH  20  21
ENDBRANCH  19  20
ENDBRANCH  18  19
ENDBRANCH  17  18
ENDBRANCH  16  17
ENDBRANCH  12  16
ENDBRANCH   9  12
ENDBRANCH   6   9
ENDBRANCH   3   5
ENDBRANCH   2   3
BRANCH   2  23
ATOM     23  N   UNL     1      -3.789   5.097  10.727  1.00  0.00    -0.332 N 
ATOM     24  C   UNL     1      -4.395   4.828  12.022  1.00  0.00     0.147 C 
BRANCH  23  25
ATOM     25  C   UNL     1      -4.738   5.099   9.579  1.00  0.00     0.174 C 
BRANCH  25  26
ATOM     26  C   UNL     1      -6.119   5.694   9.941  1.00  0.00     0.038 C 
BRANCH  26  27
ATOM     27  C   UNL     1      -6.469   7.071   9.334  1.00  0.00    -0.015 C 
ATOM     28  C   UNL     1      -5.400   7.569   8.362  1.00  0.00     0.007 C 
ATOM     29  C   UNL     1      -7.849   7.115   8.683  1.00  0.00     0.007 C 
ENDBRANCH  26  27
ENDBRANCH  25  26
BRANCH  25  30
ATOM     30  C   UNL     1      -4.814   3.689   8.950  1.00  0.00     0.243 C 
ATOM     31  O   UNL     1      -5.151   2.703   9.604  1.00  0.00    -0.273 OA
ATOM     32  N   UNL     1      -4.477   3.612   7.623  1.00  0.00    -0.342 N 
ATOM     33  H   UNL     1      -4.346   4.491   7.116  1.00  0.00     0.164 HD
BRANCH  32  34
ATOM     34  C   UNL     1      -4.466   2.355   6.870  1.00  0.00     0.175 C 
BRANCH  34  35
ATOM     35  C   UNL     1      -5.759   2.177   6.060  1.00  0.00     0.070 C 
BRANCH  35  36
ATOM     36  C   UNL     1      -6.536   0.944   6.462  1.00  0.00    -0.045 A 
ATOM     37  C   UNL     1      -6.113  -0.323   6.030  1.00  0.00     0.007 A 
ATOM     38  C   UNL     1      -7.693   1.045   7.245  1.00  0.00     0.007 A 
ATOM     39  C   UNL     1      -6.830  -1.466   6.384  1.00  0.00     0.046 A 
ATOM     40  C   UNL     1      -8.413  -0.098   7.598  1.00  0.00     0.046 A 
ATOM     41  C   UNL     1      -7.973  -1.345   7.165  1.00  0.00     0.115 A 
BRANCH  41  42
ATOM     42  O   UNL     1      -8.647  -2.486   7.486  1.00  0.00    -0.508 OA
ATOM     43  H   UNL     1      -8.012  -3.121   7.857  1.00  0.00     0.293 HD
ENDBRANCH  41  42
ENDBRANCH  35  36
ENDBRANCH  34  35
BRANCH  34  44
ATOM     44  C   UNL     1      -3.213   2.350   5.965  1.00  0.00     0.243 C 
ATOM     45  O   UNL     1      -3.160   1.826   4.856  1.00  0.00    -0.273 OA
ATOM     46  N   UNL     1      -2.095   2.883   6.573  1.00  0.00    -0.341 N 
ATOM     47  H   UNL     1      -2.161   3.199   7.537  1.00  0.00     0.164 HD
BRANCH  46  48
ATOM     48  C   UNL     1      -0.776   2.925   5.938  1.00  0.00     0.196 C 
BRANCH  48  49
ATOM     49  C   UNL     1       0.061   4.103   6.464  1.00  0.00     0.072 C 
BRANCH  49  50
ATOM     50  C   UNL     1       0.387   5.112   5.386  1.00  0.00    -0.045 A 
ATOM     51  C   UNL     1       1.243   4.758   4.332  1.00  0.00     0.007 A 
ATOM     52  C   UNL     1      -0.137   6.410   5.432  1.00  0.00     0.007 A 
ATOM     53  C   UNL     1       1.561   5.684   3.340  1.00  0.00     0.046 A 
ATOM     54  C   UNL     1       0.183   7.338   4.438  1.00  0.00     0.046 A 
ATOM     55  C   UNL     1       1.029   6.967   3.399  1.00  0.00     0.115 A 
BRANCH  55  56
ATOM     56  O   UNL     1       1.367   7.843   2.411  1.00  0.00    -0.508 OA
ATOM     57  H   UNL     1       1.304   7.382   1.559  1.00  0.00     0.293 HD
ENDBRANCH  55  56
ENDBRANCH  49  50
ENDBRANCH  48  49
BRANCH  48  58
ATOM     58  C   UNL     1      -0.044   1.606   6.220  1.00  0.00     0.326 C 
ATOM     59  O   UNL     1       1.138   1.363   6.038  1.00  0.00    -0.250 OA
BRANCH  58  60
ATOM     60  O   UNL     1      -0.845   0.643   6.742  1.00  0.00    -0.480 OA
ATOM     61  H   UNL     1      -1.654   1.137   6.998  1.00  0.00     0.296 HD
ENDBRANCH  58  60
ENDBRANCH  48  58
ENDBRANCH  46  48
ENDBRANCH  34  44
ENDBRANCH  32  34
ENDBRANCH  25  30
ENDBRANCH  23  25
ENDBRANCH   2  23
TORSDOF 28
ENDMDL
MODEL 18
REMARK VINA RESULT:    -7.352      2.580      7.445
REMARK INTER + INTRA:         -23.703
REMARK INTER:                 -17.751
REMARK INTRA:                  -5.952
REMARK UNBOUND:                -5.391
REMARK SMILES CCCCCCC[C@H](N)[C@H](O)C(=O)N[C@H](C)C(=O)N(C)[C@H](CC(C)C)C(=O)N[C@@H](Cc1ccc(O)cc1)C(=O)N[C@@H](Cc1ccc(O)cc1)C(=O)O
REMARK SMILES IDX 18 1 17 2 15 3 16 4 14 5 12 6 13 7 10 9 11 10 8 12 9 13 7 16
REMARK SMILES IDX 6 17 5 18 4 19 3 20 2 21 1 22 19 23 20 24 21 25 22 26 23 27
REMARK SMILES IDX 24 28 25 29 26 30 27 31 28 32 29 34 30 35 31 36 32 37 37 38
REMARK SMILES IDX 33 39 36 40 34 41 35 42 38 44 39 45 40 46 41 48 42 49 43 50
REMARK SMILES IDX 44 51 49 52 45 53 48 54 46 55 47 56 50 58 51 59 52 60
REMARK H PARENT 14 8 11 11 9 14 9 15 28 33 35 43 40 47 47 57 52 61
ROOT
ATOM      1  O   UNL     1      -4.337   3.208   8.815  1.00  0.00    -0.272 OA
ATOM      2  C   UNL     1      -3.329   2.551   8.514  1.00  0.00     0.245 C 
ENDROOT
BRANCH   2   3
ATOM      3  C   UNL     1      -2.523   1.870   9.648  1.00  0.00     0.168 C 
ATOM      4  C   UNL     1      -1.749   2.903  10.459  1.00  0.00     0.041 C 
BRANCH   3   5
ATOM      5  N   UNL     1      -3.298   0.982  10.500  1.00  0.00    -0.342 N 
ATOM      6  C   UNL     1      -3.089  -0.381  10.513  1.00  0.00     0.251 C 
ATOM      7  O   UNL     1      -2.277  -0.948   9.789  1.00  0.00    -0.272 OA
ATOM      8  H   UNL     1      -4.025   1.332  11.119  1.00  0.00     0.164 HD
BRANCH   6   9
ATOM      9  C   UNL     1      -3.919  -1.100  11.589  1.00  0.00     0.219 C 
BRANCH   9  10
ATOM     10  O   UNL     1      -4.056  -2.503  11.336  1.00  0.00    -0.382 OA
ATOM     11  H   UNL     1      -3.981  -2.907  12.228  1.00  0.00     0.211 HD
ENDBRANCH   9  10
BRANCH   9  12
ATOM     12  C   UNL     1      -3.399  -0.848  13.028  1.00  0.00     0.089 C 
BRANCH  12  13
ATOM     13  N   UNL     1      -2.137  -0.078  12.941  1.00  0.00    -0.325 NA
ATOM     14  H   UNL     1      -1.656  -0.319  12.073  1.00  0.00     0.119 HD
ATOM     15  H   UNL     1      -1.510  -0.385  13.688  1.00  0.00     0.119 HD
ENDBRANCH  12  13
BRANCH  12  16
ATOM     16  C   UNL     1      -4.385  -0.146  13.992  1.00  0.00     0.022 C 
BRANCH  16  17
ATOM     17  C   UNL     1      -5.281   0.978  13.455  1.00  0.00     0.002 C 
BRANCH  17  18
ATOM     18  C   UNL     1      -4.688   2.382  13.560  1.00  0.00     0.000 C 
BRANCH  18  19
ATOM     19  C   UNL     1      -5.578   3.482  12.966  1.00  0.00    -0.000 C 
BRANCH  19  20
ATOM     20  C   UNL     1      -7.085   3.241  13.099  1.00  0.00    -0.000 C 
BRANCH  20  21
ATOM     21  C   UNL     1      -7.905   3.976  12.036  1.00  0.00    -0.003 C 
ATOM     22  C   UNL     1      -7.387   3.686  10.636  1.00  0.00     0.004 C 
ENDBRANCH  20  21
ENDBRANCH  19  20
ENDBRANCH  18  19
ENDBRANCH  17  18
ENDBRANCH  16  17
ENDBRANCH  12  16
ENDBRANCH   9  12
ENDBRANCH   6   9
ENDBRANCH   3   5
ENDBRANCH   2   3
BRANCH   2  23
ATOM     23  N   UNL     1      -3.013   2.337   7.177  1.00  0.00    -0.332 N 
ATOM     24  C   UNL     1      -3.025   3.368   6.150  1.00  0.00     0.147 C 
BRANCH  23  25
ATOM     25  C   UNL     1      -2.501   1.012   6.729  1.00  0.00     0.174 C 
BRANCH  25  26
ATOM     26  C   UNL     1      -1.411   1.125   5.638  1.00  0.00     0.038 C 
BRANCH  26  27
ATOM     27  C   UNL     1       0.043   0.829   6.069  1.00  0.00    -0.015 C 
ATOM     28  C   UNL     1       0.889   2.097   6.181  1.00  0.00     0.007 C 
ATOM     29  C   UNL     1       0.142   0.003   7.349  1.00  0.00     0.007 C 
ENDBRANCH  26  27
ENDBRANCH  25  26
BRANCH  25  30
ATOM     30  C   UNL     1      -3.680   0.092   6.337  1.00  0.00     0.243 C 
ATOM     31  O   UNL     1      -4.316   0.258   5.298  1.00  0.00    -0.273 OA
ATOM     32  N   UNL     1      -3.969  -0.912   7.225  1.00  0.00    -0.342 N 
ATOM     33  H   UNL     1      -3.310  -1.072   7.991  1.00  0.00     0.164 HD
BRANCH  32  34
ATOM     34  C   UNL     1      -5.069  -1.862   7.031  1.00  0.00     0.175 C 
BRANCH  34  35
ATOM     35  C   UNL     1      -4.542  -3.265   6.695  1.00  0.00     0.070 C 
BRANCH  35  36
ATOM     36  C   UNL     1      -5.003  -3.754   5.340  1.00  0.00    -0.045 A 
ATOM     37  C   UNL     1      -4.389  -4.868   4.749  1.00  0.00     0.007 A 
ATOM     38  C   UNL     1      -6.027  -3.094   4.648  1.00  0.00     0.007 A 
ATOM     39  C   UNL     1      -4.798  -5.318   3.494  1.00  0.00     0.046 A 
ATOM     40  C   UNL     1      -6.437  -3.542   3.390  1.00  0.00     0.046 A 
ATOM     41  C   UNL     1      -5.819  -4.653   2.825  1.00  0.00     0.115 A 
BRANCH  41  42
ATOM     42  O   UNL     1      -6.187  -5.122   1.599  1.00  0.00    -0.508 OA
ATOM     43  H   UNL     1      -7.154  -5.065   1.529  1.00  0.00     0.293 HD
ENDBRANCH  41  42
ENDBRANCH  35  36
ENDBRANCH  34  35
BRANCH  34  44
ATOM     44  C   UNL     1      -5.933  -1.861   8.312  1.00  0.00     0.243 C 
ATOM     45  O   UNL     1      -5.842  -2.693   9.211  1.00  0.00    -0.273 OA
ATOM     46  N   UNL     1      -6.925  -0.904   8.304  1.00  0.00    -0.341 N 
ATOM     47  H   UNL     1      -7.035  -0.313   7.484  1.00  0.00     0.164 HD
BRANCH  46  48
ATOM     48  C   UNL     1      -7.910  -0.756   9.378  1.00  0.00     0.196 C 
BRANCH  48  49
ATOM     49  C   UNL     1      -8.775   0.500   9.175  1.00  0.00     0.072 C 
BRANCH  49  50
ATOM     50  C   UNL     1      -9.817   0.669  10.257  1.00  0.00    -0.045 A 
ATOM     51  C   UNL     1      -9.429   0.692  11.604  1.00  0.00     0.007 A 
ATOM     52  C   UNL     1     -11.176   0.784   9.937  1.00  0.00     0.007 A 
ATOM     53  C   UNL     1     -10.383   0.835  12.612  1.00  0.00     0.046 A 
ATOM     54  C   UNL     1     -12.132   0.926  10.946  1.00  0.00     0.046 A 
ATOM     55  C   UNL     1     -11.726   0.951  12.276  1.00  0.00     0.115 A 
BRANCH  55  56
ATOM     56  O   UNL     1     -12.627   1.087  13.290  1.00  0.00    -0.508 OA
ATOM     57  H   UNL     1     -13.421   1.521  12.939  1.00  0.00     0.293 HD
ENDBRANCH  55  56
ENDBRANCH  49  50
ENDBRANCH  48  49
BRANCH  48  58
ATOM     58  C   UNL     1      -8.809  -2.000   9.407  1.00  0.00     0.326 C 
ATOM     59  O   UNL     1      -9.580  -2.375   8.538  1.00  0.00    -0.250 OA
BRANCH  58  60
ATOM     60  O   UNL     1      -8.680  -2.734  10.541  1.00  0.00    -0.480 OA
ATOM     61  H   UNL     1      -9.481  -2.495  11.056  1.00  0.00     0.296 HD
ENDBRANCH  58  60
ENDBRANCH  48  58
ENDBRANCH  46  48
ENDBRANCH  34  44
ENDBRANCH  32  34
ENDBRANCH  25  30
ENDBRANCH  23  25
ENDBRANCH   2  23
TORSDOF 28
ENDMDL
MODEL 19
REMARK VINA RESULT:    -7.335      2.534      5.912
REMARK INTER + INTRA:         -23.660
REMARK INTER:                 -17.623
REMARK INTRA:                  -6.036
REMARK UNBOUND:                -5.391
REMARK SMILES CCCCCCC[C@H](N)[C@H](O)C(=O)N[C@H](C)C(=O)N(C)[C@H](CC(C)C)C(=O)N[C@@H](Cc1ccc(O)cc1)C(=O)N[C@@H](Cc1ccc(O)cc1)C(=O)O
REMARK SMILES IDX 18 1 17 2 15 3 16 4 14 5 12 6 13 7 10 9 11 10 8 12 9 13 7 16
REMARK SMILES IDX 6 17 5 18 4 19 3 20 2 21 1 22 19 23 20 24 21 25 22 26 23 27
REMARK SMILES IDX 24 28 25 29 26 30 27 31 28 32 29 34 30 35 31 36 32 37 37 38
REMARK SMILES IDX 33 39 36 40 34 41 35 42 38 44 39 45 40 46 41 48 42 49 43 50
REMARK SMILES IDX 44 51 49 52 45 53 48 54 46 55 47 56 50 58 51 59 52 60
REMARK H PARENT 14 8 11 11 9 14 9 15 28 33 35 43 40 47 47 57 52 61
ROOT
ATOM      1  O   UNL     1      -6.306  -2.864  12.584  1.00  0.00    -0.272 OA
ATOM      2  C   UNL     1      -6.717  -1.717  12.813  1.00  0.00     0.245 C 
ENDROOT
BRANCH   2   3
ATOM      3  C   UNL     1      -5.723  -0.673  13.379  1.00  0.00     0.168 C 
ATOM      4  C   UNL     1      -5.584  -0.821  14.891  1.00  0.00     0.041 C 
BRANCH   3   5
ATOM      5  N   UNL     1      -4.429  -0.639  12.717  1.00  0.00    -0.342 N 
ATOM      6  C   UNL     1      -4.061   0.401  11.889  1.00  0.00     0.251 C 
ATOM      7  O   UNL     1      -4.799   1.343  11.618  1.00  0.00    -0.272 OA
ATOM      8  H   UNL     1      -3.745  -1.382  12.837  1.00  0.00     0.164 HD
BRANCH   6   9
ATOM      9  C   UNL     1      -2.603   0.297  11.415  1.00  0.00     0.219 C 
BRANCH   9  10
ATOM     10  O   UNL     1      -1.666   0.322  12.500  1.00  0.00    -0.382 OA
ATOM     11  H   UNL     1      -0.912  -0.211  12.166  1.00  0.00     0.211 HD
ENDBRANCH   9  10
BRANCH   9  12
ATOM     12  C   UNL     1      -2.347  -0.925  10.495  1.00  0.00     0.089 C 
BRANCH  12  13
ATOM     13  N   UNL     1      -3.580  -1.191   9.719  1.00  0.00    -0.325 NA
ATOM     14  H   UNL     1      -3.719  -0.439   9.042  1.00  0.00     0.119 HD
ATOM     15  H   UNL     1      -4.385  -1.137  10.347  1.00  0.00     0.119 HD
ENDBRANCH  12  13
BRANCH  12  16
ATOM     16  C   UNL     1      -1.132  -0.815   9.543  1.00  0.00     0.022 C 
BRANCH  16  17
ATOM     17  C   UNL     1      -0.991  -1.821   8.392  1.00  0.00     0.002 C 
BRANCH  17  18
ATOM     18  C   UNL     1      -1.017  -1.208   6.994  1.00  0.00     0.000 C 
BRANCH  18  19
ATOM     19  C   UNL     1       0.083  -0.167   6.748  1.00  0.00    -0.000 C 
BRANCH  19  20
ATOM     20  C   UNL     1      -0.295   0.962   5.784  1.00  0.00    -0.000 C 
BRANCH  20  21
ATOM     21  C   UNL     1      -0.162   2.353   6.410  1.00  0.00    -0.003 C 
ATOM     22  C   UNL     1      -0.985   2.469   7.683  1.00  0.00     0.004 C 
ENDBRANCH  20  21
ENDBRANCH  19  20
ENDBRANCH  18  19
ENDBRANCH  17  18
ENDBRANCH  16  17
ENDBRANCH  12  16
ENDBRANCH   9  12
ENDBRANCH   6   9
ENDBRANCH   3   5
ENDBRANCH   2   3
BRANCH   2  23
ATOM     23  N   UNL     1      -8.010  -1.356  12.449  1.00  0.00    -0.332 N 
ATOM     24  C   UNL     1      -9.068  -2.298  12.117  1.00  0.00     0.147 C 
BRANCH  23  25
ATOM     25  C   UNL     1      -8.435   0.070  12.503  1.00  0.00     0.174 C 
BRANCH  25  26
ATOM     26  C   UNL     1      -9.660   0.299  13.420  1.00  0.00     0.038 C 
BRANCH  26  27
ATOM     27  C   UNL     1      -9.676   1.599  14.255  1.00  0.00    -0.015 C 
ATOM     28  C   UNL     1     -10.491   1.457  15.540  1.00  0.00     0.007 C 
ATOM     29  C   UNL     1      -8.282   2.141  14.560  1.00  0.00     0.007 C 
ENDBRANCH  26  27
ENDBRANCH  25  26
BRANCH  25  30
ATOM     30  C   UNL     1      -8.617   0.626  11.072  1.00  0.00     0.243 C 
ATOM     31  O   UNL     1      -9.711   1.004  10.656  1.00  0.00    -0.273 OA
ATOM     32  N   UNL     1      -7.484   0.661  10.301  1.00  0.00    -0.342 N 
ATOM     33  H   UNL     1      -6.591   0.464  10.761  1.00  0.00     0.164 HD
BRANCH  32  34
ATOM     34  C   UNL     1      -7.473   1.131   8.913  1.00  0.00     0.175 C 
BRANCH  34  35
ATOM     35  C   UNL     1      -6.308   2.099   8.659  1.00  0.00     0.070 C 
BRANCH  35  36
ATOM     36  C   UNL     1      -5.724   1.961   7.271  1.00  0.00    -0.045 A 
ATOM     37  C   UNL     1      -4.508   1.285   7.085  1.00  0.00     0.007 A 
ATOM     38  C   UNL     1      -6.370   2.520   6.161  1.00  0.00     0.007 A 
ATOM     39  C   UNL     1      -3.955   1.165   5.810  1.00  0.00     0.046 A 
ATOM     40  C   UNL     1      -5.815   2.401   4.884  1.00  0.00     0.046 A 
ATOM     41  C   UNL     1      -4.612   1.722   4.720  1.00  0.00     0.115 A 
BRANCH  41  42
ATOM     42  O   UNL     1      -4.037   1.585   3.492  1.00  0.00    -0.508 OA
ATOM     43  H   UNL     1      -3.147   1.213   3.613  1.00  0.00     0.293 HD
ENDBRANCH  41  42
ENDBRANCH  35  36
ENDBRANCH  34  35
BRANCH  34  44
ATOM     44  C   UNL     1      -7.407  -0.107   7.989  1.00  0.00     0.243 C 
ATOM     45  O   UNL     1      -8.101  -0.264   6.988  1.00  0.00    -0.273 OA
ATOM     46  N   UNL     1      -6.578  -1.101   8.463  1.00  0.00    -0.341 N 
ATOM     47  H   UNL     1      -6.113  -0.972   9.359  1.00  0.00     0.164 HD
BRANCH  46  48
ATOM     48  C   UNL     1      -6.406  -2.394   7.796  1.00  0.00     0.196 C 
BRANCH  48  49
ATOM     49  C   UNL     1      -5.221  -2.365   6.816  1.00  0.00     0.072 C 
BRANCH  49  50
ATOM     50  C   UNL     1      -5.501  -3.127   5.541  1.00  0.00    -0.045 A 
ATOM     51  C   UNL     1      -4.706  -4.230   5.197  1.00  0.00     0.007 A 
ATOM     52  C   UNL     1      -6.535  -2.737   4.680  1.00  0.00     0.007 A 
ATOM     53  C   UNL     1      -4.947  -4.933   4.016  1.00  0.00     0.046 A 
ATOM     54  C   UNL     1      -6.776  -3.440   3.498  1.00  0.00     0.046 A 
ATOM     55  C   UNL     1      -5.979  -4.533   3.176  1.00  0.00     0.115 A 
BRANCH  55  56
ATOM     56  O   UNL     1      -6.180  -5.246   2.031  1.00  0.00    -0.508 OA
ATOM     57  H   UNL     1      -6.251  -6.185   2.263  1.00  0.00     0.293 HD
ENDBRANCH  55  56
ENDBRANCH  49  50
ENDBRANCH  48  49
BRANCH  48  58
ATOM     58  C   UNL     1      -6.171  -3.477   8.857  1.00  0.00     0.326 C 
ATOM     59  O   UNL     1      -5.108  -3.792   9.369  1.00  0.00    -0.250 OA
BRANCH  58  60
ATOM     60  O   UNL     1      -7.306  -4.113   9.243  1.00  0.00    -0.480 OA
ATOM     61  H   UNL     1      -7.348  -3.934  10.207  1.00  0.00     0.296 HD
ENDBRANCH  58  60
ENDBRANCH  48  58
ENDBRANCH  46  48
ENDBRANCH  34  44
ENDBRANCH  32  34
ENDBRANCH  25  30
ENDBRANCH  23  25
ENDBRANCH   2  23
TORSDOF 28
ENDMDL
MODEL 20
REMARK VINA RESULT:    -7.331      3.823      8.530
REMARK INTER + INTRA:         -23.649
REMARK INTER:                 -20.292
REMARK INTRA:                  -3.357
REMARK UNBOUND:                -5.391
REMARK SMILES CCCCCCC[C@H](N)[C@H](O)C(=O)N[C@H](C)C(=O)N(C)[C@H](CC(C)C)C(=O)N[C@@H](Cc1ccc(O)cc1)C(=O)N[C@@H](Cc1ccc(O)cc1)C(=O)O
REMARK SMILES IDX 18 1 17 2 15 3 16 4 14 5 12 6 13 7 10 9 11 10 8 12 9 13 7 16
REMARK SMILES IDX 6 17 5 18 4 19 3 20 2 21 1 22 19 23 20 24 21 25 22 26 23 27
REMARK SMILES IDX 24 28 25 29 26 30 27 31 28 32 29 34 30 35 31 36 32 37 37 38
REMARK SMILES IDX 33 39 36 40 34 41 35 42 38 44 39 45 40 46 41 48 42 49 43 50
REMARK SMILES IDX 44 51 49 52 45 53 48 54 46 55 47 56 50 58 51 59 52 60
REMARK H PARENT 14 8 11 11 9 14 9 15 28 33 35 43 40 47 47 57 52 61
ROOT
ATOM      1  O   UNL     1      -6.617  -2.570  12.559  1.00  0.00    -0.272 OA
ATOM      2  C   UNL     1      -7.179  -1.504  12.266  1.00  0.00     0.245 C 
ENDROOT
BRANCH   2   3
ATOM      3  C   UNL     1      -8.003  -0.777  13.357  1.00  0.00     0.168 C 
ATOM      4  C   UNL     1      -7.085  -0.141  14.395  1.00  0.00     0.041 C 
BRANCH   3   5
ATOM      5  N   UNL     1      -8.986   0.168  12.852  1.00  0.00    -0.342 N 
ATOM      6  C   UNL     1     -10.336   0.010  13.086  1.00  0.00     0.251 C 
ATOM      7  O   UNL     1     -10.809  -0.946  13.692  1.00  0.00    -0.272 OA
ATOM      8  H   UNL     1      -8.716   0.983  12.306  1.00  0.00     0.164 HD
BRANCH   6   9
ATOM      9  C   UNL     1     -11.170   1.199  12.583  1.00  0.00     0.219 C 
BRANCH   9  10
ATOM     10  O   UNL     1     -12.485   0.813  12.165  1.00  0.00    -0.382 OA
ATOM     11  H   UNL     1     -12.340   0.422  11.276  1.00  0.00     0.211 HD
ENDBRANCH   9  10
BRANCH   9  12
ATOM     12  C   UNL     1     -11.236   2.369  13.598  1.00  0.00     0.089 C 
BRANCH  12  13
ATOM     13  N   UNL     1     -12.228   3.355  13.112  1.00  0.00    -0.325 NA
ATOM     14  H   UNL     1     -13.015   2.858  12.688  1.00  0.00     0.119 HD
ATOM     15  H   UNL     1     -11.812   3.895  12.350  1.00  0.00     0.119 HD
ENDBRANCH  12  13
BRANCH  12  16
ATOM     16  C   UNL     1     -11.548   1.980  15.063  1.00  0.00     0.022 C 
BRANCH  16  17
ATOM     17  C   UNL     1     -12.962   1.507  15.426  1.00  0.00     0.002 C 
BRANCH  17  18
ATOM     18  C   UNL     1     -13.020   0.272  16.321  1.00  0.00     0.000 C 
BRANCH  18  19
ATOM     19  C   UNL     1     -13.395   0.574  17.778  1.00  0.00    -0.000 C 
BRANCH  19  20
ATOM     20  C   UNL     1     -13.776  -0.649  18.618  1.00  0.00    -0.000 C 
BRANCH  20  21
ATOM     21  C   UNL     1     -12.664  -1.698  18.689  1.00  0.00    -0.003 C 
ATOM     22  C   UNL     1     -11.545  -1.257  19.621  1.00  0.00     0.004 C 
ENDBRANCH  20  21
ENDBRANCH  19  20
ENDBRANCH  18  19
ENDBRANCH  17  18
ENDBRANCH  16  17
ENDBRANCH  12  16
ENDBRANCH   9  12
ENDBRANCH   6   9
ENDBRANCH   3   5
ENDBRANCH   2   3
BRANCH   2  23
ATOM     23  N   UNL     1      -6.964  -0.924  11.020  1.00  0.00    -0.332 N 
ATOM     24  C   UNL     1      -6.038   0.169  10.767  1.00  0.00     0.147 C 
BRANCH  23  25
ATOM     25  C   UNL     1      -7.604  -1.498   9.804  1.00  0.00     0.174 C 
BRANCH  25  26
ATOM     26  C   UNL     1      -9.056  -1.971  10.054  1.00  0.00     0.038 C 
BRANCH  26  27
ATOM     27  C   UNL     1     -10.156  -1.356   9.160  1.00  0.00    -0.015 C 
ATOM     28  C   UNL     1     -11.544  -1.453   9.791  1.00  0.00     0.007 C 
ATOM     29  C   UNL     1      -9.859   0.079   8.732  1.00  0.00     0.007 C 
ENDBRANCH  26  27
ENDBRANCH  25  26
BRANCH  25  30
ATOM     30  C   UNL     1      -6.695  -2.584   9.186  1.00  0.00     0.243 C 
ATOM     31  O   UNL     1      -6.784  -3.768   9.509  1.00  0.00    -0.273 OA
ATOM     32  N   UNL     1      -5.782  -2.140   8.264  1.00  0.00    -0.342 N 
ATOM     33  H   UNL     1      -5.864  -1.171   7.946  1.00  0.00     0.164 HD
BRANCH  32  34
ATOM     34  C   UNL     1      -4.821  -3.023   7.597  1.00  0.00     0.175 C 
BRANCH  34  35
ATOM     35  C   UNL     1      -4.434  -2.482   6.212  1.00  0.00     0.070 C 
BRANCH  35  36
ATOM     36  C   UNL     1      -5.000  -3.311   5.081  1.00  0.00    -0.045 A 
ATOM     37  C   UNL     1      -6.167  -2.895   4.422  1.00  0.00     0.007 A 
ATOM     38  C   UNL     1      -4.386  -4.509   4.691  1.00  0.00     0.007 A 
ATOM     39  C   UNL     1      -6.704  -3.661   3.387  1.00  0.00     0.046 A 
ATOM     40  C   UNL     1      -4.925  -5.276   3.656  1.00  0.00     0.046 A 
ATOM     41  C   UNL     1      -6.079  -4.844   3.011  1.00  0.00     0.115 A 
BRANCH  41  42
ATOM     42  O   UNL     1      -6.638  -5.564   1.997  1.00  0.00    -0.508 OA
ATOM     43  H   UNL     1      -6.513  -6.508   2.189  1.00  0.00     0.293 HD
ENDBRANCH  41  42
ENDBRANCH  35  36
ENDBRANCH  34  35
BRANCH  34  44
ATOM     44  C   UNL     1      -3.592  -3.179   8.521  1.00  0.00     0.243 C 
ATOM     45  O   UNL     1      -2.967  -4.224   8.674  1.00  0.00    -0.273 OA
ATOM     46  N   UNL     1      -3.327  -2.055   9.275  1.00  0.00    -0.341 N 
ATOM     47  H   UNL     1      -3.945  -1.251   9.199  1.00  0.00     0.164 HD
BRANCH  46  48
ATOM     48  C   UNL     1      -2.255  -1.988  10.270  1.00  0.00     0.196 C 
BRANCH  48  49
ATOM     49  C   UNL     1      -1.770  -0.543  10.474  1.00  0.00     0.072 C 
BRANCH  49  50
ATOM     50  C   UNL     1      -1.232   0.075   9.203  1.00  0.00    -0.045 A 
ATOM     51  C   UNL     1      -0.304  -0.629   8.422  1.00  0.00     0.007 A 
ATOM     52  C   UNL     1      -1.631   1.356   8.799  1.00  0.00     0.007 A 
ATOM     53  C   UNL     1       0.209  -0.064   7.255  1.00  0.00     0.046 A 
ATOM     54  C   UNL     1      -1.116   1.922   7.631  1.00  0.00     0.046 A 
ATOM     55  C   UNL     1      -0.200   1.206   6.868  1.00  0.00     0.115 A 
BRANCH  55  56
ATOM     56  O   UNL     1       0.326   1.724   5.721  1.00  0.00    -0.508 OA
ATOM     57  H   UNL     1       0.853   1.034   5.288  1.00  0.00     0.293 HD
ENDBRANCH  55  56
ENDBRANCH  49  50
ENDBRANCH  48  49
BRANCH  48  58
ATOM     58  C   UNL     1      -2.773  -2.549  11.602  1.00  0.00     0.326 C 
ATOM     59  O   UNL     1      -3.361  -1.942  12.481  1.00  0.00    -0.250 OA
BRANCH  58  60
ATOM     60  O   UNL     1      -2.535  -3.876  11.759  1.00  0.00    -0.480 OA
ATOM     61  H   UNL     1      -1.825  -4.057  11.104  1.00  0.00     0.296 HD
ENDBRANCH  58  60
ENDBRANCH  48  58
ENDBRANCH  46  48
ENDBRANCH  34  44
ENDBRANCH  32  34
ENDBRANCH  25  30
ENDBRANCH  23  25
ENDBRANCH   2  23
TORSDOF 28
ENDMDL
MODEL 21
REMARK VINA RESULT:    -7.323      2.460      8.700
REMARK INTER + INTRA:         -23.630
REMARK INTER:                 -18.051
REMARK INTRA:                  -5.580
REMARK UNBOUND:                -5.391
REMARK SMILES CCCCCCC[C@H](N)[C@H](O)C(=O)N[C@H](C)C(=O)N(C)[C@H](CC(C)C)C(=O)N[C@@H](Cc1ccc(O)cc1)C(=O)N[C@@H](Cc1ccc(O)cc1)C(=O)O
REMARK SMILES IDX 18 1 17 2 15 3 16 4 14 5 12 6 13 7 10 9 11 10 8 12 9 13 7 16
REMARK SMILES IDX 6 17 5 18 4 19 3 20 2 21 1 22 19 23 20 24 21 25 22 26 23 27
REMARK SMILES IDX 24 28 25 29 26 30 27 31 28 32 29 34 30 35 31 36 32 37 37 38
REMARK SMILES IDX 33 39 36 40 34 41 35 42 38 44 39 45 40 46 41 48 42 49 43 50
REMARK SMILES IDX 44 51 49 52 45 53 48 54 46 55 47 56 50 58 51 59 52 60
REMARK H PARENT 14 8 11 11 9 14 9 15 28 33 35 43 40 47 47 57 52 61
ROOT
ATOM      1  O   UNL     1      -4.104  -0.638   5.758  1.00  0.00    -0.272 OA
ATOM      2  C   UNL     1      -4.674  -1.683   6.103  1.00  0.00     0.245 C 
ENDROOT
BRANCH   2   3
ATOM      3  C   UNL     1      -6.185  -1.839   5.799  1.00  0.00     0.168 C 
ATOM      4  C   UNL     1      -6.400  -2.669   4.538  1.00  0.00     0.041 C 
BRANCH   3   5
ATOM      5  N   UNL     1      -6.986  -2.326   6.911  1.00  0.00    -0.342 N 
ATOM      6  C   UNL     1      -8.062  -1.615   7.399  1.00  0.00     0.251 C 
ATOM      7  O   UNL     1      -8.399  -0.517   6.969  1.00  0.00    -0.272 OA
ATOM      8  H   UNL     1      -6.781  -3.209   7.373  1.00  0.00     0.164 HD
BRANCH   6   9
ATOM      9  C   UNL     1      -8.843  -2.385   8.476  1.00  0.00     0.219 C 
BRANCH   9  10
ATOM     10  O   UNL     1      -8.087  -3.461   9.045  1.00  0.00    -0.382 OA
ATOM     11  H   UNL     1      -7.656  -3.052   9.827  1.00  0.00     0.211 HD
ENDBRANCH   9  10
BRANCH   9  12
ATOM     12  C   UNL     1      -9.415  -1.466   9.587  1.00  0.00     0.089 C 
BRANCH  12  13
ATOM     13  N   UNL     1     -10.206  -2.299  10.521  1.00  0.00    -0.325 NA
ATOM     14  H   UNL     1     -11.110  -1.853  10.686  1.00  0.00     0.119 HD
ATOM     15  H   UNL     1      -9.742  -2.305  11.433  1.00  0.00     0.119 HD
ENDBRANCH  12  13
BRANCH  12  16
ATOM     16  C   UNL     1      -8.379  -0.625  10.371  1.00  0.00     0.022 C 
BRANCH  16  17
ATOM     17  C   UNL     1      -8.294   0.886  10.112  1.00  0.00     0.002 C 
BRANCH  17  18
ATOM     18  C   UNL     1      -8.972   1.759  11.166  1.00  0.00     0.000 C 
BRANCH  18  19
ATOM     19  C   UNL     1      -9.762   0.969  12.218  1.00  0.00    -0.000 C 
BRANCH  19  20
ATOM     20  C   UNL     1     -11.273   1.218  12.219  1.00  0.00    -0.000 C 
BRANCH  20  21
ATOM     21  C   UNL     1     -11.991   0.555  11.041  1.00  0.00    -0.003 C 
ATOM     22  C   UNL     1     -12.405   1.579   9.996  1.00  0.00     0.004 C 
ENDBRANCH  20  21
ENDBRANCH  19  20
ENDBRANCH  18  19
ENDBRANCH  17  18
ENDBRANCH  16  17
ENDBRANCH  12  16
ENDBRANCH   9  12
ENDBRANCH   6   9
ENDBRANCH   3   5
ENDBRANCH   2   3
BRANCH   2  23
ATOM     23  N   UNL     1      -3.936  -2.734   6.639  1.00  0.00    -0.332 N 
ATOM     24  C   UNL     1      -3.594  -3.953   5.922  1.00  0.00     0.147 C 
BRANCH  23  25
ATOM     25  C   UNL     1      -3.324  -2.609   7.991  1.00  0.00     0.174 C 
BRANCH  25  26
ATOM     26  C   UNL     1      -3.015  -3.978   8.641  1.00  0.00     0.038 C 
BRANCH  26  27
ATOM     27  C   UNL     1      -1.797  -4.044   9.589  1.00  0.00    -0.015 C 
ATOM     28  C   UNL     1      -0.706  -3.043   9.209  1.00  0.00     0.007 C 
ATOM     29  C   UNL     1      -2.167  -3.901  11.063  1.00  0.00     0.007 C 
ENDBRANCH  26  27
ENDBRANCH  25  26
BRANCH  25  30
ATOM     30  C   UNL     1      -4.181  -1.678   8.879  1.00  0.00     0.243 C 
ATOM     31  O   UNL     1      -5.253  -2.044   9.358  1.00  0.00    -0.273 OA
ATOM     32  N   UNL     1      -3.670  -0.423   9.090  1.00  0.00    -0.342 N 
ATOM     33  H   UNL     1      -2.712  -0.243   8.778  1.00  0.00     0.164 HD
BRANCH  32  34
ATOM     34  C   UNL     1      -4.358   0.600   9.882  1.00  0.00     0.175 C 
BRANCH  34  35
ATOM     35  C   UNL     1      -3.608   0.890  11.192  1.00  0.00     0.070 C 
BRANCH  35  36
ATOM     36  C   UNL     1      -4.403   0.504  12.419  1.00  0.00    -0.045 A 
ATOM     37  C   UNL     1      -5.669   1.069  12.641  1.00  0.00     0.007 A 
ATOM     38  C   UNL     1      -3.885  -0.397  13.358  1.00  0.00     0.007 A 
ATOM     39  C   UNL     1      -6.404   0.730  13.777  1.00  0.00     0.046 A 
ATOM     40  C   UNL     1      -4.620  -0.735  14.497  1.00  0.00     0.046 A 
ATOM     41  C   UNL     1      -5.875  -0.169  14.695  1.00  0.00     0.115 A 
BRANCH  41  42
ATOM     42  O   UNL     1      -6.624  -0.471  15.793  1.00  0.00    -0.508 OA
ATOM     43  H   UNL     1      -6.729   0.337  16.322  1.00  0.00     0.293 HD
ENDBRANCH  41  42
ENDBRANCH  35  36
ENDBRANCH  34  35
BRANCH  34  44
ATOM     44  C   UNL     1      -4.503   1.865   9.008  1.00  0.00     0.243 C 
ATOM     45  O   UNL     1      -4.960   2.934   9.404  1.00  0.00    -0.273 OA
ATOM     46  N   UNL     1      -4.191   1.655   7.682  1.00  0.00    -0.341 N 
ATOM     47  H   UNL     1      -3.929   0.720   7.378  1.00  0.00     0.164 HD
BRANCH  46  48
ATOM     48  C   UNL     1      -4.317   2.687   6.650  1.00  0.00     0.196 C 
BRANCH  48  49
ATOM     49  C   UNL     1      -3.058   2.755   5.769  1.00  0.00     0.072 C 
BRANCH  49  50
ATOM     50  C   UNL     1      -2.151   3.906   6.141  1.00  0.00    -0.045 A 
ATOM     51  C   UNL     1      -0.759   3.759   6.041  1.00  0.00     0.007 A 
ATOM     52  C   UNL     1      -2.676   5.118   6.606  1.00  0.00     0.007 A 
ATOM     53  C   UNL     1       0.089   4.809   6.393  1.00  0.00     0.046 A 
ATOM     54  C   UNL     1      -1.827   6.169   6.960  1.00  0.00     0.046 A 
ATOM     55  C   UNL     1      -0.451   6.006   6.849  1.00  0.00     0.115 A 
BRANCH  55  56
ATOM     56  O   UNL     1       0.412   7.006   7.185  1.00  0.00    -0.508 OA
ATOM     57  H   UNL     1       0.785   6.808   8.059  1.00  0.00     0.293 HD
ENDBRANCH  55  56
ENDBRANCH  49  50
ENDBRANCH  48  49
BRANCH  48  58
ATOM     58  C   UNL     1      -5.540   2.373   5.777  1.00  0.00     0.326 C 
ATOM     59  O   UNL     1      -6.707   2.325   6.130  1.00  0.00    -0.250 OA
BRANCH  58  60
ATOM     60  O   UNL     1      -5.232   2.146   4.475  1.00  0.00    -0.480 OA
ATOM     61  H   UNL     1      -4.409   2.666   4.344  1.00  0.00     0.296 HD
ENDBRANCH  58  60
ENDBRANCH  48  58
ENDBRANCH  46  48
ENDBRANCH  34  44
ENDBRANCH  32  34
ENDBRANCH  25  30
ENDBRANCH  23  25
ENDBRANCH   2  23
TORSDOF 28
ENDMDL
MODEL 22
REMARK VINA RESULT:    -7.297      2.662      7.265
REMARK INTER + INTRA:         -23.565
REMARK INTER:                 -17.218
REMARK INTRA:                  -6.347
REMARK UNBOUND:                -5.391
REMARK SMILES CCCCCCC[C@H](N)[C@H](O)C(=O)N[C@H](C)C(=O)N(C)[C@H](CC(C)C)C(=O)N[C@@H](Cc1ccc(O)cc1)C(=O)N[C@@H](Cc1ccc(O)cc1)C(=O)O
REMARK SMILES IDX 18 1 17 2 15 3 16 4 14 5 12 6 13 7 10 9 11 10 8 12 9 13 7 16
REMARK SMILES IDX 6 17 5 18 4 19 3 20 2 21 1 22 19 23 20 24 21 25 22 26 23 27
REMARK SMILES IDX 24 28 25 29 26 30 27 31 28 32 29 34 30 35 31 36 32 37 37 38
REMARK SMILES IDX 33 39 36 40 34 41 35 42 38 44 39 45 40 46 41 48 42 49 43 50
REMARK SMILES IDX 44 51 49 52 45 53 48 54 46 55 47 56 50 58 51 59 52 60
REMARK H PARENT 14 8 11 11 9 14 9 15 28 33 35 43 40 47 47 57 52 61
ROOT
ATOM      1  O   UNL     1      -3.734   3.651   6.178  1.00  0.00    -0.272 OA
ATOM      2  C   UNL     1      -4.538   3.132   6.966  1.00  0.00     0.245 C 
ENDROOT
BRANCH   2   3
ATOM      3  C   UNL     1      -4.637   3.700   8.404  1.00  0.00     0.168 C 
ATOM      4  C   UNL     1      -6.092   3.811   8.844  1.00  0.00     0.041 C 
BRANCH   3   5
ATOM      5  N   UNL     1      -3.823   3.008   9.391  1.00  0.00    -0.342 N 
ATOM      6  C   UNL     1      -3.144   3.687  10.380  1.00  0.00     0.251 C 
ATOM      7  O   UNL     1      -3.137   4.910  10.479  1.00  0.00    -0.272 OA
ATOM      8  H   UNL     1      -3.724   1.995   9.390  1.00  0.00     0.164 HD
BRANCH   6   9
ATOM      9  C   UNL     1      -2.469   2.746  11.392  1.00  0.00     0.219 C 
BRANCH   9  10
ATOM     10  O   UNL     1      -1.276   3.304  11.955  1.00  0.00    -0.382 OA
ATOM     11  H   UNL     1      -0.808   3.681  11.177  1.00  0.00     0.211 HD
ENDBRANCH   9  10
BRANCH   9  12
ATOM     12  C   UNL     1      -3.431   2.263  12.509  1.00  0.00     0.089 C 
BRANCH  12  13
ATOM     13  N   UNL     1      -4.766   2.856  12.265  1.00  0.00    -0.325 NA
ATOM     14  H   UNL     1      -5.216   3.051  13.162  1.00  0.00     0.119 HD
ATOM     15  H   UNL     1      -5.361   2.158  11.814  1.00  0.00     0.119 HD
ENDBRANCH  12  13
BRANCH  12  16
ATOM     16  C   UNL     1      -3.554   0.730  12.681  1.00  0.00     0.022 C 
BRANCH  16  17
ATOM     17  C   UNL     1      -2.589  -0.187  11.918  1.00  0.00     0.002 C 
BRANCH  17  18
ATOM     18  C   UNL     1      -2.862  -1.682  12.072  1.00  0.00     0.000 C 
BRANCH  18  19
ATOM     19  C   UNL     1      -4.291  -2.097  11.698  1.00  0.00    -0.000 C 
BRANCH  19  20
ATOM     20  C   UNL     1      -4.549  -2.258  10.197  1.00  0.00    -0.000 C 
BRANCH  20  21
ATOM     21  C   UNL     1      -5.917  -2.869   9.886  1.00  0.00    -0.003 C 
ATOM     22  C   UNL     1      -7.045  -2.028  10.463  1.00  0.00     0.004 C 
ENDBRANCH  20  21
ENDBRANCH  19  20
ENDBRANCH  18  19
ENDBRANCH  17  18
ENDBRANCH  16  17
ENDBRANCH  12  16
ENDBRANCH   9  12
ENDBRANCH   6   9
ENDBRANCH   3   5
ENDBRANCH   2   3
BRANCH   2  23
ATOM     23  N   UNL     1      -5.412   2.147   6.520  1.00  0.00    -0.332 N 
ATOM     24  C   UNL     1      -6.675   2.407   5.845  1.00  0.00     0.147 C 
BRANCH  23  25
ATOM     25  C   UNL     1      -5.029   0.711   6.600  1.00  0.00     0.174 C 
BRANCH  25  26
ATOM     26  C   UNL     1      -6.153  -0.182   7.176  1.00  0.00     0.038 C 
BRANCH  26  27
ATOM     27  C   UNL     1      -6.648  -1.345   6.287  1.00  0.00    -0.015 C 
ATOM     28  C   UNL     1      -5.617  -2.467   6.167  1.00  0.00     0.007 C 
ATOM     29  C   UNL     1      -8.002  -1.903   6.716  1.00  0.00     0.007 C 
ENDBRANCH  26  27
ENDBRANCH  25  26
BRANCH  25  30
ATOM     30  C   UNL     1      -3.678   0.561   7.337  1.00  0.00     0.243 C 
ATOM     31  O   UNL     1      -3.618   0.321   8.542  1.00  0.00    -0.273 OA
ATOM     32  N   UNL     1      -2.558   0.719   6.562  1.00  0.00    -0.342 N 
ATOM     33  H   UNL     1      -2.688   0.775   5.548  1.00  0.00     0.164 HD
BRANCH  32  34
ATOM     34  C   UNL     1      -1.196   0.639   7.095  1.00  0.00     0.175 C 
BRANCH  34  35
ATOM     35  C   UNL     1      -0.482  -0.634   6.614  1.00  0.00     0.070 C 
BRANCH  35  36
ATOM     36  C   UNL     1      -0.996  -1.884   7.292  1.00  0.00    -0.045 A 
ATOM     37  C   UNL     1      -1.781  -2.799   6.574  1.00  0.00     0.007 A 
ATOM     38  C   UNL     1      -0.719  -2.136   8.642  1.00  0.00     0.007 A 
ATOM     39  C   UNL     1      -2.271  -3.949   7.194  1.00  0.00     0.046 A 
ATOM     40  C   UNL     1      -1.211  -3.286   9.264  1.00  0.00     0.046 A 
ATOM     41  C   UNL     1      -1.982  -4.183   8.533  1.00  0.00     0.115 A 
BRANCH  41  42
ATOM     42  O   UNL     1      -2.483  -5.317   9.102  1.00  0.00    -0.508 OA
ATOM     43  H   UNL     1      -2.644  -5.139  10.044  1.00  0.00     0.293 HD
ENDBRANCH  41  42
ENDBRANCH  35  36
ENDBRANCH  34  35
BRANCH  34  44
ATOM     44  C   UNL     1      -0.440   1.919   6.673  1.00  0.00     0.243 C 
ATOM     45  O   UNL     1       0.470   1.948   5.849  1.00  0.00    -0.273 OA
ATOM     46  N   UNL     1      -0.792   3.031   7.409  1.00  0.00    -0.341 N 
ATOM     47  H   UNL     1      -1.468   2.932   8.161  1.00  0.00     0.164 HD
BRANCH  46  48
ATOM     48  C   UNL     1      -0.163   4.343   7.236  1.00  0.00     0.196 C 
BRANCH  48  49
ATOM     49  C   UNL     1      -1.006   5.253   6.327  1.00  0.00     0.072 C 
BRANCH  49  50
ATOM     50  C   UNL     1      -0.200   5.856   5.199  1.00  0.00    -0.045 A 
ATOM     51  C   UNL     1       0.872   5.140   4.645  1.00  0.00     0.007 A 
ATOM     52  C   UNL     1      -0.492   7.134   4.708  1.00  0.00     0.007 A 
ATOM     53  C   UNL     1       1.631   5.692   3.613  1.00  0.00     0.046 A 
ATOM     54  C   UNL     1       0.269   7.687   3.675  1.00  0.00     0.046 A 
ATOM     55  C   UNL     1       1.324   6.960   3.136  1.00  0.00     0.115 A 
BRANCH  55  56
ATOM     56  O   UNL     1       2.092   7.464   2.128  1.00  0.00    -0.508 OA
ATOM     57  H   UNL     1       2.731   8.085   2.511  1.00  0.00     0.293 HD
ENDBRANCH  55  56
ENDBRANCH  49  50
ENDBRANCH  48  49
BRANCH  48  58
ATOM     58  C   UNL     1       0.003   5.002   8.613  1.00  0.00     0.326 C 
ATOM     59  O   UNL     1       0.113   4.442   9.692  1.00  0.00    -0.250 OA
BRANCH  58  60
ATOM     60  O   UNL     1       0.037   6.357   8.563  1.00  0.00    -0.480 OA
ATOM     61  H   UNL     1      -0.033   6.550   7.603  1.00  0.00     0.296 HD
ENDBRANCH  58  60
ENDBRANCH  48  58
ENDBRANCH  46  48
ENDBRANCH  34  44
ENDBRANCH  32  34
ENDBRANCH  25  30
ENDBRANCH  23  25
ENDBRANCH   2  23
TORSDOF 28
ENDMDL
MODEL 23
REMARK VINA RESULT:    -7.291      1.316      1.990
REMARK INTER + INTRA:         -23.551
REMARK INTER:                 -19.150
REMARK INTRA:                  -4.400
REMARK UNBOUND:                -5.391
REMARK SMILES CCCCCCC[C@H](N)[C@H](O)C(=O)N[C@H](C)C(=O)N(C)[C@H](CC(C)C)C(=O)N[C@@H](Cc1ccc(O)cc1)C(=O)N[C@@H](Cc1ccc(O)cc1)C(=O)O
REMARK SMILES IDX 18 1 17 2 15 3 16 4 14 5 12 6 13 7 10 9 11 10 8 12 9 13 7 16
REMARK SMILES IDX 6 17 5 18 4 19 3 20 2 21 1 22 19 23 20 24 21 25 22 26 23 27
REMARK SMILES IDX 24 28 25 29 26 30 27 31 28 32 29 34 30 35 31 36 32 37 37 38
REMARK SMILES IDX 33 39 36 40 34 41 35 42 38 44 39 45 40 46 41 48 42 49 43 50
REMARK SMILES IDX 44 51 49 52 45 53 48 54 46 55 47 56 50 58 51 59 52 60
REMARK H PARENT 14 8 11 11 9 14 9 15 28 33 35 43 40 47 47 57 52 61
ROOT
ATOM      1  O   UNL     1      -4.893   1.157   8.830  1.00  0.00    -0.272 OA
ATOM      2  C   UNL     1      -5.660   2.052   8.445  1.00  0.00     0.245 C 
ENDROOT
BRANCH   2   3
ATOM      3  C   UNL     1      -5.293   3.525   8.755  1.00  0.00     0.168 C 
ATOM      4  C   UNL     1      -6.219   4.101   9.821  1.00  0.00     0.041 C 
BRANCH   3   5
ATOM      5  N   UNL     1      -3.892   3.752   9.075  1.00  0.00    -0.342 N 
ATOM      6  C   UNL     1      -3.070   4.496   8.256  1.00  0.00     0.251 C 
ATOM      7  O   UNL     1      -3.436   4.982   7.191  1.00  0.00    -0.272 OA
ATOM      8  H   UNL     1      -3.465   3.369   9.915  1.00  0.00     0.164 HD
BRANCH   6   9
ATOM      9  C   UNL     1      -1.675   4.722   8.861  1.00  0.00     0.219 C 
BRANCH   9  10
ATOM     10  O   UNL     1      -1.584   4.279  10.221  1.00  0.00    -0.382 OA
ATOM     11  H   UNL     1      -0.829   4.794  10.581  1.00  0.00     0.211 HD
ENDBRANCH   9  10
BRANCH   9  12
ATOM     12  C   UNL     1      -0.534   4.112   8.006  1.00  0.00     0.089 C 
BRANCH  12  13
ATOM     13  N   UNL     1      -1.091   2.991   7.215  1.00  0.00    -0.325 NA
ATOM     14  H   UNL     1      -2.108   3.077   7.181  1.00  0.00     0.119 HD
ATOM     15  H   UNL     1      -0.913   2.115   7.712  1.00  0.00     0.119 HD
ENDBRANCH  12  13
BRANCH  12  16
ATOM     16  C   UNL     1       0.218   5.096   7.077  1.00  0.00     0.022 C 
BRANCH  16  17
ATOM     17  C   UNL     1      -0.113   5.109   5.579  1.00  0.00     0.002 C 
BRANCH  17  18
ATOM     18  C   UNL     1       0.933   4.451   4.682  1.00  0.00     0.000 C 
BRANCH  18  19
ATOM     19  C   UNL     1       1.768   5.444   3.863  1.00  0.00    -0.000 C 
BRANCH  19  20
ATOM     20  C   UNL     1       1.275   5.683   2.432  1.00  0.00    -0.000 C 
BRANCH  20  21
ATOM     21  C   UNL     1       0.501   6.994   2.276  1.00  0.00    -0.003 C 
ATOM     22  C   UNL     1       0.941   8.024   3.305  1.00  0.00     0.004 C 
ENDBRANCH  20  21
ENDBRANCH  19  20
ENDBRANCH  18  19
ENDBRANCH  17  18
ENDBRANCH  16  17
ENDBRANCH  12  16
ENDBRANCH   9  12
ENDBRANCH   6   9
ENDBRANCH   3   5
ENDBRANCH   2   3
BRANCH   2  23
ATOM     23  N   UNL     1      -6.755   1.736   7.649  1.00  0.00    -0.332 N 
ATOM     24  C   UNL     1      -6.962   2.230   6.295  1.00  0.00     0.147 C 
BRANCH  23  25
ATOM     25  C   UNL     1      -7.754   0.733   8.109  1.00  0.00     0.174 C 
BRANCH  25  26
ATOM     26  C   UNL     1      -7.921   0.712   9.647  1.00  0.00     0.038 C 
BRANCH  26  27
ATOM     27  C   UNL     1      -9.124   1.486  10.231  1.00  0.00    -0.015 C 
ATOM     28  C   UNL     1     -10.430   0.700  10.128  1.00  0.00     0.007 C 
ATOM     29  C   UNL     1      -8.898   1.968  11.662  1.00  0.00     0.007 C 
ENDBRANCH  26  27
ENDBRANCH  25  26
BRANCH  25  30
ATOM     30  C   UNL     1      -7.438  -0.652   7.499  1.00  0.00     0.243 C 
ATOM     31  O   UNL     1      -8.182  -1.185   6.677  1.00  0.00    -0.273 OA
ATOM     32  N   UNL     1      -6.282  -1.244   7.938  1.00  0.00    -0.342 N 
ATOM     33  H   UNL     1      -5.649  -0.680   8.510  1.00  0.00     0.164 HD
BRANCH  32  34
ATOM     34  C   UNL     1      -5.838  -2.566   7.490  1.00  0.00     0.175 C 
BRANCH  34  35
ATOM     35  C   UNL     1      -4.831  -2.456   6.335  1.00  0.00     0.070 C 
BRANCH  35  36
ATOM     36  C   UNL     1      -5.227  -3.282   5.132  1.00  0.00    -0.045 A 
ATOM     37  C   UNL     1      -6.335  -2.906   4.357  1.00  0.00     0.007 A 
ATOM     38  C   UNL     1      -4.515  -4.438   4.788  1.00  0.00     0.007 A 
ATOM     39  C   UNL     1      -6.716  -3.670   3.253  1.00  0.00     0.046 A 
ATOM     40  C   UNL     1      -4.898  -5.204   3.684  1.00  0.00     0.046 A 
ATOM     41  C   UNL     1      -5.995  -4.811   2.925  1.00  0.00     0.115 A 
BRANCH  41  42
ATOM     42  O   UNL     1      -6.403  -5.531   1.841  1.00  0.00    -0.508 OA
ATOM     43  H   UNL     1      -5.764  -5.388   1.123  1.00  0.00     0.293 HD
ENDBRANCH  41  42
ENDBRANCH  35  36
ENDBRANCH  34  35
BRANCH  34  44
ATOM     44  C   UNL     1      -5.242  -3.310   8.706  1.00  0.00     0.243 C 
ATOM     45  O   UNL     1      -5.884  -4.042   9.454  1.00  0.00    -0.273 OA
ATOM     46  N   UNL     1      -3.930  -2.974   8.966  1.00  0.00    -0.341 N 
ATOM     47  H   UNL     1      -3.476  -2.272   8.386  1.00  0.00     0.164 HD
BRANCH  46  48
ATOM     48  C   UNL     1      -3.175  -3.497  10.106  1.00  0.00     0.196 C 
BRANCH  48  49
ATOM     49  C   UNL     1      -1.663  -3.494   9.825  1.00  0.00     0.072 C 
BRANCH  49  50
ATOM     50  C   UNL     1      -1.270  -2.488   8.767  1.00  0.00    -0.045 A 
ATOM     51  C   UNL     1      -1.460  -2.791   7.410  1.00  0.00     0.007 A 
ATOM     52  C   UNL     1      -0.697  -1.259   9.117  1.00  0.00     0.007 A 
ATOM     53  C   UNL     1      -1.089  -1.876   6.424  1.00  0.00     0.046 A 
ATOM     54  C   UNL     1      -0.325  -0.344   8.130  1.00  0.00     0.046 A 
ATOM     55  C   UNL     1      -0.525  -0.661   6.791  1.00  0.00     0.115 A 
BRANCH  55  56
ATOM     56  O   UNL     1      -0.175   0.205   5.797  1.00  0.00    -0.508 OA
ATOM     57  H   UNL     1       0.530   0.783   6.129  1.00  0.00     0.293 HD
ENDBRANCH  55  56
ENDBRANCH  49  50
ENDBRANCH  48  49
BRANCH  48  58
ATOM     58  C   UNL     1      -3.471  -2.634  11.340  1.00  0.00     0.326 C 
ATOM     59  O   UNL     1      -2.742  -1.800  11.851  1.00  0.00    -0.250 OA
BRANCH  58  60
ATOM     60  O   UNL     1      -4.699  -2.855  11.873  1.00  0.00    -0.480 OA
ATOM     61  H   UNL     1      -4.963  -3.717  11.483  1.00  0.00     0.296 HD
ENDBRANCH  58  60
ENDBRANCH  48  58
ENDBRANCH  46  48
ENDBRANCH  34  44
ENDBRANCH  32  34
ENDBRANCH  25  30
ENDBRANCH  23  25
ENDBRANCH   2  23
TORSDOF 28
ENDMDL
MODEL 24
REMARK VINA RESULT:    -7.286      2.738      7.119
REMARK INTER + INTRA:         -23.538
REMARK INTER:                 -17.672
REMARK INTRA:                  -5.866
REMARK UNBOUND:                -5.391
REMARK SMILES CCCCCCC[C@H](N)[C@H](O)C(=O)N[C@H](C)C(=O)N(C)[C@H](CC(C)C)C(=O)N[C@@H](Cc1ccc(O)cc1)C(=O)N[C@@H](Cc1ccc(O)cc1)C(=O)O
REMARK SMILES IDX 18 1 17 2 15 3 16 4 14 5 12 6 13 7 10 9 11 10 8 12 9 13 7 16
REMARK SMILES IDX 6 17 5 18 4 19 3 20 2 21 1 22 19 23 20 24 21 25 22 26 23 27
REMARK SMILES IDX 24 28 25 29 26 30 27 31 28 32 29 34 30 35 31 36 32 37 37 38
REMARK SMILES IDX 33 39 36 40 34 41 35 42 38 44 39 45 40 46 41 48 42 49 43 50
REMARK SMILES IDX 44 51 49 52 45 53 48 54 46 55 47 56 50 58 51 59 52 60
REMARK H PARENT 14 8 11 11 9 14 9 15 28 33 35 43 40 47 47 57 52 61
ROOT
ATOM      1  O   UNL     1      -7.353  -0.633  13.974  1.00  0.00    -0.272 OA
ATOM      2  C   UNL     1      -7.396   0.226  13.081  1.00  0.00     0.245 C 
ENDROOT
BRANCH   2   3
ATOM      3  C   UNL     1      -8.445   0.069  11.952  1.00  0.00     0.168 C 
ATOM      4  C   UNL     1      -9.035   1.422  11.569  1.00  0.00     0.041 C 
BRANCH   3   5
ATOM      5  N   UNL     1      -7.983  -0.670  10.787  1.00  0.00    -0.342 N 
ATOM      6  C   UNL     1      -8.459  -1.929  10.489  1.00  0.00     0.251 C 
ATOM      7  O   UNL     1      -9.263  -2.533  11.191  1.00  0.00    -0.272 OA
ATOM      8  H   UNL     1      -7.291  -0.286  10.149  1.00  0.00     0.164 HD
BRANCH   6   9
ATOM      9  C   UNL     1      -7.941  -2.456   9.141  1.00  0.00     0.219 C 
BRANCH   9  10
ATOM     10  O   UNL     1      -7.753  -3.877   9.139  1.00  0.00    -0.382 OA
ATOM     11  H   UNL     1      -6.881  -3.995   9.577  1.00  0.00     0.211 HD
ENDBRANCH   9  10
BRANCH   9  12
ATOM     12  C   UNL     1      -8.814  -2.014   7.938  1.00  0.00     0.089 C 
BRANCH  12  13
ATOM     13  N   UNL     1      -9.967  -1.243   8.456  1.00  0.00    -0.325 NA
ATOM     14  H   UNL     1      -9.764  -0.934   9.408  1.00  0.00     0.119 HD
ATOM     15  H   UNL     1     -10.771  -1.869   8.544  1.00  0.00     0.119 HD
ENDBRANCH  12  13
BRANCH  12  16
ATOM     16  C   UNL     1      -8.088  -1.208   6.834  1.00  0.00     0.022 C 
BRANCH  16  17
ATOM     17  C   UNL     1      -8.068   0.324   6.918  1.00  0.00     0.002 C 
BRANCH  17  18
ATOM     18  C   UNL     1      -6.999   0.904   7.841  1.00  0.00     0.000 C 
BRANCH  18  19
ATOM     19  C   UNL     1      -5.972   1.793   7.127  1.00  0.00    -0.000 C 
BRANCH  19  20
ATOM     20  C   UNL     1      -6.382   2.266   5.729  1.00  0.00    -0.000 C 
BRANCH  20  21
ATOM     21  C   UNL     1      -5.194   2.426   4.777  1.00  0.00    -0.003 C 
ATOM     22  C   UNL     1      -4.040   1.519   5.174  1.00  0.00     0.004 C 
ENDBRANCH  20  21
ENDBRANCH  19  20
ENDBRANCH  18  19
ENDBRANCH  17  18
ENDBRANCH  16  17
ENDBRANCH  12  16
ENDBRANCH   9  12
ENDBRANCH   6   9
ENDBRANCH   3   5
ENDBRANCH   2   3
BRANCH   2  23
ATOM     23  N   UNL     1      -6.599   1.363  13.170  1.00  0.00    -0.332 N 
ATOM     24  C   UNL     1      -7.049   2.649  13.681  1.00  0.00     0.147 C 
BRANCH  23  25
ATOM     25  C   UNL     1      -5.147   1.289  12.850  1.00  0.00     0.174 C 
BRANCH  25  26
ATOM     26  C   UNL     1      -4.331   2.440  13.484  1.00  0.00     0.038 C 
BRANCH  26  27
ATOM     27  C   UNL     1      -3.755   3.502  12.521  1.00  0.00    -0.015 C 
ATOM     28  C   UNL     1      -4.104   4.928  12.947  1.00  0.00     0.007 C 
ATOM     29  C   UNL     1      -2.252   3.362  12.293  1.00  0.00     0.007 C 
ENDBRANCH  26  27
ENDBRANCH  25  26
BRANCH  25  30
ATOM     30  C   UNL     1      -4.945   1.151  11.323  1.00  0.00     0.243 C 
ATOM     31  O   UNL     1      -5.704   1.685  10.516  1.00  0.00    -0.273 OA
ATOM     32  N   UNL     1      -3.871   0.393  10.933  1.00  0.00    -0.342 N 
ATOM     33  H   UNL     1      -3.208   0.102  11.657  1.00  0.00     0.164 HD
BRANCH  32  34
ATOM     34  C   UNL     1      -3.542   0.131   9.529  1.00  0.00     0.175 C 
BRANCH  34  35
ATOM     35  C   UNL     1      -2.089   0.521   9.214  1.00  0.00     0.070 C 
BRANCH  35  36
ATOM     36  C   UNL     1      -1.989   1.765   8.361  1.00  0.00    -0.045 A 
ATOM     37  C   UNL     1      -1.000   1.859   7.371  1.00  0.00     0.007 A 
ATOM     38  C   UNL     1      -2.861   2.844   8.558  1.00  0.00     0.007 A 
ATOM     39  C   UNL     1      -0.891   3.009   6.587  1.00  0.00     0.046 A 
ATOM     40  C   UNL     1      -2.752   3.996   7.775  1.00  0.00     0.046 A 
ATOM     41  C   UNL     1      -1.767   4.067   6.795  1.00  0.00     0.115 A 
BRANCH  41  42
ATOM     42  O   UNL     1      -1.625   5.173   6.011  1.00  0.00    -0.508 OA
ATOM     43  H   UNL     1      -1.456   4.881   5.100  1.00  0.00     0.293 HD
ENDBRANCH  41  42
ENDBRANCH  35  36
ENDBRANCH  34  35
BRANCH  34  44
ATOM     44  C   UNL     1      -3.814  -1.363   9.244  1.00  0.00     0.243 C 
ATOM     45  O   UNL     1      -4.592  -2.061   9.887  1.00  0.00    -0.273 OA
ATOM     46  N   UNL     1      -2.997  -1.892   8.268  1.00  0.00    -0.341 N 
ATOM     47  H   UNL     1      -2.285  -1.301   7.845  1.00  0.00     0.164 HD
BRANCH  46  48
ATOM     48  C   UNL     1      -3.023  -3.303   7.873  1.00  0.00     0.196 C 
BRANCH  48  49
ATOM     49  C   UNL     1      -2.571  -3.484   6.414  1.00  0.00     0.072 C 
BRANCH  49  50
ATOM     50  C   UNL     1      -3.731  -3.697   5.468  1.00  0.00    -0.045 A 
ATOM     51  C   UNL     1      -4.740  -2.727   5.370  1.00  0.00     0.007 A 
ATOM     52  C   UNL     1      -3.828  -4.862   4.697  1.00  0.00     0.007 A 
ATOM     53  C   UNL     1      -5.822  -2.918   4.511  1.00  0.00     0.046 A 
ATOM     54  C   UNL     1      -4.912  -5.054   3.837  1.00  0.00     0.046 A 
ATOM     55  C   UNL     1      -5.900  -4.079   3.751  1.00  0.00     0.115 A 
BRANCH  55  56
ATOM     56  O   UNL     1      -6.974  -4.228   2.924  1.00  0.00    -0.508 OA
ATOM     57  H   UNL     1      -7.675  -4.687   3.414  1.00  0.00     0.293 HD
ENDBRANCH  55  56
ENDBRANCH  49  50
ENDBRANCH  48  49
BRANCH  48  58
ATOM     58  C   UNL     1      -2.095  -4.098   8.802  1.00  0.00     0.326 C 
ATOM     59  O   UNL     1      -2.161  -5.287   9.069  1.00  0.00    -0.250 OA
BRANCH  58  60
ATOM     60  O   UNL     1      -1.104  -3.350   9.348  1.00  0.00    -0.480 OA
ATOM     61  H   UNL     1      -0.386  -3.404   8.680  1.00  0.00     0.296 HD
ENDBRANCH  58  60
ENDBRANCH  48  58
ENDBRANCH  46  48
ENDBRANCH  34  44
ENDBRANCH  32  34
ENDBRANCH  25  30
ENDBRANCH  23  25
ENDBRANCH   2  23
TORSDOF 28
ENDMDL
MODEL 25
REMARK VINA RESULT:    -7.276      3.475      8.300
REMARK INTER + INTRA:         -23.514
REMARK INTER:                 -20.319
REMARK INTRA:                  -3.195
REMARK UNBOUND:                -5.391
REMARK SMILES CCCCCCC[C@H](N)[C@H](O)C(=O)N[C@H](C)C(=O)N(C)[C@H](CC(C)C)C(=O)N[C@@H](Cc1ccc(O)cc1)C(=O)N[C@@H](Cc1ccc(O)cc1)C(=O)O
REMARK SMILES IDX 18 1 17 2 15 3 16 4 14 5 12 6 13 7 10 9 11 10 8 12 9 13 7 16
REMARK SMILES IDX 6 17 5 18 4 19 3 20 2 21 1 22 19 23 20 24 21 25 22 26 23 27
REMARK SMILES IDX 24 28 25 29 26 30 27 31 28 32 29 34 30 35 31 36 32 37 37 38
REMARK SMILES IDX 33 39 36 40 34 41 35 42 38 44 39 45 40 46 41 48 42 49 43 50
REMARK SMILES IDX 44 51 49 52 45 53 48 54 46 55 47 56 50 58 51 59 52 60
REMARK H PARENT 14 8 11 11 9 14 9 15 28 33 35 43 40 47 47 57 52 61
ROOT
ATOM      1  O   UNL     1      -8.888  -2.928   8.795  1.00  0.00    -0.272 OA
ATOM      2  C   UNL     1      -8.664  -1.876   9.411  1.00  0.00     0.245 C 
ENDROOT
BRANCH   2   3
ATOM      3  C   UNL     1      -9.260  -0.555   8.864  1.00  0.00     0.168 C 
ATOM      4  C   UNL     1      -9.608  -0.689   7.386  1.00  0.00     0.041 C 
BRANCH   3   5
ATOM      5  N   UNL     1     -10.370  -0.020   9.636  1.00  0.00    -0.342 N 
ATOM      6  C   UNL     1     -10.208   1.034  10.510  1.00  0.00     0.251 C 
ATOM      7  O   UNL     1      -9.127   1.568  10.733  1.00  0.00    -0.272 OA
ATOM      8  H   UNL     1     -11.310  -0.403   9.561  1.00  0.00     0.164 HD
BRANCH   6   9
ATOM      9  C   UNL     1     -11.539   1.523  11.105  1.00  0.00     0.219 C 
BRANCH   9  10
ATOM     10  O   UNL     1     -12.559   0.518  11.076  1.00  0.00    -0.382 OA
ATOM     11  H   UNL     1     -12.734   0.393  10.117  1.00  0.00     0.211 HD
ENDBRANCH   9  10
BRANCH   9  12
ATOM     12  C   UNL     1     -11.388   2.113  12.532  1.00  0.00     0.089 C 
BRANCH  12  13
ATOM     13  N   UNL     1     -11.751   3.547  12.485  1.00  0.00    -0.325 NA
ATOM     14  H   UNL     1     -12.768   3.635  12.443  1.00  0.00     0.119 HD
ATOM     15  H   UNL     1     -11.412   3.946  11.607  1.00  0.00     0.119 HD
ENDBRANCH  12  13
BRANCH  12  16
ATOM     16  C   UNL     1     -12.185   1.398  13.649  1.00  0.00     0.022 C 
BRANCH  16  17
ATOM     17  C   UNL     1     -13.247   2.185  14.429  1.00  0.00     0.002 C 
BRANCH  17  18
ATOM     18  C   UNL     1     -13.868   1.437  15.607  1.00  0.00     0.000 C 
BRANCH  18  19
ATOM     19  C   UNL     1     -12.856   1.011  16.679  1.00  0.00    -0.000 C 
BRANCH  19  20
ATOM     20  C   UNL     1     -13.410   0.081  17.762  1.00  0.00    -0.000 C 
BRANCH  20  21
ATOM     21  C   UNL     1     -12.807   0.345  19.145  1.00  0.00    -0.003 C 
ATOM     22  C   UNL     1     -11.839  -0.757  19.548  1.00  0.00     0.004 C 
ENDBRANCH  20  21
ENDBRANCH  19  20
ENDBRANCH  18  19
ENDBRANCH  17  18
ENDBRANCH  16  17
ENDBRANCH  12  16
ENDBRANCH   9  12
ENDBRANCH   6   9
ENDBRANCH   3   5
ENDBRANCH   2   3
BRANCH   2  23
ATOM     23  N   UNL     1      -7.996  -1.913  10.631  1.00  0.00    -0.332 N 
ATOM     24  C   UNL     1      -8.636  -2.147  11.916  1.00  0.00     0.147 C 
BRANCH  23  25
ATOM     25  C   UNL     1      -6.510  -1.837  10.676  1.00  0.00     0.174 C 
BRANCH  25  26
ATOM     26  C   UNL     1      -5.975  -0.396  10.494  1.00  0.00     0.038 C 
BRANCH  26  27
ATOM     27  C   UNL     1      -5.156   0.198  11.661  1.00  0.00    -0.015 C 
ATOM     28  C   UNL     1      -4.021  -0.723  12.109  1.00  0.00     0.007 C 
ATOM     29  C   UNL     1      -4.627   1.602  11.379  1.00  0.00     0.007 C 
ENDBRANCH  26  27
ENDBRANCH  25  26
BRANCH  25  30
ATOM     30  C   UNL     1      -5.894  -2.857   9.690  1.00  0.00     0.243 C 
ATOM     31  O   UNL     1      -5.759  -4.043   9.984  1.00  0.00    -0.273 OA
ATOM     32  N   UNL     1      -5.507  -2.350   8.477  1.00  0.00    -0.342 N 
ATOM     33  H   UNL     1      -5.781  -1.389   8.255  1.00  0.00     0.164 HD
BRANCH  32  34
ATOM     34  C   UNL     1      -4.881  -3.163   7.431  1.00  0.00     0.175 C 
BRANCH  34  35
ATOM     35  C   UNL     1      -4.832  -2.411   6.092  1.00  0.00     0.070 C 
BRANCH  35  36
ATOM     36  C   UNL     1      -5.270  -3.267   4.925  1.00  0.00    -0.045 A 
ATOM     37  C   UNL     1      -6.432  -2.938   4.210  1.00  0.00     0.007 A 
ATOM     38  C   UNL     1      -4.542  -4.405   4.555  1.00  0.00     0.007 A 
ATOM     39  C   UNL     1      -6.852  -3.729   3.141  1.00  0.00     0.046 A 
ATOM     40  C   UNL     1      -4.962  -5.199   3.484  1.00  0.00     0.046 A 
ATOM     41  C   UNL     1      -6.114  -4.852   2.786  1.00  0.00     0.115 A 
BRANCH  41  42
ATOM     42  O   UNL     1      -6.560  -5.600   1.737  1.00  0.00    -0.508 OA
ATOM     43  H   UNL     1      -5.874  -6.251   1.514  1.00  0.00     0.293 HD
ENDBRANCH  41  42
ENDBRANCH  35  36
ENDBRANCH  34  35
BRANCH  34  44
ATOM     44  C   UNL     1      -3.470  -3.566   7.918  1.00  0.00     0.243 C 
ATOM     45  O   UNL     1      -2.901  -4.609   7.609  1.00  0.00    -0.273 OA
ATOM     46  N   UNL     1      -2.944  -2.699   8.852  1.00  0.00    -0.341 N 
ATOM     47  H   UNL     1      -3.504  -1.910   9.164  1.00  0.00     0.164 HD
BRANCH  46  48
ATOM     48  C   UNL     1      -1.651  -2.909   9.508  1.00  0.00     0.196 C 
BRANCH  48  49
ATOM     49  C   UNL     1      -1.078  -1.590  10.050  1.00  0.00     0.072 C 
BRANCH  49  50
ATOM     50  C   UNL     1      -0.971  -0.521   8.987  1.00  0.00    -0.045 A 
ATOM     51  C   UNL     1      -1.740   0.647   9.089  1.00  0.00     0.007 A 
ATOM     52  C   UNL     1      -0.126  -0.686   7.881  1.00  0.00     0.007 A 
ATOM     53  C   UNL     1      -1.660   1.635   8.107  1.00  0.00     0.046 A 
ATOM     54  C   UNL     1      -0.047   0.302   6.897  1.00  0.00     0.046 A 
ATOM     55  C   UNL     1      -0.814   1.455   7.019  1.00  0.00     0.115 A 
BRANCH  55  56
ATOM     56  O   UNL     1      -0.766   2.443   6.080  1.00  0.00    -0.508 OA
ATOM     57  H   UNL     1      -0.271   3.192   6.449  1.00  0.00     0.293 HD
ENDBRANCH  55  56
ENDBRANCH  49  50
ENDBRANCH  48  49
BRANCH  48  58
ATOM     58  C   UNL     1      -1.833  -3.905  10.662  1.00  0.00     0.326 C 
ATOM     59  O   UNL     1      -2.131  -3.651  11.818  1.00  0.00    -0.250 OA
BRANCH  58  60
ATOM     60  O   UNL     1      -1.641  -5.198  10.297  1.00  0.00    -0.480 OA
ATOM     61  H   UNL     1      -2.383  -5.669  10.735  1.00  0.00     0.296 HD
ENDBRANCH  58  60
ENDBRANCH  48  58
ENDBRANCH  46  48
ENDBRANCH  34  44
ENDBRANCH  32  34
ENDBRANCH  25  30
ENDBRANCH  23  25
ENDBRANCH   2  23
TORSDOF 28
ENDMDL
MODEL 26
REMARK VINA RESULT:    -7.275      2.668      8.025
REMARK INTER + INTRA:         -23.511
REMARK INTER:                 -19.452
REMARK INTRA:                  -4.059
REMARK UNBOUND:                -5.391
REMARK SMILES CCCCCCC[C@H](N)[C@H](O)C(=O)N[C@H](C)C(=O)N(C)[C@H](CC(C)C)C(=O)N[C@@H](Cc1ccc(O)cc1)C(=O)N[C@@H](Cc1ccc(O)cc1)C(=O)O
REMARK SMILES IDX 18 1 17 2 15 3 16 4 14 5 12 6 13 7 10 9 11 10 8 12 9 13 7 16
REMARK SMILES IDX 6 17 5 18 4 19 3 20 2 21 1 22 19 23 20 24 21 25 22 26 23 27
REMARK SMILES IDX 24 28 25 29 26 30 27 31 28 32 29 34 30 35 31 36 32 37 37 38
REMARK SMILES IDX 33 39 36 40 34 41 35 42 38 44 39 45 40 46 41 48 42 49 43 50
REMARK SMILES IDX 44 51 49 52 45 53 48 54 46 55 47 56 50 58 51 59 52 60
REMARK H PARENT 14 8 11 11 9 14 9 15 28 33 35 43 40 47 47 57 52 61
ROOT
ATOM      1  O   UNL     1      -4.345   1.776  13.778  1.00  0.00    -0.272 OA
ATOM      2  C   UNL     1      -3.818   0.999  12.968  1.00  0.00     0.245 C 
ENDROOT
BRANCH   2   3
ATOM      3  C   UNL     1      -3.984  -0.525  13.188  1.00  0.00     0.168 C 
ATOM      4  C   UNL     1      -5.051  -0.807  14.240  1.00  0.00     0.041 C 
BRANCH   3   5
ATOM      5  N   UNL     1      -4.201  -1.297  11.975  1.00  0.00    -0.342 N 
ATOM      6  C   UNL     1      -3.364  -2.331  11.610  1.00  0.00     0.251 C 
ATOM      7  O   UNL     1      -2.365  -2.649  12.246  1.00  0.00    -0.272 OA
ATOM      8  H   UNL     1      -4.978  -1.104  11.348  1.00  0.00     0.164 HD
BRANCH   6   9
ATOM      9  C   UNL     1      -3.866  -3.094  10.374  1.00  0.00     0.219 C 
BRANCH   9  10
ATOM     10  O   UNL     1      -4.714  -2.296   9.538  1.00  0.00    -0.382 OA
ATOM     11  H   UNL     1      -4.388  -2.486   8.631  1.00  0.00     0.211 HD
ENDBRANCH   9  10
BRANCH   9  12
ATOM     12  C   UNL     1      -2.720  -3.733   9.546  1.00  0.00     0.089 C 
BRANCH  12  13
ATOM     13  N   UNL     1      -2.021  -4.720  10.399  1.00  0.00    -0.325 NA
ATOM     14  H   UNL     1      -1.214  -5.090   9.893  1.00  0.00     0.119 HD
ATOM     15  H   UNL     1      -2.636  -5.525  10.546  1.00  0.00     0.119 HD
ENDBRANCH  12  13
BRANCH  12  16
ATOM     16  C   UNL     1      -3.135  -4.387   8.206  1.00  0.00     0.022 C 
BRANCH  16  17
ATOM     17  C   UNL     1      -2.938  -3.605   6.900  1.00  0.00     0.002 C 
BRANCH  17  18
ATOM     18  C   UNL     1      -3.117  -4.424   5.624  1.00  0.00     0.000 C 
BRANCH  18  19
ATOM     19  C   UNL     1      -4.504  -4.287   4.983  1.00  0.00    -0.000 C 
BRANCH  19  20
ATOM     20  C   UNL     1      -4.753  -5.191   3.772  1.00  0.00    -0.000 C 
BRANCH  20  21
ATOM     21  C   UNL     1      -5.987  -4.783   2.963  1.00  0.00    -0.003 C 
ATOM     22  C   UNL     1      -6.692  -3.590   3.589  1.00  0.00     0.004 C 
ENDBRANCH  20  21
ENDBRANCH  19  20
ENDBRANCH  18  19
ENDBRANCH  17  18
ENDBRANCH  16  17
ENDBRANCH  12  16
ENDBRANCH   9  12
ENDBRANCH   6   9
ENDBRANCH   3   5
ENDBRANCH   2   3
BRANCH   2  23
ATOM     23  N   UNL     1      -3.200   1.498  11.826  1.00  0.00    -0.332 N 
ATOM     24  C   UNL     1      -1.848   1.164  11.405  1.00  0.00     0.147 C 
BRANCH  23  25
ATOM     25  C   UNL     1      -3.966   2.339  10.865  1.00  0.00     0.174 C 
BRANCH  25  26
ATOM     26  C   UNL     1      -5.297   2.865  11.452  1.00  0.00     0.038 C 
BRANCH  26  27
ATOM     27  C   UNL     1      -5.463   4.398  11.546  1.00  0.00    -0.015 C 
ATOM     28  C   UNL     1      -4.433   5.042  12.474  1.00  0.00     0.007 C 
ATOM     29  C   UNL     1      -5.470   5.093  10.187  1.00  0.00     0.007 C 
ENDBRANCH  26  27
ENDBRANCH  25  26
BRANCH  25  30
ATOM     30  C   UNL     1      -4.131   1.594   9.521  1.00  0.00     0.243 C 
ATOM     31  O   UNL     1      -4.414   0.398   9.471  1.00  0.00    -0.273 OA
ATOM     32  N   UNL     1      -3.936   2.351   8.395  1.00  0.00    -0.342 N 
ATOM     33  H   UNL     1      -3.845   3.363   8.514  1.00  0.00     0.164 HD
BRANCH  32  34
ATOM     34  C   UNL     1      -4.025   1.807   7.037  1.00  0.00     0.175 C 
BRANCH  34  35
ATOM     35  C   UNL     1      -5.428   2.008   6.445  1.00  0.00     0.070 C 
BRANCH  35  36
ATOM     36  C   UNL     1      -6.325   0.807   6.646  1.00  0.00    -0.045 A 
ATOM     37  C   UNL     1      -5.831  -0.485   6.410  1.00  0.00     0.007 A 
ATOM     38  C   UNL     1      -7.659   0.965   7.044  1.00  0.00     0.007 A 
ATOM     39  C   UNL     1      -6.655  -1.598   6.579  1.00  0.00     0.046 A 
ATOM     40  C   UNL     1      -8.485  -0.149   7.213  1.00  0.00     0.046 A 
ATOM     41  C   UNL     1      -7.974  -1.421   6.980  1.00  0.00     0.115 A 
BRANCH  41  42
ATOM     42  O   UNL     1      -8.747  -2.535   7.130  1.00  0.00    -0.508 OA
ATOM     43  H   UNL     1      -8.171  -3.315   7.073  1.00  0.00     0.293 HD
ENDBRANCH  41  42
ENDBRANCH  35  36
ENDBRANCH  34  35
BRANCH  34  44
ATOM     44  C   UNL     1      -2.933   2.484   6.178  1.00  0.00     0.243 C 
ATOM     45  O   UNL     1      -2.503   2.032   5.120  1.00  0.00    -0.273 OA
ATOM     46  N   UNL     1      -2.377   3.597   6.773  1.00  0.00    -0.341 N 
ATOM     47  H   UNL     1      -2.687   3.865   7.704  1.00  0.00     0.164 HD
BRANCH  46  48
ATOM     48  C   UNL     1      -1.280   4.364   6.181  1.00  0.00     0.196 C 
BRANCH  48  49
ATOM     49  C   UNL     1      -1.379   5.855   6.543  1.00  0.00     0.072 C 
BRANCH  49  50
ATOM     50  C   UNL     1      -0.899   6.758   5.429  1.00  0.00    -0.045 A 
ATOM     51  C   UNL     1       0.473   6.998   5.265  1.00  0.00     0.007 A 
ATOM     52  C   UNL     1      -1.808   7.381   4.564  1.00  0.00     0.007 A 
ATOM     53  C   UNL     1       0.926   7.839   4.249  1.00  0.00     0.046 A 
ATOM     54  C   UNL     1      -1.354   8.224   3.548  1.00  0.00     0.046 A 
ATOM     55  C   UNL     1       0.011   8.445   3.398  1.00  0.00     0.115 A 
BRANCH  55  56
ATOM     56  O   UNL     1       0.495   9.262   2.420  1.00  0.00    -0.508 OA
ATOM     57  H   UNL     1      -0.169   9.320   1.714  1.00  0.00     0.293 HD
ENDBRANCH  55  56
ENDBRANCH  49  50
ENDBRANCH  48  49
BRANCH  48  58
ATOM     58  C   UNL     1       0.055   3.799   6.687  1.00  0.00     0.326 C 
ATOM     59  O   UNL     1       0.707   2.892   6.197  1.00  0.00    -0.250 OA
BRANCH  58  60
ATOM     60  O   UNL     1       0.520   4.424   7.798  1.00  0.00    -0.480 OA
ATOM     61  H   UNL     1      -0.300   4.706   8.259  1.00  0.00     0.296 HD
ENDBRANCH  58  60
ENDBRANCH  48  58
ENDBRANCH  46  48
ENDBRANCH  34  44
ENDBRANCH  32  34
ENDBRANCH  25  30
ENDBRANCH  23  25
ENDBRANCH   2  23
TORSDOF 28
ENDMDL
MODEL 27
REMARK VINA RESULT:    -7.266      2.364      4.454
REMARK INTER + INTRA:         -23.489
REMARK INTER:                 -17.968
REMARK INTRA:                  -5.521
REMARK UNBOUND:                -5.391
REMARK SMILES CCCCCCC[C@H](N)[C@H](O)C(=O)N[C@H](C)C(=O)N(C)[C@H](CC(C)C)C(=O)N[C@@H](Cc1ccc(O)cc1)C(=O)N[C@@H](Cc1ccc(O)cc1)C(=O)O
REMARK SMILES IDX 18 1 17 2 15 3 16 4 14 5 12 6 13 7 10 9 11 10 8 12 9 13 7 16
REMARK SMILES IDX 6 17 5 18 4 19 3 20 2 21 1 22 19 23 20 24 21 25 22 26 23 27
REMARK SMILES IDX 24 28 25 29 26 30 27 31 28 32 29 34 30 35 31 36 32 37 37 38
REMARK SMILES IDX 33 39 36 40 34 41 35 42 38 44 39 45 40 46 41 48 42 49 43 50
REMARK SMILES IDX 44 51 49 52 45 53 48 54 46 55 47 56 50 58 51 59 52 60
REMARK H PARENT 14 8 11 11 9 14 9 15 28 33 35 43 40 47 47 57 52 61
ROOT
ATOM      1  O   UNL     1      -5.716  -2.705  12.204  1.00  0.00    -0.272 OA
ATOM      2  C   UNL     1      -6.505  -1.752  12.283  1.00  0.00     0.245 C 
ENDROOT
BRANCH   2   3
ATOM      3  C   UNL     1      -5.989  -0.409  12.858  1.00  0.00     0.168 C 
ATOM      4  C   UNL     1      -5.358  -0.614  14.231  1.00  0.00     0.041 C 
BRANCH   3   5
ATOM      5  N   UNL     1      -5.117   0.342  11.967  1.00  0.00    -0.342 N 
ATOM      6  C   UNL     1      -5.392   1.644  11.608  1.00  0.00     0.251 C 
ATOM      7  O   UNL     1      -6.396   2.248  11.969  1.00  0.00    -0.272 OA
ATOM      8  H   UNL     1      -4.272  -0.066  11.575  1.00  0.00     0.164 HD
BRANCH   6   9
ATOM      9  C   UNL     1      -4.265   2.282  10.779  1.00  0.00     0.219 C 
BRANCH   9  10
ATOM     10  O   UNL     1      -4.759   3.080   9.697  1.00  0.00    -0.382 OA
ATOM     11  H   UNL     1      -5.560   3.507  10.072  1.00  0.00     0.211 HD
ENDBRANCH   9  10
BRANCH   9  12
ATOM     12  C   UNL     1      -3.256   3.085  11.640  1.00  0.00     0.089 C 
BRANCH  12  13
ATOM     13  N   UNL     1      -3.495   2.760  13.065  1.00  0.00    -0.325 NA
ATOM     14  H   UNL     1      -4.294   2.128  13.136  1.00  0.00     0.119 HD
ATOM     15  H   UNL     1      -3.783   3.611  13.555  1.00  0.00     0.119 HD
ENDBRANCH  12  13
BRANCH  12  16
ATOM     16  C   UNL     1      -1.761   2.888  11.293  1.00  0.00     0.022 C 
BRANCH  16  17
ATOM     17  C   UNL     1      -0.960   4.073  10.738  1.00  0.00     0.002 C 
BRANCH  17  18
ATOM     18  C   UNL     1      -1.023   4.240   9.221  1.00  0.00     0.000 C 
BRANCH  18  19
ATOM     19  C   UNL     1      -1.292   5.679   8.762  1.00  0.00    -0.000 C 
BRANCH  19  20
ATOM     20  C   UNL     1      -1.939   5.810   7.380  1.00  0.00    -0.000 C 
BRANCH  20  21
ATOM     21  C   UNL     1      -3.269   5.060   7.267  1.00  0.00    -0.003 C 
ATOM     22  C   UNL     1      -3.445   4.448   5.886  1.00  0.00     0.004 C 
ENDBRANCH  20  21
ENDBRANCH  19  20
ENDBRANCH  18  19
ENDBRANCH  17  18
ENDBRANCH  16  17
ENDBRANCH  12  16
ENDBRANCH   9  12
ENDBRANCH   6   9
ENDBRANCH   3   5
ENDBRANCH   2   3
BRANCH   2  23
ATOM     23  N   UNL     1      -7.785  -1.862  11.751  1.00  0.00    -0.332 N 
ATOM     24  C   UNL     1      -8.904  -2.510  12.420  1.00  0.00     0.147 C 
BRANCH  23  25
ATOM     25  C   UNL     1      -8.128  -1.185  10.471  1.00  0.00     0.174 C 
BRANCH  25  26
ATOM     26  C   UNL     1      -9.626  -1.309  10.105  1.00  0.00     0.038 C 
BRANCH  26  27
ATOM     27  C   UNL     1     -10.408   0.008   9.905  1.00  0.00    -0.015 C 
ATOM     28  C   UNL     1     -11.877  -0.118  10.306  1.00  0.00     0.007 C 
ATOM     29  C   UNL     1      -9.764   1.208  10.594  1.00  0.00     0.007 C 
ENDBRANCH  26  27
ENDBRANCH  25  26
BRANCH  25  30
ATOM     30  C   UNL     1      -7.174  -1.656   9.349  1.00  0.00     0.243 C 
ATOM     31  O   UNL     1      -6.963  -2.848   9.132  1.00  0.00    -0.273 OA
ATOM     32  N   UNL     1      -6.577  -0.659   8.620  1.00  0.00    -0.342 N 
ATOM     33  H   UNL     1      -6.909   0.298   8.766  1.00  0.00     0.164 HD
BRANCH  32  34
ATOM     34  C   UNL     1      -5.624  -0.917   7.538  1.00  0.00     0.175 C 
BRANCH  34  35
ATOM     35  C   UNL     1      -6.342  -1.082   6.189  1.00  0.00     0.070 C 
BRANCH  35  36
ATOM     36  C   UNL     1      -5.886  -2.308   5.430  1.00  0.00    -0.045 A 
ATOM     37  C   UNL     1      -6.581  -2.722   4.283  1.00  0.00     0.007 A 
ATOM     38  C   UNL     1      -4.786  -3.057   5.868  1.00  0.00     0.007 A 
ATOM     39  C   UNL     1      -6.176  -3.859   3.584  1.00  0.00     0.046 A 
ATOM     40  C   UNL     1      -4.381  -4.197   5.169  1.00  0.00     0.046 A 
ATOM     41  C   UNL     1      -5.080  -4.587   4.032  1.00  0.00     0.115 A 
BRANCH  41  42
ATOM     42  O   UNL     1      -4.719  -5.693   3.322  1.00  0.00    -0.508 OA
ATOM     43  H   UNL     1      -4.431  -6.377   3.949  1.00  0.00     0.293 HD
ENDBRANCH  41  42
ENDBRANCH  35  36
ENDBRANCH  34  35
BRANCH  34  44
ATOM     44  C   UNL     1      -4.604   0.243   7.511  1.00  0.00     0.243 C 
ATOM     45  O   UNL     1      -4.898   1.421   7.329  1.00  0.00    -0.273 OA
ATOM     46  N   UNL     1      -3.292  -0.178   7.580  1.00  0.00    -0.341 N 
ATOM     47  H   UNL     1      -3.095  -1.175   7.612  1.00  0.00     0.164 HD
BRANCH  46  48
ATOM     48  C   UNL     1      -2.149   0.734   7.504  1.00  0.00     0.196 C 
BRANCH  48  49
ATOM     49  C   UNL     1      -1.019   0.295   8.451  1.00  0.00     0.072 C 
BRANCH  49  50
ATOM     50  C   UNL     1      -1.378  -0.934   9.255  1.00  0.00    -0.045 A 
ATOM     51  C   UNL     1      -2.035  -0.797  10.486  1.00  0.00     0.007 A 
ATOM     52  C   UNL     1      -1.046  -2.216   8.799  1.00  0.00     0.007 A 
ATOM     53  C   UNL     1      -2.360  -1.923  11.243  1.00  0.00     0.046 A 
ATOM     54  C   UNL     1      -1.370  -3.344   9.557  1.00  0.00     0.046 A 
ATOM     55  C   UNL     1      -2.026  -3.187  10.773  1.00  0.00     0.115 A 
BRANCH  55  56
ATOM     56  O   UNL     1      -2.359  -4.262  11.543  1.00  0.00    -0.508 OA
ATOM     57  H   UNL     1      -3.309  -4.429  11.440  1.00  0.00     0.293 HD
ENDBRANCH  55  56
ENDBRANCH  49  50
ENDBRANCH  48  49
BRANCH  48  58
ATOM     58  C   UNL     1      -1.628   0.763   6.061  1.00  0.00     0.326 C 
ATOM     59  O   UNL     1      -0.493   0.526   5.679  1.00  0.00    -0.250 OA
BRANCH  58  60
ATOM     60  O   UNL     1      -2.581   1.078   5.148  1.00  0.00    -0.480 OA
ATOM     61  H   UNL     1      -2.358   0.507   4.381  1.00  0.00     0.296 HD
ENDBRANCH  58  60
ENDBRANCH  48  58
ENDBRANCH  46  48
ENDBRANCH  34  44
ENDBRANCH  32  34
ENDBRANCH  25  30
ENDBRANCH  23  25
ENDBRANCH   2  23
TORSDOF 28
ENDMDL
MODEL 28
REMARK VINA RESULT:    -7.254      3.199      6.457
REMARK INTER + INTRA:         -23.459
REMARK INTER:                 -18.325
REMARK INTRA:                  -5.134
REMARK UNBOUND:                -5.391
REMARK SMILES CCCCCCC[C@H](N)[C@H](O)C(=O)N[C@H](C)C(=O)N(C)[C@H](CC(C)C)C(=O)N[C@@H](Cc1ccc(O)cc1)C(=O)N[C@@H](Cc1ccc(O)cc1)C(=O)O
REMARK SMILES IDX 18 1 17 2 15 3 16 4 14 5 12 6 13 7 10 9 11 10 8 12 9 13 7 16
REMARK SMILES IDX 6 17 5 18 4 19 3 20 2 21 1 22 19 23 20 24 21 25 22 26 23 27
REMARK SMILES IDX 24 28 25 29 26 30 27 31 28 32 29 34 30 35 31 36 32 37 37 38
REMARK SMILES IDX 33 39 36 40 34 41 35 42 38 44 39 45 40 46 41 48 42 49 43 50
REMARK SMILES IDX 44 51 49 52 45 53 48 54 46 55 47 56 50 58 51 59 52 60
REMARK H PARENT 14 8 11 11 9 14 9 15 28 33 35 43 40 47 47 57 52 61
ROOT
ATOM      1  O   UNL     1      -7.240   2.577   5.695  1.00  0.00    -0.272 OA
ATOM      2  C   UNL     1      -6.325   1.991   6.293  1.00  0.00     0.245 C 
ENDROOT
BRANCH   2   3
ATOM      3  C   UNL     1      -5.118   2.822   6.795  1.00  0.00     0.168 C 
ATOM      4  C   UNL     1      -4.297   3.347   5.623  1.00  0.00     0.041 C 
BRANCH   3   5
ATOM      5  N   UNL     1      -5.452   3.877   7.739  1.00  0.00    -0.342 N 
ATOM      6  C   UNL     1      -4.874   3.946   8.989  1.00  0.00     0.251 C 
ATOM      7  O   UNL     1      -4.079   3.114   9.413  1.00  0.00    -0.272 OA
ATOM      8  H   UNL     1      -6.126   4.605   7.512  1.00  0.00     0.164 HD
BRANCH   6   9
ATOM      9  C   UNL     1      -5.267   5.218   9.756  1.00  0.00     0.219 C 
BRANCH   9  10
ATOM     10  O   UNL     1      -4.236   6.213   9.742  1.00  0.00    -0.382 OA
ATOM     11  H   UNL     1      -4.334   6.634   8.860  1.00  0.00     0.211 HD
ENDBRANCH   9  10
BRANCH   9  12
ATOM     12  C   UNL     1      -6.618   5.819   9.288  1.00  0.00     0.089 C 
BRANCH  12  13
ATOM     13  N   UNL     1      -7.713   5.110   9.990  1.00  0.00    -0.325 NA
ATOM     14  H   UNL     1      -8.608   5.519   9.715  1.00  0.00     0.119 HD
ATOM     15  H   UNL     1      -7.634   5.291  10.993  1.00  0.00     0.119 HD
ENDBRANCH  12  13
BRANCH  12  16
ATOM     16  C   UNL     1      -6.777   7.348   9.463  1.00  0.00     0.022 C 
BRANCH  16  17
ATOM     17  C   UNL     1      -7.755   8.106   8.554  1.00  0.00     0.002 C 
BRANCH  17  18
ATOM     18  C   UNL     1      -7.100   8.932   7.449  1.00  0.00     0.000 C 
BRANCH  18  19
ATOM     19  C   UNL     1      -5.578   9.070   7.591  1.00  0.00    -0.000 C 
BRANCH  19  20
ATOM     20  C   UNL     1      -4.806   9.144   6.271  1.00  0.00    -0.000 C 
BRANCH  20  21
ATOM     21  C   UNL     1      -4.705  10.567   5.715  1.00  0.00    -0.003 C 
ATOM     22  C   UNL     1      -4.030  10.583   4.352  1.00  0.00     0.004 C 
ENDBRANCH  20  21
ENDBRANCH  19  20
ENDBRANCH  18  19
ENDBRANCH  17  18
ENDBRANCH  16  17
ENDBRANCH  12  16
ENDBRANCH   9  12
ENDBRANCH   6   9
ENDBRANCH   3   5
ENDBRANCH   2   3
BRANCH   2  23
ATOM     23  N   UNL     1      -6.452   0.643   6.608  1.00  0.00    -0.332 N 
ATOM     24  C   UNL     1      -7.638   0.040   7.197  1.00  0.00     0.147 C 
BRANCH  23  25
ATOM     25  C   UNL     1      -5.383  -0.321   6.226  1.00  0.00     0.174 C 
BRANCH  25  26
ATOM     26  C   UNL     1      -5.908  -1.766   6.056  1.00  0.00     0.038 C 
BRANCH  26  27
ATOM     27  C   UNL     1      -5.683  -2.435   4.682  1.00  0.00    -0.015 C 
ATOM     28  C   UNL     1      -4.583  -3.495   4.720  1.00  0.00     0.007 C 
ATOM     29  C   UNL     1      -6.959  -3.007   4.069  1.00  0.00     0.007 C 
ENDBRANCH  26  27
ENDBRANCH  25  26
BRANCH  25  30
ATOM     30  C   UNL     1      -4.189  -0.204   7.202  1.00  0.00     0.243 C 
ATOM     31  O   UNL     1      -4.279  -0.539   8.382  1.00  0.00    -0.273 OA
ATOM     32  N   UNL     1      -3.032   0.301   6.665  1.00  0.00    -0.342 N 
ATOM     33  H   UNL     1      -2.994   0.422   5.650  1.00  0.00     0.164 HD
BRANCH  32  34
ATOM     34  C   UNL     1      -1.810   0.507   7.447  1.00  0.00     0.175 C 
BRANCH  34  35
ATOM     35  C   UNL     1      -0.783  -0.605   7.182  1.00  0.00     0.070 C 
BRANCH  35  36
ATOM     36  C   UNL     1      -1.208  -1.941   7.748  1.00  0.00    -0.045 A 
ATOM     37  C   UNL     1      -1.757  -2.918   6.904  1.00  0.00     0.007 A 
ATOM     38  C   UNL     1      -1.085  -2.214   9.117  1.00  0.00     0.007 A 
ATOM     39  C   UNL     1      -2.164  -4.149   7.420  1.00  0.00     0.046 A 
ATOM     40  C   UNL     1      -1.494  -3.445   9.634  1.00  0.00     0.046 A 
ATOM     41  C   UNL     1      -2.030  -4.403   8.779  1.00  0.00     0.115 A 
BRANCH  41  42
ATOM     42  O   UNL     1      -2.443  -5.616   9.243  1.00  0.00    -0.508 OA
ATOM     43  H   UNL     1      -2.807  -6.120   8.496  1.00  0.00     0.293 HD
ENDBRANCH  41  42
ENDBRANCH  35  36
ENDBRANCH  34  35
BRANCH  34  44
ATOM     44  C   UNL     1      -1.250   1.905   7.099  1.00  0.00     0.243 C 
ATOM     45  O   UNL     1      -0.601   2.161   6.089  1.00  0.00    -0.273 OA
ATOM     46  N   UNL     1      -1.432   2.834   8.102  1.00  0.00    -0.341 N 
ATOM     47  H   UNL     1      -1.874   2.543   8.971  1.00  0.00     0.164 HD
BRANCH  46  48
ATOM     48  C   UNL     1      -0.928   4.207   8.030  1.00  0.00     0.196 C 
BRANCH  48  49
ATOM     49  C   UNL     1      -1.946   5.143   7.357  1.00  0.00     0.072 C 
BRANCH  49  50
ATOM     50  C   UNL     1      -1.354   5.909   6.196  1.00  0.00    -0.045 A 
ATOM     51  C   UNL     1      -0.019   5.692   5.824  1.00  0.00     0.007 A 
ATOM     52  C   UNL     1      -2.113   6.853   5.493  1.00  0.00     0.007 A 
ATOM     53  C   UNL     1       0.543   6.402   4.763  1.00  0.00     0.046 A 
ATOM     54  C   UNL     1      -1.550   7.565   4.431  1.00  0.00     0.046 A 
ATOM     55  C   UNL     1      -0.227   7.332   4.074  1.00  0.00     0.115 A 
BRANCH  55  56
ATOM     56  O   UNL     1       0.360   8.007   3.045  1.00  0.00    -0.508 OA
ATOM     57  H   UNL     1       0.267   7.475   2.238  1.00  0.00     0.293 HD
ENDBRANCH  55  56
ENDBRANCH  49  50
ENDBRANCH  48  49
BRANCH  48  58
ATOM     58  C   UNL     1      -0.631   4.705   9.451  1.00  0.00     0.326 C 
ATOM     59  O   UNL     1       0.459   4.979   9.926  1.00  0.00    -0.250 OA
BRANCH  58  60
ATOM     60  O   UNL     1      -1.742   4.851  10.216  1.00  0.00    -0.480 OA
ATOM     61  H   UNL     1      -2.381   4.226   9.809  1.00  0.00     0.296 HD
ENDBRANCH  58  60
ENDBRANCH  48  58
ENDBRANCH  46  48
ENDBRANCH  34  44
ENDBRANCH  32  34
ENDBRANCH  25  30
ENDBRANCH  23  25
ENDBRANCH   2  23
TORSDOF 28
ENDMDL
MODEL 29
REMARK VINA RESULT:    -7.228      2.471      7.573
REMARK INTER + INTRA:         -23.393
REMARK INTER:                 -16.801
REMARK INTRA:                  -6.592
REMARK UNBOUND:                -5.391
REMARK SMILES CCCCCCC[C@H](N)[C@H](O)C(=O)N[C@H](C)C(=O)N(C)[C@H](CC(C)C)C(=O)N[C@@H](Cc1ccc(O)cc1)C(=O)N[C@@H](Cc1ccc(O)cc1)C(=O)O
REMARK SMILES IDX 18 1 17 2 15 3 16 4 14 5 12 6 13 7 10 9 11 10 8 12 9 13 7 16
REMARK SMILES IDX 6 17 5 18 4 19 3 20 2 21 1 22 19 23 20 24 21 25 22 26 23 27
REMARK SMILES IDX 24 28 25 29 26 30 27 31 28 32 29 34 30 35 31 36 32 37 37 38
REMARK SMILES IDX 33 39 36 40 34 41 35 42 38 44 39 45 40 46 41 48 42 49 43 50
REMARK SMILES IDX 44 51 49 52 45 53 48 54 46 55 47 56 50 58 51 59 52 60
REMARK H PARENT 14 8 11 11 9 14 9 15 28 33 35 43 40 47 47 57 52 61
ROOT
ATOM      1  O   UNL     1      -4.378   1.696  13.144  1.00  0.00    -0.272 OA
ATOM      2  C   UNL     1      -5.146   1.715  12.170  1.00  0.00     0.245 C 
ENDROOT
BRANCH   2   3
ATOM      3  C   UNL     1      -6.328   0.715  12.138  1.00  0.00     0.168 C 
ATOM      4  C   UNL     1      -7.660   1.446  12.268  1.00  0.00     0.041 C 
BRANCH   3   5
ATOM      5  N   UNL     1      -6.322  -0.203  11.009  1.00  0.00    -0.342 N 
ATOM      6  C   UNL     1      -6.228  -1.567  11.181  1.00  0.00     0.251 C 
ATOM      7  O   UNL     1      -6.103  -2.104  12.277  1.00  0.00    -0.272 OA
ATOM      8  H   UNL     1      -6.385   0.128  10.049  1.00  0.00     0.164 HD
BRANCH   6   9
ATOM      9  C   UNL     1      -6.384  -2.345   9.864  1.00  0.00     0.219 C 
BRANCH   9  10
ATOM     10  O   UNL     1      -5.535  -3.496   9.798  1.00  0.00    -0.382 OA
ATOM     11  H   UNL     1      -4.790  -3.269  10.398  1.00  0.00     0.211 HD
ENDBRANCH   9  10
BRANCH   9  12
ATOM     12  C   UNL     1      -7.855  -2.726   9.553  1.00  0.00     0.089 C 
BRANCH  12  13
ATOM     13  N   UNL     1      -8.650  -2.572  10.793  1.00  0.00    -0.325 NA
ATOM     14  H   UNL     1      -8.135  -2.979  11.575  1.00  0.00     0.119 HD
ATOM     15  H   UNL     1      -9.501  -3.133  10.712  1.00  0.00     0.119 HD
ENDBRANCH  12  13
BRANCH  12  16
ATOM     16  C   UNL     1      -8.525  -1.954   8.392  1.00  0.00     0.022 C 
BRANCH  16  17
ATOM     17  C   UNL     1      -7.951  -0.594   7.970  1.00  0.00     0.002 C 
BRANCH  17  18
ATOM     18  C   UNL     1      -7.315  -0.566   6.582  1.00  0.00     0.000 C 
BRANCH  18  19
ATOM     19  C   UNL     1      -6.585  -1.861   6.203  1.00  0.00    -0.000 C 
BRANCH  19  20
ATOM     20  C   UNL     1      -5.656  -1.753   4.990  1.00  0.00    -0.000 C 
BRANCH  20  21
ATOM     21  C   UNL     1      -5.982  -2.771   3.893  1.00  0.00    -0.003 C 
ATOM     22  C   UNL     1      -5.342  -4.120   4.182  1.00  0.00     0.004 C 
ENDBRANCH  20  21
ENDBRANCH  19  20
ENDBRANCH  18  19
ENDBRANCH  17  18
ENDBRANCH  16  17
ENDBRANCH  12  16
ENDBRANCH   9  12
ENDBRANCH   6   9
ENDBRANCH   3   5
ENDBRANCH   2   3
BRANCH   2  23
ATOM     23  N   UNL     1      -5.009   2.700  11.197  1.00  0.00    -0.332 N 
ATOM     24  C   UNL     1      -5.832   3.898  11.113  1.00  0.00     0.147 C 
BRANCH  23  25
ATOM     25  C   UNL     1      -3.887   2.641  10.221  1.00  0.00     0.174 C 
BRANCH  25  26
ATOM     26  C   UNL     1      -3.240   4.023   9.963  1.00  0.00     0.038 C 
BRANCH  26  27
ATOM     27  C   UNL     1      -1.933   4.337  10.724  1.00  0.00    -0.015 C 
ATOM     28  C   UNL     1      -1.419   3.139  11.522  1.00  0.00     0.007 C 
ATOM     29  C   UNL     1      -0.831   4.900   9.831  1.00  0.00     0.007 C 
ENDBRANCH  26  27
ENDBRANCH  25  26
BRANCH  25  30
ATOM     30  C   UNL     1      -4.338   1.916   8.933  1.00  0.00     0.243 C 
ATOM     31  O   UNL     1      -5.508   1.581   8.751  1.00  0.00    -0.273 OA
ATOM     32  N   UNL     1      -3.351   1.668   8.014  1.00  0.00    -0.342 N 
ATOM     33  H   UNL     1      -2.437   2.100   8.173  1.00  0.00     0.164 HD
BRANCH  32  34
ATOM     34  C   UNL     1      -3.590   0.967   6.749  1.00  0.00     0.175 C 
BRANCH  34  35
ATOM     35  C   UNL     1      -3.589   1.942   5.562  1.00  0.00     0.070 C 
BRANCH  35  36
ATOM     36  C   UNL     1      -2.845   3.225   5.859  1.00  0.00    -0.045 A 
ATOM     37  C   UNL     1      -3.557   4.414   6.079  1.00  0.00     0.007 A 
ATOM     38  C   UNL     1      -1.445   3.252   5.897  1.00  0.00     0.007 A 
ATOM     39  C   UNL     1      -2.879   5.605   6.340  1.00  0.00     0.046 A 
ATOM     40  C   UNL     1      -0.766   4.445   6.157  1.00  0.00     0.046 A 
ATOM     41  C   UNL     1      -1.490   5.611   6.378  1.00  0.00     0.115 A 
BRANCH  41  42
ATOM     42  O   UNL     1      -0.867   6.796   6.633  1.00  0.00    -0.508 OA
ATOM     43  H   UNL     1      -1.459   7.341   7.177  1.00  0.00     0.293 HD
ENDBRANCH  41  42
ENDBRANCH  35  36
ENDBRANCH  34  35
BRANCH  34  44
ATOM     44  C   UNL     1      -2.512  -0.129   6.598  1.00  0.00     0.243 C 
ATOM     45  O   UNL     1      -1.543  -0.050   5.848  1.00  0.00    -0.273 OA
ATOM     46  N   UNL     1      -2.801  -1.284   7.294  1.00  0.00    -0.341 N 
ATOM     47  H   UNL     1      -3.676  -1.344   7.809  1.00  0.00     0.164 HD
BRANCH  46  48
ATOM     48  C   UNL     1      -1.962  -2.483   7.249  1.00  0.00     0.196 C 
BRANCH  48  49
ATOM     49  C   UNL     1      -0.951  -2.502   8.407  1.00  0.00     0.072 C 
BRANCH  49  50
ATOM     50  C   UNL     1      -1.585  -2.173   9.740  1.00  0.00    -0.045 A 
ATOM     51  C   UNL     1      -1.725  -0.835  10.136  1.00  0.00     0.007 A 
ATOM     52  C   UNL     1      -2.021  -3.188  10.601  1.00  0.00     0.007 A 
ATOM     53  C   UNL     1      -2.297  -0.520  11.368  1.00  0.00     0.046 A 
ATOM     54  C   UNL     1      -2.593  -2.873  11.835  1.00  0.00     0.046 A 
ATOM     55  C   UNL     1      -2.727  -1.540  12.208  1.00  0.00     0.115 A 
BRANCH  55  56
ATOM     56  O   UNL     1      -3.278  -1.189  13.405  1.00  0.00    -0.508 OA
ATOM     57  H   UNL     1      -2.856  -1.715  14.103  1.00  0.00     0.293 HD
ENDBRANCH  55  56
ENDBRANCH  49  50
ENDBRANCH  48  49
BRANCH  48  58
ATOM     58  C   UNL     1      -2.861  -3.725   7.330  1.00  0.00     0.326 C 
ATOM     59  O   UNL     1      -4.079  -3.752   7.405  1.00  0.00    -0.250 OA
BRANCH  58  60
ATOM     60  O   UNL     1      -2.174  -4.894   7.297  1.00  0.00    -0.480 OA
ATOM     61  H   UNL     1      -2.347  -5.233   6.392  1.00  0.00     0.296 HD
ENDBRANCH  58  60
ENDBRANCH  48  58
ENDBRANCH  46  48
ENDBRANCH  34  44
ENDBRANCH  32  34
ENDBRANCH  25  30
ENDBRANCH  23  25
ENDBRANCH   2  23
TORSDOF 28
ENDMDL
MODEL 30
REMARK VINA RESULT:    -7.204      3.738      7.895
REMARK INTER + INTRA:         -23.334
REMARK INTER:                 -16.592
REMARK INTRA:                  -6.741
REMARK UNBOUND:                -5.391
REMARK SMILES CCCCCCC[C@H](N)[C@H](O)C(=O)N[C@H](C)C(=O)N(C)[C@H](CC(C)C)C(=O)N[C@@H](Cc1ccc(O)cc1)C(=O)N[C@@H](Cc1ccc(O)cc1)C(=O)O
REMARK SMILES IDX 18 1 17 2 15 3 16 4 14 5 12 6 13 7 10 9 11 10 8 12 9 13 7 16
REMARK SMILES IDX 6 17 5 18 4 19 3 20 2 21 1 22 19 23 20 24 21 25 22 26 23 27
REMARK SMILES IDX 24 28 25 29 26 30 27 31 28 32 29 34 30 35 31 36 32 37 37 38
REMARK SMILES IDX 33 39 36 40 34 41 35 42 38 44 39 45 40 46 41 48 42 49 43 50
REMARK SMILES IDX 44 51 49 52 45 53 48 54 46 55 47 56 50 58 51 59 52 60
REMARK H PARENT 14 8 11 11 9 14 9 15 28 33 35 43 40 47 47 57 52 61
ROOT
ATOM      1  O   UNL     1      -9.005   0.188  13.454  1.00  0.00    -0.272 OA
ATOM      2  C   UNL     1      -9.851   0.838  12.822  1.00  0.00     0.245 C 
ENDROOT
BRANCH   2   3
ATOM      3  C   UNL     1     -10.342   0.289  11.460  1.00  0.00     0.168 C 
ATOM      4  C   UNL     1     -11.067   1.372  10.669  1.00  0.00     0.041 C 
BRANCH   3   5
ATOM      5  N   UNL     1      -9.320  -0.372  10.663  1.00  0.00    -0.342 N 
ATOM      6  C   UNL     1      -9.588  -1.514   9.938  1.00  0.00     0.251 C 
ATOM      7  O   UNL     1     -10.677  -2.077   9.940  1.00  0.00    -0.272 OA
ATOM      8  H   UNL     1      -8.368  -0.017  10.610  1.00  0.00     0.164 HD
BRANCH   6   9
ATOM      9  C   UNL     1      -8.403  -1.954   9.062  1.00  0.00     0.219 C 
BRANCH   9  10
ATOM     10  O   UNL     1      -8.384  -3.367   8.827  1.00  0.00    -0.382 OA
ATOM     11  H   UNL     1      -7.623  -3.680   9.363  1.00  0.00     0.211 HD
ENDBRANCH   9  10
BRANCH   9  12
ATOM     12  C   UNL     1      -8.311  -1.172   7.726  1.00  0.00     0.089 C 
BRANCH  12  13
ATOM     13  N   UNL     1      -8.282   0.277   8.033  1.00  0.00    -0.325 NA
ATOM     14  H   UNL     1      -7.638   0.743   7.391  1.00  0.00     0.119 HD
ATOM     15  H   UNL     1      -7.875   0.410   8.962  1.00  0.00     0.119 HD
ENDBRANCH  12  13
BRANCH  12  16
ATOM     16  C   UNL     1      -7.125  -1.543   6.804  1.00  0.00     0.022 C 
BRANCH  16  17
ATOM     17  C   UNL     1      -5.891  -0.631   6.769  1.00  0.00     0.002 C 
BRANCH  17  18
ATOM     18  C   UNL     1      -4.622  -1.240   7.361  1.00  0.00     0.000 C 
BRANCH  18  19
ATOM     19  C   UNL     1      -4.861  -2.531   8.156  1.00  0.00    -0.000 C 
BRANCH  19  20
ATOM     20  C   UNL     1      -4.131  -3.767   7.624  1.00  0.00    -0.000 C 
BRANCH  20  21
ATOM     21  C   UNL     1      -3.606  -3.585   6.197  1.00  0.00    -0.003 C 
ATOM     22  C   UNL     1      -2.112  -3.858   6.116  1.00  0.00     0.004 C 
ENDBRANCH  20  21
ENDBRANCH  19  20
ENDBRANCH  18  19
ENDBRANCH  17  18
ENDBRANCH  16  17
ENDBRANCH  12  16
ENDBRANCH   9  12
ENDBRANCH   6   9
ENDBRANCH   3   5
ENDBRANCH   2   3
BRANCH   2  23
ATOM     23  N   UNL     1     -10.427   1.968  13.392  1.00  0.00    -0.332 N 
ATOM     24  C   UNL     1     -11.768   2.016  13.956  1.00  0.00     0.147 C 
BRANCH  23  25
ATOM     25  C   UNL     1      -9.624   3.208  13.578  1.00  0.00     0.174 C 
BRANCH  25  26
ATOM     26  C   UNL     1     -10.484   4.494  13.538  1.00  0.00     0.038 C 
BRANCH  26  27
ATOM     27  C   UNL     1     -10.049   5.655  14.460  1.00  0.00    -0.015 C 
ATOM     28  C   UNL     1      -9.331   5.166  15.718  1.00  0.00     0.007 C 
ATOM     29  C   UNL     1      -9.218   6.718  13.746  1.00  0.00     0.007 C 
ENDBRANCH  26  27
ENDBRANCH  25  26
BRANCH  25  30
ATOM     30  C   UNL     1      -8.435   3.225  12.590  1.00  0.00     0.243 C 
ATOM     31  O   UNL     1      -8.537   3.695  11.458  1.00  0.00    -0.273 OA
ATOM     32  N   UNL     1      -7.268   2.678  13.058  1.00  0.00    -0.342 N 
ATOM     33  H   UNL     1      -7.221   2.439  14.052  1.00  0.00     0.164 HD
BRANCH  32  34
ATOM     34  C   UNL     1      -6.047   2.583  12.252  1.00  0.00     0.175 C 
BRANCH  34  35
ATOM     35  C   UNL     1      -4.793   2.816  13.109  1.00  0.00     0.070 C 
BRANCH  35  36
ATOM     36  C   UNL     1      -3.676   3.486  12.340  1.00  0.00    -0.045 A 
ATOM     37  C   UNL     1      -3.891   4.733  11.734  1.00  0.00     0.007 A 
ATOM     38  C   UNL     1      -2.427   2.867  12.202  1.00  0.00     0.007 A 
ATOM     39  C   UNL     1      -2.871   5.352  11.012  1.00  0.00     0.046 A 
ATOM     40  C   UNL     1      -1.405   3.486  11.478  1.00  0.00     0.046 A 
ATOM     41  C   UNL     1      -1.637   4.725  10.890  1.00  0.00     0.115 A 
BRANCH  41  42
ATOM     42  O   UNL     1      -0.668   5.362  10.173  1.00  0.00    -0.508 OA
ATOM     43  H   UNL     1      -0.763   5.109   9.240  1.00  0.00     0.293 HD
ENDBRANCH  41  42
ENDBRANCH  35  36
ENDBRANCH  34  35
BRANCH  34  44
ATOM     44  C   UNL     1      -6.031   1.198  11.569  1.00  0.00     0.243 C 
ATOM     45  O   UNL     1      -6.715   0.897  10.594  1.00  0.00    -0.273 OA
ATOM     46  N   UNL     1      -5.264   0.266  12.236  1.00  0.00    -0.341 N 
ATOM     47  H   UNL     1      -4.809   0.532  13.105  1.00  0.00     0.164 HD
BRANCH  46  48
ATOM     48  C   UNL     1      -5.150  -1.133  11.816  1.00  0.00     0.196 C 
BRANCH  48  49
ATOM     49  C   UNL     1      -3.789  -1.728  12.214  1.00  0.00     0.072 C 
BRANCH  49  50
ATOM     50  C   UNL     1      -2.775  -1.662  11.095  1.00  0.00    -0.045 A 
ATOM     51  C   UNL     1      -2.180  -2.841  10.621  1.00  0.00     0.007 A 
ATOM     52  C   UNL     1      -2.401  -0.436  10.532  1.00  0.00     0.007 A 
ATOM     53  C   UNL     1      -1.234  -2.792   9.597  1.00  0.00     0.046 A 
ATOM     54  C   UNL     1      -1.453  -0.386   9.508  1.00  0.00     0.046 A 
ATOM     55  C   UNL     1      -0.878  -1.566   9.048  1.00  0.00     0.115 A 
BRANCH  55  56
ATOM     56  O   UNL     1       0.052  -1.561   8.051  1.00  0.00    -0.508 OA
ATOM     57  H   UNL     1       0.219  -0.640   7.793  1.00  0.00     0.293 HD
ENDBRANCH  55  56
ENDBRANCH  49  50
ENDBRANCH  48  49
BRANCH  48  58
ATOM     58  C   UNL     1      -6.278  -1.944  12.469  1.00  0.00     0.326 C 
ATOM     59  O   UNL     1      -6.846  -2.922  12.011  1.00  0.00    -0.250 OA
BRANCH  58  60
ATOM     60  O   UNL     1      -6.632  -1.487  13.697  1.00  0.00    -0.480 OA
ATOM     61  H   UNL     1      -5.795  -1.537  14.207  1.00  0.00     0.296 HD
ENDBRANCH  58  60
ENDBRANCH  48  58
ENDBRANCH  46  48
ENDBRANCH  34  44
ENDBRANCH  32  34
ENDBRANCH  25  30
ENDBRANCH  23  25
ENDBRANCH   2  23
TORSDOF 28
ENDMDL
MODEL 31
REMARK VINA RESULT:    -7.182      2.656      7.770
REMARK INTER + INTRA:         -23.280
REMARK INTER:                 -17.933
REMARK INTRA:                  -5.347
REMARK UNBOUND:                -5.391
REMARK SMILES CCCCCCC[C@H](N)[C@H](O)C(=O)N[C@H](C)C(=O)N(C)[C@H](CC(C)C)C(=O)N[C@@H](Cc1ccc(O)cc1)C(=O)N[C@@H](Cc1ccc(O)cc1)C(=O)O
REMARK SMILES IDX 18 1 17 2 15 3 16 4 14 5 12 6 13 7 10 9 11 10 8 12 9 13 7 16
REMARK SMILES IDX 6 17 5 18 4 19 3 20 2 21 1 22 19 23 20 24 21 25 22 26 23 27
REMARK SMILES IDX 24 28 25 29 26 30 27 31 28 32 29 34 30 35 31 36 32 37 37 38
REMARK SMILES IDX 33 39 36 40 34 41 35 42 38 44 39 45 40 46 41 48 42 49 43 50
REMARK SMILES IDX 44 51 49 52 45 53 48 54 46 55 47 56 50 58 51 59 52 60
REMARK H PARENT 14 8 11 11 9 14 9 15 28 33 35 43 40 47 47 57 52 61
ROOT
ATOM      1  O   UNL     1      -5.989   4.168   9.930  1.00  0.00    -0.272 OA
ATOM      2  C   UNL     1      -5.575   3.531  10.910  1.00  0.00     0.245 C 
ENDROOT
BRANCH   2   3
ATOM      3  C   UNL     1      -6.464   2.402  11.489  1.00  0.00     0.168 C 
ATOM      4  C   UNL     1      -7.767   2.283  10.706  1.00  0.00     0.041 C 
BRANCH   3   5
ATOM      5  N   UNL     1      -5.800   1.115  11.634  1.00  0.00    -0.342 N 
ATOM      6  C   UNL     1      -5.606   0.532  12.868  1.00  0.00     0.251 C 
ATOM      7  O   UNL     1      -5.933   1.061  13.926  1.00  0.00    -0.272 OA
ATOM      8  H   UNL     1      -5.454   0.597  10.830  1.00  0.00     0.164 HD
BRANCH   6   9
ATOM      9  C   UNL     1      -5.016  -0.884  12.770  1.00  0.00     0.219 C 
BRANCH   9  10
ATOM     10  O   UNL     1      -4.104  -1.178  13.836  1.00  0.00    -0.382 OA
ATOM     11  H   UNL     1      -3.549  -0.370  13.894  1.00  0.00     0.211 HD
ENDBRANCH   9  10
BRANCH   9  12
ATOM     12  C   UNL     1      -6.099  -1.988  12.652  1.00  0.00     0.089 C 
BRANCH  12  13
ATOM     13  N   UNL     1      -7.428  -1.361  12.835  1.00  0.00    -0.325 NA
ATOM     14  H   UNL     1      -7.860  -1.731  13.684  1.00  0.00     0.119 HD
ATOM     15  H   UNL     1      -8.042  -1.656  12.073  1.00  0.00     0.119 HD
ENDBRANCH  12  13
BRANCH  12  16
ATOM     16  C   UNL     1      -6.080  -2.820  11.347  1.00  0.00     0.022 C 
BRANCH  16  17
ATOM     17  C   UNL     1      -5.524  -2.185  10.065  1.00  0.00     0.002 C 
BRANCH  17  18
ATOM     18  C   UNL     1      -4.997  -3.178   9.031  1.00  0.00     0.000 C 
BRANCH  18  19
ATOM     19  C   UNL     1      -3.922  -4.131   9.570  1.00  0.00    -0.000 C 
BRANCH  19  20
ATOM     20  C   UNL     1      -2.800  -4.470   8.585  1.00  0.00    -0.000 C 
BRANCH  20  21
ATOM     21  C   UNL     1      -3.165  -4.161   7.130  1.00  0.00    -0.003 C 
ATOM     22  C   UNL     1      -2.175  -3.193   6.503  1.00  0.00     0.004 C 
ENDBRANCH  20  21
ENDBRANCH  19  20
ENDBRANCH  18  19
ENDBRANCH  17  18
ENDBRANCH  16  17
ENDBRANCH  12  16
ENDBRANCH   9  12
ENDBRANCH   6   9
ENDBRANCH   3   5
ENDBRANCH   2   3
BRANCH   2  23
ATOM     23  N   UNL     1      -4.288   3.751  11.391  1.00  0.00    -0.332 N 
ATOM     24  C   UNL     1      -3.970   4.102  12.767  1.00  0.00     0.147 C 
BRANCH  23  25
ATOM     25  C   UNL     1      -3.108   3.507  10.517  1.00  0.00     0.174 C 
BRANCH  25  26
ATOM     26  C   UNL     1      -2.619   4.784   9.795  1.00  0.00     0.038 C 
BRANCH  26  27
ATOM     27  C   UNL     1      -1.407   5.517  10.413  1.00  0.00    -0.015 C 
ATOM     28  C   UNL     1      -0.262   5.697   9.417  1.00  0.00     0.007 C 
ATOM     29  C   UNL     1      -1.770   6.851  11.061  1.00  0.00     0.007 C 
ENDBRANCH  26  27
ENDBRANCH  25  26
BRANCH  25  30
ATOM     30  C   UNL     1      -3.388   2.322   9.564  1.00  0.00     0.243 C 
ATOM     31  O   UNL     1      -3.338   1.154   9.946  1.00  0.00    -0.273 OA
ATOM     32  N   UNL     1      -3.687   2.661   8.269  1.00  0.00    -0.342 N 
ATOM     33  H   UNL     1      -3.848   3.650   8.063  1.00  0.00     0.164 HD
BRANCH  32  34
ATOM     34  C   UNL     1      -3.954   1.670   7.222  1.00  0.00     0.175 C 
BRANCH  34  35
ATOM     35  C   UNL     1      -5.297   1.941   6.526  1.00  0.00     0.070 C 
BRANCH  35  36
ATOM     36  C   UNL     1      -6.257   0.778   6.636  1.00  0.00    -0.045 A 
ATOM     37  C   UNL     1      -7.523   0.965   7.211  1.00  0.00     0.007 A 
ATOM     38  C   UNL     1      -5.893  -0.500   6.190  1.00  0.00     0.007 A 
ATOM     39  C   UNL     1      -8.410  -0.105   7.329  1.00  0.00     0.046 A 
ATOM     40  C   UNL     1      -6.780  -1.572   6.309  1.00  0.00     0.046 A 
ATOM     41  C   UNL     1      -8.033  -1.364   6.877  1.00  0.00     0.115 A 
BRANCH  41  42
ATOM     42  O   UNL     1      -8.928  -2.383   7.014  1.00  0.00    -0.508 OA
ATOM     43  H   UNL     1      -9.288  -2.353   7.916  1.00  0.00     0.293 HD
ENDBRANCH  41  42
ENDBRANCH  35  36
ENDBRANCH  34  35
BRANCH  34  44
ATOM     44  C   UNL     1      -2.772   1.696   6.227  1.00  0.00     0.243 C 
ATOM     45  O   UNL     1      -2.749   1.086   5.162  1.00  0.00    -0.273 OA
ATOM     46  N   UNL     1      -1.668   2.371   6.703  1.00  0.00    -0.341 N 
ATOM     47  H   UNL     1      -1.695   2.761   7.642  1.00  0.00     0.164 HD
BRANCH  46  48
ATOM     48  C   UNL     1      -0.406   2.472   5.967  1.00  0.00     0.196 C 
BRANCH  48  49
ATOM     49  C   UNL     1       0.440   3.655   6.466  1.00  0.00     0.072 C 
BRANCH  49  50
ATOM     50  C   UNL     1       0.532   4.772   5.451  1.00  0.00    -0.045 A 
ATOM     51  C   UNL     1       1.362   4.631   4.329  1.00  0.00     0.007 A 
ATOM     52  C   UNL     1      -0.185   5.963   5.623  1.00  0.00     0.007 A 
ATOM     53  C   UNL     1       1.465   5.660   3.393  1.00  0.00     0.046 A 
ATOM     54  C   UNL     1      -0.081   6.994   4.686  1.00  0.00     0.046 A 
ATOM     55  C   UNL     1       0.743   6.833   3.578  1.00  0.00     0.115 A 
BRANCH  55  56
ATOM     56  O   UNL     1       0.874   7.815   2.641  1.00  0.00    -0.508 OA
ATOM     57  H   UNL     1       1.818   7.933   2.451  1.00  0.00     0.293 HD
ENDBRANCH  55  56
ENDBRANCH  49  50
ENDBRANCH  48  49
BRANCH  48  58
ATOM     58  C   UNL     1       0.381   1.166   6.145  1.00  0.00     0.326 C 
ATOM     59  O   UNL     1       0.511   0.515   7.169  1.00  0.00    -0.250 OA
BRANCH  58  60
ATOM     60  O   UNL     1       0.965   0.726   5.002  1.00  0.00    -0.480 OA
ATOM     61  H   UNL     1       1.806   1.232   4.969  1.00  0.00     0.296 HD
ENDBRANCH  58  60
ENDBRANCH  48  58
ENDBRANCH  46  48
ENDBRANCH  34  44
ENDBRANCH  32  34
ENDBRANCH  25  30
ENDBRANCH  23  25
ENDBRANCH   2  23
TORSDOF 28
ENDMDL
MODEL 32
REMARK VINA RESULT:    -7.174      2.713      7.492
REMARK INTER + INTRA:         -23.260
REMARK INTER:                 -18.429
REMARK INTRA:                  -4.831
REMARK UNBOUND:                -5.391
REMARK SMILES CCCCCCC[C@H](N)[C@H](O)C(=O)N[C@H](C)C(=O)N(C)[C@H](CC(C)C)C(=O)N[C@@H](Cc1ccc(O)cc1)C(=O)N[C@@H](Cc1ccc(O)cc1)C(=O)O
REMARK SMILES IDX 18 1 17 2 15 3 16 4 14 5 12 6 13 7 10 9 11 10 8 12 9 13 7 16
REMARK SMILES IDX 6 17 5 18 4 19 3 20 2 21 1 22 19 23 20 24 21 25 22 26 23 27
REMARK SMILES IDX 24 28 25 29 26 30 27 31 28 32 29 34 30 35 31 36 32 37 37 38
REMARK SMILES IDX 33 39 36 40 34 41 35 42 38 44 39 45 40 46 41 48 42 49 43 50
REMARK SMILES IDX 44 51 49 52 45 53 48 54 46 55 47 56 50 58 51 59 52 60
REMARK H PARENT 14 8 11 11 9 14 9 15 28 33 35 43 40 47 47 57 52 61
ROOT
ATOM      1  O   UNL     1      -4.372   2.175  13.826  1.00  0.00    -0.272 OA
ATOM      2  C   UNL     1      -3.850   1.406  13.006  1.00  0.00     0.245 C 
ENDROOT
BRANCH   2   3
ATOM      3  C   UNL     1      -3.912  -0.118  13.277  1.00  0.00     0.168 C 
ATOM      4  C   UNL     1      -4.936  -0.434  14.361  1.00  0.00     0.041 C 
BRANCH   3   5
ATOM      5  N   UNL     1      -4.105  -0.941  12.093  1.00  0.00    -0.342 N 
ATOM      6  C   UNL     1      -3.299  -2.027  11.823  1.00  0.00     0.251 C 
ATOM      7  O   UNL     1      -2.348  -2.355  12.523  1.00  0.00    -0.272 OA
ATOM      8  H   UNL     1      -4.841  -0.747  11.419  1.00  0.00     0.164 HD
BRANCH   6   9
ATOM      9  C   UNL     1      -3.774  -2.830  10.601  1.00  0.00     0.219 C 
BRANCH   9  10
ATOM     10  O   UNL     1      -4.545  -2.041   9.686  1.00  0.00    -0.382 OA
ATOM     11  H   UNL     1      -4.203  -1.130   9.823  1.00  0.00     0.211 HD
ENDBRANCH   9  10
BRANCH   9  12
ATOM     12  C   UNL     1      -2.620  -3.557   9.864  1.00  0.00     0.089 C 
BRANCH  12  13
ATOM     13  N   UNL     1      -2.039  -4.564  10.782  1.00  0.00    -0.325 NA
ATOM     14  H   UNL     1      -1.365  -4.107  11.398  1.00  0.00     0.119 HD
ATOM     15  H   UNL     1      -1.491  -5.233  10.236  1.00  0.00     0.119 HD
ENDBRANCH  12  13
BRANCH  12  16
ATOM     16  C   UNL     1      -2.988  -4.219   8.514  1.00  0.00     0.022 C 
BRANCH  16  17
ATOM     17  C   UNL     1      -2.233  -3.798   7.245  1.00  0.00     0.002 C 
BRANCH  17  18
ATOM     18  C   UNL     1      -2.827  -2.598   6.511  1.00  0.00     0.000 C 
BRANCH  18  19
ATOM     19  C   UNL     1      -2.335  -1.241   7.031  1.00  0.00    -0.000 C 
BRANCH  19  20
ATOM     20  C   UNL     1      -0.945  -0.823   6.542  1.00  0.00    -0.000 C 
BRANCH  20  21
ATOM     21  C   UNL     1      -0.026  -0.356   7.674  1.00  0.00    -0.003 C 
ATOM     22  C   UNL     1      -0.538  -0.818   9.030  1.00  0.00     0.004 C 
ENDBRANCH  20  21
ENDBRANCH  19  20
ENDBRANCH  18  19
ENDBRANCH  17  18
ENDBRANCH  16  17
ENDBRANCH  12  16
ENDBRANCH   9  12
ENDBRANCH   6   9
ENDBRANCH   3   5
ENDBRANCH   2   3
BRANCH   2  23
ATOM     23  N   UNL     1      -3.332   1.905  11.816  1.00  0.00    -0.332 N 
ATOM     24  C   UNL     1      -1.981   1.658  11.335  1.00  0.00     0.147 C 
BRANCH  23  25
ATOM     25  C   UNL     1      -4.209   2.646  10.868  1.00  0.00     0.174 C 
BRANCH  25  26
ATOM     26  C   UNL     1      -5.547   3.087  11.505  1.00  0.00     0.038 C 
BRANCH  26  27
ATOM     27  C   UNL     1      -5.845   4.603  11.528  1.00  0.00    -0.015 C 
ATOM     28  C   UNL     1      -5.098   5.329  12.646  1.00  0.00     0.007 C 
ATOM     29  C   UNL     1      -5.603   5.290  10.186  1.00  0.00     0.007 C 
ENDBRANCH  26  27
ENDBRANCH  25  26
BRANCH  25  30
ATOM     30  C   UNL     1      -4.380   1.839   9.560  1.00  0.00     0.243 C 
ATOM     31  O   UNL     1      -4.698   0.651   9.566  1.00  0.00    -0.273 OA
ATOM     32  N   UNL     1      -4.146   2.533   8.400  1.00  0.00    -0.342 N 
ATOM     33  H   UNL     1      -4.025   3.547   8.471  1.00  0.00     0.164 HD
BRANCH  32  34
ATOM     34  C   UNL     1      -4.234   1.925   7.070  1.00  0.00     0.175 C 
BRANCH  34  35
ATOM     35  C   UNL     1      -5.644   2.074   6.479  1.00  0.00     0.070 C 
BRANCH  35  36
ATOM     36  C   UNL     1      -6.483   0.827   6.646  1.00  0.00    -0.045 A 
ATOM     37  C   UNL     1      -7.827   0.933   7.038  1.00  0.00     0.007 A 
ATOM     38  C   UNL     1      -5.932  -0.443   6.436  1.00  0.00     0.007 A 
ATOM     39  C   UNL     1      -8.605  -0.212   7.207  1.00  0.00     0.046 A 
ATOM     40  C   UNL     1      -6.711  -1.591   6.607  1.00  0.00     0.046 A 
ATOM     41  C   UNL     1      -8.042  -1.464   6.990  1.00  0.00     0.115 A 
BRANCH  41  42
ATOM     42  O   UNL     1      -8.836  -2.558   7.170  1.00  0.00    -0.508 OA
ATOM     43  H   UNL     1      -8.264  -3.338   7.261  1.00  0.00     0.293 HD
ENDBRANCH  41  42
ENDBRANCH  35  36
ENDBRANCH  34  35
BRANCH  34  44
ATOM     44  C   UNL     1      -3.159   2.578   6.173  1.00  0.00     0.243 C 
ATOM     45  O   UNL     1      -2.812   2.144   5.078  1.00  0.00    -0.273 OA
ATOM     46  N   UNL     1      -2.516   3.641   6.772  1.00  0.00    -0.341 N 
ATOM     47  H   UNL     1      -2.759   3.890   7.728  1.00  0.00     0.164 HD
BRANCH  46  48
ATOM     48  C   UNL     1      -1.416   4.375   6.143  1.00  0.00     0.196 C 
BRANCH  48  49
ATOM     49  C   UNL     1      -1.439   5.862   6.535  1.00  0.00     0.072 C 
BRANCH  49  50
ATOM     50  C   UNL     1      -0.961   6.765   5.420  1.00  0.00    -0.045 A 
ATOM     51  C   UNL     1       0.413   6.977   5.234  1.00  0.00     0.007 A 
ATOM     52  C   UNL     1      -1.871   7.415   4.578  1.00  0.00     0.007 A 
ATOM     53  C   UNL     1       0.866   7.818   4.217  1.00  0.00     0.046 A 
ATOM     54  C   UNL     1      -1.418   8.258   3.561  1.00  0.00     0.046 A 
ATOM     55  C   UNL     1      -0.052   8.451   3.389  1.00  0.00     0.115 A 
BRANCH  55  56
ATOM     56  O   UNL     1       0.432   9.267   2.408  1.00  0.00    -0.508 OA
ATOM     57  H   UNL     1       0.756   8.712   1.681  1.00  0.00     0.293 HD
ENDBRANCH  55  56
ENDBRANCH  49  50
ENDBRANCH  48  49
BRANCH  48  58
ATOM     58  C   UNL     1      -0.084   3.749   6.579  1.00  0.00     0.326 C 
ATOM     59  O   UNL     1       0.560   2.896   5.990  1.00  0.00    -0.250 OA
BRANCH  58  60
ATOM     60  O   UNL     1       0.390   4.245   7.750  1.00  0.00    -0.480 OA
ATOM     61  H   UNL     1       0.029   3.626   8.421  1.00  0.00     0.296 HD
ENDBRANCH  58  60
ENDBRANCH  48  58
ENDBRANCH  46  48
ENDBRANCH  34  44
ENDBRANCH  32  34
ENDBRANCH  25  30
ENDBRANCH  23  25
ENDBRANCH   2  23
TORSDOF 28
ENDMDL
MODEL 33
REMARK VINA RESULT:    -7.153      3.054      6.419
REMARK INTER + INTRA:         -23.208
REMARK INTER:                 -18.352
REMARK INTRA:                  -4.855
REMARK UNBOUND:                -5.391
REMARK SMILES CCCCCCC[C@H](N)[C@H](O)C(=O)N[C@H](C)C(=O)N(C)[C@H](CC(C)C)C(=O)N[C@@H](Cc1ccc(O)cc1)C(=O)N[C@@H](Cc1ccc(O)cc1)C(=O)O
REMARK SMILES IDX 18 1 17 2 15 3 16 4 14 5 12 6 13 7 10 9 11 10 8 12 9 13 7 16
REMARK SMILES IDX 6 17 5 18 4 19 3 20 2 21 1 22 19 23 20 24 21 25 22 26 23 27
REMARK SMILES IDX 24 28 25 29 26 30 27 31 28 32 29 34 30 35 31 36 32 37 37 38
REMARK SMILES IDX 33 39 36 40 34 41 35 42 38 44 39 45 40 46 41 48 42 49 43 50
REMARK SMILES IDX 44 51 49 52 45 53 48 54 46 55 47 56 50 58 51 59 52 60
REMARK H PARENT 14 8 11 11 9 14 9 15 28 33 35 43 40 47 47 57 52 61
ROOT
ATOM      1  O   UNL     1      -9.357  -2.678  11.014  1.00  0.00    -0.272 OA
ATOM      2  C   UNL     1      -9.480  -1.736  10.217  1.00  0.00     0.245 C 
ENDROOT
BRANCH   2   3
ATOM      3  C   UNL     1     -10.427  -0.568  10.591  1.00  0.00     0.168 C 
ATOM      4  C   UNL     1     -11.808  -0.774   9.980  1.00  0.00     0.041 C 
BRANCH   3   5
ATOM      5  N   UNL     1     -10.502  -0.274  12.013  1.00  0.00    -0.342 N 
ATOM      6  C   UNL     1     -10.737   1.001  12.482  1.00  0.00     0.251 C 
ATOM      7  O   UNL     1     -10.859   1.979  11.750  1.00  0.00    -0.272 OA
ATOM      8  H   UNL     1     -10.382  -0.998  12.718  1.00  0.00     0.164 HD
BRANCH   6   9
ATOM      9  C   UNL     1     -10.917   1.051  14.007  1.00  0.00     0.219 C 
BRANCH   9  10
ATOM     10  O   UNL     1     -11.356  -0.199  14.553  1.00  0.00    -0.382 OA
ATOM     11  H   UNL     1     -12.228   0.015  14.951  1.00  0.00     0.211 HD
ENDBRANCH   9  10
BRANCH   9  12
ATOM     12  C   UNL     1      -9.658   1.565  14.753  1.00  0.00     0.089 C 
BRANCH  12  13
ATOM     13  N   UNL     1      -9.549   0.842  16.040  1.00  0.00    -0.325 NA
ATOM     14  H   UNL     1     -10.174   0.034  16.025  1.00  0.00     0.119 HD
ATOM     15  H   UNL     1      -9.905   1.441  16.788  1.00  0.00     0.119 HD
ENDBRANCH  12  13
BRANCH  12  16
ATOM     16  C   UNL     1      -8.324   1.471  13.975  1.00  0.00     0.022 C 
BRANCH  16  17
ATOM     17  C   UNL     1      -7.538   0.152  13.996  1.00  0.00     0.002 C 
BRANCH  17  18
ATOM     18  C   UNL     1      -6.165   0.231  14.658  1.00  0.00     0.000 C 
BRANCH  18  19
ATOM     19  C   UNL     1      -5.017  -0.284  13.779  1.00  0.00    -0.000 C 
BRANCH  19  20
ATOM     20  C   UNL     1      -4.937   0.341  12.383  1.00  0.00    -0.000 C 
BRANCH  20  21
ATOM     21  C   UNL     1      -4.563   1.825  12.411  1.00  0.00    -0.003 C 
ATOM     22  C   UNL     1      -3.122   2.025  12.854  1.00  0.00     0.004 C 
ENDBRANCH  20  21
ENDBRANCH  19  20
ENDBRANCH  18  19
ENDBRANCH  17  18
ENDBRANCH  16  17
ENDBRANCH  12  16
ENDBRANCH   9  12
ENDBRANCH   6   9
ENDBRANCH   3   5
ENDBRANCH   2   3
BRANCH   2  23
ATOM     23  N   UNL     1      -8.688  -1.683   9.075  1.00  0.00    -0.332 N 
ATOM     24  C   UNL     1      -9.177  -1.892   7.720  1.00  0.00     0.147 C 
BRANCH  23  25
ATOM     25  C   UNL     1      -7.262  -1.266   9.169  1.00  0.00     0.174 C 
BRANCH  25  26
ATOM     26  C   UNL     1      -6.970   0.057   8.423  1.00  0.00     0.038 C 
BRANCH  26  27
ATOM     27  C   UNL     1      -6.571   1.274   9.287  1.00  0.00    -0.015 C 
ATOM     28  C   UNL     1      -6.045   2.439   8.449  1.00  0.00     0.007 C 
ATOM     29  C   UNL     1      -7.681   1.745  10.223  1.00  0.00     0.007 C 
ENDBRANCH  26  27
ENDBRANCH  25  26
BRANCH  25  30
ATOM     30  C   UNL     1      -6.338  -2.433   8.749  1.00  0.00     0.243 C 
ATOM     31  O   UNL     1      -6.422  -3.546   9.265  1.00  0.00    -0.273 OA
ATOM     32  N   UNL     1      -5.421  -2.142   7.773  1.00  0.00    -0.342 N 
ATOM     33  H   UNL     1      -5.507  -1.240   7.296  1.00  0.00     0.164 HD
BRANCH  32  34
ATOM     34  C   UNL     1      -4.448  -3.115   7.271  1.00  0.00     0.175 C 
BRANCH  34  35
ATOM     35  C   UNL     1      -4.014  -2.782   5.835  1.00  0.00     0.070 C 
BRANCH  35  36
ATOM     36  C   UNL     1      -4.788  -3.560   4.795  1.00  0.00    -0.045 A 
ATOM     37  C   UNL     1      -4.341  -4.826   4.388  1.00  0.00     0.007 A 
ATOM     38  C   UNL     1      -5.942  -3.024   4.208  1.00  0.00     0.007 A 
ATOM     39  C   UNL     1      -5.042  -5.545   3.419  1.00  0.00     0.046 A 
ATOM     40  C   UNL     1      -6.644  -3.742   3.237  1.00  0.00     0.046 A 
ATOM     41  C   UNL     1      -6.187  -4.998   2.852  1.00  0.00     0.115 A 
BRANCH  41  42
ATOM     42  O   UNL     1      -6.840  -5.732   1.906  1.00  0.00    -0.508 OA
ATOM     43  H   UNL     1      -7.622  -6.135   2.320  1.00  0.00     0.293 HD
ENDBRANCH  41  42
ENDBRANCH  35  36
ENDBRANCH  34  35
BRANCH  34  44
ATOM     44  C   UNL     1      -3.248  -3.140   8.245  1.00  0.00     0.243 C 
ATOM     45  O   UNL     1      -2.370  -3.998   8.243  1.00  0.00    -0.273 OA
ATOM     46  N   UNL     1      -3.315  -2.169   9.222  1.00  0.00    -0.341 N 
ATOM     47  H   UNL     1      -4.124  -1.553   9.252  1.00  0.00     0.164 HD
BRANCH  46  48
ATOM     48  C   UNL     1      -2.329  -2.038  10.297  1.00  0.00     0.196 C 
BRANCH  48  49
ATOM     49  C   UNL     1      -1.888  -0.576  10.477  1.00  0.00     0.072 C 
BRANCH  49  50
ATOM     50  C   UNL     1      -1.307   0.017   9.214  1.00  0.00    -0.045 A 
ATOM     51  C   UNL     1      -0.362  -0.707   8.473  1.00  0.00     0.007 A 
ATOM     52  C   UNL     1      -1.682   1.294   8.778  1.00  0.00     0.007 A 
ATOM     53  C   UNL     1       0.192  -0.165   7.313  1.00  0.00     0.046 A 
ATOM     54  C   UNL     1      -1.128   1.838   7.617  1.00  0.00     0.046 A 
ATOM     55  C   UNL     1      -0.195   1.102   6.893  1.00  0.00     0.115 A 
BRANCH  55  56
ATOM     56  O   UNL     1       0.370   1.597   5.756  1.00  0.00    -0.508 OA
ATOM     57  H   UNL     1       0.796   0.865   5.282  1.00  0.00     0.293 HD
ENDBRANCH  55  56
ENDBRANCH  49  50
ENDBRANCH  48  49
BRANCH  48  58
ATOM     58  C   UNL     1      -2.943  -2.556  11.604  1.00  0.00     0.326 C 
ATOM     59  O   UNL     1      -2.491  -2.437  12.732  1.00  0.00    -0.250 OA
BRANCH  58  60
ATOM     60  O   UNL     1      -4.126  -3.198  11.430  1.00  0.00    -0.480 OA
ATOM     61  H   UNL     1      -4.395  -2.933  10.524  1.00  0.00     0.296 HD
ENDBRANCH  58  60
ENDBRANCH  48  58
ENDBRANCH  46  48
ENDBRANCH  34  44
ENDBRANCH  32  34
ENDBRANCH  25  30
ENDBRANCH  23  25
ENDBRANCH   2  23
TORSDOF 28
ENDMDL
MODEL 34
REMARK VINA RESULT:    -7.140      2.711      8.187
REMARK INTER + INTRA:         -23.174
REMARK INTER:                 -16.221
REMARK INTRA:                  -6.953
REMARK UNBOUND:                -5.391
REMARK SMILES CCCCCCC[C@H](N)[C@H](O)C(=O)N[C@H](C)C(=O)N(C)[C@H](CC(C)C)C(=O)N[C@@H](Cc1ccc(O)cc1)C(=O)N[C@@H](Cc1ccc(O)cc1)C(=O)O
REMARK SMILES IDX 18 1 17 2 15 3 16 4 14 5 12 6 13 7 10 9 11 10 8 12 9 13 7 16
REMARK SMILES IDX 6 17 5 18 4 19 3 20 2 21 1 22 19 23 20 24 21 25 22 26 23 27
REMARK SMILES IDX 24 28 25 29 26 30 27 31 28 32 29 34 30 35 31 36 32 37 37 38
REMARK SMILES IDX 33 39 36 40 34 41 35 42 38 44 39 45 40 46 41 48 42 49 43 50
REMARK SMILES IDX 44 51 49 52 45 53 48 54 46 55 47 56 50 58 51 59 52 60
REMARK H PARENT 14 8 11 11 9 14 9 15 28 33 35 43 40 47 47 57 52 61
ROOT
ATOM      1  O   UNL     1      -4.349   1.653  13.033  1.00  0.00    -0.272 OA
ATOM      2  C   UNL     1      -5.001   1.556  11.983  1.00  0.00     0.245 C 
ENDROOT
BRANCH   2   3
ATOM      3  C   UNL     1      -5.841   0.276  11.748  1.00  0.00     0.168 C 
ATOM      4  C   UNL     1      -6.872   0.093  12.856  1.00  0.00     0.041 C 
BRANCH   3   5
ATOM      5  N   UNL     1      -6.441   0.173  10.426  1.00  0.00    -0.342 N 
ATOM      6  C   UNL     1      -5.961  -0.703   9.475  1.00  0.00     0.251 C 
ATOM      7  O   UNL     1      -4.982  -1.421   9.650  1.00  0.00    -0.272 OA
ATOM      8  H   UNL     1      -7.237   0.744  10.153  1.00  0.00     0.164 HD
BRANCH   6   9
ATOM      9  C   UNL     1      -6.834  -0.744   8.211  1.00  0.00     0.219 C 
BRANCH   9  10
ATOM     10  O   UNL     1      -6.063  -0.681   7.005  1.00  0.00    -0.382 OA
ATOM     11  H   UNL     1      -6.354   0.160   6.588  1.00  0.00     0.211 HD
ENDBRANCH   9  10
BRANCH   9  12
ATOM     12  C   UNL     1      -7.806  -1.952   8.180  1.00  0.00     0.089 C 
BRANCH  12  13
ATOM     13  N   UNL     1      -7.028  -3.184   8.448  1.00  0.00    -0.325 NA
ATOM     14  H   UNL     1      -6.039  -3.002   8.271  1.00  0.00     0.119 HD
ATOM     15  H   UNL     1      -7.294  -3.898   7.766  1.00  0.00     0.119 HD
ENDBRANCH  12  13
BRANCH  12  16
ATOM     16  C   UNL     1      -9.019  -1.871   9.138  1.00  0.00     0.022 C 
BRANCH  16  17
ATOM     17  C   UNL     1     -10.242  -1.041   8.725  1.00  0.00     0.002 C 
BRANCH  17  18
ATOM     18  C   UNL     1     -11.250  -0.779   9.841  1.00  0.00     0.000 C 
BRANCH  18  19
ATOM     19  C   UNL     1     -10.643  -0.808  11.250  1.00  0.00    -0.000 C 
BRANCH  19  20
ATOM     20  C   UNL     1     -11.061   0.350  12.162  1.00  0.00    -0.000 C 
BRANCH  20  21
ATOM     21  C   UNL     1     -10.977   1.715  11.473  1.00  0.00    -0.003 C 
ATOM     22  C   UNL     1      -9.534   2.162  11.301  1.00  0.00     0.004 C 
ENDBRANCH  20  21
ENDBRANCH  19  20
ENDBRANCH  18  19
ENDBRANCH  17  18
ENDBRANCH  16  17
ENDBRANCH  12  16
ENDBRANCH   9  12
ENDBRANCH   6   9
ENDBRANCH   3   5
ENDBRANCH   2   3
BRANCH   2  23
ATOM     23  N   UNL     1      -5.068   2.632  11.104  1.00  0.00    -0.332 N 
ATOM     24  C   UNL     1      -6.139   3.616  11.083  1.00  0.00     0.147 C 
BRANCH  23  25
ATOM     25  C   UNL     1      -3.935   2.918  10.181  1.00  0.00     0.174 C 
BRANCH  25  26
ATOM     26  C   UNL     1      -3.479   4.395  10.229  1.00  0.00     0.038 C 
BRANCH  26  27
ATOM     27  C   UNL     1      -2.074   4.676  10.809  1.00  0.00    -0.015 C 
ATOM     28  C   UNL     1      -1.006   3.751  10.227  1.00  0.00     0.007 C 
ATOM     29  C   UNL     1      -1.646   6.136  10.685  1.00  0.00     0.007 C 
ENDBRANCH  26  27
ENDBRANCH  25  26
BRANCH  25  30
ATOM     30  C   UNL     1      -4.269   2.417   8.757  1.00  0.00     0.243 C 
ATOM     31  O   UNL     1      -5.411   2.462   8.303  1.00  0.00    -0.273 OA
ATOM     32  N   UNL     1      -3.212   1.915   8.042  1.00  0.00    -0.342 N 
ATOM     33  H   UNL     1      -2.274   2.041   8.432  1.00  0.00     0.164 HD
BRANCH  32  34
ATOM     34  C   UNL     1      -3.346   1.370   6.688  1.00  0.00     0.175 C 
BRANCH  34  35
ATOM     35  C   UNL     1      -3.108   2.453   5.625  1.00  0.00     0.070 C 
BRANCH  35  36
ATOM     36  C   UNL     1      -2.235   3.582   6.125  1.00  0.00    -0.045 A 
ATOM     37  C   UNL     1      -2.811   4.817   6.464  1.00  0.00     0.007 A 
ATOM     38  C   UNL     1      -0.848   3.424   6.235  1.00  0.00     0.007 A 
ATOM     39  C   UNL     1      -2.012   5.869   6.913  1.00  0.00     0.046 A 
ATOM     40  C   UNL     1      -0.047   4.477   6.683  1.00  0.00     0.046 A 
ATOM     41  C   UNL     1      -0.638   5.691   7.020  1.00  0.00     0.115 A 
BRANCH  41  42
ATOM     42  O   UNL     1       0.107   6.745   7.460  1.00  0.00    -0.508 OA
ATOM     43  H   UNL     1      -0.461   7.534   7.475  1.00  0.00     0.293 HD
ENDBRANCH  41  42
ENDBRANCH  35  36
ENDBRANCH  34  35
BRANCH  34  44
ATOM     44  C   UNL     1      -2.356   0.193   6.545  1.00  0.00     0.243 C 
ATOM     45  O   UNL     1      -1.353   0.211   5.836  1.00  0.00    -0.273 OA
ATOM     46  N   UNL     1      -2.767  -0.952   7.194  1.00  0.00    -0.341 N 
ATOM     47  H   UNL     1      -3.665  -0.954   7.673  1.00  0.00     0.164 HD
BRANCH  46  48
ATOM     48  C   UNL     1      -2.028  -2.216   7.145  1.00  0.00     0.196 C 
BRANCH  48  49
ATOM     49  C   UNL     1      -0.962  -2.284   8.252  1.00  0.00     0.072 C 
BRANCH  49  50
ATOM     50  C   UNL     1      -1.534  -2.020   9.627  1.00  0.00    -0.045 A 
ATOM     51  C   UNL     1      -1.628  -0.704  10.104  1.00  0.00     0.007 A 
ATOM     52  C   UNL     1      -1.955  -3.074  10.447  1.00  0.00     0.007 A 
ATOM     53  C   UNL     1      -2.141  -0.449  11.375  1.00  0.00     0.046 A 
ATOM     54  C   UNL     1      -2.467  -2.819  11.721  1.00  0.00     0.046 A 
ATOM     55  C   UNL     1      -2.557  -1.507  12.174  1.00  0.00     0.115 A 
BRANCH  55  56
ATOM     56  O   UNL     1      -3.051  -1.216  13.411  1.00  0.00    -0.508 OA
ATOM     57  H   UNL     1      -3.774  -1.832  13.605  1.00  0.00     0.293 HD
ENDBRANCH  55  56
ENDBRANCH  49  50
ENDBRANCH  48  49
BRANCH  48  58
ATOM     58  C   UNL     1      -3.016  -3.379   7.309  1.00  0.00     0.326 C 
ATOM     59  O   UNL     1      -2.751  -4.567   7.401  1.00  0.00    -0.250 OA
BRANCH  58  60
ATOM     60  O   UNL     1      -4.313  -2.984   7.366  1.00  0.00    -0.480 OA
ATOM     61  H   UNL     1      -4.670  -3.490   8.128  1.00  0.00     0.296 HD
ENDBRANCH  58  60
ENDBRANCH  48  58
ENDBRANCH  46  48
ENDBRANCH  34  44
ENDBRANCH  32  34
ENDBRANCH  25  30
ENDBRANCH  23  25
ENDBRANCH   2  23
TORSDOF 28
ENDMDL
MODEL 35
REMARK VINA RESULT:    -7.079      2.651      8.338
REMARK INTER + INTRA:         -23.022
REMARK INTER:                 -17.786
REMARK INTRA:                  -5.236
REMARK UNBOUND:                -5.391
REMARK SMILES CCCCCCC[C@H](N)[C@H](O)C(=O)N[C@H](C)C(=O)N(C)[C@H](CC(C)C)C(=O)N[C@@H](Cc1ccc(O)cc1)C(=O)N[C@@H](Cc1ccc(O)cc1)C(=O)O
REMARK SMILES IDX 18 1 17 2 15 3 16 4 14 5 12 6 13 7 10 9 11 10 8 12 9 13 7 16
REMARK SMILES IDX 6 17 5 18 4 19 3 20 2 21 1 22 19 23 20 24 21 25 22 26 23 27
REMARK SMILES IDX 24 28 25 29 26 30 27 31 28 32 29 34 30 35 31 36 32 37 37 38
REMARK SMILES IDX 33 39 36 40 34 41 35 42 38 44 39 45 40 46 41 48 42 49 43 50
REMARK SMILES IDX 44 51 49 52 45 53 48 54 46 55 47 56 50 58 51 59 52 60
REMARK H PARENT 14 8 11 11 9 14 9 15 28 33 35 43 40 47 47 57 52 61
ROOT
ATOM      1  O   UNL     1      -3.479   2.936  14.080  1.00  0.00    -0.272 OA
ATOM      2  C   UNL     1      -3.970   2.864  12.944  1.00  0.00     0.245 C 
ENDROOT
BRANCH   2   3
ATOM      3  C   UNL     1      -4.886   1.660  12.608  1.00  0.00     0.168 C 
ATOM      4  C   UNL     1      -6.130   2.120  11.856  1.00  0.00     0.041 C 
BRANCH   3   5
ATOM      5  N   UNL     1      -4.221   0.557  11.932  1.00  0.00    -0.342 N 
ATOM      6  C   UNL     1      -4.152  -0.702  12.489  1.00  0.00     0.251 C 
ATOM      7  O   UNL     1      -4.600  -0.977  13.597  1.00  0.00    -0.272 OA
ATOM      8  H   UNL     1      -3.781   0.673  11.022  1.00  0.00     0.164 HD
BRANCH   6   9
ATOM      9  C   UNL     1      -3.532  -1.740  11.539  1.00  0.00     0.219 C 
BRANCH   9  10
ATOM     10  O   UNL     1      -2.567  -2.576  12.188  1.00  0.00    -0.382 OA
ATOM     11  H   UNL     1      -1.757  -2.459  11.644  1.00  0.00     0.211 HD
ENDBRANCH   9  10
BRANCH   9  12
ATOM     12  C   UNL     1      -4.592  -2.595  10.796  1.00  0.00     0.089 C 
BRANCH  12  13
ATOM     13  N   UNL     1      -5.357  -3.368  11.802  1.00  0.00    -0.325 NA
ATOM     14  H   UNL     1      -6.331  -3.059  11.793  1.00  0.00     0.119 HD
ATOM     15  H   UNL     1      -5.011  -3.131  12.735  1.00  0.00     0.119 HD
ENDBRANCH  12  13
BRANCH  12  16
ATOM     16  C   UNL     1      -5.561  -1.821   9.871  1.00  0.00     0.022 C 
BRANCH  16  17
ATOM     17  C   UNL     1      -7.073  -2.024  10.036  1.00  0.00     0.002 C 
BRANCH  17  18
ATOM     18  C   UNL     1      -7.825  -0.826  10.613  1.00  0.00     0.000 C 
BRANCH  18  19
ATOM     19  C   UNL     1      -9.352  -0.953  10.539  1.00  0.00    -0.000 C 
BRANCH  19  20
ATOM     20  C   UNL     1     -10.071   0.225   9.876  1.00  0.00    -0.000 C 
BRANCH  20  21
ATOM     21  C   UNL     1     -11.051   0.934  10.814  1.00  0.00    -0.003 C 
ATOM     22  C   UNL     1     -12.241   1.497  10.052  1.00  0.00     0.004 C 
ENDBRANCH  20  21
ENDBRANCH  19  20
ENDBRANCH  18  19
ENDBRANCH  17  18
ENDBRANCH  16  17
ENDBRANCH  12  16
ENDBRANCH   9  12
ENDBRANCH   6   9
ENDBRANCH   3   5
ENDBRANCH   2   3
BRANCH   2  23
ATOM     23  N   UNL     1      -3.794   3.909  12.043  1.00  0.00    -0.332 N 
ATOM     24  C   UNL     1      -4.633   5.097  11.983  1.00  0.00     0.147 C 
BRANCH  23  25
ATOM     25  C   UNL     1      -2.614   3.928  11.135  1.00  0.00     0.174 C 
BRANCH  25  26
ATOM     26  C   UNL     1      -2.265   5.348  10.631  1.00  0.00     0.038 C 
BRANCH  26  27
ATOM     27  C   UNL     1      -0.794   5.798  10.770  1.00  0.00    -0.015 C 
ATOM     28  C   UNL     1       0.193   4.699  10.377  1.00  0.00     0.007 C 
ATOM     29  C   UNL     1      -0.482   7.092  10.024  1.00  0.00     0.007 C 
ENDBRANCH  26  27
ENDBRANCH  25  26
BRANCH  25  30
ATOM     30  C   UNL     1      -2.799   2.893  10.001  1.00  0.00     0.243 C 
ATOM     31  O   UNL     1      -2.250   1.793  10.030  1.00  0.00    -0.273 OA
ATOM     32  N   UNL     1      -3.605   3.287   8.964  1.00  0.00    -0.342 N 
ATOM     33  H   UNL     1      -4.135   4.155   9.080  1.00  0.00     0.164 HD
BRANCH  32  34
ATOM     34  C   UNL     1      -3.871   2.449   7.792  1.00  0.00     0.175 C 
BRANCH  34  35
ATOM     35  C   UNL     1      -5.313   2.627   7.293  1.00  0.00     0.070 C 
BRANCH  35  36
ATOM     36  C   UNL     1      -6.005   1.310   7.022  1.00  0.00    -0.045 A 
ATOM     37  C   UNL     1      -5.280   0.233   6.489  1.00  0.00     0.007 A 
ATOM     38  C   UNL     1      -7.374   1.151   7.274  1.00  0.00     0.007 A 
ATOM     39  C   UNL     1      -5.912  -0.981   6.222  1.00  0.00     0.046 A 
ATOM     40  C   UNL     1      -8.008  -0.064   7.006  1.00  0.00     0.046 A 
ATOM     41  C   UNL     1      -7.270  -1.121   6.483  1.00  0.00     0.115 A 
BRANCH  41  42
ATOM     42  O   UNL     1      -7.851  -2.323   6.206  1.00  0.00    -0.508 OA
ATOM     43  H   UNL     1      -8.066  -2.759   7.047  1.00  0.00     0.293 HD
ENDBRANCH  41  42
ENDBRANCH  35  36
ENDBRANCH  34  35
BRANCH  34  44
ATOM     44  C   UNL     1      -2.835   2.806   6.703  1.00  0.00     0.243 C 
ATOM     45  O   UNL     1      -3.115   3.304   5.616  1.00  0.00    -0.273 OA
ATOM     46  N   UNL     1      -1.555   2.394   7.006  1.00  0.00    -0.341 N 
ATOM     47  H   UNL     1      -1.393   1.880   7.869  1.00  0.00     0.164 HD
BRANCH  46  48
ATOM     48  C   UNL     1      -0.417   2.561   6.099  1.00  0.00     0.196 C 
BRANCH  48  49
ATOM     49  C   UNL     1       0.524   3.678   6.580  1.00  0.00     0.072 C 
BRANCH  49  50
ATOM     50  C   UNL     1       0.592   4.838   5.613  1.00  0.00    -0.045 A 
ATOM     51  C   UNL     1       1.265   4.692   4.392  1.00  0.00     0.007 A 
ATOM     52  C   UNL     1       0.008   6.072   5.926  1.00  0.00     0.007 A 
ATOM     53  C   UNL     1       1.345   5.760   3.497  1.00  0.00     0.046 A 
ATOM     54  C   UNL     1       0.089   7.142   5.032  1.00  0.00     0.046 A 
ATOM     55  C   UNL     1       0.757   6.975   3.823  1.00  0.00     0.115 A 
BRANCH  55  56
ATOM     56  O   UNL     1       0.860   7.994   2.923  1.00  0.00    -0.508 OA
ATOM     57  H   UNL     1       1.752   8.370   2.986  1.00  0.00     0.293 HD
ENDBRANCH  55  56
ENDBRANCH  49  50
ENDBRANCH  48  49
BRANCH  48  58
ATOM     58  C   UNL     1       0.355   1.237   6.016  1.00  0.00     0.326 C 
ATOM     59  O   UNL     1       0.988   0.808   5.065  1.00  0.00    -0.250 OA
BRANCH  58  60
ATOM     60  O   UNL     1       0.304   0.509   7.161  1.00  0.00    -0.480 OA
ATOM     61  H   UNL     1       0.205   1.192   7.859  1.00  0.00     0.296 HD
ENDBRANCH  58  60
ENDBRANCH  48  58
ENDBRANCH  46  48
ENDBRANCH  34  44
ENDBRANCH  32  34
ENDBRANCH  25  30
ENDBRANCH  23  25
ENDBRANCH   2  23
TORSDOF 28
ENDMDL
MODEL 36
REMARK VINA RESULT:    -7.071      2.579      8.386
REMARK INTER + INTRA:         -23.003
REMARK INTER:                 -17.410
REMARK INTRA:                  -5.593
REMARK UNBOUND:                -5.391
REMARK SMILES CCCCCCC[C@H](N)[C@H](O)C(=O)N[C@H](C)C(=O)N(C)[C@H](CC(C)C)C(=O)N[C@@H](Cc1ccc(O)cc1)C(=O)N[C@@H](Cc1ccc(O)cc1)C(=O)O
REMARK SMILES IDX 18 1 17 2 15 3 16 4 14 5 12 6 13 7 10 9 11 10 8 12 9 13 7 16
REMARK SMILES IDX 6 17 5 18 4 19 3 20 2 21 1 22 19 23 20 24 21 25 22 26 23 27
REMARK SMILES IDX 24 28 25 29 26 30 27 31 28 32 29 34 30 35 31 36 32 37 37 38
REMARK SMILES IDX 33 39 36 40 34 41 35 42 38 44 39 45 40 46 41 48 42 49 43 50
REMARK SMILES IDX 44 51 49 52 45 53 48 54 46 55 47 56 50 58 51 59 52 60
REMARK H PARENT 14 8 11 11 9 14 9 15 28 33 35 43 40 47 47 57 52 61
ROOT
ATOM      1  O   UNL     1      -2.452  -0.496  12.919  1.00  0.00    -0.272 OA
ATOM      2  C   UNL     1      -3.434   0.236  12.723  1.00  0.00     0.245 C 
ENDROOT
BRANCH   2   3
ATOM      3  C   UNL     1      -4.851  -0.374  12.861  1.00  0.00     0.168 C 
ATOM      4  C   UNL     1      -5.153  -0.719  14.315  1.00  0.00     0.041 C 
BRANCH   3   5
ATOM      5  N   UNL     1      -5.916   0.413  12.258  1.00  0.00    -0.342 N 
ATOM      6  C   UNL     1      -6.966  -0.177  11.587  1.00  0.00     0.251 C 
ATOM      7  O   UNL     1      -7.063  -1.388  11.412  1.00  0.00    -0.272 OA
ATOM      8  H   UNL     1      -5.926   1.429  12.307  1.00  0.00     0.164 HD
BRANCH   6   9
ATOM      9  C   UNL     1      -8.042   0.834  11.160  1.00  0.00     0.219 C 
BRANCH   9  10
ATOM     10  O   UNL     1      -7.919   2.091  11.837  1.00  0.00    -0.382 OA
ATOM     11  H   UNL     1      -8.580   2.029  12.561  1.00  0.00     0.211 HD
ENDBRANCH   9  10
BRANCH   9  12
ATOM     12  C   UNL     1      -8.108   1.040   9.624  1.00  0.00     0.089 C 
BRANCH  12  13
ATOM     13  N   UNL     1      -6.827   0.585   9.036  1.00  0.00    -0.325 NA
ATOM     14  H   UNL     1      -6.819   0.804   8.038  1.00  0.00     0.119 HD
ATOM     15  H   UNL     1      -6.784  -0.435   9.085  1.00  0.00     0.119 HD
ENDBRANCH  12  13
BRANCH  12  16
ATOM     16  C   UNL     1      -9.296   0.363   8.899  1.00  0.00     0.022 C 
BRANCH  16  17
ATOM     17  C   UNL     1     -10.069  -0.753   9.616  1.00  0.00     0.002 C 
BRANCH  17  18
ATOM     18  C   UNL     1     -11.256  -0.280  10.452  1.00  0.00     0.000 C 
BRANCH  18  19
ATOM     19  C   UNL     1     -11.704   1.155  10.145  1.00  0.00    -0.000 C 
BRANCH  19  20
ATOM     20  C   UNL     1     -11.667   2.117  11.336  1.00  0.00    -0.000 C 
BRANCH  20  21
ATOM     21  C   UNL     1     -11.914   1.420  12.677  1.00  0.00    -0.003 C 
ATOM     22  C   UNL     1     -10.934   1.896  13.738  1.00  0.00     0.004 C 
ENDBRANCH  20  21
ENDBRANCH  19  20
ENDBRANCH  18  19
ENDBRANCH  17  18
ENDBRANCH  16  17
ENDBRANCH  12  16
ENDBRANCH   9  12
ENDBRANCH   6   9
ENDBRANCH   3   5
ENDBRANCH   2   3
BRANCH   2  23
ATOM     23  N   UNL     1      -3.254   1.598  12.507  1.00  0.00    -0.332 N 
ATOM     24  C   UNL     1      -3.691   2.644  13.420  1.00  0.00     0.147 C 
BRANCH  23  25
ATOM     25  C   UNL     1      -2.461   2.075  11.341  1.00  0.00     0.174 C 
BRANCH  25  26
ATOM     26  C   UNL     1      -2.027   3.554  11.473  1.00  0.00     0.038 C 
BRANCH  26  27
ATOM     27  C   UNL     1      -1.594   4.275  10.177  1.00  0.00    -0.015 C 
ATOM     28  C   UNL     1      -2.583   5.361   9.754  1.00  0.00     0.007 C 
ATOM     29  C   UNL     1      -0.175   4.835  10.238  1.00  0.00     0.007 C 
ENDBRANCH  26  27
ENDBRANCH  25  26
BRANCH  25  30
ATOM     30  C   UNL     1      -3.209   1.763  10.025  1.00  0.00     0.243 C 
ATOM     31  O   UNL     1      -4.390   2.064   9.861  1.00  0.00    -0.273 OA
ATOM     32  N   UNL     1      -2.471   1.125   9.060  1.00  0.00    -0.342 N 
ATOM     33  H   UNL     1      -1.464   1.036   9.216  1.00  0.00     0.164 HD
BRANCH  32  34
ATOM     34  C   UNL     1      -3.022   0.726   7.762  1.00  0.00     0.175 C 
BRANCH  34  35
ATOM     35  C   UNL     1      -1.972   0.850   6.648  1.00  0.00     0.070 C 
BRANCH  35  36
ATOM     36  C   UNL     1      -1.390   2.242   6.545  1.00  0.00    -0.045 A 
ATOM     37  C   UNL     1      -2.233   3.339   6.309  1.00  0.00     0.007 A 
ATOM     38  C   UNL     1      -0.010   2.455   6.659  1.00  0.00     0.007 A 
ATOM     39  C   UNL     1      -1.704   4.625   6.198  1.00  0.00     0.046 A 
ATOM     40  C   UNL     1       0.520   3.742   6.547  1.00  0.00     0.046 A 
ATOM     41  C   UNL     1      -0.333   4.817   6.319  1.00  0.00     0.115 A 
BRANCH  41  42
ATOM     42  O   UNL     1       0.144   6.089   6.202  1.00  0.00    -0.508 OA
ATOM     43  H   UNL     1       0.201   6.307   5.256  1.00  0.00     0.293 HD
ENDBRANCH  41  42
ENDBRANCH  35  36
ENDBRANCH  34  35
BRANCH  34  44
ATOM     44  C   UNL     1      -3.558  -0.717   7.893  1.00  0.00     0.243 C 
ATOM     45  O   UNL     1      -4.739  -1.006   8.065  1.00  0.00    -0.273 OA
ATOM     46  N   UNL     1      -2.563  -1.671   7.929  1.00  0.00    -0.341 N 
ATOM     47  H   UNL     1      -1.591  -1.372   7.899  1.00  0.00     0.164 HD
BRANCH  46  48
ATOM     48  C   UNL     1      -2.823  -3.100   8.114  1.00  0.00     0.196 C 
BRANCH  48  49
ATOM     49  C   UNL     1      -2.148  -3.940   7.017  1.00  0.00     0.072 C 
BRANCH  49  50
ATOM     50  C   UNL     1      -3.108  -4.345   5.921  1.00  0.00    -0.045 A 
ATOM     51  C   UNL     1      -2.734  -5.328   4.993  1.00  0.00     0.007 A 
ATOM     52  C   UNL     1      -4.364  -3.737   5.802  1.00  0.00     0.007 A 
ATOM     53  C   UNL     1      -3.606  -5.700   3.969  1.00  0.00     0.046 A 
ATOM     54  C   UNL     1      -5.237  -4.110   4.777  1.00  0.00     0.046 A 
ATOM     55  C   UNL     1      -4.850  -5.089   3.869  1.00  0.00     0.115 A 
BRANCH  55  56
ATOM     56  O   UNL     1      -5.672  -5.481   2.854  1.00  0.00    -0.508 OA
ATOM     57  H   UNL     1      -6.441  -5.930   3.239  1.00  0.00     0.293 HD
ENDBRANCH  55  56
ENDBRANCH  49  50
ENDBRANCH  48  49
BRANCH  48  58
ATOM     58  C   UNL     1      -2.294  -3.530   9.490  1.00  0.00     0.326 C 
ATOM     59  O   UNL     1      -2.659  -3.124  10.581  1.00  0.00    -0.250 OA
BRANCH  58  60
ATOM     60  O   UNL     1      -1.323  -4.476   9.425  1.00  0.00    -0.480 OA
ATOM     61  H   UNL     1      -0.805  -4.325  10.245  1.00  0.00     0.296 HD
ENDBRANCH  58  60
ENDBRANCH  48  58
ENDBRANCH  46  48
ENDBRANCH  34  44
ENDBRANCH  32  34
ENDBRANCH  25  30
ENDBRANCH  23  25
ENDBRANCH   2  23
TORSDOF 28
ENDMDL
MODEL 37
REMARK VINA RESULT:    -7.067      2.299      5.769
REMARK INTER + INTRA:         -22.992
REMARK INTER:                 -19.221
REMARK INTRA:                  -3.771
REMARK UNBOUND:                -5.391
REMARK SMILES CCCCCCC[C@H](N)[C@H](O)C(=O)N[C@H](C)C(=O)N(C)[C@H](CC(C)C)C(=O)N[C@@H](Cc1ccc(O)cc1)C(=O)N[C@@H](Cc1ccc(O)cc1)C(=O)O
REMARK SMILES IDX 18 1 17 2 15 3 16 4 14 5 12 6 13 7 10 9 11 10 8 12 9 13 7 16
REMARK SMILES IDX 6 17 5 18 4 19 3 20 2 21 1 22 19 23 20 24 21 25 22 26 23 27
REMARK SMILES IDX 24 28 25 29 26 30 27 31 28 32 29 34 30 35 31 36 32 37 37 38
REMARK SMILES IDX 33 39 36 40 34 41 35 42 38 44 39 45 40 46 41 48 42 49 43 50
REMARK SMILES IDX 44 51 49 52 45 53 48 54 46 55 47 56 50 58 51 59 52 60
REMARK H PARENT 14 8 11 11 9 14 9 15 28 33 35 43 40 47 47 57 52 61
ROOT
ATOM      1  O   UNL     1      -7.795   1.904  10.891  1.00  0.00    -0.272 OA
ATOM      2  C   UNL     1      -6.681   2.385  10.633  1.00  0.00     0.245 C 
ENDROOT
BRANCH   2   3
ATOM      3  C   UNL     1      -5.744   2.755  11.809  1.00  0.00     0.168 C 
ATOM      4  C   UNL     1      -6.013   1.864  13.017  1.00  0.00     0.041 C 
BRANCH   3   5
ATOM      5  N   UNL     1      -4.329   2.799  11.473  1.00  0.00    -0.342 N 
ATOM      6  C   UNL     1      -3.557   3.914  11.719  1.00  0.00     0.251 C 
ATOM      7  O   UNL     1      -4.002   4.954  12.193  1.00  0.00    -0.272 OA
ATOM      8  H   UNL     1      -3.856   2.008  11.042  1.00  0.00     0.164 HD
BRANCH   6   9
ATOM      9  C   UNL     1      -2.068   3.685  11.415  1.00  0.00     0.219 C 
BRANCH   9  10
ATOM     10  O   UNL     1      -1.621   2.378  11.799  1.00  0.00    -0.382 OA
ATOM     11  H   UNL     1      -1.413   1.945  10.942  1.00  0.00     0.211 HD
ENDBRANCH   9  10
BRANCH   9  12
ATOM     12  C   UNL     1      -1.693   3.984   9.940  1.00  0.00     0.089 C 
BRANCH  12  13
ATOM     13  N   UNL     1      -2.845   4.652   9.292  1.00  0.00    -0.325 NA
ATOM     14  H   UNL     1      -3.567   3.958   9.093  1.00  0.00     0.119 HD
ATOM     15  H   UNL     1      -2.552   5.004   8.378  1.00  0.00     0.119 HD
ENDBRANCH  12  13
BRANCH  12  16
ATOM     16  C   UNL     1      -0.405   4.814   9.723  1.00  0.00     0.022 C 
BRANCH  16  17
ATOM     17  C   UNL     1       0.203   4.894   8.316  1.00  0.00     0.002 C 
BRANCH  17  18
ATOM     18  C   UNL     1       0.134   6.272   7.662  1.00  0.00     0.000 C 
BRANCH  18  19
ATOM     19  C   UNL     1      -0.096   6.233   6.145  1.00  0.00    -0.000 C 
BRANCH  19  20
ATOM     20  C   UNL     1       0.112   4.864   5.491  1.00  0.00    -0.000 C 
BRANCH  20  21
ATOM     21  C   UNL     1       1.218   4.866   4.433  1.00  0.00    -0.003 C 
ATOM     22  C   UNL     1       1.208   6.153   3.623  1.00  0.00     0.004 C 
ENDBRANCH  20  21
ENDBRANCH  19  20
ENDBRANCH  18  19
ENDBRANCH  17  18
ENDBRANCH  16  17
ENDBRANCH  12  16
ENDBRANCH   9  12
ENDBRANCH   6   9
ENDBRANCH   3   5
ENDBRANCH   2   3
BRANCH   2  23
ATOM     23  N   UNL     1      -6.249   2.470   9.314  1.00  0.00    -0.332 N 
ATOM     24  C   UNL     1      -6.197   3.701   8.539  1.00  0.00     0.147 C 
BRANCH  23  25
ATOM     25  C   UNL     1      -5.672   1.278   8.634  1.00  0.00     0.174 C 
BRANCH  25  26
ATOM     26  C   UNL     1      -6.101   1.163   7.153  1.00  0.00     0.038 C 
BRANCH  26  27
ATOM     27  C   UNL     1      -4.982   0.915   6.117  1.00  0.00    -0.015 C 
ATOM     28  C   UNL     1      -4.968   1.967   5.009  1.00  0.00     0.007 C 
ATOM     29  C   UNL     1      -3.597   0.774   6.742  1.00  0.00     0.007 C 
ENDBRANCH  26  27
ENDBRANCH  25  26
BRANCH  25  30
ATOM     30  C   UNL     1      -5.954   0.004   9.464  1.00  0.00     0.243 C 
ATOM     31  O   UNL     1      -5.215  -0.351  10.381  1.00  0.00    -0.273 OA
ATOM     32  N   UNL     1      -7.074  -0.701   9.106  1.00  0.00    -0.342 N 
ATOM     33  H   UNL     1      -7.711  -0.269   8.432  1.00  0.00     0.164 HD
BRANCH  32  34
ATOM     34  C   UNL     1      -7.481  -1.946   9.763  1.00  0.00     0.175 C 
BRANCH  34  35
ATOM     35  C   UNL     1      -8.970  -2.242   9.525  1.00  0.00     0.070 C 
BRANCH  35  36
ATOM     36  C   UNL     1      -9.881  -1.327  10.312  1.00  0.00    -0.045 A 
ATOM     37  C   UNL     1      -9.656  -1.120  11.681  1.00  0.00     0.007 A 
ATOM     38  C   UNL     1     -10.969  -0.693   9.697  1.00  0.00     0.007 A 
ATOM     39  C   UNL     1     -10.499  -0.288  12.419  1.00  0.00     0.046 A 
ATOM     40  C   UNL     1     -11.815   0.139  10.435  1.00  0.00     0.046 A 
ATOM     41  C   UNL     1     -11.570   0.335  11.790  1.00  0.00     0.115 A 
BRANCH  41  42
ATOM     42  O   UNL     1     -12.372   1.137  12.547  1.00  0.00    -0.508 OA
ATOM     43  H   UNL     1     -11.861   1.923  12.804  1.00  0.00     0.293 HD
ENDBRANCH  41  42
ENDBRANCH  35  36
ENDBRANCH  34  35
BRANCH  34  44
ATOM     44  C   UNL     1      -6.576  -3.083   9.238  1.00  0.00     0.243 C 
ATOM     45  O   UNL     1      -6.652  -4.254   9.599  1.00  0.00    -0.273 OA
ATOM     46  N   UNL     1      -5.567  -2.642   8.407  1.00  0.00    -0.341 N 
ATOM     47  H   UNL     1      -5.474  -1.645   8.230  1.00  0.00     0.164 HD
BRANCH  46  48
ATOM     48  C   UNL     1      -4.546  -3.526   7.841  1.00  0.00     0.196 C 
BRANCH  48  49
ATOM     49  C   UNL     1      -3.994  -2.969   6.518  1.00  0.00     0.072 C 
BRANCH  49  50
ATOM     50  C   UNL     1      -4.672  -3.570   5.307  1.00  0.00    -0.045 A 
ATOM     51  C   UNL     1      -4.177  -4.757   4.746  1.00  0.00     0.007 A 
ATOM     52  C   UNL     1      -5.779  -2.948   4.717  1.00  0.00     0.007 A 
ATOM     53  C   UNL     1      -4.786  -5.314   3.621  1.00  0.00     0.046 A 
ATOM     54  C   UNL     1      -6.388  -3.504   3.590  1.00  0.00     0.046 A 
ATOM     55  C   UNL     1      -5.886  -4.684   3.052  1.00  0.00     0.115 A 
BRANCH  55  56
ATOM     56  O   UNL     1      -6.450  -5.260   1.952  1.00  0.00    -0.508 OA
ATOM     57  H   UNL     1      -6.629  -6.192   2.153  1.00  0.00     0.293 HD
ENDBRANCH  55  56
ENDBRANCH  49  50
ENDBRANCH  48  49
BRANCH  48  58
ATOM     58  C   UNL     1      -3.401  -3.677   8.852  1.00  0.00     0.326 C 
ATOM     59  O   UNL     1      -2.338  -3.078   8.861  1.00  0.00    -0.250 OA
BRANCH  58  60
ATOM     60  O   UNL     1      -3.659  -4.581   9.831  1.00  0.00    -0.480 OA
ATOM     61  H   UNL     1      -4.391  -4.164  10.336  1.00  0.00     0.296 HD
ENDBRANCH  58  60
ENDBRANCH  48  58
ENDBRANCH  46  48
ENDBRANCH  34  44
ENDBRANCH  32  34
ENDBRANCH  25  30
ENDBRANCH  23  25
ENDBRANCH   2  23
TORSDOF 28
ENDMDL
MODEL 38
REMARK VINA RESULT:    -7.024      2.514      6.445
REMARK INTER + INTRA:         -22.887
REMARK INTER:                 -19.732
REMARK INTRA:                  -3.154
REMARK UNBOUND:                -5.391
REMARK SMILES CCCCCCC[C@H](N)[C@H](O)C(=O)N[C@H](C)C(=O)N(C)[C@H](CC(C)C)C(=O)N[C@@H](Cc1ccc(O)cc1)C(=O)N[C@@H](Cc1ccc(O)cc1)C(=O)O
REMARK SMILES IDX 18 1 17 2 15 3 16 4 14 5 12 6 13 7 10 9 11 10 8 12 9 13 7 16
REMARK SMILES IDX 6 17 5 18 4 19 3 20 2 21 1 22 19 23 20 24 21 25 22 26 23 27
REMARK SMILES IDX 24 28 25 29 26 30 27 31 28 32 29 34 30 35 31 36 32 37 37 38
REMARK SMILES IDX 33 39 36 40 34 41 35 42 38 44 39 45 40 46 41 48 42 49 43 50
REMARK SMILES IDX 44 51 49 52 45 53 48 54 46 55 47 56 50 58 51 59 52 60
REMARK H PARENT 14 8 11 11 9 14 9 15 28 33 35 43 40 47 47 57 52 61
ROOT
ATOM      1  O   UNL     1      -2.498  -2.066  12.311  1.00  0.00    -0.272 OA
ATOM      2  C   UNL     1      -3.197  -1.336  11.594  1.00  0.00     0.245 C 
ENDROOT
BRANCH   2   3
ATOM      3  C   UNL     1      -2.517  -0.166  10.840  1.00  0.00     0.168 C 
ATOM      4  C   UNL     1      -1.972   0.866  11.821  1.00  0.00     0.041 C 
BRANCH   3   5
ATOM      5  N   UNL     1      -1.515  -0.568   9.865  1.00  0.00    -0.342 N 
ATOM      6  C   UNL     1      -1.259   0.178   8.734  1.00  0.00     0.251 C 
ATOM      7  O   UNL     1      -1.874   1.199   8.444  1.00  0.00    -0.272 OA
ATOM      8  H   UNL     1      -0.965  -1.416   9.980  1.00  0.00     0.164 HD
BRANCH   6   9
ATOM      9  C   UNL     1      -0.068  -0.359   7.925  1.00  0.00     0.219 C 
BRANCH   9  10
ATOM     10  O   UNL     1       0.406  -1.621   8.409  1.00  0.00    -0.382 OA
ATOM     11  H   UNL     1      -0.253  -1.867   9.096  1.00  0.00     0.211 HD
ENDBRANCH   9  10
BRANCH   9  12
ATOM     12  C   UNL     1      -0.347  -0.424   6.400  1.00  0.00     0.089 C 
BRANCH  12  13
ATOM     13  N   UNL     1      -1.755  -0.837   6.200  1.00  0.00    -0.325 NA
ATOM     14  H   UNL     1      -2.117  -1.229   7.071  1.00  0.00     0.119 HD
ATOM     15  H   UNL     1      -1.781  -1.608   5.529  1.00  0.00     0.119 HD
ENDBRANCH  12  13
BRANCH  12  16
ATOM     16  C   UNL     1      -0.053   0.869   5.602  1.00  0.00     0.022 C 
BRANCH  16  17
ATOM     17  C   UNL     1       1.093   1.784   6.056  1.00  0.00     0.002 C 
BRANCH  17  18
ATOM     18  C   UNL     1       0.856   3.275   5.829  1.00  0.00     0.000 C 
BRANCH  18  19
ATOM     19  C   UNL     1      -0.143   3.905   6.808  1.00  0.00    -0.000 C 
BRANCH  19  20
ATOM     20  C   UNL     1       0.483   4.739   7.929  1.00  0.00    -0.000 C 
BRANCH  20  21
ATOM     21  C   UNL     1      -0.447   4.923   9.131  1.00  0.00    -0.003 C 
ATOM     22  C   UNL     1      -0.169   6.233   9.852  1.00  0.00     0.004 C 
ENDBRANCH  20  21
ENDBRANCH  19  20
ENDBRANCH  18  19
ENDBRANCH  17  18
ENDBRANCH  16  17
ENDBRANCH  12  16
ENDBRANCH   9  12
ENDBRANCH   6   9
ENDBRANCH   3   5
ENDBRANCH   2   3
BRANCH   2  23
ATOM     23  N   UNL     1      -4.537  -1.645  11.383  1.00  0.00    -0.332 N 
ATOM     24  C   UNL     1      -5.023  -2.933  10.912  1.00  0.00     0.147 C 
BRANCH  23  25
ATOM     25  C   UNL     1      -5.601  -0.675  11.763  1.00  0.00     0.174 C 
BRANCH  25  26
ATOM     26  C   UNL     1      -6.594  -1.247  12.802  1.00  0.00     0.038 C 
BRANCH  26  27
ATOM     27  C   UNL     1      -6.480  -0.713  14.247  1.00  0.00    -0.015 C 
ATOM     28  C   UNL     1      -5.050  -0.313  14.611  1.00  0.00     0.007 C 
ATOM     29  C   UNL     1      -7.450   0.425  14.552  1.00  0.00     0.007 C 
ENDBRANCH  26  27
ENDBRANCH  25  26
BRANCH  25  30
ATOM     30  C   UNL     1      -6.283  -0.110  10.496  1.00  0.00     0.243 C 
ATOM     31  O   UNL     1      -5.825   0.855   9.886  1.00  0.00    -0.273 OA
ATOM     32  N   UNL     1      -7.431  -0.751  10.105  1.00  0.00    -0.342 N 
ATOM     33  H   UNL     1      -7.668  -1.627  10.577  1.00  0.00     0.164 HD
BRANCH  32  34
ATOM     34  C   UNL     1      -8.224  -0.336   8.944  1.00  0.00     0.175 C 
BRANCH  34  35
ATOM     35  C   UNL     1      -8.837   1.057   9.155  1.00  0.00     0.070 C 
BRANCH  35  36
ATOM     36  C   UNL     1      -9.864   1.083  10.264  1.00  0.00    -0.045 A 
ATOM     37  C   UNL     1     -11.129   0.511  10.062  1.00  0.00     0.007 A 
ATOM     38  C   UNL     1      -9.580   1.692  11.493  1.00  0.00     0.007 A 
ATOM     39  C   UNL     1     -12.088   0.542  11.075  1.00  0.00     0.046 A 
ATOM     40  C   UNL     1     -10.540   1.725  12.507  1.00  0.00     0.046 A 
ATOM     41  C   UNL     1     -11.786   1.148  12.289  1.00  0.00     0.115 A 
BRANCH  41  42
ATOM     42  O   UNL     1     -12.752   1.159  13.251  1.00  0.00    -0.508 OA
ATOM     43  H   UNL     1     -13.595   0.908  12.839  1.00  0.00     0.293 HD
ENDBRANCH  41  42
ENDBRANCH  35  36
ENDBRANCH  34  35
BRANCH  34  44
ATOM     44  C   UNL     1      -7.311  -0.383   7.699  1.00  0.00     0.243 C 
ATOM     45  O   UNL     1      -7.516   0.245   6.664  1.00  0.00    -0.273 OA
ATOM     46  N   UNL     1      -6.294  -1.309   7.798  1.00  0.00    -0.341 N 
ATOM     47  H   UNL     1      -6.234  -1.890   8.631  1.00  0.00     0.164 HD
BRANCH  46  48
ATOM     48  C   UNL     1      -5.343  -1.581   6.718  1.00  0.00     0.196 C 
BRANCH  48  49
ATOM     49  C   UNL     1      -6.018  -2.321   5.551  1.00  0.00     0.072 C 
BRANCH  49  50
ATOM     50  C   UNL     1      -5.191  -3.479   5.040  1.00  0.00    -0.045 A 
ATOM     51  C   UNL     1      -5.688  -4.291   4.010  1.00  0.00     0.007 A 
ATOM     52  C   UNL     1      -3.938  -3.770   5.594  1.00  0.00     0.007 A 
ATOM     53  C   UNL     1      -4.939  -5.370   3.539  1.00  0.00     0.046 A 
ATOM     54  C   UNL     1      -3.190  -4.851   5.124  1.00  0.00     0.046 A 
ATOM     55  C   UNL     1      -3.697  -5.642   4.099  1.00  0.00     0.115 A 
BRANCH  55  56
ATOM     56  O   UNL     1      -2.998  -6.706   3.612  1.00  0.00    -0.508 OA
ATOM     57  H   UNL     1      -2.075  -6.625   3.900  1.00  0.00     0.293 HD
ENDBRANCH  55  56
ENDBRANCH  49  50
ENDBRANCH  48  49
BRANCH  48  58
ATOM     58  C   UNL     1      -4.762  -0.251   6.217  1.00  0.00     0.326 C 
ATOM     59  O   UNL     1      -4.628   0.107   5.058  1.00  0.00    -0.250 OA
BRANCH  58  60
ATOM     60  O   UNL     1      -4.385   0.585   7.217  1.00  0.00    -0.480 OA
ATOM     61  H   UNL     1      -3.410   0.480   7.244  1.00  0.00     0.296 HD
ENDBRANCH  58  60
ENDBRANCH  48  58
ENDBRANCH  46  48
ENDBRANCH  34  44
ENDBRANCH  32  34
ENDBRANCH  25  30
ENDBRANCH  23  25
ENDBRANCH   2  23
TORSDOF 28
ENDMDL
MODEL 39
REMARK VINA RESULT:    -6.985      2.645      7.124
REMARK INTER + INTRA:         -22.789
REMARK INTER:                 -16.873
REMARK INTRA:                  -5.917
REMARK UNBOUND:                -5.391
REMARK SMILES CCCCCCC[C@H](N)[C@H](O)C(=O)N[C@H](C)C(=O)N(C)[C@H](CC(C)C)C(=O)N[C@@H](Cc1ccc(O)cc1)C(=O)N[C@@H](Cc1ccc(O)cc1)C(=O)O
REMARK SMILES IDX 18 1 17 2 15 3 16 4 14 5 12 6 13 7 10 9 11 10 8 12 9 13 7 16
REMARK SMILES IDX 6 17 5 18 4 19 3 20 2 21 1 22 19 23 20 24 21 25 22 26 23 27
REMARK SMILES IDX 24 28 25 29 26 30 27 31 28 32 29 34 30 35 31 36 32 37 37 38
REMARK SMILES IDX 33 39 36 40 34 41 35 42 38 44 39 45 40 46 41 48 42 49 43 50
REMARK SMILES IDX 44 51 49 52 45 53 48 54 46 55 47 56 50 58 51 59 52 60
REMARK H PARENT 14 8 11 11 9 14 9 15 28 33 35 43 40 47 47 57 52 61
ROOT
ATOM      1  O   UNL     1      -2.753   1.460  11.798  1.00  0.00    -0.272 OA
ATOM      2  C   UNL     1      -3.644   1.178  12.612  1.00  0.00     0.245 C 
ENDROOT
BRANCH   2   3
ATOM      3  C   UNL     1      -3.740  -0.279  13.130  1.00  0.00     0.168 C 
ATOM      4  C   UNL     1      -4.479  -0.332  14.463  1.00  0.00     0.041 C 
BRANCH   3   5
ATOM      5  N   UNL     1      -4.277  -1.234  12.174  1.00  0.00    -0.342 N 
ATOM      6  C   UNL     1      -3.463  -2.097  11.471  1.00  0.00     0.251 C 
ATOM      7  O   UNL     1      -2.240  -2.099  11.564  1.00  0.00    -0.272 OA
ATOM      8  H   UNL     1      -5.275  -1.301  11.986  1.00  0.00     0.164 HD
BRANCH   6   9
ATOM      9  C   UNL     1      -4.256  -3.108  10.628  1.00  0.00     0.219 C 
BRANCH   9  10
ATOM     10  O   UNL     1      -5.341  -3.700  11.352  1.00  0.00    -0.382 OA
ATOM     11  H   UNL     1      -5.756  -2.937  11.811  1.00  0.00     0.211 HD
ENDBRANCH   9  10
BRANCH   9  12
ATOM     12  C   UNL     1      -4.748  -2.524   9.279  1.00  0.00     0.089 C 
BRANCH  12  13
ATOM     13  N   UNL     1      -3.754  -1.531   8.809  1.00  0.00    -0.325 NA
ATOM     14  H   UNL     1      -3.775  -0.717   9.426  1.00  0.00     0.119 HD
ATOM     15  H   UNL     1      -4.045  -1.180   7.894  1.00  0.00     0.119 HD
ENDBRANCH  12  13
BRANCH  12  16
ATOM     16  C   UNL     1      -5.042  -3.552   8.160  1.00  0.00     0.022 C 
BRANCH  16  17
ATOM     17  C   UNL     1      -4.686  -3.201   6.709  1.00  0.00     0.002 C 
BRANCH  17  18
ATOM     18  C   UNL     1      -3.968  -4.305   5.936  1.00  0.00     0.000 C 
BRANCH  18  19
ATOM     19  C   UNL     1      -4.068  -4.166   4.411  1.00  0.00    -0.000 C 
BRANCH  19  20
ATOM     20  C   UNL     1      -5.204  -3.266   3.914  1.00  0.00    -0.000 C 
BRANCH  20  21
ATOM     21  C   UNL     1      -6.438  -4.052   3.463  1.00  0.00    -0.003 C 
ATOM     22  C   UNL     1      -6.139  -4.895   2.233  1.00  0.00     0.004 C 
ENDBRANCH  20  21
ENDBRANCH  19  20
ENDBRANCH  18  19
ENDBRANCH  17  18
ENDBRANCH  16  17
ENDBRANCH  12  16
ENDBRANCH   9  12
ENDBRANCH   6   9
ENDBRANCH   3   5
ENDBRANCH   2   3
BRANCH   2  23
ATOM     23  N   UNL     1      -4.454   2.182  13.134  1.00  0.00    -0.332 N 
ATOM     24  C   UNL     1      -4.020   3.166  14.114  1.00  0.00     0.147 C 
BRANCH  23  25
ATOM     25  C   UNL     1      -5.828   2.390  12.601  1.00  0.00     0.174 C 
BRANCH  25  26
ATOM     26  C   UNL     1      -6.927   2.154  13.663  1.00  0.00     0.038 C 
BRANCH  26  27
ATOM     27  C   UNL     1      -7.940   3.299  13.890  1.00  0.00    -0.015 C 
ATOM     28  C   UNL     1      -7.481   4.280  14.969  1.00  0.00     0.007 C 
ATOM     29  C   UNL     1      -8.311   4.044  12.610  1.00  0.00     0.007 C 
ENDBRANCH  26  27
ENDBRANCH  25  26
BRANCH  25  30
ATOM     30  C   UNL     1      -6.028   1.570  11.307  1.00  0.00     0.243 C 
ATOM     31  O   UNL     1      -6.636   0.501  11.302  1.00  0.00    -0.273 OA
ATOM     32  N   UNL     1      -5.477   2.108  10.172  1.00  0.00    -0.342 N 
ATOM     33  H   UNL     1      -5.113   3.062  10.229  1.00  0.00     0.164 HD
BRANCH  32  34
ATOM     34  C   UNL     1      -5.544   1.456   8.861  1.00  0.00     0.175 C 
BRANCH  34  35
ATOM     35  C   UNL     1      -6.840   1.822   8.121  1.00  0.00     0.070 C 
BRANCH  35  36
ATOM     36  C   UNL     1      -7.644   0.608   7.713  1.00  0.00    -0.045 A 
ATOM     37  C   UNL     1      -7.105  -0.319   6.808  1.00  0.00     0.007 A 
ATOM     38  C   UNL     1      -8.937   0.402   8.210  1.00  0.00     0.007 A 
ATOM     39  C   UNL     1      -7.844  -1.436   6.416  1.00  0.00     0.046 A 
ATOM     40  C   UNL     1      -9.679  -0.715   7.817  1.00  0.00     0.046 A 
ATOM     41  C   UNL     1      -9.124  -1.625   6.923  1.00  0.00     0.115 A 
BRANCH  41  42
ATOM     42  O   UNL     1      -9.814  -2.727   6.512  1.00  0.00    -0.508 OA
ATOM     43  H   UNL     1      -9.253  -3.508   6.654  1.00  0.00     0.293 HD
ENDBRANCH  41  42
ENDBRANCH  35  36
ENDBRANCH  34  35
BRANCH  34  44
ATOM     44  C   UNL     1      -4.287   1.862   8.060  1.00  0.00     0.243 C 
ATOM     45  O   UNL     1      -4.296   2.201   6.880  1.00  0.00    -0.273 OA
ATOM     46  N   UNL     1      -3.111   1.685   8.757  1.00  0.00    -0.341 N 
ATOM     47  H   UNL     1      -3.147   1.290   9.694  1.00  0.00     0.164 HD
BRANCH  46  48
ATOM     48  C   UNL     1      -1.788   1.937   8.183  1.00  0.00     0.196 C 
BRANCH  48  49
ATOM     49  C   UNL     1      -1.102   3.135   8.861  1.00  0.00     0.072 C 
BRANCH  49  50
ATOM     50  C   UNL     1      -0.678   4.199   7.873  1.00  0.00    -0.045 A 
ATOM     51  C   UNL     1      -0.593   3.890   6.508  1.00  0.00     0.007 A 
ATOM     52  C   UNL     1      -0.347   5.490   8.302  1.00  0.00     0.007 A 
ATOM     53  C   UNL     1      -0.190   4.859   5.589  1.00  0.00     0.046 A 
ATOM     54  C   UNL     1       0.057   6.460   7.382  1.00  0.00     0.046 A 
ATOM     55  C   UNL     1       0.131   6.136   6.032  1.00  0.00     0.115 A 
BRANCH  55  56
ATOM     56  O   UNL     1       0.521   7.054   5.102  1.00  0.00    -0.508 OA
ATOM     57  H   UNL     1      -0.263   7.344   4.610  1.00  0.00     0.293 HD
ENDBRANCH  55  56
ENDBRANCH  49  50
ENDBRANCH  48  49
BRANCH  48  58
ATOM     58  C   UNL     1      -0.921   0.682   8.356  1.00  0.00     0.326 C 
ATOM     59  O   UNL     1      -0.056   0.271   7.599  1.00  0.00    -0.250 OA
BRANCH  58  60
ATOM     60  O   UNL     1      -1.178   0.001   9.501  1.00  0.00    -0.480 OA
ATOM     61  H   UNL     1      -0.344  -0.493   9.662  1.00  0.00     0.296 HD
ENDBRANCH  58  60
ENDBRANCH  48  58
ENDBRANCH  46  48
ENDBRANCH  34  44
ENDBRANCH  32  34
ENDBRANCH  25  30
ENDBRANCH  23  25
ENDBRANCH   2  23
TORSDOF 28
ENDMDL
MODEL 40
REMARK VINA RESULT:    -6.959      3.188      6.310
REMARK INTER + INTRA:         -22.723
REMARK INTER:                 -16.419
REMARK INTRA:                  -6.304
REMARK UNBOUND:                -5.391
REMARK SMILES CCCCCCC[C@H](N)[C@H](O)C(=O)N[C@H](C)C(=O)N(C)[C@H](CC(C)C)C(=O)N[C@@H](Cc1ccc(O)cc1)C(=O)N[C@@H](Cc1ccc(O)cc1)C(=O)O
REMARK SMILES IDX 18 1 17 2 15 3 16 4 14 5 12 6 13 7 10 9 11 10 8 12 9 13 7 16
REMARK SMILES IDX 6 17 5 18 4 19 3 20 2 21 1 22 19 23 20 24 21 25 22 26 23 27
REMARK SMILES IDX 24 28 25 29 26 30 27 31 28 32 29 34 30 35 31 36 32 37 37 38
REMARK SMILES IDX 33 39 36 40 34 41 35 42 38 44 39 45 40 46 41 48 42 49 43 50
REMARK SMILES IDX 44 51 49 52 45 53 48 54 46 55 47 56 50 58 51 59 52 60
REMARK H PARENT 14 8 11 11 9 14 9 15 28 33 35 43 40 47 47 57 52 61
ROOT
ATOM      1  O   UNL     1      -6.616   0.174  15.043  1.00  0.00    -0.272 OA
ATOM      2  C   UNL     1      -6.699   0.455  13.838  1.00  0.00     0.245 C 
ENDROOT
BRANCH   2   3
ATOM      3  C   UNL     1      -5.423   0.927  13.097  1.00  0.00     0.168 C 
ATOM      4  C   UNL     1      -4.871   2.200  13.728  1.00  0.00     0.041 C 
BRANCH   3   5
ATOM      5  N   UNL     1      -4.396  -0.091  12.941  1.00  0.00    -0.342 N 
ATOM      6  C   UNL     1      -4.240  -0.794  11.765  1.00  0.00     0.251 C 
ATOM      7  O   UNL     1      -4.969  -0.650  10.789  1.00  0.00    -0.272 OA
ATOM      8  H   UNL     1      -3.752  -0.323  13.694  1.00  0.00     0.164 HD
BRANCH   6   9
ATOM      9  C   UNL     1      -3.007  -1.711  11.779  1.00  0.00     0.219 C 
BRANCH   9  10
ATOM     10  O   UNL     1      -2.385  -1.780  13.068  1.00  0.00    -0.382 OA
ATOM     11  H   UNL     1      -2.658  -2.660  13.409  1.00  0.00     0.211 HD
ENDBRANCH   9  10
BRANCH   9  12
ATOM     12  C   UNL     1      -3.298  -3.132  11.231  1.00  0.00     0.089 C 
BRANCH  12  13
ATOM     13  N   UNL     1      -4.747  -3.400  11.373  1.00  0.00    -0.325 NA
ATOM     14  H   UNL     1      -5.256  -2.514  11.357  1.00  0.00     0.119 HD
ATOM     15  H   UNL     1      -4.922  -3.791  12.302  1.00  0.00     0.119 HD
ENDBRANCH  12  13
BRANCH  12  16
ATOM     16  C   UNL     1      -2.848  -3.402   9.775  1.00  0.00     0.022 C 
BRANCH  16  17
ATOM     17  C   UNL     1      -1.480  -2.886   9.308  1.00  0.00     0.002 C 
BRANCH  17  18
ATOM     18  C   UNL     1      -1.482  -2.195   7.946  1.00  0.00     0.000 C 
BRANCH  18  19
ATOM     19  C   UNL     1      -1.109  -0.707   7.999  1.00  0.00    -0.000 C 
BRANCH  19  20
ATOM     20  C   UNL     1      -1.029  -0.107   9.406  1.00  0.00    -0.000 C 
BRANCH  20  21
ATOM     21  C   UNL     1      -1.731   1.248   9.521  1.00  0.00    -0.003 C 
ATOM     22  C   UNL     1      -1.754   1.741  10.959  1.00  0.00     0.004 C 
ENDBRANCH  20  21
ENDBRANCH  19  20
ENDBRANCH  18  19
ENDBRANCH  17  18
ENDBRANCH  16  17
ENDBRANCH  12  16
ENDBRANCH   9  12
ENDBRANCH   6   9
ENDBRANCH   3   5
ENDBRANCH   2   3
BRANCH   2  23
ATOM     23  N   UNL     1      -7.888   0.229  13.151  1.00  0.00    -0.332 N 
ATOM     24  C   UNL     1      -8.360  -1.081  12.728  1.00  0.00     0.147 C 
BRANCH  23  25
ATOM     25  C   UNL     1      -8.842   1.346  12.913  1.00  0.00     0.174 C 
BRANCH  25  26
ATOM     26  C   UNL     1     -10.302   0.976  13.260  1.00  0.00     0.038 C 
BRANCH  26  27
ATOM     27  C   UNL     1     -11.025   1.870  14.293  1.00  0.00    -0.015 C 
ATOM     28  C   UNL     1     -10.084   2.377  15.385  1.00  0.00     0.007 C 
ATOM     29  C   UNL     1     -11.791   3.030  13.662  1.00  0.00     0.007 C 
ENDBRANCH  26  27
ENDBRANCH  25  26
BRANCH  25  30
ATOM     30  C   UNL     1      -8.665   1.900  11.480  1.00  0.00     0.243 C 
ATOM     31  O   UNL     1      -9.214   2.937  11.111  1.00  0.00    -0.273 OA
ATOM     32  N   UNL     1      -7.864   1.157  10.651  1.00  0.00    -0.342 N 
ATOM     33  H   UNL     1      -7.332   0.389  11.070  1.00  0.00     0.164 HD
BRANCH  32  34
ATOM     34  C   UNL     1      -7.606   1.514   9.254  1.00  0.00     0.175 C 
BRANCH  34  35
ATOM     35  C   UNL     1      -6.222   2.161   9.089  1.00  0.00     0.070 C 
BRANCH  35  36
ATOM     36  C   UNL     1      -5.643   1.959   7.707  1.00  0.00    -0.045 A 
ATOM     37  C   UNL     1      -6.200   2.632   6.608  1.00  0.00     0.007 A 
ATOM     38  C   UNL     1      -4.566   1.088   7.498  1.00  0.00     0.007 A 
ATOM     39  C   UNL     1      -5.681   2.442   5.327  1.00  0.00     0.046 A 
ATOM     40  C   UNL     1      -4.047   0.896   6.215  1.00  0.00     0.046 A 
ATOM     41  C   UNL     1      -4.610   1.577   5.141  1.00  0.00     0.115 A 
BRANCH  41  42
ATOM     42  O   UNL     1      -4.135   1.417   3.872  1.00  0.00    -0.508 OA
ATOM     43  H   UNL     1      -4.863   1.584   3.251  1.00  0.00     0.293 HD
ENDBRANCH  41  42
ENDBRANCH  35  36
ENDBRANCH  34  35
BRANCH  34  44
ATOM     44  C   UNL     1      -7.751   0.235   8.398  1.00  0.00     0.243 C 
ATOM     45  O   UNL     1      -8.551   0.105   7.476  1.00  0.00    -0.273 OA
ATOM     46  N   UNL     1      -6.981  -0.817   8.848  1.00  0.00    -0.341 N 
ATOM     47  H   UNL     1      -6.422  -0.695   9.689  1.00  0.00     0.164 HD
BRANCH  46  48
ATOM     48  C   UNL     1      -7.003  -2.149   8.240  1.00  0.00     0.196 C 
BRANCH  48  49
ATOM     49  C   UNL     1      -5.582  -2.637   7.910  1.00  0.00     0.072 C 
BRANCH  49  50
ATOM     50  C   UNL     1      -5.401  -2.951   6.443  1.00  0.00    -0.045 A 
ATOM     51  C   UNL     1      -4.494  -3.946   6.048  1.00  0.00     0.007 A 
ATOM     52  C   UNL     1      -6.112  -2.248   5.462  1.00  0.00     0.007 A 
ATOM     53  C   UNL     1      -4.309  -4.236   4.696  1.00  0.00     0.046 A 
ATOM     54  C   UNL     1      -5.925  -2.538   4.108  1.00  0.00     0.046 A 
ATOM     55  C   UNL     1      -5.025  -3.531   3.737  1.00  0.00     0.115 A 
BRANCH  55  56
ATOM     56  O   UNL     1      -4.814  -3.843   2.426  1.00  0.00    -0.508 OA
ATOM     57  H   UNL     1      -5.499  -4.470   2.147  1.00  0.00     0.293 HD
ENDBRANCH  55  56
ENDBRANCH  49  50
ENDBRANCH  48  49
BRANCH  48  58
ATOM     58  C   UNL     1      -7.672  -3.131   9.212  1.00  0.00     0.326 C 
ATOM     59  O   UNL     1      -8.757  -3.008   9.756  1.00  0.00    -0.250 OA
BRANCH  58  60
ATOM     60  O   UNL     1      -6.937  -4.247   9.444  1.00  0.00    -0.480 OA
ATOM     61  H   UNL     1      -6.086  -3.892   9.782  1.00  0.00     0.296 HD
ENDBRANCH  58  60
ENDBRANCH  48  58
ENDBRANCH  46  48
ENDBRANCH  34  44
ENDBRANCH  32  34
ENDBRANCH  25  30
ENDBRANCH  23  25
ENDBRANCH   2  23
TORSDOF 28
ENDMDL
MODEL 41
REMARK VINA RESULT:    -6.951      2.986      7.536
REMARK INTER + INTRA:         -22.703
REMARK INTER:                 -16.765
REMARK INTRA:                  -5.938
REMARK UNBOUND:                -5.391
REMARK SMILES CCCCCCC[C@H](N)[C@H](O)C(=O)N[C@H](C)C(=O)N(C)[C@H](CC(C)C)C(=O)N[C@@H](Cc1ccc(O)cc1)C(=O)N[C@@H](Cc1ccc(O)cc1)C(=O)O
REMARK SMILES IDX 18 1 17 2 15 3 16 4 14 5 12 6 13 7 10 9 11 10 8 12 9 13 7 16
REMARK SMILES IDX 6 17 5 18 4 19 3 20 2 21 1 22 19 23 20 24 21 25 22 26 23 27
REMARK SMILES IDX 24 28 25 29 26 30 27 31 28 32 29 34 30 35 31 36 32 37 37 38
REMARK SMILES IDX 33 39 36 40 34 41 35 42 38 44 39 45 40 46 41 48 42 49 43 50
REMARK SMILES IDX 44 51 49 52 45 53 48 54 46 55 47 56 50 58 51 59 52 60
REMARK H PARENT 14 8 11 11 9 14 9 15 28 33 35 43 40 47 47 57 52 61
ROOT
ATOM      1  O   UNL     1      -8.108   3.774  11.087  1.00  0.00    -0.272 OA
ATOM      2  C   UNL     1      -6.947   4.033  11.435  1.00  0.00     0.245 C 
ENDROOT
BRANCH   2   3
ATOM      3  C   UNL     1      -6.451   3.513  12.807  1.00  0.00     0.168 C 
ATOM      4  C   UNL     1      -6.975   4.389  13.940  1.00  0.00     0.041 C 
BRANCH   3   5
ATOM      5  N   UNL     1      -6.703   2.101  13.052  1.00  0.00    -0.342 N 
ATOM      6  C   UNL     1      -5.772   1.292  13.669  1.00  0.00     0.251 C 
ATOM      7  O   UNL     1      -4.662   1.681  14.015  1.00  0.00    -0.272 OA
ATOM      8  H   UNL     1      -7.576   1.657  12.778  1.00  0.00     0.164 HD
BRANCH   6   9
ATOM      9  C   UNL     1      -6.307  -0.121  13.952  1.00  0.00     0.219 C 
BRANCH   9  10
ATOM     10  O   UNL     1      -7.738  -0.189  13.909  1.00  0.00    -0.382 OA
ATOM     11  H   UNL     1      -7.992   0.618  13.410  1.00  0.00     0.211 HD
ENDBRANCH   9  10
BRANCH   9  12
ATOM     12  C   UNL     1      -5.677  -1.205  13.039  1.00  0.00     0.089 C 
BRANCH  12  13
ATOM     13  N   UNL     1      -6.389  -2.482  13.270  1.00  0.00    -0.325 NA
ATOM     14  H   UNL     1      -5.994  -2.943  14.092  1.00  0.00     0.119 HD
ATOM     15  H   UNL     1      -6.195  -3.115  12.491  1.00  0.00     0.119 HD
ENDBRANCH  12  13
BRANCH  12  16
ATOM     16  C   UNL     1      -5.643  -0.881  11.526  1.00  0.00     0.022 C 
BRANCH  16  17
ATOM     17  C   UNL     1      -4.342  -0.355  10.904  1.00  0.00     0.002 C 
BRANCH  17  18
ATOM     18  C   UNL     1      -3.061  -0.860  11.564  1.00  0.00     0.000 C 
BRANCH  18  19
ATOM     19  C   UNL     1      -1.843   0.043  11.335  1.00  0.00    -0.000 C 
BRANCH  19  20
ATOM     20  C   UNL     1      -1.409   0.192   9.874  1.00  0.00    -0.000 C 
BRANCH  20  21
ATOM     21  C   UNL     1      -0.878  -1.111   9.270  1.00  0.00    -0.003 C 
ATOM     22  C   UNL     1      -0.107  -0.853   7.985  1.00  0.00     0.004 C 
ENDBRANCH  20  21
ENDBRANCH  19  20
ENDBRANCH  18  19
ENDBRANCH  17  18
ENDBRANCH  16  17
ENDBRANCH  12  16
ENDBRANCH   9  12
ENDBRANCH   6   9
ENDBRANCH   3   5
ENDBRANCH   2   3
BRANCH   2  23
ATOM     23  N   UNL     1      -6.081   4.670  10.552  1.00  0.00    -0.332 N 
ATOM     24  C   UNL     1      -6.093   6.097  10.269  1.00  0.00     0.147 C 
BRANCH  23  25
ATOM     25  C   UNL     1      -4.967   3.914   9.916  1.00  0.00     0.174 C 
BRANCH  25  26
ATOM     26  C   UNL     1      -3.643   4.713   9.876  1.00  0.00     0.038 C 
BRANCH  26  27
ATOM     27  C   UNL     1      -2.415   4.066  10.554  1.00  0.00    -0.015 C 
ATOM     28  C   UNL     1      -1.222   5.018  10.632  1.00  0.00     0.007 C 
ATOM     29  C   UNL     1      -2.721   3.474  11.927  1.00  0.00     0.007 C 
ENDBRANCH  26  27
ENDBRANCH  25  26
BRANCH  25  30
ATOM     30  C   UNL     1      -5.409   3.375   8.536  1.00  0.00     0.243 C 
ATOM     31  O   UNL     1      -6.568   3.482   8.137  1.00  0.00    -0.273 OA
ATOM     32  N   UNL     1      -4.429   2.768   7.794  1.00  0.00    -0.342 N 
ATOM     33  H   UNL     1      -3.465   2.844   8.130  1.00  0.00     0.164 HD
BRANCH  32  34
ATOM     34  C   UNL     1      -4.672   2.176   6.476  1.00  0.00     0.175 C 
BRANCH  34  35
ATOM     35  C   UNL     1      -3.933   2.948   5.372  1.00  0.00     0.070 C 
BRANCH  35  36
ATOM     36  C   UNL     1      -2.902   3.908   5.919  1.00  0.00    -0.045 A 
ATOM     37  C   UNL     1      -1.625   3.443   6.268  1.00  0.00     0.007 A 
ATOM     38  C   UNL     1      -3.209   5.262   6.108  1.00  0.00     0.007 A 
ATOM     39  C   UNL     1      -0.671   4.319   6.787  1.00  0.00     0.046 A 
ATOM     40  C   UNL     1      -2.255   6.140   6.628  1.00  0.00     0.046 A 
ATOM     41  C   UNL     1      -0.993   5.660   6.962  1.00  0.00     0.115 A 
BRANCH  41  42
ATOM     42  O   UNL     1      -0.034   6.482   7.475  1.00  0.00    -0.508 OA
ATOM     43  H   UNL     1       0.767   6.391   6.932  1.00  0.00     0.293 HD
ENDBRANCH  41  42
ENDBRANCH  35  36
ENDBRANCH  34  35
BRANCH  34  44
ATOM     44  C   UNL     1      -4.241   0.693   6.531  1.00  0.00     0.243 C 
ATOM     45  O   UNL     1      -3.116   0.308   6.839  1.00  0.00    -0.273 OA
ATOM     46  N   UNL     1      -5.207  -0.177   6.071  1.00  0.00    -0.341 N 
ATOM     47  H   UNL     1      -6.082   0.200   5.715  1.00  0.00     0.164 HD
BRANCH  46  48
ATOM     48  C   UNL     1      -5.004  -1.624   5.964  1.00  0.00     0.196 C 
BRANCH  48  49
ATOM     49  C   UNL     1      -5.503  -2.353   7.223  1.00  0.00     0.072 C 
BRANCH  49  50
ATOM     50  C   UNL     1      -4.416  -3.158   7.898  1.00  0.00    -0.045 A 
ATOM     51  C   UNL     1      -4.546  -3.512   9.249  1.00  0.00     0.007 A 
ATOM     52  C   UNL     1      -3.263  -3.541   7.201  1.00  0.00     0.007 A 
ATOM     53  C   UNL     1      -3.543  -4.243   9.887  1.00  0.00     0.046 A 
ATOM     54  C   UNL     1      -2.259  -4.272   7.840  1.00  0.00     0.046 A 
ATOM     55  C   UNL     1      -2.409  -4.618   9.178  1.00  0.00     0.115 A 
BRANCH  55  56
ATOM     56  O   UNL     1      -1.451  -5.330   9.838  1.00  0.00    -0.508 OA
ATOM     57  H   UNL     1      -1.891  -5.999  10.386  1.00  0.00     0.293 HD
ENDBRANCH  55  56
ENDBRANCH  49  50
ENDBRANCH  48  49
BRANCH  48  58
ATOM     58  C   UNL     1      -5.759  -2.145   4.733  1.00  0.00     0.326 C 
ATOM     59  O   UNL     1      -5.478  -1.958   3.561  1.00  0.00    -0.250 OA
BRANCH  58  60
ATOM     60  O   UNL     1      -6.842  -2.901   5.043  1.00  0.00    -0.480 OA
ATOM     61  H   UNL     1      -6.515  -3.478   5.767  1.00  0.00     0.296 HD
ENDBRANCH  58  60
ENDBRANCH  48  58
ENDBRANCH  46  48
ENDBRANCH  34  44
ENDBRANCH  32  34
ENDBRANCH  25  30
ENDBRANCH  23  25
ENDBRANCH   2  23
TORSDOF 28
ENDMDL
MODEL 42
REMARK VINA RESULT:    -6.936      2.824      6.456
REMARK INTER + INTRA:         -22.667
REMARK INTER:                 -17.022
REMARK INTRA:                  -5.645
REMARK UNBOUND:                -5.391
REMARK SMILES CCCCCCC[C@H](N)[C@H](O)C(=O)N[C@H](C)C(=O)N(C)[C@H](CC(C)C)C(=O)N[C@@H](Cc1ccc(O)cc1)C(=O)N[C@@H](Cc1ccc(O)cc1)C(=O)O
REMARK SMILES IDX 18 1 17 2 15 3 16 4 14 5 12 6 13 7 10 9 11 10 8 12 9 13 7 16
REMARK SMILES IDX 6 17 5 18 4 19 3 20 2 21 1 22 19 23 20 24 21 25 22 26 23 27
REMARK SMILES IDX 24 28 25 29 26 30 27 31 28 32 29 34 30 35 31 36 32 37 37 38
REMARK SMILES IDX 33 39 36 40 34 41 35 42 38 44 39 45 40 46 41 48 42 49 43 50
REMARK SMILES IDX 44 51 49 52 45 53 48 54 46 55 47 56 50 58 51 59 52 60
REMARK H PARENT 14 8 11 11 9 14 9 15 28 33 35 43 40 47 47 57 52 61
ROOT
ATOM      1  O   UNL     1      -4.877   2.788  13.268  1.00  0.00    -0.272 OA
ATOM      2  C   UNL     1      -5.110   3.223  12.130  1.00  0.00     0.245 C 
ENDROOT
BRANCH   2   3
ATOM      3  C   UNL     1      -4.724   4.687  11.803  1.00  0.00     0.168 C 
ATOM      4  C   UNL     1      -4.746   5.547  13.062  1.00  0.00     0.041 C 
BRANCH   3   5
ATOM      5  N   UNL     1      -3.481   4.841  11.063  1.00  0.00    -0.342 N 
ATOM      6  C   UNL     1      -3.334   5.792  10.076  1.00  0.00     0.251 C 
ATOM      7  O   UNL     1      -4.236   6.543   9.721  1.00  0.00    -0.272 OA
ATOM      8  H   UNL     1      -2.672   4.251  11.246  1.00  0.00     0.164 HD
BRANCH   6   9
ATOM      9  C   UNL     1      -1.898   5.868   9.533  1.00  0.00     0.219 C 
BRANCH   9  10
ATOM     10  O   UNL     1      -0.910   5.778  10.567  1.00  0.00    -0.382 OA
ATOM     11  H   UNL     1      -0.138   6.256  10.191  1.00  0.00     0.211 HD
ENDBRANCH   9  10
BRANCH   9  12
ATOM     12  C   UNL     1      -1.616   4.835   8.411  1.00  0.00     0.089 C 
BRANCH  12  13
ATOM     13  N   UNL     1      -1.512   3.492   9.027  1.00  0.00    -0.325 NA
ATOM     14  H   UNL     1      -2.257   2.896   8.661  1.00  0.00     0.119 HD
ATOM     15  H   UNL     1      -1.702   3.572  10.029  1.00  0.00     0.119 HD
ENDBRANCH  12  13
BRANCH  12  16
ATOM     16  C   UNL     1      -2.632   4.807   7.244  1.00  0.00     0.022 C 
BRANCH  16  17
ATOM     17  C   UNL     1      -3.544   3.583   7.077  1.00  0.00     0.002 C 
BRANCH  17  18
ATOM     18  C   UNL     1      -4.066   3.358   5.660  1.00  0.00     0.000 C 
BRANCH  18  19
ATOM     19  C   UNL     1      -5.130   2.257   5.554  1.00  0.00    -0.000 C 
BRANCH  19  20
ATOM     20  C   UNL     1      -6.356   2.450   6.451  1.00  0.00    -0.000 C 
BRANCH  20  21
ATOM     21  C   UNL     1      -7.045   1.132   6.816  1.00  0.00    -0.003 C 
ATOM     22  C   UNL     1      -6.161  -0.063   6.495  1.00  0.00     0.004 C 
ENDBRANCH  20  21
ENDBRANCH  19  20
ENDBRANCH  18  19
ENDBRANCH  17  18
ENDBRANCH  16  17
ENDBRANCH  12  16
ENDBRANCH   9  12
ENDBRANCH   6   9
ENDBRANCH   3   5
ENDBRANCH   2   3
BRANCH   2  23
ATOM     23  N   UNL     1      -5.593   2.369  11.144  1.00  0.00    -0.332 N 
ATOM     24  C   UNL     1      -6.689   2.686  10.241  1.00  0.00     0.147 C 
BRANCH  23  25
ATOM     25  C   UNL     1      -4.903   1.079  10.864  1.00  0.00     0.174 C 
BRANCH  25  26
ATOM     26  C   UNL     1      -4.191   1.063   9.491  1.00  0.00     0.038 C 
BRANCH  26  27
ATOM     27  C   UNL     1      -3.032   0.056   9.315  1.00  0.00    -0.015 C 
ATOM     28  C   UNL     1      -2.407   0.122   7.922  1.00  0.00     0.007 C 
ATOM     29  C   UNL     1      -1.957   0.174  10.393  1.00  0.00     0.007 C 
ENDBRANCH  26  27
ENDBRANCH  25  26
BRANCH  25  30
ATOM     30  C   UNL     1      -5.878  -0.102  11.073  1.00  0.00     0.243 C 
ATOM     31  O   UNL     1      -6.339  -0.376  12.180  1.00  0.00    -0.273 OA
ATOM     32  N   UNL     1      -6.188  -0.822   9.948  1.00  0.00    -0.342 N 
ATOM     33  H   UNL     1      -5.879  -0.448   9.047  1.00  0.00     0.164 HD
BRANCH  32  34
ATOM     34  C   UNL     1      -7.073  -1.989   9.961  1.00  0.00     0.175 C 
BRANCH  34  35
ATOM     35  C   UNL     1      -8.350  -1.732   9.146  1.00  0.00     0.070 C 
BRANCH  35  36
ATOM     36  C   UNL     1      -9.416  -1.012   9.940  1.00  0.00    -0.045 A 
ATOM     37  C   UNL     1      -9.619  -1.330  11.291  1.00  0.00     0.007 A 
ATOM     38  C   UNL     1     -10.226  -0.039   9.339  1.00  0.00     0.007 A 
ATOM     39  C   UNL     1     -10.610  -0.680  12.028  1.00  0.00     0.046 A 
ATOM     40  C   UNL     1     -11.219   0.611  10.076  1.00  0.00     0.046 A 
ATOM     41  C   UNL     1     -11.401   0.285  11.416  1.00  0.00     0.115 A 
BRANCH  41  42
ATOM     42  O   UNL     1     -12.359   0.894  12.171  1.00  0.00    -0.508 OA
ATOM     43  H   UNL     1     -12.579   1.744  11.756  1.00  0.00     0.293 HD
ENDBRANCH  41  42
ENDBRANCH  35  36
ENDBRANCH  34  35
BRANCH  34  44
ATOM     44  C   UNL     1      -6.277  -3.200   9.422  1.00  0.00     0.243 C 
ATOM     45  O   UNL     1      -6.595  -4.372   9.598  1.00  0.00    -0.273 OA
ATOM     46  N   UNL     1      -5.085  -2.850   8.824  1.00  0.00    -0.341 N 
ATOM     47  H   UNL     1      -4.810  -1.871   8.807  1.00  0.00     0.164 HD
BRANCH  46  48
ATOM     48  C   UNL     1      -4.130  -3.828   8.299  1.00  0.00     0.196 C 
BRANCH  48  49
ATOM     49  C   UNL     1      -3.453  -3.317   7.016  1.00  0.00     0.072 C 
BRANCH  49  50
ATOM     50  C   UNL     1      -4.120  -3.831   5.761  1.00  0.00    -0.045 A 
ATOM     51  C   UNL     1      -3.577  -4.931   5.081  1.00  0.00     0.007 A 
ATOM     52  C   UNL     1      -5.268  -3.212   5.249  1.00  0.00     0.007 A 
ATOM     53  C   UNL     1      -4.176  -5.406   3.914  1.00  0.00     0.046 A 
ATOM     54  C   UNL     1      -5.868  -3.687   4.081  1.00  0.00     0.046 A 
ATOM     55  C   UNL     1      -5.317  -4.782   3.423  1.00  0.00     0.115 A 
BRANCH  55  56
ATOM     56  O   UNL     1      -5.871  -5.275   2.280  1.00  0.00    -0.508 OA
ATOM     57  H   UNL     1      -5.466  -4.822   1.523  1.00  0.00     0.293 HD
ENDBRANCH  55  56
ENDBRANCH  49  50
ENDBRANCH  48  49
BRANCH  48  58
ATOM     58  C   UNL     1      -3.064  -4.109   9.367  1.00  0.00     0.326 C 
ATOM     59  O   UNL     1      -2.764  -3.401  10.315  1.00  0.00    -0.250 OA
BRANCH  58  60
ATOM     60  O   UNL     1      -2.426  -5.294   9.197  1.00  0.00    -0.480 OA
ATOM     61  H   UNL     1      -3.163  -5.935   9.093  1.00  0.00     0.296 HD
ENDBRANCH  58  60
ENDBRANCH  48  58
ENDBRANCH  46  48
ENDBRANCH  34  44
ENDBRANCH  32  34
ENDBRANCH  25  30
ENDBRANCH  23  25
ENDBRANCH   2  23
TORSDOF 28
ENDMDL
MODEL 43
REMARK VINA RESULT:    -6.921      3.096      8.749
REMARK INTER + INTRA:         -22.628
REMARK INTER:                 -17.851
REMARK INTRA:                  -4.778
REMARK UNBOUND:                -5.391
REMARK SMILES CCCCCCC[C@H](N)[C@H](O)C(=O)N[C@H](C)C(=O)N(C)[C@H](CC(C)C)C(=O)N[C@@H](Cc1ccc(O)cc1)C(=O)N[C@@H](Cc1ccc(O)cc1)C(=O)O
REMARK SMILES IDX 18 1 17 2 15 3 16 4 14 5 12 6 13 7 10 9 11 10 8 12 9 13 7 16
REMARK SMILES IDX 6 17 5 18 4 19 3 20 2 21 1 22 19 23 20 24 21 25 22 26 23 27
REMARK SMILES IDX 24 28 25 29 26 30 27 31 28 32 29 34 30 35 31 36 32 37 37 38
REMARK SMILES IDX 33 39 36 40 34 41 35 42 38 44 39 45 40 46 41 48 42 49 43 50
REMARK SMILES IDX 44 51 49 52 45 53 48 54 46 55 47 56 50 58 51 59 52 60
REMARK H PARENT 14 8 11 11 9 14 9 15 28 33 35 43 40 47 47 57 52 61
ROOT
ATOM      1  O   UNL     1      -5.336   2.095  13.310  1.00  0.00    -0.272 OA
ATOM      2  C   UNL     1      -6.336   1.813  12.633  1.00  0.00     0.245 C 
ENDROOT
BRANCH   2   3
ATOM      3  C   UNL     1      -7.710   2.380  13.069  1.00  0.00     0.168 C 
ATOM      4  C   UNL     1      -7.942   3.761  12.466  1.00  0.00     0.041 C 
BRANCH   3   5
ATOM      5  N   UNL     1      -8.838   1.491  12.840  1.00  0.00    -0.342 N 
ATOM      6  C   UNL     1      -9.945   1.491  13.663  1.00  0.00     0.251 C 
ATOM      7  O   UNL     1     -10.045   2.198  14.660  1.00  0.00    -0.272 OA
ATOM      8  H   UNL     1      -8.854   0.834  12.063  1.00  0.00     0.164 HD
BRANCH   6   9
ATOM      9  C   UNL     1     -11.068   0.577  13.149  1.00  0.00     0.219 C 
BRANCH   9  10
ATOM     10  O   UNL     1     -11.913   0.095  14.200  1.00  0.00    -0.382 OA
ATOM     11  H   UNL     1     -12.341  -0.697  13.808  1.00  0.00     0.211 HD
ENDBRANCH   9  10
BRANCH   9  12
ATOM     12  C   UNL     1     -11.911   1.225  12.018  1.00  0.00     0.089 C 
BRANCH  12  13
ATOM     13  N   UNL     1     -11.422   2.606  11.804  1.00  0.00    -0.325 NA
ATOM     14  H   UNL     1     -10.798   2.619  10.995  1.00  0.00     0.119 HD
ATOM     15  H   UNL     1     -10.836   2.877  12.597  1.00  0.00     0.119 HD
ENDBRANCH  12  13
BRANCH  12  16
ATOM     16  C   UNL     1     -11.945   0.458  10.675  1.00  0.00     0.022 C 
BRANCH  16  17
ATOM     17  C   UNL     1     -10.621   0.078   9.997  1.00  0.00     0.002 C 
BRANCH  17  18
ATOM     18  C   UNL     1     -10.459  -1.408   9.686  1.00  0.00     0.000 C 
BRANCH  18  19
ATOM     19  C   UNL     1      -9.083  -1.977  10.057  1.00  0.00    -0.000 C 
BRANCH  19  20
ATOM     20  C   UNL     1      -8.345  -2.688   8.919  1.00  0.00    -0.000 C 
BRANCH  20  21
ATOM     21  C   UNL     1      -7.006  -3.287   9.354  1.00  0.00    -0.003 C 
ATOM     22  C   UNL     1      -5.869  -2.812   8.462  1.00  0.00     0.004 C 
ENDBRANCH  20  21
ENDBRANCH  19  20
ENDBRANCH  18  19
ENDBRANCH  17  18
ENDBRANCH  16  17
ENDBRANCH  12  16
ENDBRANCH   9  12
ENDBRANCH   6   9
ENDBRANCH   3   5
ENDBRANCH   2   3
BRANCH   2  23
ATOM     23  N   UNL     1      -6.194   1.106  11.444  1.00  0.00    -0.332 N 
ATOM     24  C   UNL     1      -6.124  -0.345  11.349  1.00  0.00     0.147 C 
BRANCH  23  25
ATOM     25  C   UNL     1      -6.233   1.819  10.138  1.00  0.00     0.174 C 
BRANCH  25  26
ATOM     26  C   UNL     1      -6.461   0.867   8.939  1.00  0.00     0.038 C 
BRANCH  26  27
ATOM     27  C   UNL     1      -7.364   1.384   7.797  1.00  0.00    -0.015 C 
ATOM     28  C   UNL     1      -6.584   2.172   6.746  1.00  0.00     0.007 C 
ATOM     29  C   UNL     1      -8.196   0.287   7.137  1.00  0.00     0.007 C 
ENDBRANCH  26  27
ENDBRANCH  25  26
BRANCH  25  30
ATOM     30  C   UNL     1      -4.988   2.722   9.986  1.00  0.00     0.243 C 
ATOM     31  O   UNL     1      -5.054   3.945  10.106  1.00  0.00    -0.273 OA
ATOM     32  N   UNL     1      -3.814   2.072   9.705  1.00  0.00    -0.342 N 
ATOM     33  H   UNL     1      -3.813   1.050   9.762  1.00  0.00     0.164 HD
BRANCH  32  34
ATOM     34  C   UNL     1      -2.541   2.768   9.502  1.00  0.00     0.175 C 
BRANCH  34  35
ATOM     35  C   UNL     1      -1.389   2.047  10.218  1.00  0.00     0.070 C 
BRANCH  35  36
ATOM     36  C   UNL     1      -1.768   0.660  10.686  1.00  0.00    -0.045 A 
ATOM     37  C   UNL     1      -1.632  -0.435   9.819  1.00  0.00     0.007 A 
ATOM     38  C   UNL     1      -2.279   0.450  11.974  1.00  0.00     0.007 A 
ATOM     39  C   UNL     1      -1.993  -1.716  10.236  1.00  0.00     0.046 A 
ATOM     40  C   UNL     1      -2.641  -0.833  12.392  1.00  0.00     0.046 A 
ATOM     41  C   UNL     1      -2.493  -1.906  11.519  1.00  0.00     0.115 A 
BRANCH  41  42
ATOM     42  O   UNL     1      -2.836  -3.173  11.887  1.00  0.00    -0.508 OA
ATOM     43  H   UNL     1      -2.093  -3.559  12.380  1.00  0.00     0.293 HD
ENDBRANCH  41  42
ENDBRANCH  35  36
ENDBRANCH  34  35
BRANCH  34  44
ATOM     44  C   UNL     1      -2.294   2.880   7.980  1.00  0.00     0.243 C 
ATOM     45  O   UNL     1      -3.180   3.022   7.143  1.00  0.00    -0.273 OA
ATOM     46  N   UNL     1      -0.979   2.674   7.621  1.00  0.00    -0.341 N 
ATOM     47  H   UNL     1      -0.300   2.443   8.342  1.00  0.00     0.164 HD
BRANCH  46  48
ATOM     48  C   UNL     1      -0.516   2.664   6.232  1.00  0.00     0.196 C 
BRANCH  48  49
ATOM     49  C   UNL     1       0.867   3.325   6.098  1.00  0.00     0.072 C 
BRANCH  49  50
ATOM     50  C   UNL     1       0.860   4.500   5.147  1.00  0.00    -0.045 A 
ATOM     51  C   UNL     1       0.074   5.626   5.432  1.00  0.00     0.007 A 
ATOM     52  C   UNL     1       1.613   4.476   3.966  1.00  0.00     0.007 A 
ATOM     53  C   UNL     1       0.050   6.711   4.556  1.00  0.00     0.046 A 
ATOM     54  C   UNL     1       1.588   5.562   3.088  1.00  0.00     0.046 A 
ATOM     55  C   UNL     1       0.807   6.671   3.391  1.00  0.00     0.115 A 
BRANCH  55  56
ATOM     56  O   UNL     1       0.754   7.751   2.560  1.00  0.00    -0.508 OA
ATOM     57  H   UNL     1       1.206   7.522   1.732  1.00  0.00     0.293 HD
ENDBRANCH  55  56
ENDBRANCH  49  50
ENDBRANCH  48  49
BRANCH  48  58
ATOM     58  C   UNL     1      -0.442   1.212   5.740  1.00  0.00     0.326 C 
ATOM     59  O   UNL     1       0.563   0.544   5.557  1.00  0.00    -0.250 OA
BRANCH  58  60
ATOM     60  O   UNL     1      -1.658   0.654   5.513  1.00  0.00    -0.480 OA
ATOM     61  H   UNL     1      -1.451  -0.298   5.396  1.00  0.00     0.296 HD
ENDBRANCH  58  60
ENDBRANCH  48  58
ENDBRANCH  46  48
ENDBRANCH  34  44
ENDBRANCH  32  34
ENDBRANCH  25  30
ENDBRANCH  23  25
ENDBRANCH   2  23
TORSDOF 28
ENDMDL
MODEL 44
REMARK VINA RESULT:    -6.914      2.380      5.816
REMARK INTER + INTRA:         -22.613
REMARK INTER:                 -18.890
REMARK INTRA:                  -3.723
REMARK UNBOUND:                -5.391
REMARK SMILES CCCCCCC[C@H](N)[C@H](O)C(=O)N[C@H](C)C(=O)N(C)[C@H](CC(C)C)C(=O)N[C@@H](Cc1ccc(O)cc1)C(=O)N[C@@H](Cc1ccc(O)cc1)C(=O)O
REMARK SMILES IDX 18 1 17 2 15 3 16 4 14 5 12 6 13 7 10 9 11 10 8 12 9 13 7 16
REMARK SMILES IDX 6 17 5 18 4 19 3 20 2 21 1 22 19 23 20 24 21 25 22 26 23 27
REMARK SMILES IDX 24 28 25 29 26 30 27 31 28 32 29 34 30 35 31 36 32 37 37 38
REMARK SMILES IDX 33 39 36 40 34 41 35 42 38 44 39 45 40 46 41 48 42 49 43 50
REMARK SMILES IDX 44 51 49 52 45 53 48 54 46 55 47 56 50 58 51 59 52 60
REMARK H PARENT 14 8 11 11 9 14 9 15 28 33 35 43 40 47 47 57 52 61
ROOT
ATOM      1  O   UNL     1      -5.096   2.801  12.073  1.00  0.00    -0.272 OA
ATOM      2  C   UNL     1      -4.471   2.966  11.015  1.00  0.00     0.245 C 
ENDROOT
BRANCH   2   3
ATOM      3  C   UNL     1      -3.152   3.778  11.052  1.00  0.00     0.168 C 
ATOM      4  C   UNL     1      -2.118   3.092  11.939  1.00  0.00     0.041 C 
BRANCH   3   5
ATOM      5  N   UNL     1      -2.606   4.117   9.747  1.00  0.00    -0.342 N 
ATOM      6  C   UNL     1      -2.849   5.336   9.151  1.00  0.00     0.251 C 
ATOM      7  O   UNL     1      -3.565   6.200   9.645  1.00  0.00    -0.272 OA
ATOM      8  H   UNL     1      -2.024   3.466   9.223  1.00  0.00     0.164 HD
BRANCH   6   9
ATOM      9  C   UNL     1      -2.058   5.528   7.846  1.00  0.00     0.219 C 
BRANCH   9  10
ATOM     10  O   UNL     1      -2.703   6.427   6.936  1.00  0.00    -0.382 OA
ATOM     11  H   UNL     1      -2.103   7.205   6.916  1.00  0.00     0.211 HD
ENDBRANCH   9  10
BRANCH   9  12
ATOM     12  C   UNL     1      -0.584   5.948   8.084  1.00  0.00     0.089 C 
BRANCH  12  13
ATOM     13  N   UNL     1      -0.416   6.271   9.519  1.00  0.00    -0.325 NA
ATOM     14  H   UNL     1      -0.260   7.276   9.621  1.00  0.00     0.119 HD
ATOM     15  H   UNL     1       0.443   5.832   9.859  1.00  0.00     0.119 HD
ENDBRANCH  12  13
BRANCH  12  16
ATOM     16  C   UNL     1       0.492   4.928   7.640  1.00  0.00     0.022 C 
BRANCH  16  17
ATOM     17  C   UNL     1       0.202   4.010   6.444  1.00  0.00     0.002 C 
BRANCH  17  18
ATOM     18  C   UNL     1       0.021   4.729   5.109  1.00  0.00     0.000 C 
BRANCH  18  19
ATOM     19  C   UNL     1       1.337   5.160   4.448  1.00  0.00    -0.000 C 
BRANCH  19  20
ATOM     20  C   UNL     1       1.207   5.667   3.009  1.00  0.00    -0.000 C 
BRANCH  20  21
ATOM     21  C   UNL     1       1.074   7.189   2.919  1.00  0.00    -0.003 C 
ATOM     22  C   UNL     1       1.266   7.844   4.279  1.00  0.00     0.004 C 
ENDBRANCH  20  21
ENDBRANCH  19  20
ENDBRANCH  18  19
ENDBRANCH  17  18
ENDBRANCH  16  17
ENDBRANCH  12  16
ENDBRANCH   9  12
ENDBRANCH   6   9
ENDBRANCH   3   5
ENDBRANCH   2   3
BRANCH   2  23
ATOM     23  N   UNL     1      -4.890   2.328   9.853  1.00  0.00    -0.332 N 
ATOM     24  C   UNL     1      -5.863   2.872   8.917  1.00  0.00     0.147 C 
BRANCH  23  25
ATOM     25  C   UNL     1      -4.247   1.057   9.420  1.00  0.00     0.174 C 
BRANCH  25  26
ATOM     26  C   UNL     1      -4.004   0.995   7.893  1.00  0.00     0.038 C 
BRANCH  26  27
ATOM     27  C   UNL     1      -2.627   1.478   7.384  1.00  0.00    -0.015 C 
ATOM     28  C   UNL     1      -1.481   1.045   8.298  1.00  0.00     0.007 C 
ATOM     29  C   UNL     1      -2.341   1.079   5.938  1.00  0.00     0.007 C 
ENDBRANCH  26  27
ENDBRANCH  25  26
BRANCH  25  30
ATOM     30  C   UNL     1      -5.034  -0.153   9.973  1.00  0.00     0.243 C 
ATOM     31  O   UNL     1      -4.742  -0.684  11.044  1.00  0.00    -0.273 OA
ATOM     32  N   UNL     1      -6.070  -0.595   9.191  1.00  0.00    -0.342 N 
ATOM     33  H   UNL     1      -6.338  -0.018   8.390  1.00  0.00     0.164 HD
BRANCH  32  34
ATOM     34  C   UNL     1      -6.906  -1.746   9.543  1.00  0.00     0.175 C 
BRANCH  34  35
ATOM     35  C   UNL     1      -8.282  -1.666   8.863  1.00  0.00     0.070 C 
BRANCH  35  36
ATOM     36  C   UNL     1      -9.340  -1.055   9.753  1.00  0.00    -0.045 A 
ATOM     37  C   UNL     1     -10.232  -0.105   9.233  1.00  0.00     0.007 A 
ATOM     38  C   UNL     1      -9.432  -1.407  11.106  1.00  0.00     0.007 A 
ATOM     39  C   UNL     1     -11.203   0.475  10.051  1.00  0.00     0.046 A 
ATOM     40  C   UNL     1     -10.403  -0.826  11.926  1.00  0.00     0.046 A 
ATOM     41  C   UNL     1     -11.281   0.110  11.389  1.00  0.00     0.115 A 
BRANCH  41  42
ATOM     42  O   UNL     1     -12.242   0.702  12.154  1.00  0.00    -0.508 OA
ATOM     43  H   UNL     1     -12.143   1.665  12.076  1.00  0.00     0.293 HD
ENDBRANCH  41  42
ENDBRANCH  35  36
ENDBRANCH  34  35
BRANCH  34  44
ATOM     44  C   UNL     1      -6.142  -3.031   9.152  1.00  0.00     0.243 C 
ATOM     45  O   UNL     1      -6.428  -4.156   9.551  1.00  0.00    -0.273 OA
ATOM     46  N   UNL     1      -5.010  -2.790   8.403  1.00  0.00    -0.341 N 
ATOM     47  H   UNL     1      -4.751  -1.829   8.195  1.00  0.00     0.164 HD
BRANCH  46  48
ATOM     48  C   UNL     1      -4.089  -3.844   7.972  1.00  0.00     0.196 C 
BRANCH  48  49
ATOM     49  C   UNL     1      -3.401  -3.479   6.646  1.00  0.00     0.072 C 
BRANCH  49  50
ATOM     50  C   UNL     1      -4.249  -3.814   5.439  1.00  0.00    -0.045 A 
ATOM     51  C   UNL     1      -3.966  -4.960   4.682  1.00  0.00     0.007 A 
ATOM     52  C   UNL     1      -5.306  -2.983   5.048  1.00  0.00     0.007 A 
ATOM     53  C   UNL     1      -4.732  -5.272   3.559  1.00  0.00     0.046 A 
ATOM     54  C   UNL     1      -6.073  -3.295   3.923  1.00  0.00     0.046 A 
ATOM     55  C   UNL     1      -5.780  -4.438   3.188  1.00  0.00     0.115 A 
BRANCH  55  56
ATOM     56  O   UNL     1      -6.503  -4.778   2.084  1.00  0.00    -0.508 OA
ATOM     57  H   UNL     1      -6.639  -5.738   2.090  1.00  0.00     0.293 HD
ENDBRANCH  55  56
ENDBRANCH  49  50
ENDBRANCH  48  49
BRANCH  48  58
ATOM     58  C   UNL     1      -3.029  -4.057   9.061  1.00  0.00     0.326 C 
ATOM     59  O   UNL     1      -2.639  -3.242   9.882  1.00  0.00    -0.250 OA
BRANCH  58  60
ATOM     60  O   UNL     1      -2.511  -5.311   9.074  1.00  0.00    -0.480 OA
ATOM     61  H   UNL     1      -2.036  -5.368   8.216  1.00  0.00     0.296 HD
ENDBRANCH  58  60
ENDBRANCH  48  58
ENDBRANCH  46  48
ENDBRANCH  34  44
ENDBRANCH  32  34
ENDBRANCH  25  30
ENDBRANCH  23  25
ENDBRANCH   2  23
TORSDOF 28
ENDMDL
MODEL 45
REMARK VINA RESULT:    -6.886      4.482      7.327
REMARK INTER + INTRA:         -22.541
REMARK INTER:                 -16.917
REMARK INTRA:                  -5.624
REMARK UNBOUND:                -5.391
REMARK SMILES CCCCCCC[C@H](N)[C@H](O)C(=O)N[C@H](C)C(=O)N(C)[C@H](CC(C)C)C(=O)N[C@@H](Cc1ccc(O)cc1)C(=O)N[C@@H](Cc1ccc(O)cc1)C(=O)O
REMARK SMILES IDX 18 1 17 2 15 3 16 4 14 5 12 6 13 7 10 9 11 10 8 12 9 13 7 16
REMARK SMILES IDX 6 17 5 18 4 19 3 20 2 21 1 22 19 23 20 24 21 25 22 26 23 27
REMARK SMILES IDX 24 28 25 29 26 30 27 31 28 32 29 34 30 35 31 36 32 37 37 38
REMARK SMILES IDX 33 39 36 40 34 41 35 42 38 44 39 45 40 46 41 48 42 49 43 50
REMARK SMILES IDX 44 51 49 52 45 53 48 54 46 55 47 56 50 58 51 59 52 60
REMARK H PARENT 14 8 11 11 9 14 9 15 28 33 35 43 40 47 47 57 52 61
ROOT
ATOM      1  O   UNL     1      -1.190   3.483   9.316  1.00  0.00    -0.272 OA
ATOM      2  C   UNL     1      -2.202   4.158   9.559  1.00  0.00     0.245 C 
ENDROOT
BRANCH   2   3
ATOM      3  C   UNL     1      -2.332   4.822  10.953  1.00  0.00     0.168 C 
ATOM      4  C   UNL     1      -1.851   6.268  10.910  1.00  0.00     0.041 C 
BRANCH   3   5
ATOM      5  N   UNL     1      -3.647   4.706  11.564  1.00  0.00    -0.342 N 
ATOM      6  C   UNL     1      -4.045   3.562  12.223  1.00  0.00     0.251 C 
ATOM      7  O   UNL     1      -3.352   2.554  12.307  1.00  0.00    -0.272 OA
ATOM      8  H   UNL     1      -4.324   5.465  11.529  1.00  0.00     0.164 HD
BRANCH   6   9
ATOM      9  C   UNL     1      -5.411   3.716  12.910  1.00  0.00     0.219 C 
BRANCH   9  10
ATOM     10  O   UNL     1      -6.244   2.562  12.750  1.00  0.00    -0.382 OA
ATOM     11  H   UNL     1      -6.982   2.885  12.188  1.00  0.00     0.211 HD
ENDBRANCH   9  10
BRANCH   9  12
ATOM     12  C   UNL     1      -5.299   4.111  14.406  1.00  0.00     0.089 C 
BRANCH  12  13
ATOM     13  N   UNL     1      -4.016   3.592  14.931  1.00  0.00    -0.325 NA
ATOM     14  H   UNL     1      -3.258   4.211  14.638  1.00  0.00     0.119 HD
ATOM     15  H   UNL     1      -3.815   2.694  14.486  1.00  0.00     0.119 HD
ENDBRANCH  12  13
BRANCH  12  16
ATOM     16  C   UNL     1      -5.430   5.621  14.720  1.00  0.00     0.022 C 
BRANCH  16  17
ATOM     17  C   UNL     1      -5.605   6.068  16.178  1.00  0.00     0.002 C 
BRANCH  17  18
ATOM     18  C   UNL     1      -5.029   7.444  16.504  1.00  0.00     0.000 C 
BRANCH  18  19
ATOM     19  C   UNL     1      -3.599   7.407  17.058  1.00  0.00    -0.000 C 
BRANCH  19  20
ATOM     20  C   UNL     1      -2.645   8.451  16.470  1.00  0.00    -0.000 C 
BRANCH  20  21
ATOM     21  C   UNL     1      -2.752   9.815  17.156  1.00  0.00    -0.003 C 
ATOM     22  C   UNL     1      -1.402  10.281  17.676  1.00  0.00     0.004 C 
ENDBRANCH  20  21
ENDBRANCH  19  20
ENDBRANCH  18  19
ENDBRANCH  17  18
ENDBRANCH  16  17
ENDBRANCH  12  16
ENDBRANCH   9  12
ENDBRANCH   6   9
ENDBRANCH   3   5
ENDBRANCH   2   3
BRANCH   2  23
ATOM     23  N   UNL     1      -3.131   4.406   8.554  1.00  0.00    -0.332 N 
ATOM     24  C   UNL     1      -3.408   5.719   7.992  1.00  0.00     0.147 C 
BRANCH  23  25
ATOM     25  C   UNL     1      -3.830   3.276   7.882  1.00  0.00     0.174 C 
BRANCH  25  26
ATOM     26  C   UNL     1      -4.200   3.586   6.413  1.00  0.00     0.038 C 
BRANCH  26  27
ATOM     27  C   UNL     1      -3.575   2.680   5.328  1.00  0.00    -0.015 C 
ATOM     28  C   UNL     1      -2.783   1.517   5.923  1.00  0.00     0.007 C 
ATOM     29  C   UNL     1      -4.587   2.173   4.303  1.00  0.00     0.007 C 
ENDBRANCH  26  27
ENDBRANCH  25  26
BRANCH  25  30
ATOM     30  C   UNL     1      -5.028   2.807   8.740  1.00  0.00     0.243 C 
ATOM     31  O   UNL     1      -5.749   3.603   9.339  1.00  0.00    -0.273 OA
ATOM     32  N   UNL     1      -5.227   1.452   8.790  1.00  0.00    -0.342 N 
ATOM     33  H   UNL     1      -4.676   0.868   8.155  1.00  0.00     0.164 HD
BRANCH  32  34
ATOM     34  C   UNL     1      -6.296   0.827   9.574  1.00  0.00     0.175 C 
BRANCH  34  35
ATOM     35  C   UNL     1      -7.444   0.348   8.672  1.00  0.00     0.070 C 
BRANCH  35  36
ATOM     36  C   UNL     1      -8.777   0.324   9.385  1.00  0.00    -0.045 A 
ATOM     37  C   UNL     1      -9.061   1.277  10.375  1.00  0.00     0.007 A 
ATOM     38  C   UNL     1      -9.733  -0.656   9.088  1.00  0.00     0.007 A 
ATOM     39  C   UNL     1     -10.282   1.254  11.048  1.00  0.00     0.046 A 
ATOM     40  C   UNL     1     -10.956  -0.680   9.762  1.00  0.00     0.046 A 
ATOM     41  C   UNL     1     -11.220   0.277  10.736  1.00  0.00     0.115 A 
BRANCH  41  42
ATOM     42  O   UNL     1     -12.400   0.288  11.419  1.00  0.00    -0.508 OA
ATOM     43  H   UNL     1     -12.849   1.132  11.239  1.00  0.00     0.293 HD
ENDBRANCH  41  42
ENDBRANCH  35  36
ENDBRANCH  34  35
BRANCH  34  44
ATOM     44  C   UNL     1      -5.678  -0.334  10.387  1.00  0.00     0.243 C 
ATOM     45  O   UNL     1      -5.867  -1.524  10.151  1.00  0.00    -0.273 OA
ATOM     46  N   UNL     1      -4.984   0.086  11.502  1.00  0.00    -0.341 N 
ATOM     47  H   UNL     1      -4.954   1.079  11.720  1.00  0.00     0.164 HD
BRANCH  46  48
ATOM     48  C   UNL     1      -4.369  -0.833  12.462  1.00  0.00     0.196 C 
BRANCH  48  49
ATOM     49  C   UNL     1      -2.840  -0.675  12.487  1.00  0.00     0.072 C 
BRANCH  49  50
ATOM     50  C   UNL     1      -2.197  -1.021  11.163  1.00  0.00    -0.045 A 
ATOM     51  C   UNL     1      -1.607  -0.012  10.388  1.00  0.00     0.007 A 
ATOM     52  C   UNL     1      -2.197  -2.337  10.684  1.00  0.00     0.007 A 
ATOM     53  C   UNL     1      -1.022  -0.317   9.159  1.00  0.00     0.046 A 
ATOM     54  C   UNL     1      -1.613  -2.642   9.452  1.00  0.00     0.046 A 
ATOM     55  C   UNL     1      -1.029  -1.629   8.700  1.00  0.00     0.115 A 
BRANCH  55  56
ATOM     56  O   UNL     1      -0.449  -1.884   7.493  1.00  0.00    -0.508 OA
ATOM     57  H   UNL     1      -0.474  -1.072   6.963  1.00  0.00     0.293 HD
ENDBRANCH  55  56
ENDBRANCH  49  50
ENDBRANCH  48  49
BRANCH  48  58
ATOM     58  C   UNL     1      -4.939  -0.552  13.859  1.00  0.00     0.326 C 
ATOM     59  O   UNL     1      -4.891   0.498  14.479  1.00  0.00    -0.250 OA
BRANCH  58  60
ATOM     60  O   UNL     1      -5.567  -1.620  14.412  1.00  0.00    -0.480 OA
ATOM     61  H   UNL     1      -6.478  -1.290  14.570  1.00  0.00     0.296 HD
ENDBRANCH  58  60
ENDBRANCH  48  58
ENDBRANCH  46  48
ENDBRANCH  34  44
ENDBRANCH  32  34
ENDBRANCH  25  30
ENDBRANCH  23  25
ENDBRANCH   2  23
TORSDOF 28
ENDMDL
MODEL 46
REMARK VINA RESULT:    -6.816      2.282      7.123
REMARK INTER + INTRA:         -22.367
REMARK INTER:                 -17.319
REMARK INTRA:                  -5.048
REMARK UNBOUND:                -5.391
REMARK SMILES CCCCCCC[C@H](N)[C@H](O)C(=O)N[C@H](C)C(=O)N(C)[C@H](CC(C)C)C(=O)N[C@@H](Cc1ccc(O)cc1)C(=O)N[C@@H](Cc1ccc(O)cc1)C(=O)O
REMARK SMILES IDX 18 1 17 2 15 3 16 4 14 5 12 6 13 7 10 9 11 10 8 12 9 13 7 16
REMARK SMILES IDX 6 17 5 18 4 19 3 20 2 21 1 22 19 23 20 24 21 25 22 26 23 27
REMARK SMILES IDX 24 28 25 29 26 30 27 31 28 32 29 34 30 35 31 36 32 37 37 38
REMARK SMILES IDX 33 39 36 40 34 41 35 42 38 44 39 45 40 46 41 48 42 49 43 50
REMARK SMILES IDX 44 51 49 52 45 53 48 54 46 55 47 56 50 58 51 59 52 60
REMARK H PARENT 14 8 11 11 9 14 9 15 28 33 35 43 40 47 47 57 52 61
ROOT
ATOM      1  O   UNL     1      -4.600  -0.887  12.739  1.00  0.00    -0.272 OA
ATOM      2  C   UNL     1      -3.745  -0.191  12.173  1.00  0.00     0.245 C 
ENDROOT
BRANCH   2   3
ATOM      3  C   UNL     1      -2.517  -0.894  11.542  1.00  0.00     0.168 C 
ATOM      4  C   UNL     1      -2.246  -2.229  12.226  1.00  0.00     0.041 C 
BRANCH   3   5
ATOM      5  N   UNL     1      -2.567  -1.027  10.094  1.00  0.00    -0.342 N 
ATOM      6  C   UNL     1      -1.892  -0.161   9.260  1.00  0.00     0.251 C 
ATOM      7  O   UNL     1      -1.243   0.798   9.662  1.00  0.00    -0.272 OA
ATOM      8  H   UNL     1      -3.102  -1.765   9.642  1.00  0.00     0.164 HD
BRANCH   6   9
ATOM      9  C   UNL     1      -1.971  -0.578   7.782  1.00  0.00     0.219 C 
BRANCH   9  10
ATOM     10  O   UNL     1      -1.442   0.418   6.898  1.00  0.00    -0.382 OA
ATOM     11  H   UNL     1      -0.471   0.276   6.946  1.00  0.00     0.211 HD
ENDBRANCH   9  10
BRANCH   9  12
ATOM     12  C   UNL     1      -1.326  -1.960   7.503  1.00  0.00     0.089 C 
BRANCH  12  13
ATOM     13  N   UNL     1      -0.298  -2.213   8.539  1.00  0.00    -0.325 NA
ATOM     14  H   UNL     1       0.593  -2.421   8.085  1.00  0.00     0.119 HD
ATOM     15  H   UNL     1      -0.544  -3.066   9.047  1.00  0.00     0.119 HD
ENDBRANCH  12  13
BRANCH  12  16
ATOM     16  C   UNL     1      -2.301  -3.159   7.418  1.00  0.00     0.022 C 
BRANCH  16  17
ATOM     17  C   UNL     1      -1.980  -4.316   6.461  1.00  0.00     0.002 C 
BRANCH  17  18
ATOM     18  C   UNL     1      -3.006  -4.538   5.352  1.00  0.00     0.000 C 
BRANCH  18  19
ATOM     19  C   UNL     1      -4.197  -3.571   5.399  1.00  0.00    -0.000 C 
BRANCH  19  20
ATOM     20  C   UNL     1      -5.091  -3.580   4.156  1.00  0.00    -0.000 C 
BRANCH  20  21
ATOM     21  C   UNL     1      -5.401  -4.992   3.651  1.00  0.00    -0.003 C 
ATOM     22  C   UNL     1      -6.155  -4.955   2.331  1.00  0.00     0.004 C 
ENDBRANCH  20  21
ENDBRANCH  19  20
ENDBRANCH  18  19
ENDBRANCH  17  18
ENDBRANCH  16  17
ENDBRANCH  12  16
ENDBRANCH   9  12
ENDBRANCH   6   9
ENDBRANCH   3   5
ENDBRANCH   2   3
BRANCH   2  23
ATOM     23  N   UNL     1      -3.956   1.174  12.008  1.00  0.00    -0.332 N 
ATOM     24  C   UNL     1      -3.029   2.211  12.435  1.00  0.00     0.147 C 
BRANCH  23  25
ATOM     25  C   UNL     1      -5.134   1.664  11.241  1.00  0.00     0.174 C 
BRANCH  25  26
ATOM     26  C   UNL     1      -6.477   1.379  11.953  1.00  0.00     0.038 C 
BRANCH  26  27
ATOM     27  C   UNL     1      -7.766   1.611  11.133  1.00  0.00    -0.015 C 
ATOM     28  C   UNL     1      -8.947   0.795  11.659  1.00  0.00     0.007 C 
ATOM     29  C   UNL     1      -8.147   3.083  11.003  1.00  0.00     0.007 C 
ENDBRANCH  26  27
ENDBRANCH  25  26
BRANCH  25  30
ATOM     30  C   UNL     1      -5.077   1.139   9.787  1.00  0.00     0.243 C 
ATOM     31  O   UNL     1      -5.310  -0.037   9.511  1.00  0.00    -0.273 OA
ATOM     32  N   UNL     1      -4.747   2.068   8.834  1.00  0.00    -0.342 N 
ATOM     33  H   UNL     1      -4.708   3.049   9.122  1.00  0.00     0.164 HD
BRANCH  32  34
ATOM     34  C   UNL     1      -4.620   1.745   7.410  1.00  0.00     0.175 C 
BRANCH  34  35
ATOM     35  C   UNL     1      -5.954   1.938   6.672  1.00  0.00     0.070 C 
BRANCH  35  36
ATOM     36  C   UNL     1      -6.862   0.734   6.784  1.00  0.00    -0.045 A 
ATOM     37  C   UNL     1      -8.116   0.856   7.403  1.00  0.00     0.007 A 
ATOM     38  C   UNL     1      -6.463  -0.516   6.295  1.00  0.00     0.007 A 
ATOM     39  C   UNL     1      -8.955  -0.252   7.523  1.00  0.00     0.046 A 
ATOM     40  C   UNL     1      -7.302  -1.626   6.415  1.00  0.00     0.046 A 
ATOM     41  C   UNL     1      -8.543  -1.483   7.028  1.00  0.00     0.115 A 
BRANCH  41  42
ATOM     42  O   UNL     1      -9.392  -2.541   7.167  1.00  0.00    -0.508 OA
ATOM     43  H   UNL     1      -8.954  -3.212   7.716  1.00  0.00     0.293 HD
ENDBRANCH  41  42
ENDBRANCH  35  36
ENDBRANCH  34  35
BRANCH  34  44
ATOM     44  C   UNL     1      -3.499   2.628   6.817  1.00  0.00     0.243 C 
ATOM     45  O   UNL     1      -3.281   2.759   5.616  1.00  0.00    -0.273 OA
ATOM     46  N   UNL     1      -2.663   3.169   7.772  1.00  0.00    -0.341 N 
ATOM     47  H   UNL     1      -2.815   2.936   8.750  1.00  0.00     0.164 HD
BRANCH  46  48
ATOM     48  C   UNL     1      -1.491   3.984   7.447  1.00  0.00     0.196 C 
BRANCH  48  49
ATOM     49  C   UNL     1      -1.898   5.312   6.787  1.00  0.00     0.072 C 
BRANCH  49  50
ATOM     50  C   UNL     1      -0.926   5.751   5.715  1.00  0.00    -0.045 A 
ATOM     51  C   UNL     1      -1.105   6.984   5.071  1.00  0.00     0.007 A 
ATOM     52  C   UNL     1       0.145   4.932   5.334  1.00  0.00     0.007 A 
ATOM     53  C   UNL     1      -0.223   7.393   4.071  1.00  0.00     0.046 A 
ATOM     54  C   UNL     1       1.028   5.341   4.332  1.00  0.00     0.046 A 
ATOM     55  C   UNL     1       0.836   6.570   3.709  1.00  0.00     0.115 A 
BRANCH  55  56
ATOM     56  O   UNL     1       1.674   7.005   2.726  1.00  0.00    -0.508 OA
ATOM     57  H   UNL     1       2.155   6.240   2.373  1.00  0.00     0.293 HD
ENDBRANCH  55  56
ENDBRANCH  49  50
ENDBRANCH  48  49
BRANCH  48  58
ATOM     58  C   UNL     1      -0.708   4.269   8.737  1.00  0.00     0.326 C 
ATOM     59  O   UNL     1       0.350   4.868   8.843  1.00  0.00    -0.250 OA
BRANCH  58  60
ATOM     60  O   UNL     1      -1.313   3.791   9.854  1.00  0.00    -0.480 OA
ATOM     61  H   UNL     1      -1.811   4.567  10.191  1.00  0.00     0.296 HD
ENDBRANCH  58  60
ENDBRANCH  48  58
ENDBRANCH  46  48
ENDBRANCH  34  44
ENDBRANCH  32  34
ENDBRANCH  25  30
ENDBRANCH  23  25
ENDBRANCH   2  23
TORSDOF 28
ENDMDL
MODEL 47
REMARK VINA RESULT:    -6.815      4.428      8.856
REMARK INTER + INTRA:         -22.365
REMARK INTER:                 -18.261
REMARK INTRA:                  -4.104
REMARK UNBOUND:                -5.391
REMARK SMILES CCCCCCC[C@H](N)[C@H](O)C(=O)N[C@H](C)C(=O)N(C)[C@H](CC(C)C)C(=O)N[C@@H](Cc1ccc(O)cc1)C(=O)N[C@@H](Cc1ccc(O)cc1)C(=O)O
REMARK SMILES IDX 18 1 17 2 15 3 16 4 14 5 12 6 13 7 10 9 11 10 8 12 9 13 7 16
REMARK SMILES IDX 6 17 5 18 4 19 3 20 2 21 1 22 19 23 20 24 21 25 22 26 23 27
REMARK SMILES IDX 24 28 25 29 26 30 27 31 28 32 29 34 30 35 31 36 32 37 37 38
REMARK SMILES IDX 33 39 36 40 34 41 35 42 38 44 39 45 40 46 41 48 42 49 43 50
REMARK SMILES IDX 44 51 49 52 45 53 48 54 46 55 47 56 50 58 51 59 52 60
REMARK H PARENT 14 8 11 11 9 14 9 15 28 33 35 43 40 47 47 57 52 61
ROOT
ATOM      1  O   UNL     1      -5.041   4.218  11.306  1.00  0.00    -0.272 OA
ATOM      2  C   UNL     1      -5.909   3.551  10.724  1.00  0.00     0.245 C 
ENDROOT
BRANCH   2   3
ATOM      3  C   UNL     1      -7.395   3.946  10.908  1.00  0.00     0.168 C 
ATOM      4  C   UNL     1      -8.237   2.731  11.281  1.00  0.00     0.041 C 
BRANCH   3   5
ATOM      5  N   UNL     1      -7.623   5.063  11.812  1.00  0.00    -0.342 N 
ATOM      6  C   UNL     1      -8.055   6.291  11.358  1.00  0.00     0.251 C 
ATOM      7  O   UNL     1      -8.237   6.548  10.173  1.00  0.00    -0.272 OA
ATOM      8  H   UNL     1      -7.472   4.980  12.815  1.00  0.00     0.164 HD
BRANCH   6   9
ATOM      9  C   UNL     1      -8.364   7.272  12.501  1.00  0.00     0.219 C 
BRANCH   9  10
ATOM     10  O   UNL     1      -7.862   8.590  12.249  1.00  0.00    -0.382 OA
ATOM     11  H   UNL     1      -8.111   8.757  11.313  1.00  0.00     0.211 HD
ENDBRANCH   9  10
BRANCH   9  12
ATOM     12  C   UNL     1      -9.869   7.317  12.873  1.00  0.00     0.089 C 
BRANCH  12  13
ATOM     13  N   UNL     1     -10.647   7.583  11.642  1.00  0.00    -0.325 NA
ATOM     14  H   UNL     1     -10.238   8.380  11.151  1.00  0.00     0.119 HD
ATOM     15  H   UNL     1     -11.589   7.885  11.904  1.00  0.00     0.119 HD
ENDBRANCH  12  13
BRANCH  12  16
ATOM     16  C   UNL     1     -10.427   6.068  13.596  1.00  0.00     0.022 C 
BRANCH  16  17
ATOM     17  C   UNL     1      -9.694   5.531  14.833  1.00  0.00     0.002 C 
BRANCH  17  18
ATOM     18  C   UNL     1      -9.391   6.575  15.906  1.00  0.00     0.000 C 
BRANCH  18  19
ATOM     19  C   UNL     1      -9.374   6.016  17.335  1.00  0.00    -0.000 C 
BRANCH  19  20
ATOM     20  C   UNL     1      -9.480   4.492  17.438  1.00  0.00    -0.000 C 
BRANCH  20  21
ATOM     21  C   UNL     1      -9.635   3.998  18.879  1.00  0.00    -0.003 C 
ATOM     22  C   UNL     1      -9.663   5.157  19.863  1.00  0.00     0.004 C 
ENDBRANCH  20  21
ENDBRANCH  19  20
ENDBRANCH  18  19
ENDBRANCH  17  18
ENDBRANCH  16  17
ENDBRANCH  12  16
ENDBRANCH   9  12
ENDBRANCH   6   9
ENDBRANCH   3   5
ENDBRANCH   2   3
BRANCH   2  23
ATOM     23  N   UNL     1      -5.536   2.550   9.833  1.00  0.00    -0.332 N 
ATOM     24  C   UNL     1      -5.682   2.635   8.387  1.00  0.00     0.147 C 
BRANCH  23  25
ATOM     25  C   UNL     1      -4.821   1.339  10.320  1.00  0.00     0.174 C 
BRANCH  25  26
ATOM     26  C   UNL     1      -3.698   0.876   9.362  1.00  0.00     0.038 C 
BRANCH  26  27
ATOM     27  C   UNL     1      -2.853  -0.338   9.809  1.00  0.00    -0.015 C 
ATOM     28  C   UNL     1      -1.864  -0.788   8.734  1.00  0.00     0.007 C 
ATOM     29  C   UNL     1      -2.139  -0.125  11.141  1.00  0.00     0.007 C 
ENDBRANCH  26  27
ENDBRANCH  25  26
BRANCH  25  30
ATOM     30  C   UNL     1      -5.836   0.227  10.670  1.00  0.00     0.243 C 
ATOM     31  O   UNL     1      -6.016  -0.148  11.828  1.00  0.00    -0.273 OA
ATOM     32  N   UNL     1      -6.513  -0.315   9.608  1.00  0.00    -0.342 N 
ATOM     33  H   UNL     1      -6.413   0.144   8.699  1.00  0.00     0.164 HD
BRANCH  32  34
ATOM     34  C   UNL     1      -7.492  -1.396   9.748  1.00  0.00     0.175 C 
BRANCH  34  35
ATOM     35  C   UNL     1      -8.834  -1.023   9.100  1.00  0.00     0.070 C 
BRANCH  35  36
ATOM     36  C   UNL     1      -9.823  -0.453  10.091  1.00  0.00    -0.045 A 
ATOM     37  C   UNL     1     -10.764   0.502   9.675  1.00  0.00     0.007 A 
ATOM     38  C   UNL     1      -9.803  -0.848  11.435  1.00  0.00     0.007 A 
ATOM     39  C   UNL     1     -11.672   1.043  10.585  1.00  0.00     0.046 A 
ATOM     40  C   UNL     1     -10.711  -0.306  12.348  1.00  0.00     0.046 A 
ATOM     41  C   UNL     1     -11.639   0.635  11.913  1.00  0.00     0.115 A 
BRANCH  41  42
ATOM     42  O   UNL     1     -12.541   1.191  12.771  1.00  0.00    -0.508 OA
ATOM     43  H   UNL     1     -13.136   0.489  13.084  1.00  0.00     0.293 HD
ENDBRANCH  41  42
ENDBRANCH  35  36
ENDBRANCH  34  35
BRANCH  34  44
ATOM     44  C   UNL     1      -6.886  -2.674   9.125  1.00  0.00     0.243 C 
ATOM     45  O   UNL     1      -7.330  -3.806   9.294  1.00  0.00    -0.273 OA
ATOM     46  N   UNL     1      -5.703  -2.450   8.454  1.00  0.00    -0.341 N 
ATOM     47  H   UNL     1      -5.313  -1.510   8.441  1.00  0.00     0.164 HD
BRANCH  46  48
ATOM     48  C   UNL     1      -4.910  -3.517   7.839  1.00  0.00     0.196 C 
BRANCH  48  49
ATOM     49  C   UNL     1      -4.235  -3.037   6.543  1.00  0.00     0.072 C 
BRANCH  49  50
ATOM     50  C   UNL     1      -4.892  -3.601   5.303  1.00  0.00    -0.045 A 
ATOM     51  C   UNL     1      -4.376  -4.760   4.704  1.00  0.00     0.007 A 
ATOM     52  C   UNL     1      -6.000  -2.970   4.724  1.00  0.00     0.007 A 
ATOM     53  C   UNL     1      -4.965  -5.281   3.552  1.00  0.00     0.046 A 
ATOM     54  C   UNL     1      -6.590  -3.491   3.570  1.00  0.00     0.046 A 
ATOM     55  C   UNL     1      -6.067  -4.644   2.995  1.00  0.00     0.115 A 
BRANCH  55  56
ATOM     56  O   UNL     1      -6.612  -5.185   1.868  1.00  0.00    -0.508 OA
ATOM     57  H   UNL     1      -6.043  -4.960   1.114  1.00  0.00     0.293 HD
ENDBRANCH  55  56
ENDBRANCH  49  50
ENDBRANCH  48  49
BRANCH  48  58
ATOM     58  C   UNL     1      -3.839  -3.980   8.836  1.00  0.00     0.326 C 
ATOM     59  O   UNL     1      -3.781  -3.730  10.029  1.00  0.00    -0.250 OA
BRANCH  58  60
ATOM     60  O   UNL     1      -2.881  -4.763   8.277  1.00  0.00    -0.480 OA
ATOM     61  H   UNL     1      -3.389  -5.336   7.662  1.00  0.00     0.296 HD
ENDBRANCH  58  60
ENDBRANCH  48  58
ENDBRANCH  46  48
ENDBRANCH  34  44
ENDBRANCH  32  34
ENDBRANCH  25  30
ENDBRANCH  23  25
ENDBRANCH   2  23
TORSDOF 28
ENDMDL
MODEL 48
REMARK VINA RESULT:    -6.793      3.293      8.473
REMARK INTER + INTRA:         -22.311
REMARK INTER:                 -15.920
REMARK INTRA:                  -6.391
REMARK UNBOUND:                -5.391
REMARK SMILES CCCCCCC[C@H](N)[C@H](O)C(=O)N[C@H](C)C(=O)N(C)[C@H](CC(C)C)C(=O)N[C@@H](Cc1ccc(O)cc1)C(=O)N[C@@H](Cc1ccc(O)cc1)C(=O)O
REMARK SMILES IDX 18 1 17 2 15 3 16 4 14 5 12 6 13 7 10 9 11 10 8 12 9 13 7 16
REMARK SMILES IDX 6 17 5 18 4 19 3 20 2 21 1 22 19 23 20 24 21 25 22 26 23 27
REMARK SMILES IDX 24 28 25 29 26 30 27 31 28 32 29 34 30 35 31 36 32 37 37 38
REMARK SMILES IDX 33 39 36 40 34 41 35 42 38 44 39 45 40 46 41 48 42 49 43 50
REMARK SMILES IDX 44 51 49 52 45 53 48 54 46 55 47 56 50 58 51 59 52 60
REMARK H PARENT 14 8 11 11 9 14 9 15 28 33 35 43 40 47 47 57 52 61
ROOT
ATOM      1  O   UNL     1      -9.184   2.802  11.153  1.00  0.00    -0.272 OA
ATOM      2  C   UNL     1      -9.165   1.688  11.696  1.00  0.00     0.245 C 
ENDROOT
BRANCH   2   3
ATOM      3  C   UNL     1      -9.864   0.504  10.983  1.00  0.00     0.168 C 
ATOM      4  C   UNL     1     -11.109   0.977  10.241  1.00  0.00     0.041 C 
BRANCH   3   5
ATOM      5  N   UNL     1      -8.996  -0.296  10.132  1.00  0.00    -0.342 N 
ATOM      6  C   UNL     1      -9.157  -1.659  10.005  1.00  0.00     0.251 C 
ATOM      7  O   UNL     1     -10.002  -2.301  10.619  1.00  0.00    -0.272 OA
ATOM      8  H   UNL     1      -8.236   0.121   9.599  1.00  0.00     0.164 HD
BRANCH   6   9
ATOM      9  C   UNL     1      -8.223  -2.271   8.948  1.00  0.00     0.219 C 
BRANCH   9  10
ATOM     10  O   UNL     1      -7.978  -3.665   9.168  1.00  0.00    -0.382 OA
ATOM     11  H   UNL     1      -8.257  -3.804  10.100  1.00  0.00     0.211 HD
ENDBRANCH   9  10
BRANCH   9  12
ATOM     12  C   UNL     1      -8.701  -2.019   7.494  1.00  0.00     0.089 C 
BRANCH  12  13
ATOM     13  N   UNL     1     -10.042  -1.394   7.545  1.00  0.00    -0.325 NA
ATOM     14  H   UNL     1     -10.754  -2.110   7.387  1.00  0.00     0.119 HD
ATOM     15  H   UNL     1     -10.136  -0.747   6.758  1.00  0.00     0.119 HD
ENDBRANCH  12  13
BRANCH  12  16
ATOM     16  C   UNL     1      -7.755  -1.177   6.605  1.00  0.00     0.022 C 
BRANCH  16  17
ATOM     17  C   UNL     1      -6.446  -1.803   6.106  1.00  0.00     0.002 C 
BRANCH  17  18
ATOM     18  C   UNL     1      -5.301  -0.816   5.889  1.00  0.00     0.000 C 
BRANCH  18  19
ATOM     19  C   UNL     1      -4.005  -1.193   6.619  1.00  0.00    -0.000 C 
BRANCH  19  20
ATOM     20  C   UNL     1      -3.608  -0.258   7.765  1.00  0.00    -0.000 C 
BRANCH  20  21
ATOM     21  C   UNL     1      -4.018  -0.789   9.141  1.00  0.00    -0.003 C 
ATOM     22  C   UNL     1      -3.006  -0.403  10.209  1.00  0.00     0.004 C 
ENDBRANCH  20  21
ENDBRANCH  19  20
ENDBRANCH  18  19
ENDBRANCH  17  18
ENDBRANCH  16  17
ENDBRANCH  12  16
ENDBRANCH   9  12
ENDBRANCH   6   9
ENDBRANCH   3   5
ENDBRANCH   2   3
BRANCH   2  23
ATOM     23  N   UNL     1      -8.424   1.493  12.857  1.00  0.00    -0.332 N 
ATOM     24  C   UNL     1      -8.987   1.445  14.198  1.00  0.00     0.147 C 
BRANCH  23  25
ATOM     25  C   UNL     1      -6.969   1.186  12.777  1.00  0.00     0.174 C 
BRANCH  25  26
ATOM     26  C   UNL     1      -6.459   0.370  13.987  1.00  0.00     0.038 C 
BRANCH  26  27
ATOM     27  C   UNL     1      -5.645  -0.907  13.678  1.00  0.00    -0.015 C 
ATOM     28  C   UNL     1      -6.031  -1.536  12.339  1.00  0.00     0.007 C 
ATOM     29  C   UNL     1      -4.135  -0.699  13.759  1.00  0.00     0.007 C 
ENDBRANCH  26  27
ENDBRANCH  25  26
BRANCH  25  30
ATOM     30  C   UNL     1      -6.165   2.480  12.516  1.00  0.00     0.243 C 
ATOM     31  O   UNL     1      -6.396   3.523  13.127  1.00  0.00    -0.273 OA
ATOM     32  N   UNL     1      -5.188   2.389  11.559  1.00  0.00    -0.342 N 
ATOM     33  H   UNL     1      -4.962   1.458  11.199  1.00  0.00     0.164 HD
BRANCH  32  34
ATOM     34  C   UNL     1      -4.346   3.521  11.162  1.00  0.00     0.175 C 
BRANCH  34  35
ATOM     35  C   UNL     1      -2.864   3.121  11.101  1.00  0.00     0.070 C 
BRANCH  35  36
ATOM     36  C   UNL     1      -1.960   4.277  10.736  1.00  0.00    -0.045 A 
ATOM     37  C   UNL     1      -2.292   5.580  11.137  1.00  0.00     0.007 A 
ATOM     38  C   UNL     1      -0.799   4.072   9.979  1.00  0.00     0.007 A 
ATOM     39  C   UNL     1      -1.472   6.656  10.793  1.00  0.00     0.046 A 
ATOM     40  C   UNL     1       0.021   5.148   9.634  1.00  0.00     0.046 A 
ATOM     41  C   UNL     1      -0.323   6.431  10.045  1.00  0.00     0.115 A 
BRANCH  41  42
ATOM     42  O   UNL     1       0.450   7.509   9.728  1.00  0.00    -0.508 OA
ATOM     43  H   UNL     1       1.382   7.237   9.764  1.00  0.00     0.293 HD
ENDBRANCH  41  42
ENDBRANCH  35  36
ENDBRANCH  34  35
BRANCH  34  44
ATOM     44  C   UNL     1      -4.859   4.045   9.802  1.00  0.00     0.243 C 
ATOM     45  O   UNL     1      -5.454   5.107   9.647  1.00  0.00    -0.273 OA
ATOM     46  N   UNL     1      -4.704   3.141   8.772  1.00  0.00    -0.341 N 
ATOM     47  H   UNL     1      -4.311   2.225   8.973  1.00  0.00     0.164 HD
BRANCH  46  48
ATOM     48  C   UNL     1      -5.175   3.386   7.407  1.00  0.00     0.196 C 
BRANCH  48  49
ATOM     49  C   UNL     1      -4.081   3.075   6.372  1.00  0.00     0.072 C 
BRANCH  49  50
ATOM     50  C   UNL     1      -2.990   4.121   6.347  1.00  0.00    -0.045 A 
ATOM     51  C   UNL     1      -1.672   3.748   6.043  1.00  0.00     0.007 A 
ATOM     52  C   UNL     1      -3.269   5.461   6.644  1.00  0.00     0.007 A 
ATOM     53  C   UNL     1      -0.654   4.702   6.030  1.00  0.00     0.046 A 
ATOM     54  C   UNL     1      -2.249   6.416   6.631  1.00  0.00     0.046 A 
ATOM     55  C   UNL     1      -0.950   6.028   6.323  1.00  0.00     0.115 A 
BRANCH  55  56
ATOM     56  O   UNL     1       0.073   6.929   6.301  1.00  0.00    -0.508 OA
ATOM     57  H   UNL     1      -0.028   7.525   7.060  1.00  0.00     0.293 HD
ENDBRANCH  55  56
ENDBRANCH  49  50
ENDBRANCH  48  49
BRANCH  48  58
ATOM     58  C   UNL     1      -6.404   2.507   7.137  1.00  0.00     0.326 C 
ATOM     59  O   UNL     1      -7.074   1.901   7.958  1.00  0.00    -0.250 OA
BRANCH  58  60
ATOM     60  O   UNL     1      -6.746   2.442   5.826  1.00  0.00    -0.480 OA
ATOM     61  H   UNL     1      -6.928   1.487   5.686  1.00  0.00     0.296 HD
ENDBRANCH  58  60
ENDBRANCH  48  58
ENDBRANCH  46  48
ENDBRANCH  34  44
ENDBRANCH  32  34
ENDBRANCH  25  30
ENDBRANCH  23  25
ENDBRANCH   2  23
TORSDOF 28
ENDMDL
MODEL 49
REMARK VINA RESULT:    -6.785      2.800      8.331
REMARK INTER + INTRA:         -22.291
REMARK INTER:                 -16.335
REMARK INTRA:                  -5.957
REMARK UNBOUND:                -5.391
REMARK SMILES CCCCCCC[C@H](N)[C@H](O)C(=O)N[C@H](C)C(=O)N(C)[C@H](CC(C)C)C(=O)N[C@@H](Cc1ccc(O)cc1)C(=O)N[C@@H](Cc1ccc(O)cc1)C(=O)O
REMARK SMILES IDX 18 1 17 2 15 3 16 4 14 5 12 6 13 7 10 9 11 10 8 12 9 13 7 16
REMARK SMILES IDX 6 17 5 18 4 19 3 20 2 21 1 22 19 23 20 24 21 25 22 26 23 27
REMARK SMILES IDX 24 28 25 29 26 30 27 31 28 32 29 34 30 35 31 36 32 37 37 38
REMARK SMILES IDX 33 39 36 40 34 41 35 42 38 44 39 45 40 46 41 48 42 49 43 50
REMARK SMILES IDX 44 51 49 52 45 53 48 54 46 55 47 56 50 58 51 59 52 60
REMARK H PARENT 14 8 11 11 9 14 9 15 28 33 35 43 40 47 47 57 52 61
ROOT
ATOM      1  O   UNL     1      -3.636   2.426  13.261  1.00  0.00    -0.272 OA
ATOM      2  C   UNL     1      -4.615   1.665  13.271  1.00  0.00     0.245 C 
ENDROOT
BRANCH   2   3
ATOM      3  C   UNL     1      -4.396   0.181  13.656  1.00  0.00     0.168 C 
ATOM      4  C   UNL     1      -5.604  -0.368  14.406  1.00  0.00     0.041 C 
BRANCH   3   5
ATOM      5  N   UNL     1      -4.004  -0.685  12.554  1.00  0.00    -0.342 N 
ATOM      6  C   UNL     1      -2.904  -1.513  12.635  1.00  0.00     0.251 C 
ATOM      7  O   UNL     1      -2.159  -1.554  13.608  1.00  0.00    -0.272 OA
ATOM      8  H   UNL     1      -4.525  -0.712  11.681  1.00  0.00     0.164 HD
BRANCH   6   9
ATOM      9  C   UNL     1      -2.764  -2.437  11.415  1.00  0.00     0.219 C 
BRANCH   9  10
ATOM     10  O   UNL     1      -2.497  -3.796  11.779  1.00  0.00    -0.382 OA
ATOM     11  H   UNL     1      -2.612  -3.801  12.754  1.00  0.00     0.211 HD
ENDBRANCH   9  10
BRANCH   9  12
ATOM     12  C   UNL     1      -3.973  -2.354  10.447  1.00  0.00     0.089 C 
BRANCH  12  13
ATOM     13  N   UNL     1      -3.870  -1.093   9.676  1.00  0.00    -0.325 NA
ATOM     14  H   UNL     1      -3.387  -0.392  10.242  1.00  0.00     0.119 HD
ATOM     15  H   UNL     1      -4.809  -0.717   9.529  1.00  0.00     0.119 HD
ENDBRANCH  12  13
BRANCH  12  16
ATOM     16  C   UNL     1      -4.155  -3.552   9.484  1.00  0.00     0.022 C 
BRANCH  16  17
ATOM     17  C   UNL     1      -3.397  -3.559   8.149  1.00  0.00     0.002 C 
BRANCH  17  18
ATOM     18  C   UNL     1      -4.248  -3.897   6.927  1.00  0.00     0.000 C 
BRANCH  18  19
ATOM     19  C   UNL     1      -3.453  -3.981   5.617  1.00  0.00    -0.000 C 
BRANCH  19  20
ATOM     20  C   UNL     1      -4.248  -4.476   4.405  1.00  0.00    -0.000 C 
BRANCH  20  21
ATOM     21  C   UNL     1      -5.710  -4.022   4.421  1.00  0.00    -0.003 C 
ATOM     22  C   UNL     1      -5.837  -2.552   4.055  1.00  0.00     0.004 C 
ENDBRANCH  20  21
ENDBRANCH  19  20
ENDBRANCH  18  19
ENDBRANCH  17  18
ENDBRANCH  16  17
ENDBRANCH  12  16
ENDBRANCH   9  12
ENDBRANCH   6   9
ENDBRANCH   3   5
ENDBRANCH   2   3
BRANCH   2  23
ATOM     23  N   UNL     1      -5.892   2.173  13.060  1.00  0.00    -0.332 N 
ATOM     24  C   UNL     1      -6.703   2.820  14.081  1.00  0.00     0.147 C 
BRANCH  23  25
ATOM     25  C   UNL     1      -6.474   2.196  11.690  1.00  0.00     0.174 C 
BRANCH  25  26
ATOM     26  C   UNL     1      -6.969   0.807  11.222  1.00  0.00     0.038 C 
BRANCH  26  27
ATOM     27  C   UNL     1      -8.489   0.543  11.298  1.00  0.00    -0.015 C 
ATOM     28  C   UNL     1      -8.846  -0.527  12.329  1.00  0.00     0.007 C 
ATOM     29  C   UNL     1      -9.314   1.807  11.528  1.00  0.00     0.007 C 
ENDBRANCH  26  27
ENDBRANCH  25  26
BRANCH  25  30
ATOM     30  C   UNL     1      -5.491   2.869  10.705  1.00  0.00     0.243 C 
ATOM     31  O   UNL     1      -5.590   4.056  10.397  1.00  0.00    -0.273 OA
ATOM     32  N   UNL     1      -4.511   2.056  10.196  1.00  0.00    -0.342 N 
ATOM     33  H   UNL     1      -4.408   1.124  10.606  1.00  0.00     0.164 HD
BRANCH  32  34
ATOM     34  C   UNL     1      -3.509   2.516   9.230  1.00  0.00     0.175 C 
BRANCH  34  35
ATOM     35  C   UNL     1      -2.094   2.468   9.827  1.00  0.00     0.070 C 
BRANCH  35  36
ATOM     36  C   UNL     1      -1.390   3.805   9.771  1.00  0.00    -0.045 A 
ATOM     37  C   UNL     1      -1.544   4.724  10.820  1.00  0.00     0.007 A 
ATOM     38  C   UNL     1      -0.598   4.155   8.669  1.00  0.00     0.007 A 
ATOM     39  C   UNL     1      -0.910   5.965  10.771  1.00  0.00     0.046 A 
ATOM     40  C   UNL     1       0.036   5.398   8.619  1.00  0.00     0.046 A 
ATOM     41  C   UNL     1      -0.125   6.292   9.672  1.00  0.00     0.115 A 
BRANCH  41  42
ATOM     42  O   UNL     1       0.475   7.517   9.662  1.00  0.00    -0.508 OA
ATOM     43  H   UNL     1       0.564   7.805   8.738  1.00  0.00     0.293 HD
ENDBRANCH  41  42
ENDBRANCH  35  36
ENDBRANCH  34  35
BRANCH  34  44
ATOM     44  C   UNL     1      -3.631   1.641   7.962  1.00  0.00     0.243 C 
ATOM     45  O   UNL     1      -2.718   0.967   7.494  1.00  0.00    -0.273 OA
ATOM     46  N   UNL     1      -4.838   1.784   7.311  1.00  0.00    -0.341 N 
ATOM     47  H   UNL     1      -5.521   2.444   7.675  1.00  0.00     0.164 HD
BRANCH  46  48
ATOM     48  C   UNL     1      -5.160   1.108   6.052  1.00  0.00     0.196 C 
BRANCH  48  49
ATOM     49  C   UNL     1      -6.680   1.024   5.834  1.00  0.00     0.072 C 
BRANCH  49  50
ATOM     50  C   UNL     1      -7.351   0.058   6.784  1.00  0.00    -0.045 A 
ATOM     51  C   UNL     1      -6.624  -1.016   7.317  1.00  0.00     0.007 A 
ATOM     52  C   UNL     1      -8.701   0.206   7.127  1.00  0.00     0.007 A 
ATOM     53  C   UNL     1      -7.237  -1.921   8.185  1.00  0.00     0.046 A 
ATOM     54  C   UNL     1      -9.314  -0.701   7.994  1.00  0.00     0.046 A 
ATOM     55  C   UNL     1      -8.576  -1.757   8.517  1.00  0.00     0.115 A 
BRANCH  55  56
ATOM     56  O   UNL     1      -9.137  -2.664   9.366  1.00  0.00    -0.508 OA
ATOM     57  H   UNL     1      -9.256  -3.499   8.886  1.00  0.00     0.293 HD
ENDBRANCH  55  56
ENDBRANCH  49  50
ENDBRANCH  48  49
BRANCH  48  58
ATOM     58  C   UNL     1      -4.515   1.881   4.893  1.00  0.00     0.326 C 
ATOM     59  O   UNL     1      -5.038   2.732   4.191  1.00  0.00    -0.250 OA
BRANCH  58  60
ATOM     60  O   UNL     1      -3.217   1.551   4.678  1.00  0.00    -0.480 OA
ATOM     61  H   UNL     1      -3.189   1.358   3.716  1.00  0.00     0.296 HD
ENDBRANCH  58  60
ENDBRANCH  48  58
ENDBRANCH  46  48
ENDBRANCH  34  44
ENDBRANCH  32  34
ENDBRANCH  25  30
ENDBRANCH  23  25
ENDBRANCH   2  23
TORSDOF 28
ENDMDL
MODEL 50
REMARK VINA RESULT:    -6.760      2.791      7.373
REMARK INTER + INTRA:         -22.228
REMARK INTER:                 -16.906
REMARK INTRA:                  -5.321
REMARK UNBOUND:                -5.391
REMARK SMILES CCCCCCC[C@H](N)[C@H](O)C(=O)N[C@H](C)C(=O)N(C)[C@H](CC(C)C)C(=O)N[C@@H](Cc1ccc(O)cc1)C(=O)N[C@@H](Cc1ccc(O)cc1)C(=O)O
REMARK SMILES IDX 18 1 17 2 15 3 16 4 14 5 12 6 13 7 10 9 11 10 8 12 9 13 7 16
REMARK SMILES IDX 6 17 5 18 4 19 3 20 2 21 1 22 19 23 20 24 21 25 22 26 23 27
REMARK SMILES IDX 24 28 25 29 26 30 27 31 28 32 29 34 30 35 31 36 32 37 37 38
REMARK SMILES IDX 33 39 36 40 34 41 35 42 38 44 39 45 40 46 41 48 42 49 43 50
REMARK SMILES IDX 44 51 49 52 45 53 48 54 46 55 47 56 50 58 51 59 52 60
REMARK H PARENT 14 8 11 11 9 14 9 15 28 33 35 43 40 47 47 57 52 61
ROOT
ATOM      1  O   UNL     1      -4.484   3.043  14.053  1.00  0.00    -0.272 OA
ATOM      2  C   UNL     1      -4.637   2.153  13.203  1.00  0.00     0.245 C 
ENDROOT
BRANCH   2   3
ATOM      3  C   UNL     1      -5.937   1.311  13.237  1.00  0.00     0.168 C 
ATOM      4  C   UNL     1      -7.096   2.079  12.610  1.00  0.00     0.041 C 
BRANCH   3   5
ATOM      5  N   UNL     1      -5.812  -0.029  12.685  1.00  0.00    -0.342 N 
ATOM      6  C   UNL     1      -6.739  -1.015  12.949  1.00  0.00     0.251 C 
ATOM      7  O   UNL     1      -7.703  -0.855  13.691  1.00  0.00    -0.272 OA
ATOM      8  H   UNL     1      -5.035  -0.290  12.083  1.00  0.00     0.164 HD
BRANCH   6   9
ATOM      9  C   UNL     1      -6.483  -2.301  12.149  1.00  0.00     0.219 C 
BRANCH   9  10
ATOM     10  O   UNL     1      -6.707  -3.487  12.922  1.00  0.00    -0.382 OA
ATOM     11  H   UNL     1      -6.010  -3.447  13.613  1.00  0.00     0.211 HD
ENDBRANCH   9  10
BRANCH   9  12
ATOM     12  C   UNL     1      -7.273  -2.356  10.815  1.00  0.00     0.089 C 
BRANCH  12  13
ATOM     13  N   UNL     1      -7.486  -0.970  10.341  1.00  0.00    -0.325 NA
ATOM     14  H   UNL     1      -6.823  -0.349  10.809  1.00  0.00     0.119 HD
ATOM     15  H   UNL     1      -8.409  -0.654  10.647  1.00  0.00     0.119 HD
ENDBRANCH  12  13
BRANCH  12  16
ATOM     16  C   UNL     1      -6.644  -3.212   9.689  1.00  0.00     0.022 C 
BRANCH  16  17
ATOM     17  C   UNL     1      -5.130  -3.460   9.697  1.00  0.00     0.002 C 
BRANCH  17  18
ATOM     18  C   UNL     1      -4.276  -2.243   9.348  1.00  0.00     0.000 C 
BRANCH  18  19
ATOM     19  C   UNL     1      -2.909  -2.218  10.045  1.00  0.00    -0.000 C 
BRANCH  19  20
ATOM     20  C   UNL     1      -1.703  -2.396   9.118  1.00  0.00    -0.000 C 
BRANCH  20  21
ATOM     21  C   UNL     1      -1.890  -1.724   7.755  1.00  0.00    -0.003 C 
ATOM     22  C   UNL     1      -1.708  -2.717   6.618  1.00  0.00     0.004 C 
ENDBRANCH  20  21
ENDBRANCH  19  20
ENDBRANCH  18  19
ENDBRANCH  17  18
ENDBRANCH  16  17
ENDBRANCH  12  16
ENDBRANCH   9  12
ENDBRANCH   6   9
ENDBRANCH   3   5
ENDBRANCH   2   3
BRANCH   2  23
ATOM     23  N   UNL     1      -3.712   2.007  12.175  1.00  0.00    -0.332 N 
ATOM     24  C   UNL     1      -2.636   1.026  12.165  1.00  0.00     0.147 C 
BRANCH  23  25
ATOM     25  C   UNL     1      -3.854   2.795  10.920  1.00  0.00     0.174 C 
BRANCH  25  26
ATOM     26  C   UNL     1      -4.727   4.059  11.098  1.00  0.00     0.038 C 
BRANCH  26  27
ATOM     27  C   UNL     1      -5.586   4.492   9.889  1.00  0.00    -0.015 C 
ATOM     28  C   UNL     1      -7.008   4.883  10.293  1.00  0.00     0.007 C 
ATOM     29  C   UNL     1      -4.944   5.594   9.051  1.00  0.00     0.007 C 
ENDBRANCH  26  27
ENDBRANCH  25  26
BRANCH  25  30
ATOM     30  C   UNL     1      -4.318   1.877   9.765  1.00  0.00     0.243 C 
ATOM     31  O   UNL     1      -5.137   0.976   9.940  1.00  0.00    -0.273 OA
ATOM     32  N   UNL     1      -3.752   2.130   8.542  1.00  0.00    -0.342 N 
ATOM     33  H   UNL     1      -3.191   2.981   8.447  1.00  0.00     0.164 HD
BRANCH  32  34
ATOM     34  C   UNL     1      -4.052   1.345   7.342  1.00  0.00     0.175 C 
BRANCH  34  35
ATOM     35  C   UNL     1      -5.403   1.750   6.732  1.00  0.00     0.070 C 
BRANCH  35  36
ATOM     36  C   UNL     1      -6.411   0.623   6.744  1.00  0.00    -0.045 A 
ATOM     37  C   UNL     1      -7.744   0.878   7.100  1.00  0.00     0.007 A 
ATOM     38  C   UNL     1      -6.029  -0.686   6.424  1.00  0.00     0.007 A 
ATOM     39  C   UNL     1      -8.678  -0.158   7.126  1.00  0.00     0.046 A 
ATOM     40  C   UNL     1      -6.964  -1.724   6.452  1.00  0.00     0.046 A 
ATOM     41  C   UNL     1      -8.281  -1.450   6.802  1.00  0.00     0.115 A 
BRANCH  41  42
ATOM     42  O   UNL     1      -9.225  -2.433   6.843  1.00  0.00    -0.508 OA
ATOM     43  H   UNL     1      -9.962  -2.172   6.267  1.00  0.00     0.293 HD
ENDBRANCH  41  42
ENDBRANCH  35  36
ENDBRANCH  34  35
BRANCH  34  44
ATOM     44  C   UNL     1      -2.888   1.533   6.343  1.00  0.00     0.243 C 
ATOM     45  O   UNL     1      -2.835   1.012   5.233  1.00  0.00    -0.273 OA
ATOM     46  N   UNL     1      -1.829   2.248   6.863  1.00  0.00    -0.341 N 
ATOM     47  H   UNL     1      -1.871   2.560   7.830  1.00  0.00     0.164 HD
BRANCH  46  48
ATOM     48  C   UNL     1      -0.587   2.496   6.128  1.00  0.00     0.196 C 
BRANCH  48  49
ATOM     49  C   UNL     1       0.146   3.735   6.670  1.00  0.00     0.072 C 
BRANCH  49  50
ATOM     50  C   UNL     1       0.462   4.744   5.588  1.00  0.00    -0.045 A 
ATOM     51  C   UNL     1      -0.063   6.042   5.668  1.00  0.00     0.007 A 
ATOM     52  C   UNL     1       1.257   4.396   4.489  1.00  0.00     0.007 A 
ATOM     53  C   UNL     1       0.210   6.977   4.670  1.00  0.00     0.046 A 
ATOM     54  C   UNL     1       1.530   5.332   3.489  1.00  0.00     0.046 A 
ATOM     55  C   UNL     1       1.005   6.615   3.588  1.00  0.00     0.115 A 
BRANCH  55  56
ATOM     56  O   UNL     1       1.246   7.558   2.633  1.00  0.00    -0.508 OA
ATOM     57  H   UNL     1       1.053   8.431   3.009  1.00  0.00     0.293 HD
ENDBRANCH  55  56
ENDBRANCH  49  50
ENDBRANCH  48  49
BRANCH  48  58
ATOM     58  C   UNL     1       0.322   1.266   6.253  1.00  0.00     0.326 C 
ATOM     59  O   UNL     1       0.528   0.597   7.253  1.00  0.00    -0.250 OA
BRANCH  58  60
ATOM     60  O   UNL     1       0.928   0.920   5.090  1.00  0.00    -0.480 OA
ATOM     61  H   UNL     1       1.410   0.097   5.322  1.00  0.00     0.296 HD
ENDBRANCH  58  60
ENDBRANCH  48  58
ENDBRANCH  46  48
ENDBRANCH  34  44
ENDBRANCH  32  34
ENDBRANCH  25  30
ENDBRANCH  23  25
ENDBRANCH   2  23
TORSDOF 28
ENDMDL
