MODEL 1
REMARK VINA RESULT:    -5.618      0.000      0.000
REMARK INTER + INTRA:         -12.301
REMARK INTER:                 -11.366
REMARK INTRA:                  -0.935
REMARK UNBOUND:                -0.935
REMARK SMILES CC[C@@H](C)[C@@H](NC(=O)[C@@H](O)Cc1ccc(O)c(Cl)c1)C(=O)N1[C@H](C(=O)NCCCCN=C(N)N)C[C@H]2CC[C@H](OS(=O)(=O)O)C[C@@H]21
REMARK SMILES IDX 22 1 36 2 46 3 35 4 23 5 45 6 37 7 39 8 38 9 20 10 21 11
REMARK SMILES IDX 5 12 6 13 7 14 8 15 9 17 11 18 12 19 17 20 19 21 15 22 14 23
REMARK SMILES IDX 13 24 18 25 16 26 10 28 3 30 4 31 2 32 1 33 24 34 25 35
REMARK SMILES IDX 26 36 27 38 28 39 29 40 30 41 31 42 32 43 33 44 34 45 40 50
REMARK SMILES IDX 41 51 42 52 43 53 44 54
REMARK H PARENT 6 16 16 27 10 29 26 37 33 46 33 47 34 48 34 49 44 55
ROOT
ATOM      1  N   UNL     1      11.124   9.665  -5.243  1.00  0.00    -0.326 N 
ATOM      2  C   UNL     1      13.279  10.110  -4.406  1.00  0.00     0.014 C 
ATOM      3  C   UNL     1      11.801  10.457  -4.211  1.00  0.00     0.091 C 
ATOM      4  C   UNL     1      13.385   9.927  -5.912  1.00  0.00     0.041 C 
ATOM      5  C   UNL     1      12.123   9.084  -6.173  1.00  0.00     0.175 C 
ATOM      6  C   UNL     1      11.434  10.207  -2.750  1.00  0.00     0.059 C 
ATOM      7  C   UNL     1      14.170  11.124  -3.716  1.00  0.00     0.008 C 
ATOM      8  C   UNL     1      12.599  10.453  -1.766  1.00  0.00     0.143 C 
ATOM      9  C   UNL     1      13.617  11.471  -2.317  1.00  0.00     0.034 C 
ENDROOT
BRANCH   1  10
ATOM     10  C   UNL     1       9.779   9.586  -5.561  1.00  0.00     0.246 C 
ATOM     11  O   UNL     1       9.194  10.600  -5.956  1.00  0.00    -0.272 OA
BRANCH  10  12
ATOM     12  C   UNL     1       9.046   8.217  -5.456  1.00  0.00     0.174 C 
BRANCH  12  13
ATOM     13  N   UNL     1       8.310   7.950  -6.691  1.00  0.00    -0.342 N 
ATOM     14  C   UNL     1       7.344   6.980  -6.842  1.00  0.00     0.249 C 
ATOM     15  O   UNL     1       6.970   6.244  -5.937  1.00  0.00    -0.272 OA
ATOM     16  H   UNL     1       8.619   8.372  -7.563  1.00  0.00     0.164 HD
BRANCH  14  17
ATOM     17  C   UNL     1       6.764   6.934  -8.271  1.00  0.00     0.207 C 
BRANCH  17  18
ATOM     18  C   UNL     1       6.538   5.484  -8.711  1.00  0.00     0.077 C 
BRANCH  18  19
ATOM     19  C   UNL     1       5.089   5.220  -9.055  1.00  0.00    -0.043 A 
ATOM     20  C   UNL     1       3.112   3.824  -8.899  1.00  0.00     0.083 A 
ATOM     21  C   UNL     1       4.434   4.091  -8.540  1.00  0.00     0.028 A 
ATOM     22  C   UNL     1       2.439   4.679  -9.772  1.00  0.00     0.134 A 
ATOM     23  C   UNL     1       3.076   5.800 -10.289  1.00  0.00     0.048 A 
ATOM     24  C   UNL     1       4.400   6.070  -9.933  1.00  0.00     0.008 A 
ATOM     25  Cl  UNL     1       2.324   2.431  -8.256  1.00  0.00    -0.080 Cl
BRANCH  22  26
ATOM     26  O   UNL     1       1.146   4.452 -10.161  1.00  0.00    -0.506 OA
ATOM     27  H   UNL     1       1.122   3.555 -10.544  1.00  0.00     0.293 HD
ENDBRANCH  22  26
ENDBRANCH  18  19
ENDBRANCH  17  18
BRANCH  17  28
ATOM     28  O   UNL     1       7.639   7.585  -9.206  1.00  0.00    -0.383 OA
ATOM     29  H   UNL     1       8.519   7.157  -9.098  1.00  0.00     0.211 HD
ENDBRANCH  17  28
ENDBRANCH  14  17
ENDBRANCH  12  13
BRANCH  12  30
ATOM     30  C   UNL     1       8.145   8.114  -4.196  1.00  0.00     0.018 C 
ATOM     31  C   UNL     1       7.330   9.402  -4.000  1.00  0.00     0.010 C 
BRANCH  30  32
ATOM     32  C   UNL     1       8.924   7.776  -2.901  1.00  0.00     0.002 C 
ATOM     33  C   UNL     1      10.181   6.938  -3.098  1.00  0.00     0.004 C 
ENDBRANCH  30  32
ENDBRANCH  12  30
ENDBRANCH  10  12
ENDBRANCH   1  10
BRANCH   5  34
ATOM     34  C   UNL     1      12.362   7.583  -5.858  1.00  0.00     0.242 C 
ATOM     35  O   UNL     1      11.474   6.738  -5.970  1.00  0.00    -0.273 OA
ATOM     36  N   UNL     1      13.620   7.276  -5.391  1.00  0.00    -0.354 N 
ATOM     37  H   UNL     1      14.275   8.037  -5.205  1.00  0.00     0.163 HD
BRANCH  36  38
ATOM     38  C   UNL     1      14.082   5.910  -5.253  1.00  0.00     0.116 C 
BRANCH  38  39
ATOM     39  C   UNL     1      14.433   5.627  -3.795  1.00  0.00     0.023 C 
BRANCH  39  40
ATOM     40  C   UNL     1      13.292   4.951  -3.041  1.00  0.00     0.026 C 
BRANCH  40  41
ATOM     41  C   UNL     1      12.418   4.138  -3.996  1.00  0.00     0.146 C 
BRANCH  41  42
ATOM     42  N   UNL     1      12.710   2.718  -3.842  1.00  0.00    -0.254 NA
ATOM     43  C   UNL     1      13.567   2.161  -4.612  1.00  0.00     0.185 C 
ATOM     44  N   UNL     1      14.303   2.683  -5.610  1.00  0.00    -0.370 N 
ATOM     45  N   UNL     1      13.818   0.850  -4.456  1.00  0.00    -0.370 N 
ATOM     46  H   UNL     1      14.749   2.086  -6.285  1.00  0.00     0.159 HD
ATOM     47  H   UNL     1      14.247   3.667  -5.854  1.00  0.00     0.159 HD
ATOM     48  H   UNL     1      13.311   0.381  -3.718  1.00  0.00     0.159 HD
ATOM     49  H   UNL     1      14.628   0.402  -4.846  1.00  0.00     0.159 HD
ENDBRANCH  41  42
ENDBRANCH  40  41
ENDBRANCH  39  40
ENDBRANCH  38  39
ENDBRANCH  36  38
ENDBRANCH   5  34
BRANCH   8  50
ATOM     50  O   UNL     1      13.282   9.227  -1.499  1.00  0.00    -0.245 OA
BRANCH  50  51
ATOM     51  S   UNL     1      13.071   8.486  -0.067  1.00  0.00     0.397 S 
ATOM     52  O   UNL     1      14.361   8.385   0.578  1.00  0.00    -0.169 OA
ATOM     53  O   UNL     1      12.215   7.331  -0.239  1.00  0.00    -0.169 OA
BRANCH  51  54
ATOM     54  O   UNL     1      12.251   9.591   0.765  1.00  0.00    -0.264 OA
ATOM     55  H   UNL     1      12.673   9.677   1.644  1.00  0.00     0.236 HD
ENDBRANCH  51  54
ENDBRANCH  50  51
ENDBRANCH   8  50
TORSDOF 19
ENDMDL
MODEL 2
REMARK VINA RESULT:    -5.111      5.085      9.542
REMARK INTER + INTRA:         -11.275
REMARK INTER:                 -11.104
REMARK INTRA:                  -0.172
REMARK UNBOUND:                -0.935
REMARK SMILES CC[C@@H](C)[C@@H](NC(=O)[C@@H](O)Cc1ccc(O)c(Cl)c1)C(=O)N1[C@H](C(=O)NCCCCN=C(N)N)C[C@H]2CC[C@H](OS(=O)(=O)O)C[C@@H]21
REMARK SMILES IDX 22 1 36 2 46 3 35 4 23 5 45 6 37 7 39 8 38 9 20 10 21 11
REMARK SMILES IDX 5 12 6 13 7 14 8 15 9 17 11 18 12 19 17 20 19 21 15 22 14 23
REMARK SMILES IDX 13 24 18 25 16 26 10 28 3 30 4 31 2 32 1 33 24 34 25 35
REMARK SMILES IDX 26 36 27 38 28 39 29 40 30 41 31 42 32 43 33 44 34 45 40 50
REMARK SMILES IDX 41 51 42 52 43 53 44 54
REMARK H PARENT 6 16 16 27 10 29 26 37 33 46 33 47 34 48 34 49 44 55
ROOT
ATOM      1  N   UNL     1       4.920   4.884  -8.628  1.00  0.00    -0.326 N 
ATOM      2  C   UNL     1       5.234   6.764 -10.009  1.00  0.00     0.014 C 
ATOM      3  C   UNL     1       4.394   5.494  -9.852  1.00  0.00     0.091 C 
ATOM      4  C   UNL     1       6.594   6.334  -9.479  1.00  0.00     0.041 C 
ATOM      5  C   UNL     1       6.164   5.576  -8.209  1.00  0.00     0.175 C 
ATOM      6  C   UNL     1       2.917   5.884  -9.890  1.00  0.00     0.059 C 
ATOM      7  C   UNL     1       5.126   7.316 -11.416  1.00  0.00     0.008 C 
ATOM      8  C   UNL     1       2.621   7.108 -10.783  1.00  0.00     0.143 C 
ATOM      9  C   UNL     1       3.663   7.271 -11.907  1.00  0.00     0.034 C 
ENDROOT
BRANCH   1  10
ATOM     10  C   UNL     1       4.560   3.704  -7.998  1.00  0.00     0.246 C 
ATOM     11  O   UNL     1       5.446   2.949  -7.584  1.00  0.00    -0.272 OA
BRANCH  10  12
ATOM     12  C   UNL     1       3.053   3.377  -7.787  1.00  0.00     0.174 C 
BRANCH  12  13
ATOM     13  N   UNL     1       2.862   2.717  -6.496  1.00  0.00    -0.342 N 
ATOM     14  C   UNL     1       3.342   3.183  -5.292  1.00  0.00     0.249 C 
ATOM     15  O   UNL     1       3.966   4.229  -5.165  1.00  0.00    -0.272 OA
ATOM     16  H   UNL     1       2.502   1.767  -6.464  1.00  0.00     0.164 HD
BRANCH  14  17
ATOM     17  C   UNL     1       2.990   2.254  -4.111  1.00  0.00     0.207 C 
BRANCH  17  18
ATOM     18  C   UNL     1       2.933   0.795  -4.576  1.00  0.00     0.077 C 
BRANCH  18  19
ATOM     19  C   UNL     1       4.180   0.032  -4.189  1.00  0.00    -0.043 A 
ATOM     20  C   UNL     1       5.871  -1.630  -4.700  1.00  0.00     0.083 A 
ATOM     21  C   UNL     1       4.750  -0.892  -5.079  1.00  0.00     0.028 A 
ATOM     22  C   UNL     1       6.429  -1.452  -3.433  1.00  0.00     0.134 A 
ATOM     23  C   UNL     1       5.875  -0.540  -2.542  1.00  0.00     0.048 A 
ATOM     24  C   UNL     1       4.751   0.199  -2.918  1.00  0.00     0.008 A 
ATOM     25  Cl  UNL     1       6.557  -2.761  -5.807  1.00  0.00    -0.080 Cl
BRANCH  22  26
ATOM     26  O   UNL     1       7.522  -2.160  -3.013  1.00  0.00    -0.506 OA
ATOM     27  H   UNL     1       8.246  -1.517  -2.899  1.00  0.00     0.293 HD
ENDBRANCH  22  26
ENDBRANCH  18  19
ENDBRANCH  17  18
BRANCH  17  28
ATOM     28  O   UNL     1       1.730   2.617  -3.524  1.00  0.00    -0.383 OA
ATOM     29  H   UNL     1       1.696   3.600  -3.541  1.00  0.00     0.211 HD
ENDBRANCH  17  28
ENDBRANCH  14  17
ENDBRANCH  12  13
BRANCH  12  30
ATOM     30  C   UNL     1       2.446   2.565  -8.962  1.00  0.00     0.018 C 
ATOM     31  C   UNL     1       3.519   1.699  -9.641  1.00  0.00     0.010 C 
BRANCH  30  32
ATOM     32  C   UNL     1       1.725   3.441 -10.016  1.00  0.00     0.002 C 
ATOM     33  C   UNL     1       2.106   3.164 -11.464  1.00  0.00     0.004 C 
ENDBRANCH  30  32
ENDBRANCH  12  30
ENDBRANCH  10  12
ENDBRANCH   1  10
BRANCH   5  34
ATOM     34  C   UNL     1       5.883   6.548  -7.031  1.00  0.00     0.242 C 
ATOM     35  O   UNL     1       4.743   6.890  -6.719  1.00  0.00    -0.273 OA
ATOM     36  N   UNL     1       7.002   7.039  -6.398  1.00  0.00    -0.354 N 
ATOM     37  H   UNL     1       7.922   6.813  -6.779  1.00  0.00     0.163 HD
BRANCH  36  38
ATOM     38  C   UNL     1       6.925   7.779  -5.155  1.00  0.00     0.116 C 
BRANCH  38  39
ATOM     39  C   UNL     1       8.220   7.603  -4.366  1.00  0.00     0.023 C 
BRANCH  39  40
ATOM     40  C   UNL     1       9.294   6.871  -5.165  1.00  0.00     0.026 C 
BRANCH  40  41
ATOM     41  C   UNL     1      10.477   6.502  -4.270  1.00  0.00     0.146 C 
BRANCH  41  42
ATOM     42  N   UNL     1      10.632   5.054  -4.231  1.00  0.00    -0.254 NA
ATOM     43  C   UNL     1      11.626   4.507  -4.825  1.00  0.00     0.185 C 
ATOM     44  N   UNL     1      12.628   5.066  -5.528  1.00  0.00    -0.370 N 
ATOM     45  N   UNL     1      11.749   3.170  -4.781  1.00  0.00    -0.370 N 
ATOM     46  H   UNL     1      13.199   4.508  -6.139  1.00  0.00     0.159 HD
ATOM     47  H   UNL     1      12.698   6.072  -5.649  1.00  0.00     0.159 HD
ATOM     48  H   UNL     1      11.038   2.672  -4.263  1.00  0.00     0.159 HD
ATOM     49  H   UNL     1      12.604   2.695  -5.008  1.00  0.00     0.159 HD
ENDBRANCH  41  42
ENDBRANCH  40  41
ENDBRANCH  39  40
ENDBRANCH  38  39
ENDBRANCH  36  38
ENDBRANCH   5  34
BRANCH   8  50
ATOM     50  O   UNL     1       2.613   8.300  -9.995  1.00  0.00    -0.245 OA
BRANCH  50  51
ATOM     51  S   UNL     1       1.877   9.634 -10.564  1.00  0.00     0.397 S 
ATOM     52  O   UNL     1       0.511   9.287 -10.885  1.00  0.00    -0.169 OA
ATOM     53  O   UNL     1       2.739  10.293 -11.523  1.00  0.00    -0.169 OA
BRANCH  51  54
ATOM     54  O   UNL     1       1.797  10.559  -9.251  1.00  0.00    -0.264 OA
ATOM     55  H   UNL     1       1.537  11.458  -9.536  1.00  0.00     0.236 HD
ENDBRANCH  51  54
ENDBRANCH  50  51
ENDBRANCH   8  50
TORSDOF 19
ENDMDL
MODEL 3
REMARK VINA RESULT:    -4.890      2.023      3.032
REMARK INTER + INTRA:         -10.828
REMARK INTER:                 -10.546
REMARK INTRA:                  -0.282
REMARK UNBOUND:                -0.935
REMARK SMILES CC[C@@H](C)[C@@H](NC(=O)[C@@H](O)Cc1ccc(O)c(Cl)c1)C(=O)N1[C@H](C(=O)NCCCCN=C(N)N)C[C@H]2CC[C@H](OS(=O)(=O)O)C[C@@H]21
REMARK SMILES IDX 22 1 36 2 46 3 35 4 23 5 45 6 37 7 39 8 38 9 20 10 21 11
REMARK SMILES IDX 5 12 6 13 7 14 8 15 9 17 11 18 12 19 17 20 19 21 15 22 14 23
REMARK SMILES IDX 13 24 18 25 16 26 10 28 3 30 4 31 2 32 1 33 24 34 25 35
REMARK SMILES IDX 26 36 27 38 28 39 29 40 30 41 31 42 32 43 33 44 34 45 40 50
REMARK SMILES IDX 41 51 42 52 43 53 44 54
REMARK H PARENT 6 16 16 27 10 29 26 37 33 46 33 47 34 48 34 49 44 55
ROOT
ATOM      1  N   UNL     1      10.264   8.244  -4.805  1.00  0.00    -0.326 N 
ATOM      2  C   UNL     1      12.111   9.609  -4.288  1.00  0.00     0.014 C 
ATOM      3  C   UNL     1      10.607   9.451  -4.047  1.00  0.00     0.091 C 
ATOM      4  C   UNL     1      12.276   9.111  -5.715  1.00  0.00     0.041 C 
ATOM      5  C   UNL     1      11.406   7.842  -5.664  1.00  0.00     0.175 C 
ATOM      6  C   UNL     1      10.356   9.455  -2.540  1.00  0.00     0.059 C 
ATOM      7  C   UNL     1      12.573  11.008  -3.930  1.00  0.00     0.008 C 
ATOM      8  C   UNL     1      11.352  10.327  -1.746  1.00  0.00     0.143 C 
ATOM      9  C   UNL     1      11.932  11.470  -2.604  1.00  0.00     0.034 C 
ENDROOT
BRANCH   1  10
ATOM     10  C   UNL     1       9.039   7.621  -4.976  1.00  0.00     0.246 C 
ATOM     11  O   UNL     1       8.767   6.631  -4.288  1.00  0.00    -0.272 OA
BRANCH  10  12
ATOM     12  C   UNL     1       8.018   8.203  -5.995  1.00  0.00     0.174 C 
BRANCH  12  13
ATOM     13  N   UNL     1       6.838   7.342  -6.067  1.00  0.00    -0.342 N 
ATOM     14  C   UNL     1       6.796   6.109  -6.678  1.00  0.00     0.249 C 
ATOM     15  O   UNL     1       7.762   5.580  -7.213  1.00  0.00    -0.272 OA
ATOM     16  H   UNL     1       5.927   7.712  -5.807  1.00  0.00     0.164 HD
BRANCH  14  17
ATOM     17  C   UNL     1       5.401   5.453  -6.600  1.00  0.00     0.207 C 
BRANCH  17  18
ATOM     18  C   UNL     1       5.290   4.307  -7.611  1.00  0.00     0.077 C 
BRANCH  18  19
ATOM     19  C   UNL     1       4.349   4.646  -8.745  1.00  0.00    -0.043 A 
ATOM     20  C   UNL     1       3.783   6.006 -10.672  1.00  0.00     0.083 A 
ATOM     21  C   UNL     1       4.676   5.662  -9.656  1.00  0.00     0.028 A 
ATOM     22  C   UNL     1       2.562   5.341 -10.782  1.00  0.00     0.134 A 
ATOM     23  C   UNL     1       2.225   4.333  -9.886  1.00  0.00     0.048 A 
ATOM     24  C   UNL     1       3.116   3.988  -8.867  1.00  0.00     0.008 A 
ATOM     25  Cl  UNL     1       4.203   7.257 -11.783  1.00  0.00    -0.080 Cl
BRANCH  22  26
ATOM     26  O   UNL     1       1.650   5.651 -11.755  1.00  0.00    -0.506 OA
ATOM     27  H   UNL     1       0.770   5.613 -11.336  1.00  0.00     0.293 HD
ENDBRANCH  22  26
ENDBRANCH  18  19
ENDBRANCH  17  18
BRANCH  17  28
ATOM     28  O   UNL     1       4.363   6.413  -6.853  1.00  0.00    -0.383 OA
ATOM     29  H   UNL     1       3.757   6.370  -6.079  1.00  0.00     0.211 HD
ENDBRANCH  17  28
ENDBRANCH  14  17
ENDBRANCH  12  13
BRANCH  12  30
ATOM     30  C   UNL     1       8.646   8.465  -7.391  1.00  0.00     0.018 C 
ATOM     31  C   UNL     1       9.100   9.927  -7.520  1.00  0.00     0.010 C 
BRANCH  30  32
ATOM     32  C   UNL     1       7.716   8.090  -8.571  1.00  0.00     0.002 C 
ATOM     33  C   UNL     1       8.079   8.717  -9.910  1.00  0.00     0.004 C 
ENDBRANCH  30  32
ENDBRANCH  12  30
ENDBRANCH  10  12
ENDBRANCH   1  10
BRANCH   5  34
ATOM     34  C   UNL     1      12.173   6.648  -5.035  1.00  0.00     0.242 C 
ATOM     35  O   UNL     1      11.618   5.812  -4.323  1.00  0.00    -0.273 OA
ATOM     36  N   UNL     1      13.526   6.623  -5.288  1.00  0.00    -0.354 N 
ATOM     37  H   UNL     1      13.948   7.409  -5.785  1.00  0.00     0.163 HD
BRANCH  36  38
ATOM     38  C   UNL     1      14.352   5.478  -4.966  1.00  0.00     0.116 C 
BRANCH  38  39
ATOM     39  C   UNL     1      13.519   4.200  -5.044  1.00  0.00     0.023 C 
BRANCH  39  40
ATOM     40  C   UNL     1      13.767   3.270  -3.862  1.00  0.00     0.026 C 
BRANCH  40  41
ATOM     41  C   UNL     1      14.295   4.052  -2.659  1.00  0.00     0.146 C 
BRANCH  41  42
ATOM     42  N   UNL     1      13.181   4.631  -1.920  1.00  0.00    -0.254 NA
ATOM     43  C   UNL     1      13.271   5.828  -1.474  1.00  0.00     0.185 C 
ATOM     44  N   UNL     1      14.278   6.714  -1.572  1.00  0.00    -0.370 N 
ATOM     45  N   UNL     1      12.234   6.342  -0.792  1.00  0.00    -0.370 N 
ATOM     46  H   UNL     1      14.312   7.520  -0.972  1.00  0.00     0.159 HD
ATOM     47  H   UNL     1      15.136   6.494  -2.069  1.00  0.00     0.159 HD
ATOM     48  H   UNL     1      11.429   5.741  -0.680  1.00  0.00     0.159 HD
ATOM     49  H   UNL     1      12.130   7.326  -0.621  1.00  0.00     0.159 HD
ENDBRANCH  41  42
ENDBRANCH  40  41
ENDBRANCH  39  40
ENDBRANCH  38  39
ENDBRANCH  36  38
ENDBRANCH   5  34
BRANCH   8  50
ATOM     50  O   UNL     1      12.433   9.526  -1.268  1.00  0.00    -0.245 OA
BRANCH  50  51
ATOM     51  S   UNL     1      13.166   9.919   0.130  1.00  0.00     0.397 S 
ATOM     52  O   UNL     1      12.147  10.333   1.067  1.00  0.00    -0.169 OA
ATOM     53  O   UNL     1      14.326  10.742  -0.144  1.00  0.00    -0.169 OA
BRANCH  51  54
ATOM     54  O   UNL     1      13.685   8.488   0.649  1.00  0.00    -0.264 OA
ATOM     55  H   UNL     1      13.138   8.235   1.420  1.00  0.00     0.236 HD
ENDBRANCH  51  54
ENDBRANCH  50  51
ENDBRANCH   8  50
TORSDOF 19
ENDMDL
MODEL 4
REMARK VINA RESULT:    -4.748      5.503      9.955
REMARK INTER + INTRA:         -10.542
REMARK INTER:                 -10.642
REMARK INTRA:                   0.101
REMARK UNBOUND:                -0.935
REMARK SMILES CC[C@@H](C)[C@@H](NC(=O)[C@@H](O)Cc1ccc(O)c(Cl)c1)C(=O)N1[C@H](C(=O)NCCCCN=C(N)N)C[C@H]2CC[C@H](OS(=O)(=O)O)C[C@@H]21
REMARK SMILES IDX 22 1 36 2 46 3 35 4 23 5 45 6 37 7 39 8 38 9 20 10 21 11
REMARK SMILES IDX 5 12 6 13 7 14 8 15 9 17 11 18 12 19 17 20 19 21 15 22 14 23
REMARK SMILES IDX 13 24 18 25 16 26 10 28 3 30 4 31 2 32 1 33 24 34 25 35
REMARK SMILES IDX 26 36 27 38 28 39 29 40 30 41 31 42 32 43 33 44 34 45 40 50
REMARK SMILES IDX 41 51 42 52 43 53 44 54
REMARK H PARENT 6 16 16 27 10 29 26 37 33 46 33 47 34 48 34 49 44 55
ROOT
ATOM      1  N   UNL     1       4.902   4.871  -8.642  1.00  0.00    -0.326 N 
ATOM      2  C   UNL     1       5.193   6.755 -10.024  1.00  0.00     0.014 C 
ATOM      3  C   UNL     1       4.364   5.478  -9.863  1.00  0.00     0.091 C 
ATOM      4  C   UNL     1       6.558   6.336  -9.502  1.00  0.00     0.041 C 
ATOM      5  C   UNL     1       6.142   5.574  -8.230  1.00  0.00     0.175 C 
ATOM      6  C   UNL     1       2.884   5.855  -9.893  1.00  0.00     0.059 C 
ATOM      7  C   UNL     1       5.072   7.306 -11.431  1.00  0.00     0.008 C 
ATOM      8  C   UNL     1       2.572   7.077 -10.784  1.00  0.00     0.143 C 
ATOM      9  C   UNL     1       3.607   7.249 -11.914  1.00  0.00     0.034 C 
ENDROOT
BRANCH   1  10
ATOM     10  C   UNL     1       4.555   3.689  -8.011  1.00  0.00     0.246 C 
ATOM     11  O   UNL     1       5.447   2.968  -7.551  1.00  0.00    -0.272 OA
BRANCH  10  12
ATOM     12  C   UNL     1       3.052   3.314  -7.856  1.00  0.00     0.174 C 
BRANCH  12  13
ATOM     13  N   UNL     1       2.835   2.645  -6.574  1.00  0.00    -0.342 N 
ATOM     14  C   UNL     1       3.264   3.117  -5.353  1.00  0.00     0.249 C 
ATOM     15  O   UNL     1       3.860   4.176  -5.203  1.00  0.00    -0.272 OA
ATOM     16  H   UNL     1       2.495   1.687  -6.557  1.00  0.00     0.164 HD
BRANCH  14  17
ATOM     17  C   UNL     1       2.896   2.175  -4.188  1.00  0.00     0.207 C 
BRANCH  17  18
ATOM     18  C   UNL     1       2.877   0.718  -4.662  1.00  0.00     0.077 C 
BRANCH  18  19
ATOM     19  C   UNL     1       4.126  -0.025  -4.244  1.00  0.00    -0.043 A 
ATOM     20  C   UNL     1       5.854  -1.663  -4.710  1.00  0.00     0.083 A 
ATOM     21  C   UNL     1       4.730  -0.942  -5.117  1.00  0.00     0.028 A 
ATOM     22  C   UNL     1       6.378  -1.473  -3.431  1.00  0.00     0.134 A 
ATOM     23  C   UNL     1       5.790  -0.568  -2.556  1.00  0.00     0.048 A 
ATOM     24  C   UNL     1       4.664   0.153  -2.960  1.00  0.00     0.008 A 
ATOM     25  Cl  UNL     1       6.582  -2.785  -5.798  1.00  0.00    -0.080 Cl
BRANCH  22  26
ATOM     26  O   UNL     1       7.472  -2.164  -2.983  1.00  0.00    -0.506 OA
ATOM     27  H   UNL     1       7.602  -1.909  -2.051  1.00  0.00     0.293 HD
ENDBRANCH  22  26
ENDBRANCH  18  19
ENDBRANCH  17  18
BRANCH  17  28
ATOM     28  O   UNL     1       1.613   2.513  -3.635  1.00  0.00    -0.383 OA
ATOM     29  H   UNL     1       1.512   1.961  -2.826  1.00  0.00     0.211 HD
ENDBRANCH  17  28
ENDBRANCH  14  17
ENDBRANCH  12  13
BRANCH  12  30
ATOM     30  C   UNL     1       2.513   2.487  -9.054  1.00  0.00     0.018 C 
ATOM     31  C   UNL     1       3.637   1.658  -9.695  1.00  0.00     0.010 C 
BRANCH  30  32
ATOM     32  C   UNL     1       1.804   3.344 -10.131  1.00  0.00     0.002 C 
ATOM     33  C   UNL     1       2.277   3.114 -11.561  1.00  0.00     0.004 C 
ENDBRANCH  30  32
ENDBRANCH  12  30
ENDBRANCH  10  12
ENDBRANCH   1  10
BRANCH   5  34
ATOM     34  C   UNL     1       5.859   6.543  -7.050  1.00  0.00     0.242 C 
ATOM     35  O   UNL     1       4.718   6.879  -6.734  1.00  0.00    -0.273 OA
ATOM     36  N   UNL     1       6.977   7.040  -6.420  1.00  0.00    -0.354 N 
ATOM     37  H   UNL     1       7.897   6.819  -6.803  1.00  0.00     0.163 HD
BRANCH  36  38
ATOM     38  C   UNL     1       6.900   7.778  -5.176  1.00  0.00     0.116 C 
BRANCH  38  39
ATOM     39  C   UNL     1       8.303   8.166  -4.715  1.00  0.00     0.023 C 
BRANCH  39  40
ATOM     40  C   UNL     1       9.160   8.710  -5.853  1.00  0.00     0.026 C 
BRANCH  40  41
ATOM     41  C   UNL     1      10.343   9.510  -5.306  1.00  0.00     0.146 C 
BRANCH  41  42
ATOM     42  N   UNL     1       9.914  10.302  -4.161  1.00  0.00    -0.254 NA
ATOM     43  C   UNL     1      10.696  10.436  -3.156  1.00  0.00     0.185 C 
ATOM     44  N   UNL     1      11.931   9.944  -2.948  1.00  0.00    -0.370 N 
ATOM     45  N   UNL     1      10.280  11.167  -2.108  1.00  0.00    -0.370 N 
ATOM     46  H   UNL     1      12.326   9.924  -2.024  1.00  0.00     0.159 HD
ATOM     47  H   UNL     1      12.404   9.379  -3.647  1.00  0.00     0.159 HD
ATOM     48  H   UNL     1       9.362  11.582  -2.187  1.00  0.00     0.159 HD
ATOM     49  H   UNL     1      10.907  11.512  -1.403  1.00  0.00     0.159 HD
ENDBRANCH  41  42
ENDBRANCH  40  41
ENDBRANCH  39  40
ENDBRANCH  38  39
ENDBRANCH  36  38
ENDBRANCH   5  34
BRANCH   8  50
ATOM     50  O   UNL     1       2.559   8.268  -9.996  1.00  0.00    -0.245 OA
BRANCH  50  51
ATOM     51  S   UNL     1       1.718   9.562 -10.511  1.00  0.00     0.397 S 
ATOM     52  O   UNL     1       1.660  10.516  -9.426  1.00  0.00    -0.169 OA
ATOM     53  O   UNL     1       0.523   9.122 -11.200  1.00  0.00    -0.169 OA
BRANCH  51  54
ATOM     54  O   UNL     1       2.714  10.197 -11.601  1.00  0.00    -0.264 OA
ATOM     55  H   UNL     1       2.370  11.083 -11.839  1.00  0.00     0.236 HD
ENDBRANCH  51  54
ENDBRANCH  50  51
ENDBRANCH   8  50
TORSDOF 19
ENDMDL
MODEL 5
REMARK VINA RESULT:    -3.388      5.461     10.097
REMARK INTER + INTRA:          -7.789
REMARK INTER:                  -7.499
REMARK INTRA:                  -0.291
REMARK UNBOUND:                -0.935
REMARK SMILES CC[C@@H](C)[C@@H](NC(=O)[C@@H](O)Cc1ccc(O)c(Cl)c1)C(=O)N1[C@H](C(=O)NCCCCN=C(N)N)C[C@H]2CC[C@H](OS(=O)(=O)O)C[C@@H]21
REMARK SMILES IDX 22 1 36 2 46 3 35 4 23 5 45 6 37 7 39 8 38 9 20 10 21 11
REMARK SMILES IDX 5 12 6 13 7 14 8 15 9 17 11 18 12 19 17 20 19 21 15 22 14 23
REMARK SMILES IDX 13 24 18 25 16 26 10 28 3 30 4 31 2 32 1 33 24 34 25 35
REMARK SMILES IDX 26 36 27 38 28 39 29 40 30 41 31 42 32 43 33 44 34 45 40 50
REMARK SMILES IDX 41 51 42 52 43 53 44 54
REMARK H PARENT 6 16 16 27 10 29 26 37 33 46 33 47 34 48 34 49 44 55
ROOT
ATOM      1  N   UNL     1       4.334   3.841  -8.196  1.00  0.00    -0.326 N 
ATOM      2  C   UNL     1       4.900   5.392  -9.874  1.00  0.00     0.014 C 
ATOM      3  C   UNL     1       3.918   4.266  -9.536  1.00  0.00     0.091 C 
ATOM      4  C   UNL     1       6.185   4.928  -9.205  1.00  0.00     0.041 C 
ATOM      5  C   UNL     1       5.632   4.466  -7.844  1.00  0.00     0.175 C 
ATOM      6  C   UNL     1       2.496   4.793  -9.720  1.00  0.00     0.059 C 
ATOM      7  C   UNL     1       4.899   5.684 -11.361  1.00  0.00     0.008 C 
ATOM      8  C   UNL     1       2.367   5.856 -10.832  1.00  0.00     0.143 C 
ATOM      9  C   UNL     1       3.457   5.701 -11.912  1.00  0.00     0.034 C 
ENDROOT
BRANCH   1  10
ATOM     10  C   UNL     1       3.825   2.841  -7.385  1.00  0.00     0.246 C 
ATOM     11  O   UNL     1       3.502   1.761  -7.891  1.00  0.00    -0.272 OA
BRANCH  10  12
ATOM     12  C   UNL     1       3.709   3.082  -5.851  1.00  0.00     0.174 C 
BRANCH  12  13
ATOM     13  N   UNL     1       3.895   1.822  -5.133  1.00  0.00    -0.342 N 
ATOM     14  C   UNL     1       4.160   1.711  -3.786  1.00  0.00     0.249 C 
ATOM     15  O   UNL     1       4.242   2.668  -3.027  1.00  0.00    -0.272 OA
ATOM     16  H   UNL     1       4.010   0.957  -5.655  1.00  0.00     0.164 HD
BRANCH  14  17
ATOM     17  C   UNL     1       4.321   0.246  -3.330  1.00  0.00     0.207 C 
BRANCH  17  18
ATOM     18  C   UNL     1       4.765  -0.635  -4.502  1.00  0.00     0.077 C 
BRANCH  18  19
ATOM     19  C   UNL     1       5.940  -1.512  -4.132  1.00  0.00    -0.043 A 
ATOM     20  C   UNL     1       7.377  -3.410  -4.599  1.00  0.00     0.083 A 
ATOM     21  C   UNL     1       6.324  -2.572  -4.968  1.00  0.00     0.028 A 
ATOM     22  C   UNL     1       8.050  -3.197  -3.396  1.00  0.00     0.134 A 
ATOM     23  C   UNL     1       7.681  -2.151  -2.559  1.00  0.00     0.048 A 
ATOM     24  C   UNL     1       6.626  -1.311  -2.924  1.00  0.00     0.008 A 
ATOM     25  Cl  UNL     1       7.833  -4.708  -5.640  1.00  0.00    -0.080 Cl
BRANCH  22  26
ATOM     26  O   UNL     1       9.082  -3.998  -2.987  1.00  0.00    -0.506 OA
ATOM     27  H   UNL     1       9.656  -3.449  -2.422  1.00  0.00     0.293 HD
ENDBRANCH  22  26
ENDBRANCH  18  19
ENDBRANCH  17  18
BRANCH  17  28
ATOM     28  O   UNL     1       3.092  -0.266  -2.788  1.00  0.00    -0.383 OA
ATOM     29  H   UNL     1       3.044   0.065  -1.863  1.00  0.00     0.211 HD
ENDBRANCH  17  28
ENDBRANCH  14  17
ENDBRANCH  12  13
BRANCH  12  30
ATOM     30  C   UNL     1       2.392   3.802  -5.454  1.00  0.00     0.018 C 
ATOM     31  C   UNL     1       2.658   4.881  -4.393  1.00  0.00     0.010 C 
BRANCH  30  32
ATOM     32  C   UNL     1       1.281   2.840  -4.968  1.00  0.00     0.002 C 
ATOM     33  C   UNL     1       0.998   2.876  -3.472  1.00  0.00     0.004 C 
ENDBRANCH  30  32
ENDBRANCH  12  30
ENDBRANCH  10  12
ENDBRANCH   1  10
BRANCH   5  34
ATOM     34  C   UNL     1       5.423   5.661  -6.876  1.00  0.00     0.242 C 
ATOM     35  O   UNL     1       4.307   6.003  -6.485  1.00  0.00    -0.273 OA
ATOM     36  N   UNL     1       6.569   6.343  -6.532  1.00  0.00    -0.354 N 
ATOM     37  H   UNL     1       7.448   6.087  -6.983  1.00  0.00     0.163 HD
BRANCH  36  38
ATOM     38  C   UNL     1       6.589   7.339  -5.480  1.00  0.00     0.116 C 
BRANCH  38  39
ATOM     39  C   UNL     1       8.005   7.884  -5.310  1.00  0.00     0.023 C 
BRANCH  39  40
ATOM     40  C   UNL     1       8.458   7.885  -3.854  1.00  0.00     0.026 C 
BRANCH  40  41
ATOM     41  C   UNL     1       9.920   7.454  -3.741  1.00  0.00     0.146 C 
BRANCH  41  42
ATOM     42  N   UNL     1      10.088   6.126  -4.317  1.00  0.00    -0.254 NA
ATOM     43  C   UNL     1      10.989   5.930  -5.205  1.00  0.00     0.185 C 
ATOM     44  N   UNL     1      11.875   6.788  -5.742  1.00  0.00    -0.370 N 
ATOM     45  N   UNL     1      11.124   4.700  -5.727  1.00  0.00    -0.370 N 
ATOM     46  H   UNL     1      12.355   6.562  -6.597  1.00  0.00     0.159 HD
ATOM     47  H   UNL     1      11.920   7.760  -5.451  1.00  0.00     0.159 HD
ATOM     48  H   UNL     1      10.499   3.990  -5.369  1.00  0.00     0.159 HD
ATOM     49  H   UNL     1      11.940   4.412  -6.237  1.00  0.00     0.159 HD
ENDBRANCH  41  42
ENDBRANCH  40  41
ENDBRANCH  39  40
ENDBRANCH  38  39
ENDBRANCH  36  38
ENDBRANCH   5  34
BRANCH   8  50
ATOM     50  O   UNL     1       2.466   7.166 -10.273  1.00  0.00    -0.245 OA
BRANCH  50  51
ATOM     51  S   UNL     1       2.246   8.465 -11.226  1.00  0.00     0.397 S 
ATOM     52  O   UNL     1       1.124   8.195 -12.097  1.00  0.00    -0.169 OA
ATOM     53  O   UNL     1       3.523   8.908 -11.748  1.00  0.00    -0.169 OA
BRANCH  51  54
ATOM     54  O   UNL     1       1.730   9.569 -10.176  1.00  0.00    -0.264 OA
ATOM     55  H   UNL     1       0.770   9.693 -10.322  1.00  0.00     0.236 HD
ENDBRANCH  51  54
ENDBRANCH  50  51
ENDBRANCH   8  50
TORSDOF 19
ENDMDL
