MODEL 1
REMARK VINA RESULT:    -5.244      0.000      0.000
REMARK INTER + INTRA:         -21.815
REMARK INTER:                 -15.054
REMARK INTRA:                  -6.762
REMARK UNBOUND:                -6.762
REMARK SMILES CCCCCC(=O)N[C@H](CC(=O)O)C(=O)N[C@H]1C(=O)N[C@H](CCCN=C(N)N)C(=O)N[C@@H]2CC[C@H](O)N(C2=O)[C@@H](CC(C)C)C(=O)N(C)[C@@H](Cc2ccccc2)C(=O)N[C@H](C(C)C)C(=O)O[C@@H]1C
REMARK SMILES IDX 30 1 31 2 29 3 32 5 35 6 37 7 34 8 38 9 33 10 39 11 36 12
REMARK SMILES IDX 40 14 41 15 42 16 43 17 44 18 45 19 46 20 47 21 48 22 49 23
REMARK SMILES IDX 50 24 51 25 52 26 56 27 53 28 55 29 54 30 57 31 58 32 59 33
REMARK SMILES IDX 60 35 61 36 62 37 63 38 64 39 65 40 66 41 67 42 68 43 21 45
REMARK SMILES IDX 20 46 18 47 19 48 17 50 16 52 14 53 15 54 9 56 8 57 6 58
REMARK SMILES IDX 7 59 5 61 4 62 3 63 2 64 1 65 10 66 11 67 12 68 13 69 22 71
REMARK SMILES IDX 23 72 24 73 25 74 26 75 27 76 28 77
REMARK H PARENT 31 4 36 13 59 34 20 49 16 55 8 60 13 70 27 78 27 79 28 80
REMARK H PARENT 28 81
REMARK Flexibility Score:  259.900
ROOT
ATOM      1  O   UNL     1       3.339  -8.233  12.897  1.00  0.00    -0.273 OA
ATOM      2  N   UNL     1       4.196  -8.288  10.777  1.00  0.00    -0.343 N 
ATOM      3  C   UNL     1       3.179  -8.444  11.694  1.00  0.00     0.243 C 
ATOM      4  H   UNL     1       4.025  -8.456   9.794  1.00  0.00     0.164 HD
ENDROOT
BRANCH   2   5
ATOM      5  C   UNL     1       5.552  -7.977  11.218  1.00  0.00     0.171 C 
ATOM      6  C   UNL     1       6.738  -7.651  13.843  1.00  0.00     0.214 C 
ATOM      7  N   UNL     1       6.196  -6.499  13.160  1.00  0.00    -0.303 N 
ATOM      8  C   UNL     1       7.271  -8.715  12.898  1.00  0.00     0.057 C 
ATOM      9  C   UNL     1       5.571  -6.593  11.928  1.00  0.00     0.247 C 
ATOM     10  C   UNL     1       6.174  -9.161  11.956  1.00  0.00     0.040 C 
ATOM     11  O   UNL     1       5.034  -5.616  11.389  1.00  0.00    -0.272 OA
BRANCH   6  12
ATOM     12  O   UNL     1       5.721  -8.183  14.661  1.00  0.00    -0.373 OA
ATOM     13  H   UNL     1       5.721  -9.155  14.523  1.00  0.00     0.213 HD
ENDBRANCH   6  12
BRANCH   7  14
ATOM     14  C   UNL     1       6.202  -5.218  13.898  1.00  0.00     0.177 C 
BRANCH  14  15
ATOM     15  C   UNL     1       7.115  -4.125  13.309  1.00  0.00     0.038 C 
BRANCH  15  16
ATOM     16  C   UNL     1       8.310  -3.603  14.136  1.00  0.00    -0.015 C 
ATOM     17  C   UNL     1       9.311  -2.817  13.285  1.00  0.00     0.007 C 
ATOM     18  C   UNL     1       9.049  -4.783  14.780  1.00  0.00     0.007 C 
ENDBRANCH  15  16
ENDBRANCH  14  15
BRANCH  14  19
ATOM     19  C   UNL     1       4.807  -4.970  14.568  1.00  0.00     0.245 C 
ATOM     20  O   UNL     1       3.840  -4.809  13.805  1.00  0.00    -0.272 OA
BRANCH  19  21
ATOM     21  N   UNL     1       4.623  -4.813  15.931  1.00  0.00    -0.332 N 
ATOM     22  C   UNL     1       4.323  -3.561  16.602  1.00  0.00     0.147 C 
BRANCH  21  23
ATOM     23  C   UNL     1       4.750  -6.020  16.794  1.00  0.00     0.178 C 
BRANCH  23  24
ATOM     24  C   UNL     1       5.509  -5.790  18.117  1.00  0.00     0.070 C 
BRANCH  24  25
ATOM     25  C   UNL     1       6.874  -6.426  18.247  1.00  0.00    -0.045 A 
ATOM     26  C   UNL     1       8.037  -5.648  18.190  1.00  0.00     0.004 A 
ATOM     27  C   UNL     1       6.994  -7.813  18.421  1.00  0.00     0.004 A 
ATOM     28  C   UNL     1       9.295  -6.246  18.294  1.00  0.00     0.000 A 
ATOM     29  C   UNL     1       8.252  -8.409  18.526  1.00  0.00     0.000 A 
ATOM     30  C   UNL     1       9.401  -7.625  18.459  1.00  0.00     0.000 A 
ENDBRANCH  24  25
ENDBRANCH  23  24
BRANCH  23  31
ATOM     31  C   UNL     1       3.424  -6.806  16.932  1.00  0.00     0.243 C 
ATOM     32  O   UNL     1       2.377  -6.318  17.349  1.00  0.00    -0.273 OA
ATOM     33  N   UNL     1       3.564  -8.167  16.718  1.00  0.00    -0.341 N 
ATOM     34  H   UNL     1       4.463  -8.515  16.376  1.00  0.00     0.164 HD
BRANCH  33  35
ATOM     35  C   UNL     1       2.469  -9.122  16.910  1.00  0.00     0.194 C 
BRANCH  35  36
ATOM     36  C   UNL     1       2.645 -10.049  18.145  1.00  0.00     0.017 C 
ATOM     37  C   UNL     1       4.125 -10.168  18.549  1.00  0.00     0.010 C 
ATOM     38  C   UNL     1       2.116 -11.470  17.914  1.00  0.00     0.010 C 
ENDBRANCH  35  36
BRANCH  35  39
ATOM     39  C   UNL     1       2.145  -9.928  15.621  1.00  0.00     0.329 C 
ATOM     40  O   UNL     1       2.969 -10.592  15.002  1.00  0.00    -0.250 OA
BRANCH  39  41
ATOM     41  O   UNL     1       0.816  -9.885  15.301  1.00  0.00    -0.458 OA
BRANCH  41  42
ATOM     42  C   UNL     1       0.243  -8.568  15.118  1.00  0.00     0.205 CG0
ATOM     43  C   UNL     1      -0.462  -8.196  16.421  1.00  0.00     0.056 C 
ATOM     44  G   UNL     1      -0.722  -8.614  13.917  1.00  0.00     0.000 G0
ENDBRANCH  41  42
ENDBRANCH  39  41
ENDBRANCH  35  39
ENDBRANCH  33  35
ENDBRANCH  23  31
ENDBRANCH  21  23
ENDBRANCH  19  21
ENDBRANCH  14  19
ENDBRANCH   7  14
ENDBRANCH   2   5
BRANCH   3  45
ATOM     45  C   UNL     1       1.828  -8.878  11.110  1.00  0.00     0.171 C 
BRANCH  45  46
ATOM     46  N   UNL     1       0.964  -9.126  12.256  1.00  0.00    -0.342 N 
ATOM     47  C   UNL     1      -0.033  -8.259  12.627  1.00  0.00     0.247 C 
ATOM     48  O   UNL     1      -0.318  -7.251  11.980  1.00  0.00    -0.273 OA
ATOM     49  H   UNL     1       1.129  -9.979  12.787  1.00  0.00     0.164 HD
BRANCH  47  50
ATOM     50  C   UNL     1      -0.757  -8.622  13.931  1.00  0.00     0.212 CG0
ATOM     51  G   UNL     1       0.275  -8.554  15.074  1.00  0.00     0.000 G0
BRANCH  50  52
ATOM     52  N   UNL     1      -1.832  -7.642  14.066  1.00  0.00    -0.339 N 
ATOM     53  C   UNL     1      -3.162  -7.957  13.931  1.00  0.00     0.243 C 
ATOM     54  O   UNL     1      -3.549  -9.083  13.633  1.00  0.00    -0.273 OA
ATOM     55  H   UNL     1      -1.569  -6.668  14.203  1.00  0.00     0.164 HD
BRANCH  53  56
ATOM     56  C   UNL     1      -4.107  -6.742  14.029  1.00  0.00     0.182 C 
BRANCH  56  57
ATOM     57  N   UNL     1      -3.665  -5.659  13.146  1.00  0.00    -0.344 N 
ATOM     58  C   UNL     1      -3.730  -5.752  11.777  1.00  0.00     0.220 C 
ATOM     59  O   UNL     1      -4.092  -6.771  11.198  1.00  0.00    -0.275 OA
ATOM     60  H   UNL     1      -3.456  -4.765  13.582  1.00  0.00     0.164 HD
BRANCH  58  61
ATOM     61  C   UNL     1      -3.275  -4.492  11.065  1.00  0.00     0.100 C 
BRANCH  61  62
ATOM     62  C   UNL     1      -2.952  -3.333  12.010  1.00  0.00     0.010 C 
BRANCH  62  63
ATOM     63  C   UNL     1      -3.769  -2.062  11.746  1.00  0.00     0.000 C 
BRANCH  63  64
ATOM     64  C   UNL     1      -4.298  -1.384  13.008  1.00  0.00    -0.003 C 
ATOM     65  C   UNL     1      -4.118   0.126  12.944  1.00  0.00     0.004 C 
ENDBRANCH  63  64
ENDBRANCH  62  63
ENDBRANCH  61  62
ENDBRANCH  58  61
ENDBRANCH  56  57
BRANCH  56  66
ATOM     66  C   UNL     1      -4.273  -6.276  15.475  1.00  0.00     0.157 C 
BRANCH  66  67
ATOM     67  C   UNL     1      -3.355  -5.128  15.784  1.00  0.00     0.305 C 
ATOM     68  O   UNL     1      -2.193  -5.198  16.154  1.00  0.00    -0.252 OA
BRANCH  67  69
ATOM     69  O   UNL     1      -3.937  -3.934  15.561  1.00  0.00    -0.481 OA
ATOM     70  H   UNL     1      -3.190  -3.305  15.472  1.00  0.00     0.296 HD
ENDBRANCH  67  69
ENDBRANCH  66  67
ENDBRANCH  56  66
ENDBRANCH  53  56
ENDBRANCH  50  52
ENDBRANCH  47  50
ENDBRANCH  45  46
BRANCH  45  71
ATOM     71  C   UNL     1       1.999 -10.134  10.248  1.00  0.00     0.037 C 
BRANCH  71  72
ATOM     72  C   UNL     1       0.803 -11.082  10.369  1.00  0.00     0.026 C 
BRANCH  72  73
ATOM     73  C   UNL     1      -0.300 -10.722   9.376  1.00  0.00     0.146 C 
BRANCH  73  74
ATOM     74  N   UNL     1      -1.580 -10.829  10.070  1.00  0.00    -0.254 NA
ATOM     75  C   UNL     1      -2.292  -9.769  10.180  1.00  0.00     0.185 C 
ATOM     76  N   UNL     1      -3.475  -9.836  10.813  1.00  0.00    -0.370 N 
ATOM     77  N   UNL     1      -2.033  -8.527   9.737  1.00  0.00    -0.370 N 
ATOM     78  H   UNL     1      -3.744 -10.736  11.185  1.00  0.00     0.159 HD
ATOM     79  H   UNL     1      -4.016  -9.027  11.063  1.00  0.00     0.159 HD
ATOM     80  H   UNL     1      -1.179  -8.327   9.238  1.00  0.00     0.159 HD
ATOM     81  H   UNL     1      -2.723  -7.795   9.781  1.00  0.00     0.159 HD
ENDBRANCH  73  74
ENDBRANCH  72  73
ENDBRANCH  71  72
ENDBRANCH  45  71
ENDBRANCH   3  45
TORSDOF 20
ENDMDL
MODEL 2
REMARK VINA RESULT:    -5.196      4.301     11.087
REMARK INTER + INTRA:         -21.678
REMARK INTER:                 -15.963
REMARK INTRA:                  -5.715
REMARK UNBOUND:                -6.762
REMARK SMILES CCCCCC(=O)N[C@H](CC(=O)O)C(=O)N[C@H]1C(=O)N[C@H](CCCN=C(N)N)C(=O)N[C@@H]2CC[C@H](O)N(C2=O)[C@@H](CC(C)C)C(=O)N(C)[C@@H](Cc2ccccc2)C(=O)N[C@H](C(C)C)C(=O)O[C@@H]1C
REMARK SMILES IDX 30 1 31 2 29 3 32 5 35 6 37 7 34 8 38 9 33 10 39 11 36 12
REMARK SMILES IDX 40 14 41 15 42 16 43 17 44 18 45 19 46 20 47 21 48 22 49 23
REMARK SMILES IDX 50 24 51 25 52 26 56 27 53 28 55 29 54 30 57 31 58 32 59 33
REMARK SMILES IDX 60 35 61 36 62 37 63 38 64 39 65 40 66 41 67 42 68 43 21 45
REMARK SMILES IDX 20 46 18 47 19 48 17 50 16 52 14 53 15 54 9 56 8 57 6 58
REMARK SMILES IDX 7 59 5 61 4 62 3 63 2 64 1 65 10 66 11 67 12 68 13 69 22 71
REMARK SMILES IDX 23 72 24 73 25 74 26 75 27 76 28 77
REMARK H PARENT 31 4 36 13 59 34 20 49 16 55 8 60 13 70 27 78 27 79 28 80
REMARK H PARENT 28 81
REMARK Flexibility Score:  259.900
ROOT
ATOM      1  O   UNL     1      -2.142  -7.414  16.075  1.00  0.00    -0.273 OA
ATOM      2  N   UNL     1      -2.943  -9.304  15.065  1.00  0.00    -0.343 N 
ATOM      3  C   UNL     1      -2.141  -8.184  15.113  1.00  0.00     0.243 C 
ATOM      4  H   UNL     1      -2.905  -9.922  14.264  1.00  0.00     0.164 HD
ENDROOT
BRANCH   2   5
ATOM      5  C   UNL     1      -3.923  -9.561  16.114  1.00  0.00     0.171 C 
ATOM      6  C   UNL     1      -5.297 -11.965  16.973  1.00  0.00     0.214 C 
ATOM      7  N   UNL     1      -5.903 -11.120  15.970  1.00  0.00    -0.303 N 
ATOM      8  C   UNL     1      -4.422 -11.201  17.954  1.00  0.00     0.057 C 
ATOM      9  C   UNL     1      -5.277  -9.986  15.478  1.00  0.00     0.247 C 
ATOM     10  C   UNL     1      -3.338 -10.459  17.203  1.00  0.00     0.040 C 
ATOM     11  O   UNL     1      -5.763  -9.316  14.558  1.00  0.00    -0.272 OA
BRANCH   6  12
ATOM     12  O   UNL     1      -4.544 -12.952  16.307  1.00  0.00    -0.373 OA
ATOM     13  H   UNL     1      -3.599 -12.772  16.500  1.00  0.00     0.213 HD
ENDBRANCH   6  12
BRANCH   7  14
ATOM     14  C   UNL     1      -7.168 -11.594  15.369  1.00  0.00     0.177 C 
BRANCH  14  15
ATOM     15  C   UNL     1      -8.438 -10.877  15.865  1.00  0.00     0.038 C 
BRANCH  15  16
ATOM     16  C   UNL     1      -9.452 -11.645  16.741  1.00  0.00    -0.015 C 
ATOM     17  C   UNL     1     -10.181 -12.746  15.964  1.00  0.00     0.007 C 
ATOM     18  C   UNL     1     -10.502 -10.672  17.294  1.00  0.00     0.007 C 
ENDBRANCH  15  16
ENDBRANCH  14  15
BRANCH  14  19
ATOM     19  C   UNL     1      -6.921 -12.092  13.903  1.00  0.00     0.245 C 
ATOM     20  O   UNL     1      -5.878 -12.735  13.699  1.00  0.00    -0.272 OA
BRANCH  19  21
ATOM     21  N   UNL     1      -7.729 -11.761  12.830  1.00  0.00    -0.332 N 
ATOM     22  C   UNL     1      -8.952 -10.981  12.905  1.00  0.00     0.147 C 
BRANCH  21  23
ATOM     23  C   UNL     1      -7.329 -12.249  11.481  1.00  0.00     0.178 C 
BRANCH  23  24
ATOM     24  C   UNL     1      -8.503 -12.512  10.516  1.00  0.00     0.070 C 
BRANCH  24  25
ATOM     25  C   UNL     1      -8.412 -13.739   9.639  1.00  0.00    -0.045 A 
ATOM     26  C   UNL     1      -7.359 -14.650   9.788  1.00  0.00     0.004 A 
ATOM     27  C   UNL     1      -9.383 -13.979   8.655  1.00  0.00     0.004 A 
ATOM     28  C   UNL     1      -7.272 -15.773   8.962  1.00  0.00     0.000 A 
ATOM     29  C   UNL     1      -9.296 -15.102   7.831  1.00  0.00     0.000 A 
ATOM     30  C   UNL     1      -8.238 -15.997   7.983  1.00  0.00     0.000 A 
ENDBRANCH  24  25
ENDBRANCH  23  24
BRANCH  23  31
ATOM     31  C   UNL     1      -6.153 -11.449  10.874  1.00  0.00     0.243 C 
ATOM     32  O   UNL     1      -6.283 -10.385  10.274  1.00  0.00    -0.273 OA
ATOM     33  N   UNL     1      -4.948 -12.130  10.902  1.00  0.00    -0.341 N 
ATOM     34  H   UNL     1      -4.902 -13.015  11.413  1.00  0.00     0.164 HD
BRANCH  33  35
ATOM     35  C   UNL     1      -3.725 -11.616  10.278  1.00  0.00     0.194 C 
BRANCH  35  36
ATOM     36  C   UNL     1      -2.738 -12.723   9.810  1.00  0.00     0.017 C 
ATOM     37  C   UNL     1      -3.405 -14.109   9.822  1.00  0.00     0.010 C 
ATOM     38  C   UNL     1      -1.476 -12.813  10.677  1.00  0.00     0.010 C 
ENDBRANCH  35  36
BRANCH  35  39
ATOM     39  C   UNL     1      -3.018 -10.538  11.146  1.00  0.00     0.329 C 
ATOM     40  O   UNL     1      -2.892 -10.611  12.363  1.00  0.00    -0.250 OA
BRANCH  39  41
ATOM     41  O   UNL     1      -2.475  -9.536  10.390  1.00  0.00    -0.458 OA
BRANCH  41  42
ATOM     42  C   UNL     1      -3.369  -8.462  10.012  1.00  0.00     0.205 CG0
ATOM     43  C   UNL     1      -3.529  -8.519   8.494  1.00  0.00     0.056 C 
ATOM     44  G   UNL     1      -2.765  -7.127  10.491  1.00  0.00     0.000 G0
ENDBRANCH  41  42
ENDBRANCH  39  41
ENDBRANCH  35  39
ENDBRANCH  33  35
ENDBRANCH  23  31
ENDBRANCH  21  23
ENDBRANCH  19  21
ENDBRANCH  14  19
ENDBRANCH   7  14
ENDBRANCH   2   5
BRANCH   3  45
ATOM     45  C   UNL     1      -1.232  -7.973  13.895  1.00  0.00     0.171 C 
BRANCH  45  46
ATOM     46  N   UNL     1      -2.129  -7.781  12.763  1.00  0.00    -0.342 N 
ATOM     47  C   UNL     1      -1.683  -7.371  11.532  1.00  0.00     0.247 C 
ATOM     48  O   UNL     1      -0.490  -7.207  11.273  1.00  0.00    -0.273 OA
ATOM     49  H   UNL     1      -3.120  -7.960  12.918  1.00  0.00     0.164 HD
BRANCH  47  50
ATOM     50  C   UNL     1      -2.786  -7.101  10.498  1.00  0.00     0.212 CG0
ATOM     51  G   UNL     1      -3.323  -8.466  10.021  1.00  0.00     0.000 G0
BRANCH  50  52
ATOM     52  N   UNL     1      -3.787  -6.299  11.195  1.00  0.00    -0.339 N 
ATOM     53  C   UNL     1      -3.674  -4.942  11.379  1.00  0.00     0.243 C 
ATOM     54  O   UNL     1      -2.689  -4.305  11.015  1.00  0.00    -0.273 OA
ATOM     55  H   UNL     1      -4.573  -6.788  11.619  1.00  0.00     0.164 HD
BRANCH  53  56
ATOM     56  C   UNL     1      -4.810  -4.326  12.220  1.00  0.00     0.182 C 
BRANCH  56  57
ATOM     57  N   UNL     1      -4.868  -2.872  12.042  1.00  0.00    -0.344 N 
ATOM     58  C   UNL     1      -5.656  -2.278  11.088  1.00  0.00     0.220 C 
ATOM     59  O   UNL     1      -6.309  -2.920  10.272  1.00  0.00    -0.275 OA
ATOM     60  H   UNL     1      -4.424  -2.302  12.758  1.00  0.00     0.164 HD
BRANCH  58  61
ATOM     61  C   UNL     1      -5.604  -0.761  11.123  1.00  0.00     0.100 C 
BRANCH  61  62
ATOM     62  C   UNL     1      -5.281  -0.188  12.503  1.00  0.00     0.010 C 
BRANCH  62  63
ATOM     63  C   UNL     1      -4.135   0.832  12.506  1.00  0.00     0.000 C 
BRANCH  63  64
ATOM     64  C   UNL     1      -2.910   0.396  13.307  1.00  0.00    -0.003 C 
ATOM     65  C   UNL     1      -2.275  -0.853  12.715  1.00  0.00     0.004 C 
ENDBRANCH  63  64
ENDBRANCH  62  63
ENDBRANCH  61  62
ENDBRANCH  58  61
ENDBRANCH  56  57
BRANCH  56  66
ATOM     66  C   UNL     1      -4.698  -4.723  13.691  1.00  0.00     0.157 C 
BRANCH  66  67
ATOM     67  C   UNL     1      -3.903  -3.713  14.468  1.00  0.00     0.305 C 
ATOM     68  O   UNL     1      -4.301  -2.642  14.898  1.00  0.00    -0.252 OA
BRANCH  67  69
ATOM     69  O   UNL     1      -2.646  -4.130  14.711  1.00  0.00    -0.481 OA
ATOM     70  H   UNL     1      -2.346  -3.589  15.472  1.00  0.00     0.296 HD
ENDBRANCH  67  69
ENDBRANCH  66  67
ENDBRANCH  56  66
ENDBRANCH  53  56
ENDBRANCH  50  52
ENDBRANCH  47  50
ENDBRANCH  45  46
BRANCH  45  71
ATOM     71  C   UNL     1      -0.320  -9.188  13.693  1.00  0.00     0.037 C 
BRANCH  71  72
ATOM     72  C   UNL     1       0.955  -9.097  14.535  1.00  0.00     0.026 C 
BRANCH  72  73
ATOM     73  C   UNL     1       2.208  -9.168  13.664  1.00  0.00     0.146 C 
BRANCH  73  74
ATOM     74  N   UNL     1       2.839  -7.852  13.681  1.00  0.00    -0.254 NA
ATOM     75  C   UNL     1       2.899  -7.202  12.578  1.00  0.00     0.185 C 
ATOM     76  N   UNL     1       3.472  -5.988  12.562  1.00  0.00    -0.370 N 
ATOM     77  N   UNL     1       2.453  -7.560  11.361  1.00  0.00    -0.370 N 
ATOM     78  H   UNL     1       3.842  -5.645  13.437  1.00  0.00     0.159 HD
ATOM     79  H   UNL     1       3.684  -5.486  11.718  1.00  0.00     0.159 HD
ATOM     80  H   UNL     1       1.995  -8.448  11.223  1.00  0.00     0.159 HD
ATOM     81  H   UNL     1       2.452  -6.915  10.588  1.00  0.00     0.159 HD
ENDBRANCH  73  74
ENDBRANCH  72  73
ENDBRANCH  71  72
ENDBRANCH  45  71
ENDBRANCH   3  45
TORSDOF 20
ENDMDL
MODEL 3
REMARK VINA RESULT:    -4.990      1.617      2.107
REMARK INTER + INTRA:         -21.087
REMARK INTER:                 -15.687
REMARK INTRA:                  -5.400
REMARK UNBOUND:                -6.762
REMARK SMILES CCCCCC(=O)N[C@H](CC(=O)O)C(=O)N[C@H]1C(=O)N[C@H](CCCN=C(N)N)C(=O)N[C@@H]2CC[C@H](O)N(C2=O)[C@@H](CC(C)C)C(=O)N(C)[C@@H](Cc2ccccc2)C(=O)N[C@H](C(C)C)C(=O)O[C@@H]1C
REMARK SMILES IDX 30 1 31 2 29 3 32 5 35 6 37 7 34 8 38 9 33 10 39 11 36 12
REMARK SMILES IDX 40 14 41 15 42 16 43 17 44 18 45 19 46 20 47 21 48 22 49 23
REMARK SMILES IDX 50 24 51 25 52 26 56 27 53 28 55 29 54 30 57 31 58 32 59 33
REMARK SMILES IDX 60 35 61 36 62 37 63 38 64 39 65 40 66 41 67 42 68 43 21 45
REMARK SMILES IDX 20 46 18 47 19 48 17 50 16 52 14 53 15 54 9 56 8 57 6 58
REMARK SMILES IDX 7 59 5 61 4 62 3 63 2 64 1 65 10 66 11 67 12 68 13 69 22 71
REMARK SMILES IDX 23 72 24 73 25 74 26 75 27 76 28 77
REMARK H PARENT 31 4 36 13 59 34 20 49 16 55 8 60 13 70 27 78 27 79 28 80
REMARK H PARENT 28 81
REMARK Flexibility Score:  259.900
ROOT
ATOM      1  O   UNL     1       3.441  -7.694  12.911  1.00  0.00    -0.273 OA
ATOM      2  N   UNL     1       3.235  -6.186  11.204  1.00  0.00    -0.343 N 
ATOM      3  C   UNL     1       2.753  -7.180  12.028  1.00  0.00     0.243 C 
ATOM      4  H   UNL     1       2.636  -5.777  10.498  1.00  0.00     0.164 HD
ENDROOT
BRANCH   2   5
ATOM      5  C   UNL     1       4.635  -5.782  11.268  1.00  0.00     0.171 C 
ATOM      6  C   UNL     1       6.802  -6.484  13.062  1.00  0.00     0.214 C 
ATOM      7  N   UNL     1       5.975  -5.339  13.362  1.00  0.00    -0.303 N 
ATOM      8  C   UNL     1       6.933  -6.759  11.572  1.00  0.00     0.057 C 
ATOM      9  C   UNL     1       4.893  -4.978  12.575  1.00  0.00     0.247 C 
ATOM     10  C   UNL     1       5.561  -6.959  10.966  1.00  0.00     0.040 C 
ATOM     11  O   UNL     1       4.137  -4.048  12.886  1.00  0.00    -0.272 OA
BRANCH   6  12
ATOM     12  O   UNL     1       6.249  -7.599  13.721  1.00  0.00    -0.373 OA
ATOM     13  H   UNL     1       5.797  -8.141  13.040  1.00  0.00     0.213 HD
ENDBRANCH   6  12
BRANCH   7  14
ATOM     14  C   UNL     1       6.236  -4.639  14.637  1.00  0.00     0.177 C 
BRANCH  14  15
ATOM     15  C   UNL     1       6.662  -3.164  14.501  1.00  0.00     0.038 C 
BRANCH  15  16
ATOM     16  C   UNL     1       8.079  -2.737  14.942  1.00  0.00    -0.015 C 
ATOM     17  C   UNL     1       8.100  -1.340  15.568  1.00  0.00     0.007 C 
ATOM     18  C   UNL     1       9.021  -2.735  13.731  1.00  0.00     0.007 C 
ENDBRANCH  15  16
ENDBRANCH  14  15
BRANCH  14  19
ATOM     19  C   UNL     1       5.323  -5.217  15.772  1.00  0.00     0.245 C 
ATOM     20  O   UNL     1       4.123  -4.896  15.743  1.00  0.00    -0.272 OA
BRANCH  19  21
ATOM     21  N   UNL     1       5.797  -5.957  16.842  1.00  0.00    -0.332 N 
ATOM     22  C   UNL     1       6.200  -5.416  18.128  1.00  0.00     0.147 C 
BRANCH  21  23
ATOM     23  C   UNL     1       5.919  -7.430  16.669  1.00  0.00     0.178 C 
BRANCH  23  24
ATOM     24  C   UNL     1       7.239  -8.034  17.190  1.00  0.00     0.070 C 
BRANCH  24  25
ATOM     25  C   UNL     1       8.441  -7.952  16.277  1.00  0.00    -0.045 A 
ATOM     26  C   UNL     1       8.982  -9.108  15.699  1.00  0.00     0.004 A 
ATOM     27  C   UNL     1       9.035  -6.712  15.999  1.00  0.00     0.004 A 
ATOM     28  C   UNL     1      10.103  -9.026  14.869  1.00  0.00     0.000 A 
ATOM     29  C   UNL     1      10.154  -6.632  15.169  1.00  0.00     0.000 A 
ATOM     30  C   UNL     1      10.689  -7.789  14.607  1.00  0.00     0.000 A 
ENDBRANCH  24  25
ENDBRANCH  23  24
BRANCH  23  31
ATOM     31  C   UNL     1       4.642  -8.196  17.091  1.00  0.00     0.243 C 
ATOM     32  O   UNL     1       4.015  -7.970  18.123  1.00  0.00    -0.273 OA
ATOM     33  N   UNL     1       4.364  -9.292  16.291  1.00  0.00    -0.341 N 
ATOM     34  H   UNL     1       4.925  -9.431  15.447  1.00  0.00     0.164 HD
BRANCH  33  35
ATOM     35  C   UNL     1       3.274 -10.230  16.572  1.00  0.00     0.194 C 
BRANCH  35  36
ATOM     36  C   UNL     1       3.750 -11.640  17.023  1.00  0.00     0.017 C 
ATOM     37  C   UNL     1       2.644 -12.691  16.831  1.00  0.00     0.010 C 
ATOM     38  C   UNL     1       4.181 -11.690  18.494  1.00  0.00     0.010 C 
ENDBRANCH  35  36
BRANCH  35  39
ATOM     39  C   UNL     1       2.240 -10.309  15.414  1.00  0.00     0.329 C 
ATOM     40  O   UNL     1       2.510 -10.680  14.278  1.00  0.00    -0.250 OA
BRANCH  39  41
ATOM     41  O   UNL     1       0.973 -10.002  15.827  1.00  0.00    -0.458 OA
BRANCH  41  42
ATOM     42  C   UNL     1       0.560  -8.625  15.658  1.00  0.00     0.205 CG0
ATOM     43  C   UNL     1       0.426  -8.017  17.053  1.00  0.00     0.056 C 
ATOM     44  G   UNL     1      -0.767  -8.602  14.875  1.00  0.00     0.000 G0
ENDBRANCH  41  42
ENDBRANCH  39  41
ENDBRANCH  35  39
ENDBRANCH  33  35
ENDBRANCH  23  31
ENDBRANCH  21  23
ENDBRANCH  19  21
ENDBRANCH  14  19
ENDBRANCH   7  14
ENDBRANCH   2   5
BRANCH   3  45
ATOM     45  C   UNL     1       1.294  -7.587  11.784  1.00  0.00     0.171 C 
BRANCH  45  46
ATOM     46  N   UNL     1       0.822  -8.138  13.047  1.00  0.00    -0.342 N 
ATOM     47  C   UNL     1      -0.494  -8.073  13.433  1.00  0.00     0.247 C 
ATOM     48  O   UNL     1      -1.379  -7.613  12.711  1.00  0.00    -0.273 OA
ATOM     49  H   UNL     1       1.514  -8.579  13.650  1.00  0.00     0.164 HD
BRANCH  47  50
ATOM     50  C   UNL     1      -0.783  -8.593  14.848  1.00  0.00     0.212 CG0
ATOM     51  G   UNL     1       0.555  -8.632  15.614  1.00  0.00     0.000 G0
BRANCH  50  52
ATOM     52  N   UNL     1      -1.747  -7.657  15.418  1.00  0.00    -0.339 N 
ATOM     53  C   UNL     1      -3.102  -7.885  15.437  1.00  0.00     0.243 C 
ATOM     54  O   UNL     1      -3.613  -8.878  14.925  1.00  0.00    -0.273 OA
ATOM     55  H   UNL     1      -1.395  -6.764  15.758  1.00  0.00     0.164 HD
BRANCH  53  56
ATOM     56  C   UNL     1      -3.927  -6.716  16.011  1.00  0.00     0.182 C 
BRANCH  56  57
ATOM     57  N   UNL     1      -3.898  -5.559  15.112  1.00  0.00    -0.344 N 
ATOM     58  C   UNL     1      -4.746  -5.440  14.038  1.00  0.00     0.220 C 
ATOM     59  O   UNL     1      -5.534  -6.321  13.714  1.00  0.00    -0.275 OA
ATOM     60  H   UNL     1      -3.334  -4.764  15.402  1.00  0.00     0.164 HD
BRANCH  58  61
ATOM     61  C   UNL     1      -4.579  -4.135  13.281  1.00  0.00     0.100 C 
BRANCH  61  62
ATOM     62  C   UNL     1      -3.272  -3.405  13.593  1.00  0.00     0.010 C 
BRANCH  62  63
ATOM     63  C   UNL     1      -3.171  -2.006  12.972  1.00  0.00     0.000 C 
BRANCH  63  64
ATOM     64  C   UNL     1      -4.086  -0.966  13.617  1.00  0.00    -0.003 C 
ATOM     65  C   UNL     1      -4.468   0.127  12.629  1.00  0.00     0.004 C 
ENDBRANCH  63  64
ENDBRANCH  62  63
ENDBRANCH  61  62
ENDBRANCH  58  61
ENDBRANCH  56  57
BRANCH  56  66
ATOM     66  C   UNL     1      -3.480  -6.357  17.427  1.00  0.00     0.157 C 
BRANCH  66  67
ATOM     67  C   UNL     1      -2.820  -5.009  17.464  1.00  0.00     0.305 C 
ATOM     68  O   UNL     1      -3.368  -3.929  17.620  1.00  0.00    -0.252 OA
BRANCH  67  69
ATOM     69  O   UNL     1      -1.480  -5.092  17.353  1.00  0.00    -0.481 OA
ATOM     70  H   UNL     1      -1.321  -5.316  16.412  1.00  0.00     0.296 HD
ENDBRANCH  67  69
ENDBRANCH  66  67
ENDBRANCH  56  66
ENDBRANCH  53  56
ENDBRANCH  50  52
ENDBRANCH  47  50
ENDBRANCH  45  46
BRANCH  45  71
ATOM     71  C   UNL     1       1.209  -8.616  10.651  1.00  0.00     0.037 C 
BRANCH  71  72
ATOM     72  C   UNL     1       1.333 -10.052  11.167  1.00  0.00     0.026 C 
BRANCH  72  73
ATOM     73  C   UNL     1       0.034 -10.831  10.975  1.00  0.00     0.146 C 
BRANCH  73  74
ATOM     74  N   UNL     1      -0.691 -10.223   9.862  1.00  0.00    -0.254 NA
ATOM     75  C   UNL     1      -1.908  -9.874  10.060  1.00  0.00     0.185 C 
ATOM     76  N   UNL     1      -2.600  -9.311   9.057  1.00  0.00    -0.370 N 
ATOM     77  N   UNL     1      -2.648  -9.985  11.177  1.00  0.00    -0.370 N 
ATOM     78  H   UNL     1      -2.118  -9.196   8.176  1.00  0.00     0.159 HD
ATOM     79  H   UNL     1      -3.591  -9.146   9.091  1.00  0.00     0.159 HD
ATOM     80  H   UNL     1      -2.256 -10.387  12.015  1.00  0.00     0.159 HD
ATOM     81  H   UNL     1      -3.562  -9.569  11.249  1.00  0.00     0.159 HD
ENDBRANCH  73  74
ENDBRANCH  72  73
ENDBRANCH  71  72
ENDBRANCH  45  71
ENDBRANCH   3  45
TORSDOF 20
ENDMDL
MODEL 4
REMARK VINA RESULT:    -4.956      3.907      8.776
REMARK INTER + INTRA:         -20.988
REMARK INTER:                 -14.195
REMARK INTRA:                  -6.793
REMARK UNBOUND:                -6.762
REMARK SMILES CCCCCC(=O)N[C@H](CC(=O)O)C(=O)N[C@H]1C(=O)N[C@H](CCCN=C(N)N)C(=O)N[C@@H]2CC[C@H](O)N(C2=O)[C@@H](CC(C)C)C(=O)N(C)[C@@H](Cc2ccccc2)C(=O)N[C@H](C(C)C)C(=O)O[C@@H]1C
REMARK SMILES IDX 30 1 31 2 29 3 32 5 35 6 37 7 34 8 38 9 33 10 39 11 36 12
REMARK SMILES IDX 40 14 41 15 42 16 43 17 44 18 45 19 46 20 47 21 48 22 49 23
REMARK SMILES IDX 50 24 51 25 52 26 56 27 53 28 55 29 54 30 57 31 58 32 59 33
REMARK SMILES IDX 60 35 61 36 62 37 63 38 64 39 65 40 66 41 67 42 68 43 21 45
REMARK SMILES IDX 20 46 18 47 19 48 17 50 16 52 14 53 15 54 9 56 8 57 6 58
REMARK SMILES IDX 7 59 5 61 4 62 3 63 2 64 1 65 10 66 11 67 12 68 13 69 22 71
REMARK SMILES IDX 23 72 24 73 25 74 26 75 27 76 28 77
REMARK H PARENT 31 4 36 13 59 34 20 49 16 55 8 60 13 70 27 78 27 79 28 80
REMARK H PARENT 28 81
REMARK Flexibility Score:  259.900
ROOT
ATOM      1  O   UNL     1      -4.956 -10.410  10.909  1.00  0.00    -0.273 OA
ATOM      2  N   UNL     1      -3.518  -9.174  12.188  1.00  0.00    -0.343 N 
ATOM      3  C   UNL     1      -4.066  -9.563  10.984  1.00  0.00     0.243 C 
ATOM      4  H   UNL     1      -2.797  -8.464  12.213  1.00  0.00     0.164 HD
ENDROOT
BRANCH   2   5
ATOM      5  C   UNL     1      -3.896  -9.846  13.426  1.00  0.00     0.171 C 
ATOM      6  C   UNL     1      -3.969  -8.975  16.190  1.00  0.00     0.214 C 
ATOM      7  N   UNL     1      -2.772  -9.595  15.673  1.00  0.00    -0.303 N 
ATOM      8  C   UNL     1      -5.241  -9.466  15.517  1.00  0.00     0.057 C 
ATOM      9  C   UNL     1      -2.652  -9.988  14.350  1.00  0.00     0.247 C 
ATOM     10  C   UNL     1      -5.157  -9.225  14.025  1.00  0.00     0.040 C 
ATOM     11  O   UNL     1      -1.593 -10.439  13.893  1.00  0.00    -0.272 OA
BRANCH   6  12
ATOM     12  O   UNL     1      -3.835  -7.581  16.032  1.00  0.00    -0.373 OA
ATOM     13  H   UNL     1      -3.305  -7.256  16.790  1.00  0.00     0.213 HD
ENDBRANCH   6  12
BRANCH   7  14
ATOM     14  C   UNL     1      -1.607  -9.665  16.580  1.00  0.00     0.177 C 
BRANCH  14  15
ATOM     15  C   UNL     1      -1.048 -11.080  16.823  1.00  0.00     0.038 C 
BRANCH  15  16
ATOM     16  C   UNL     1      -0.091 -11.327  18.010  1.00  0.00    -0.015 C 
ATOM     17  C   UNL     1       1.003 -12.346  17.676  1.00  0.00     0.007 C 
ATOM     18  C   UNL     1      -0.882 -11.849  19.215  1.00  0.00     0.007 C 
ENDBRANCH  15  16
ENDBRANCH  14  15
BRANCH  14  19
ATOM     19  C   UNL     1      -0.748  -8.358  16.464  1.00  0.00     0.245 C 
ATOM     20  O   UNL     1      -1.013  -7.597  15.519  1.00  0.00    -0.272 OA
BRANCH  19  21
ATOM     21  N   UNL     1       0.336  -8.074  17.275  1.00  0.00    -0.332 N 
ATOM     22  C   UNL     1       0.307  -7.990  18.724  1.00  0.00     0.147 C 
BRANCH  21  23
ATOM     23  C   UNL     1       1.648  -7.820  16.617  1.00  0.00     0.178 C 
BRANCH  23  24
ATOM     24  C   UNL     1       2.839  -7.675  17.587  1.00  0.00     0.070 C 
BRANCH  24  25
ATOM     25  C   UNL     1       3.944  -6.727  17.183  1.00  0.00    -0.045 A 
ATOM     26  C   UNL     1       5.159  -7.213  16.682  1.00  0.00     0.004 A 
ATOM     27  C   UNL     1       3.769  -5.341  17.309  1.00  0.00     0.004 A 
ATOM     28  C   UNL     1       6.182  -6.331  16.327  1.00  0.00     0.000 A 
ATOM     29  C   UNL     1       4.792  -4.461  16.952  1.00  0.00     0.000 A 
ATOM     30  C   UNL     1       5.999  -4.957  16.464  1.00  0.00     0.000 A 
ENDBRANCH  24  25
ENDBRANCH  23  24
BRANCH  23  31
ATOM     31  C   UNL     1       1.905  -8.746  15.405  1.00  0.00     0.243 C 
ATOM     32  O   UNL     1       2.402  -9.867  15.489  1.00  0.00    -0.273 OA
ATOM     33  N   UNL     1       1.697  -8.128  14.183  1.00  0.00    -0.341 N 
ATOM     34  H   UNL     1       1.286  -7.191  14.177  1.00  0.00     0.164 HD
BRANCH  33  35
ATOM     35  C   UNL     1       1.991  -8.774  12.901  1.00  0.00     0.194 C 
BRANCH  35  36
ATOM     36  C   UNL     1       3.242  -8.204  12.174  1.00  0.00     0.017 C 
ATOM     37  C   UNL     1       4.527  -8.480  12.973  1.00  0.00     0.010 C 
ATOM     38  C   UNL     1       3.165  -6.691  11.937  1.00  0.00     0.010 C 
ENDBRANCH  35  36
BRANCH  35  39
ATOM     39  C   UNL     1       0.752  -8.834  11.964  1.00  0.00     0.329 C 
ATOM     40  O   UNL     1      -0.295  -8.234  12.172  1.00  0.00    -0.250 OA
BRANCH  39  41
ATOM     41  O   UNL     1       0.991  -9.564  10.832  1.00  0.00    -0.458 OA
BRANCH  41  42
ATOM     42  C   UNL     1       0.188 -10.755  10.655  1.00  0.00     0.205 CG0
ATOM     43  C   UNL     1       1.054 -11.950  11.046  1.00  0.00     0.056 C 
ATOM     44  G   UNL     1      -0.279 -10.820   9.187  1.00  0.00     0.000 G0
ENDBRANCH  41  42
ENDBRANCH  39  41
ENDBRANCH  35  39
ENDBRANCH  33  35
ENDBRANCH  23  31
ENDBRANCH  21  23
ENDBRANCH  19  21
ENDBRANCH  14  19
ENDBRANCH   7  14
ENDBRANCH   2   5
BRANCH   3  45
ATOM     45  C   UNL     1      -3.503  -8.852   9.746  1.00  0.00     0.171 C 
BRANCH  45  46
ATOM     46  N   UNL     1      -2.117  -9.285   9.639  1.00  0.00    -0.342 N 
ATOM     47  C   UNL     1      -1.763 -10.495   9.095  1.00  0.00     0.247 C 
ATOM     48  O   UNL     1      -2.582 -11.267   8.595  1.00  0.00    -0.273 OA
ATOM     49  H   UNL     1      -1.402  -8.651   9.990  1.00  0.00     0.164 HD
BRANCH  47  50
ATOM     50  C   UNL     1      -0.269 -10.834   9.180  1.00  0.00     0.212 CG0
ATOM     51  G   UNL     1       0.154 -10.719  10.659  1.00  0.00     0.000 G0
BRANCH  50  52
ATOM     52  N   UNL     1      -0.146 -12.189   8.649  1.00  0.00    -0.339 N 
ATOM     53  C   UNL     1       0.054 -12.463   7.317  1.00  0.00     0.243 C 
ATOM     54  O   UNL     1       0.091 -11.585   6.459  1.00  0.00    -0.273 OA
ATOM     55  H   UNL     1      -0.279 -12.964   9.295  1.00  0.00     0.164 HD
BRANCH  53  56
ATOM     56  C   UNL     1       0.065 -13.968   6.981  1.00  0.00     0.182 C 
BRANCH  56  57
ATOM     57  N   UNL     1      -0.938 -14.287   5.960  1.00  0.00    -0.344 N 
ATOM     58  C   UNL     1      -0.597 -14.611   4.670  1.00  0.00     0.220 C 
ATOM     59  O   UNL     1       0.559 -14.585   4.263  1.00  0.00    -0.275 OA
ATOM     60  H   UNL     1      -1.894 -14.418   6.279  1.00  0.00     0.164 HD
BRANCH  58  61
ATOM     61  C   UNL     1      -1.792 -14.961   3.802  1.00  0.00     0.100 C 
BRANCH  61  62
ATOM     62  C   UNL     1      -1.415 -15.459   2.406  1.00  0.00     0.010 C 
BRANCH  62  63
ATOM     63  C   UNL     1      -2.048 -14.658   1.262  1.00  0.00     0.000 C 
BRANCH  63  64
ATOM     64  C   UNL     1      -1.738 -13.162   1.298  1.00  0.00    -0.003 C 
ATOM     65  C   UNL     1      -2.977 -12.332   0.996  1.00  0.00     0.004 C 
ENDBRANCH  63  64
ENDBRANCH  62  63
ENDBRANCH  61  62
ENDBRANCH  58  61
ENDBRANCH  56  57
BRANCH  56  66
ATOM     66  C   UNL     1      -0.098 -14.823   8.237  1.00  0.00     0.157 C 
BRANCH  66  67
ATOM     67  C   UNL     1      -1.508 -15.320   8.377  1.00  0.00     0.305 C 
ATOM     68  O   UNL     1      -1.915 -16.447   8.138  1.00  0.00    -0.252 OA
BRANCH  67  69
ATOM     69  O   UNL     1      -2.337 -14.377   8.865  1.00  0.00    -0.481 OA
ATOM     70  H   UNL     1      -3.095 -14.364   8.243  1.00  0.00     0.296 HD
ENDBRANCH  67  69
ENDBRANCH  66  67
ENDBRANCH  56  66
ENDBRANCH  53  56
ENDBRANCH  50  52
ENDBRANCH  47  50
ENDBRANCH  45  46
BRANCH  45  71
ATOM     71  C   UNL     1      -3.609  -7.331   9.910  1.00  0.00     0.037 C 
BRANCH  71  72
ATOM     72  C   UNL     1      -2.239  -6.676  10.097  1.00  0.00     0.026 C 
BRANCH  72  73
ATOM     73  C   UNL     1      -2.295  -5.541  11.118  1.00  0.00     0.146 C 
BRANCH  73  74
ATOM     74  N   UNL     1      -3.570  -5.637  11.823  1.00  0.00    -0.254 NA
ATOM     75  C   UNL     1      -3.545  -5.673  13.104  1.00  0.00     0.185 C 
ATOM     76  N   UNL     1      -4.701  -5.760  13.781  1.00  0.00    -0.370 N 
ATOM     77  N   UNL     1      -2.484  -5.636  13.930  1.00  0.00    -0.370 N 
ATOM     78  H   UNL     1      -5.549  -5.801  13.234  1.00  0.00     0.159 HD
ATOM     79  H   UNL     1      -4.753  -5.938  14.768  1.00  0.00     0.159 HD
ATOM     80  H   UNL     1      -1.548  -5.567  13.560  1.00  0.00     0.159 HD
ATOM     81  H   UNL     1      -2.594  -5.554  14.927  1.00  0.00     0.159 HD
ENDBRANCH  73  74
ENDBRANCH  72  73
ENDBRANCH  71  72
ENDBRANCH  45  71
ENDBRANCH   3  45
TORSDOF 20
ENDMDL
MODEL 5
REMARK VINA RESULT:    -4.497      3.017      9.323
REMARK INTER + INTRA:         -19.672
REMARK INTER:                 -15.079
REMARK INTRA:                  -4.593
REMARK UNBOUND:                -6.762
REMARK SMILES CCCCCC(=O)N[C@H](CC(=O)O)C(=O)N[C@H]1C(=O)N[C@H](CCCN=C(N)N)C(=O)N[C@@H]2CC[C@H](O)N(C2=O)[C@@H](CC(C)C)C(=O)N(C)[C@@H](Cc2ccccc2)C(=O)N[C@H](C(C)C)C(=O)O[C@@H]1C
REMARK SMILES IDX 30 1 31 2 29 3 32 5 35 6 37 7 34 8 38 9 33 10 39 11 36 12
REMARK SMILES IDX 40 14 41 15 42 16 43 17 44 18 45 19 46 20 47 21 48 22 49 23
REMARK SMILES IDX 50 24 51 25 52 26 56 27 53 28 55 29 54 30 57 31 58 32 59 33
REMARK SMILES IDX 60 35 61 36 62 37 63 38 64 39 65 40 66 41 67 42 68 43 21 45
REMARK SMILES IDX 20 46 18 47 19 48 17 50 16 52 14 53 15 54 9 56 8 57 6 58
REMARK SMILES IDX 7 59 5 61 4 62 3 63 2 64 1 65 10 66 11 67 12 68 13 69 22 71
REMARK SMILES IDX 23 72 24 73 25 74 26 75 27 76 28 77
REMARK H PARENT 31 4 36 13 59 34 20 49 16 55 8 60 13 70 27 78 27 79 28 80
REMARK H PARENT 28 81
REMARK Flexibility Score:  259.900
ROOT
ATOM      1  O   UNL     1      -0.727 -10.347  10.292  1.00  0.00    -0.273 OA
ATOM      2  N   UNL     1      -2.408  -9.060  11.158  1.00  0.00    -0.343 N 
ATOM      3  C   UNL     1      -1.107  -9.271  10.755  1.00  0.00     0.243 C 
ATOM      4  H   UNL     1      -2.688  -8.157  11.520  1.00  0.00     0.164 HD
ENDROOT
BRANCH   2   5
ATOM      5  C   UNL     1      -3.371 -10.157  11.162  1.00  0.00     0.171 C 
ATOM      6  C   UNL     1      -6.123 -10.351  12.050  1.00  0.00     0.214 C 
ATOM      7  N   UNL     1      -5.056 -10.668  12.970  1.00  0.00    -0.303 N 
ATOM      8  C   UNL     1      -5.773 -10.641  10.599  1.00  0.00     0.057 C 
ATOM      9  C   UNL     1      -3.719 -10.547  12.627  1.00  0.00     0.247 C 
ATOM     10  C   UNL     1      -4.530  -9.871  10.209  1.00  0.00     0.040 C 
ATOM     11  O   UNL     1      -2.811 -10.737  13.446  1.00  0.00    -0.272 OA
BRANCH   6  12
ATOM     12  O   UNL     1      -6.444  -8.989  12.217  1.00  0.00    -0.373 OA
ATOM     13  H   UNL     1      -5.868  -8.643  12.931  1.00  0.00     0.213 HD
ENDBRANCH   6  12
BRANCH   7  14
ATOM     14  C   UNL     1      -5.442 -10.991  14.360  1.00  0.00     0.177 C 
BRANCH  14  15
ATOM     15  C   UNL     1      -5.261 -12.467  14.765  1.00  0.00     0.038 C 
BRANCH  15  16
ATOM     16  C   UNL     1      -5.680 -13.583  13.782  1.00  0.00    -0.015 C 
ATOM     17  C   UNL     1      -6.759 -14.500  14.365  1.00  0.00     0.007 C 
ATOM     18  C   UNL     1      -4.461 -14.442  13.424  1.00  0.00     0.007 C 
ENDBRANCH  15  16
ENDBRANCH  14  15
BRANCH  14  19
ATOM     19  C   UNL     1      -5.194  -9.757  15.294  1.00  0.00     0.245 C 
ATOM     20  O   UNL     1      -5.079  -8.651  14.741  1.00  0.00    -0.272 OA
BRANCH  19  21
ATOM     21  N   UNL     1      -4.988  -9.852  16.659  1.00  0.00    -0.332 N 
ATOM     22  C   UNL     1      -5.967 -10.308  17.630  1.00  0.00     0.147 C 
BRANCH  21  23
ATOM     23  C   UNL     1      -3.658  -9.445  17.192  1.00  0.00     0.178 C 
BRANCH  23  24
ATOM     24  C   UNL     1      -3.701  -8.736  18.561  1.00  0.00     0.070 C 
BRANCH  24  25
ATOM     25  C   UNL     1      -3.438  -7.249  18.574  1.00  0.00    -0.045 A 
ATOM     26  C   UNL     1      -4.324  -6.369  19.209  1.00  0.00     0.004 A 
ATOM     27  C   UNL     1      -2.299  -6.726  17.944  1.00  0.00     0.004 A 
ATOM     28  C   UNL     1      -4.083  -4.993  19.201  1.00  0.00     0.000 A 
ATOM     29  C   UNL     1      -2.059  -5.351  17.938  1.00  0.00     0.000 A 
ATOM     30  C   UNL     1      -2.953  -4.485  18.565  1.00  0.00     0.000 A 
ENDBRANCH  24  25
ENDBRANCH  23  24
BRANCH  23  31
ATOM     31  C   UNL     1      -2.592 -10.560  17.069  1.00  0.00     0.243 C 
ATOM     32  O   UNL     1      -2.494 -11.506  17.846  1.00  0.00    -0.273 OA
ATOM     33  N   UNL     1      -1.630 -10.301  16.107  1.00  0.00    -0.341 N 
ATOM     34  H   UNL     1      -1.763  -9.493  15.493  1.00  0.00     0.164 HD
BRANCH  33  35
ATOM     35  C   UNL     1      -0.460 -11.157  15.896  1.00  0.00     0.194 C 
BRANCH  35  36
ATOM     36  C   UNL     1      -0.743 -12.675  16.080  1.00  0.00     0.017 C 
ATOM     37  C   UNL     1       0.472 -13.401  16.684  1.00  0.00     0.010 C 
ATOM     38  C   UNL     1      -1.097 -13.387  14.768  1.00  0.00     0.010 C 
ENDBRANCH  35  36
BRANCH  35  39
ATOM     39  C   UNL     1       0.776 -10.694  16.718  1.00  0.00     0.329 C 
ATOM     40  O   UNL     1       0.767 -10.517  17.930  1.00  0.00    -0.250 OA
BRANCH  39  41
ATOM     41  O   UNL     1       1.902 -10.589  15.949  1.00  0.00    -0.458 OA
BRANCH  41  42
ATOM     42  C   UNL     1       1.694 -10.465  14.521  1.00  0.00     0.205 CG0
ATOM     43  C   UNL     1       2.790 -11.274  13.831  1.00  0.00     0.056 C 
ATOM     44  G   UNL     1       1.738  -8.971  14.146  1.00  0.00     0.000 G0
ENDBRANCH  41  42
ENDBRANCH  39  41
ENDBRANCH  35  39
ENDBRANCH  33  35
ENDBRANCH  23  31
ENDBRANCH  21  23
ENDBRANCH  19  21
ENDBRANCH  14  19
ENDBRANCH   7  14
ENDBRANCH   2   5
BRANCH   3  45
ATOM     45  C   UNL     1      -0.170  -8.064  10.903  1.00  0.00     0.171 C 
BRANCH  45  46
ATOM     46  N   UNL     1       0.836  -8.464  11.878  1.00  0.00    -0.342 N 
ATOM     47  C   UNL     1       0.538  -8.665  13.203  1.00  0.00     0.247 C 
ATOM     48  O   UNL     1      -0.607  -8.593  13.649  1.00  0.00    -0.273 OA
ATOM     49  H   UNL     1       1.788  -8.590  11.540  1.00  0.00     0.164 HD
BRANCH  47  50
ATOM     50  C   UNL     1       1.747  -8.960  14.103  1.00  0.00     0.212 CG0
ATOM     51  G   UNL     1       1.699 -10.455  14.474  1.00  0.00     0.000 G0
BRANCH  50  52
ATOM     52  N   UNL     1       2.920  -8.599  13.311  1.00  0.00    -0.339 N 
ATOM     53  C   UNL     1       3.735  -7.535  13.610  1.00  0.00     0.243 C 
ATOM     54  O   UNL     1       3.509  -6.769  14.542  1.00  0.00    -0.273 OA
ATOM     55  H   UNL     1       3.097  -9.130  12.461  1.00  0.00     0.164 HD
BRANCH  53  56
ATOM     56  C   UNL     1       4.860  -7.299  12.582  1.00  0.00     0.182 C 
BRANCH  56  57
ATOM     57  N   UNL     1       5.908  -6.436  13.137  1.00  0.00    -0.344 N 
ATOM     58  C   UNL     1       7.219  -6.520  12.737  1.00  0.00     0.220 C 
ATOM     59  O   UNL     1       7.619  -7.368  11.947  1.00  0.00    -0.275 OA
ATOM     60  H   UNL     1       5.604  -5.657  13.715  1.00  0.00     0.164 HD
BRANCH  58  61
ATOM     61  C   UNL     1       8.117  -5.492  13.400  1.00  0.00     0.100 C 
BRANCH  61  62
ATOM     62  C   UNL     1       7.447  -4.134  13.612  1.00  0.00     0.010 C 
BRANCH  62  63
ATOM     63  C   UNL     1       7.237  -3.761  15.085  1.00  0.00     0.000 C 
BRANCH  63  64
ATOM     64  C   UNL     1       7.213  -2.257  15.353  1.00  0.00    -0.003 C 
ATOM     65  C   UNL     1       7.806  -1.476  14.190  1.00  0.00     0.004 C 
ENDBRANCH  63  64
ENDBRANCH  62  63
ENDBRANCH  61  62
ENDBRANCH  58  61
ENDBRANCH  56  57
BRANCH  56  66
ATOM     66  C   UNL     1       4.309  -6.761  11.262  1.00  0.00     0.157 C 
BRANCH  66  67
ATOM     67  C   UNL     1       3.876  -5.330  11.397  1.00  0.00     0.305 C 
ATOM     68  O   UNL     1       4.164  -4.559  12.300  1.00  0.00    -0.252 OA
BRANCH  67  69
ATOM     69  O   UNL     1       3.135  -4.918  10.350  1.00  0.00    -0.481 OA
ATOM     70  H   UNL     1       2.882  -5.743   9.883  1.00  0.00     0.296 HD
ENDBRANCH  67  69
ENDBRANCH  66  67
ENDBRANCH  56  66
ENDBRANCH  53  56
ENDBRANCH  50  52
ENDBRANCH  47  50
ENDBRANCH  45  46
BRANCH  45  71
ATOM     71  C   UNL     1      -0.954  -6.834  11.372  1.00  0.00     0.037 C 
BRANCH  71  72
ATOM     72  C   UNL     1      -1.582  -6.071  10.202  1.00  0.00     0.026 C 
BRANCH  72  73
ATOM     73  C   UNL     1      -2.908  -5.427  10.601  1.00  0.00     0.146 C 
BRANCH  73  74
ATOM     74  N   UNL     1      -2.607  -4.183  11.303  1.00  0.00    -0.254 NA
ATOM     75  C   UNL     1      -3.576  -3.376  11.533  1.00  0.00     0.185 C 
ATOM     76  N   UNL     1      -3.331  -2.224  12.179  1.00  0.00    -0.370 N 
ATOM     77  N   UNL     1      -4.876  -3.503  11.214  1.00  0.00    -0.370 N 
ATOM     78  H   UNL     1      -2.375  -2.045  12.449  1.00  0.00     0.159 HD
ATOM     79  H   UNL     1      -4.005  -1.484  12.265  1.00  0.00     0.159 HD
ATOM     80  H   UNL     1      -5.208  -4.323  10.729  1.00  0.00     0.159 HD
ATOM     81  H   UNL     1      -5.568  -2.854  11.550  1.00  0.00     0.159 HD
ENDBRANCH  73  74
ENDBRANCH  72  73
ENDBRANCH  71  72
ENDBRANCH  45  71
ENDBRANCH   3  45
TORSDOF 20
ENDMDL
MODEL 6
REMARK VINA RESULT:    -4.474      5.461     11.400
REMARK INTER + INTRA:         -19.607
REMARK INTER:                 -14.003
REMARK INTRA:                  -5.603
REMARK UNBOUND:                -6.762
REMARK SMILES CCCCCC(=O)N[C@H](CC(=O)O)C(=O)N[C@H]1C(=O)N[C@H](CCCN=C(N)N)C(=O)N[C@@H]2CC[C@H](O)N(C2=O)[C@@H](CC(C)C)C(=O)N(C)[C@@H](Cc2ccccc2)C(=O)N[C@H](C(C)C)C(=O)O[C@@H]1C
REMARK SMILES IDX 30 1 31 2 29 3 32 5 35 6 37 7 34 8 38 9 33 10 39 11 36 12
REMARK SMILES IDX 40 14 41 15 42 16 43 17 44 18 45 19 46 20 47 21 48 22 49 23
REMARK SMILES IDX 50 24 51 25 52 26 56 27 53 28 55 29 54 30 57 31 58 32 59 33
REMARK SMILES IDX 60 35 61 36 62 37 63 38 64 39 65 40 66 41 67 42 68 43 21 45
REMARK SMILES IDX 20 46 18 47 19 48 17 50 16 52 14 53 15 54 9 56 8 57 6 58
REMARK SMILES IDX 7 59 5 61 4 62 3 63 2 64 1 65 10 66 11 67 12 68 13 69 22 71
REMARK SMILES IDX 23 72 24 73 25 74 26 75 27 76 28 77
REMARK H PARENT 31 4 36 13 59 34 20 49 16 55 8 60 13 70 27 78 27 79 28 80
REMARK H PARENT 28 81
REMARK Flexibility Score:  259.900
ROOT
ATOM      1  O   UNL     1      -1.703  -9.367  16.560  1.00  0.00    -0.273 OA
ATOM      2  N   UNL     1      -3.038 -10.867  15.464  1.00  0.00    -0.343 N 
ATOM      3  C   UNL     1      -1.902 -10.096  15.587  1.00  0.00     0.243 C 
ATOM      4  H   UNL     1      -3.161 -11.465  14.657  1.00  0.00     0.164 HD
ENDROOT
BRANCH   2   5
ATOM      5  C   UNL     1      -4.118 -10.757  16.438  1.00  0.00     0.171 C 
ATOM      6  C   UNL     1      -6.152 -12.619  17.333  1.00  0.00     0.214 C 
ATOM      7  N   UNL     1      -6.435 -11.736  16.226  1.00  0.00    -0.303 N 
ATOM      8  C   UNL     1      -5.168 -12.034  18.333  1.00  0.00     0.057 C 
ATOM      9  C   UNL     1      -5.492 -10.859  15.715  1.00  0.00     0.247 C 
ATOM     10  C   UNL     1      -3.875 -11.679  17.632  1.00  0.00     0.040 C 
ATOM     11  O   UNL     1      -5.714 -10.168  14.712  1.00  0.00    -0.272 OA
BRANCH   6  12
ATOM     12  O   UNL     1      -5.656 -13.827  16.804  1.00  0.00    -0.373 OA
ATOM     13  H   UNL     1      -4.837 -13.610  16.309  1.00  0.00     0.213 HD
ENDBRANCH   6  12
BRANCH   7  14
ATOM     14  C   UNL     1      -7.739 -11.905  15.550  1.00  0.00     0.177 C 
BRANCH  14  15
ATOM     15  C   UNL     1      -8.827 -10.894  15.960  1.00  0.00     0.038 C 
BRANCH  15  16
ATOM     16  C   UNL     1      -9.907 -11.311  16.982  1.00  0.00    -0.015 C 
ATOM     17  C   UNL     1     -11.197 -10.499  16.833  1.00  0.00     0.007 C 
ATOM     18  C   UNL     1      -9.376 -11.111  18.408  1.00  0.00     0.007 C 
ENDBRANCH  15  16
ENDBRANCH  14  15
BRANCH  14  19
ATOM     19  C   UNL     1      -7.532 -12.479  14.106  1.00  0.00     0.245 C 
ATOM     20  O   UNL     1      -6.639 -13.332  13.965  1.00  0.00    -0.272 OA
BRANCH  19  21
ATOM     21  N   UNL     1      -8.201 -12.013  12.988  1.00  0.00    -0.332 N 
ATOM     22  C   UNL     1      -9.178 -10.939  12.977  1.00  0.00     0.147 C 
BRANCH  21  23
ATOM     23  C   UNL     1      -7.911 -12.666  11.681  1.00  0.00     0.178 C 
BRANCH  23  24
ATOM     24  C   UNL     1      -9.076 -12.632  10.670  1.00  0.00     0.070 C 
BRANCH  24  25
ATOM     25  C   UNL     1      -9.097 -13.708   9.609  1.00  0.00    -0.045 A 
ATOM     26  C   UNL     1      -8.431 -14.924   9.806  1.00  0.00     0.004 A 
ATOM     27  C   UNL     1      -9.785 -13.499   8.404  1.00  0.00     0.004 A 
ATOM     28  C   UNL     1      -8.442 -15.906   8.814  1.00  0.00     0.000 A 
ATOM     29  C   UNL     1      -9.796 -14.483   7.414  1.00  0.00     0.000 A 
ATOM     30  C   UNL     1      -9.122 -15.684   7.618  1.00  0.00     0.000 A 
ENDBRANCH  24  25
ENDBRANCH  23  24
BRANCH  23  31
ATOM     31  C   UNL     1      -6.533 -12.269  11.100  1.00  0.00     0.243 C 
ATOM     32  O   UNL     1      -6.347 -11.295  10.375  1.00  0.00    -0.273 OA
ATOM     33  N   UNL     1      -5.548 -13.218  11.318  1.00  0.00    -0.341 N 
ATOM     34  H   UNL     1      -5.763 -14.011  11.926  1.00  0.00     0.164 HD
BRANCH  33  35
ATOM     35  C   UNL     1      -4.198 -13.110  10.757  1.00  0.00     0.194 C 
BRANCH  35  36
ATOM     36  C   UNL     1      -3.579 -14.469  10.325  1.00  0.00     0.017 C 
ATOM     37  C   UNL     1      -2.463 -14.270   9.285  1.00  0.00     0.010 C 
ATOM     38  C   UNL     1      -4.605 -15.434   9.718  1.00  0.00     0.010 C 
ENDBRANCH  35  36
BRANCH  35  39
ATOM     39  C   UNL     1      -3.235 -12.298  11.669  1.00  0.00     0.329 C 
ATOM     40  O   UNL     1      -3.250 -12.341  12.893  1.00  0.00    -0.250 OA
BRANCH  39  41
ATOM     41  O   UNL     1      -2.308 -11.595  10.950  1.00  0.00    -0.458 OA
BRANCH  41  42
ATOM     42  C   UNL     1      -2.764 -10.357  10.353  1.00  0.00     0.205 CG0
ATOM     43  C   UNL     1      -2.619 -10.503   8.840  1.00  0.00     0.056 C 
ATOM     44  G   UNL     1      -1.920  -9.198  10.918  1.00  0.00     0.000 G0
ENDBRANCH  41  42
ENDBRANCH  39  41
ENDBRANCH  35  39
ENDBRANCH  33  35
ENDBRANCH  23  31
ENDBRANCH  21  23
ENDBRANCH  19  21
ENDBRANCH  14  19
ENDBRANCH   7  14
ENDBRANCH   2   5
BRANCH   3  45
ATOM     45  C   UNL     1      -0.892 -10.225  14.438  1.00  0.00     0.171 C 
BRANCH  45  46
ATOM     46  N   UNL     1      -1.621  -9.860  13.231  1.00  0.00    -0.342 N 
ATOM     47  C   UNL     1      -0.996  -9.665  12.025  1.00  0.00     0.247 C 
ATOM     48  O   UNL     1       0.209  -9.856  11.858  1.00  0.00    -0.273 OA
ATOM     49  H   UNL     1      -2.630  -9.746  13.312  1.00  0.00     0.164 HD
BRANCH  47  50
ATOM     50  C   UNL     1      -1.906  -9.163  10.895  1.00  0.00     0.212 CG0
ATOM     51  G   UNL     1      -2.745 -10.360  10.403  1.00  0.00     0.000 G0
BRANCH  50  52
ATOM     52  N   UNL     1      -2.712  -8.099  11.487  1.00  0.00    -0.339 N 
ATOM     53  C   UNL     1      -2.362  -6.771  11.440  1.00  0.00     0.243 C 
ATOM     54  O   UNL     1      -1.312  -6.380  10.938  1.00  0.00    -0.273 OA
ATOM     55  H   UNL     1      -3.539  -8.370  12.015  1.00  0.00     0.164 HD
BRANCH  53  56
ATOM     56  C   UNL     1      -3.323  -5.841  12.209  1.00  0.00     0.182 C 
BRANCH  56  57
ATOM     57  N   UNL     1      -2.987  -4.432  11.981  1.00  0.00    -0.344 N 
ATOM     58  C   UNL     1      -3.942  -3.483  11.709  1.00  0.00     0.220 C 
ATOM     59  O   UNL     1      -5.128  -3.757  11.566  1.00  0.00    -0.275 OA
ATOM     60  H   UNL     1      -2.034  -4.146  12.190  1.00  0.00     0.164 HD
BRANCH  58  61
ATOM     61  C   UNL     1      -3.374  -2.082  11.568  1.00  0.00     0.100 C 
BRANCH  61  62
ATOM     62  C   UNL     1      -2.539  -1.632  12.767  1.00  0.00     0.010 C 
BRANCH  62  63
ATOM     63  C   UNL     1      -2.405  -0.110  12.901  1.00  0.00     0.000 C 
BRANCH  63  64
ATOM     64  C   UNL     1      -3.738   0.633  12.973  1.00  0.00    -0.003 C 
ATOM     65  C   UNL     1      -3.557   2.124  12.725  1.00  0.00     0.004 C 
ENDBRANCH  63  64
ENDBRANCH  62  63
ENDBRANCH  61  62
ENDBRANCH  58  61
ENDBRANCH  56  57
BRANCH  56  66
ATOM     66  C   UNL     1      -3.369  -6.190  13.696  1.00  0.00     0.157 C 
BRANCH  66  67
ATOM     67  C   UNL     1      -4.772  -6.485  14.142  1.00  0.00     0.305 C 
ATOM     68  O   UNL     1      -5.110  -7.048  15.171  1.00  0.00    -0.252 OA
BRANCH  67  69
ATOM     69  O   UNL     1      -5.693  -6.003  13.285  1.00  0.00    -0.481 OA
ATOM     70  H   UNL     1      -6.379  -5.598  13.857  1.00  0.00     0.296 HD
ENDBRANCH  67  69
ENDBRANCH  66  67
ENDBRANCH  56  66
ENDBRANCH  53  56
ENDBRANCH  50  52
ENDBRANCH  47  50
ENDBRANCH  45  46
BRANCH  45  71
ATOM     71  C   UNL     1      -0.352 -11.658  14.361  1.00  0.00     0.037 C 
BRANCH  71  72
ATOM     72  C   UNL     1       1.007 -11.799  15.051  1.00  0.00     0.026 C 
BRANCH  72  73
ATOM     73  C   UNL     1       2.130 -12.012  14.038  1.00  0.00     0.146 C 
BRANCH  73  74
ATOM     74  N   UNL     1       1.554 -12.657  12.861  1.00  0.00    -0.254 NA
ATOM     75  C   UNL     1       2.358 -13.091  11.963  1.00  0.00     0.185 C 
ATOM     76  N   UNL     1       1.858 -13.690  10.870  1.00  0.00    -0.370 N 
ATOM     77  N   UNL     1       3.701 -13.042  11.935  1.00  0.00    -0.370 N 
ATOM     78  H   UNL     1       0.853 -13.762  10.807  1.00  0.00     0.159 HD
ATOM     79  H   UNL     1       2.412 -13.923  10.064  1.00  0.00     0.159 HD
ATOM     80  H   UNL     1       4.215 -12.622  12.695  1.00  0.00     0.159 HD
ATOM     81  H   UNL     1       4.233 -13.521  11.228  1.00  0.00     0.159 HD
ENDBRANCH  73  74
ENDBRANCH  72  73
ENDBRANCH  71  72
ENDBRANCH  45  71
ENDBRANCH   3  45
TORSDOF 20
ENDMDL
MODEL 7
REMARK VINA RESULT:    -4.340      3.363      7.640
REMARK INTER + INTRA:         -19.220
REMARK INTER:                 -14.365
REMARK INTRA:                  -4.855
REMARK UNBOUND:                -6.762
REMARK SMILES CCCCCC(=O)N[C@H](CC(=O)O)C(=O)N[C@H]1C(=O)N[C@H](CCCN=C(N)N)C(=O)N[C@@H]2CC[C@H](O)N(C2=O)[C@@H](CC(C)C)C(=O)N(C)[C@@H](Cc2ccccc2)C(=O)N[C@H](C(C)C)C(=O)O[C@@H]1C
REMARK SMILES IDX 30 1 31 2 29 3 32 5 35 6 37 7 34 8 38 9 33 10 39 11 36 12
REMARK SMILES IDX 40 14 41 15 42 16 43 17 44 18 45 19 46 20 47 21 48 22 49 23
REMARK SMILES IDX 50 24 51 25 52 26 56 27 53 28 55 29 54 30 57 31 58 32 59 33
REMARK SMILES IDX 60 35 61 36 62 37 63 38 64 39 65 40 66 41 67 42 68 43 21 45
REMARK SMILES IDX 20 46 18 47 19 48 17 50 16 52 14 53 15 54 9 56 8 57 6 58
REMARK SMILES IDX 7 59 5 61 4 62 3 63 2 64 1 65 10 66 11 67 12 68 13 69 22 71
REMARK SMILES IDX 23 72 24 73 25 74 26 75 27 76 28 77
REMARK H PARENT 31 4 36 13 59 34 20 49 16 55 8 60 13 70 27 78 27 79 28 80
REMARK H PARENT 28 81
REMARK Flexibility Score:  259.900
ROOT
ATOM      1  O   UNL     1      -1.113 -10.433  14.522  1.00  0.00    -0.273 OA
ATOM      2  N   UNL     1      -0.488  -8.286  15.004  1.00  0.00    -0.343 N 
ATOM      3  C   UNL     1      -0.931  -9.273  14.150  1.00  0.00     0.243 C 
ATOM      4  H   UNL     1      -0.363  -7.340  14.666  1.00  0.00     0.164 HD
ENDROOT
BRANCH   2   5
ATOM      5  C   UNL     1      -0.099  -8.608  16.372  1.00  0.00     0.171 C 
ATOM      6  C   UNL     1       1.335  -7.124  18.408  1.00  0.00     0.214 C 
ATOM      7  N   UNL     1       2.068  -7.980  17.505  1.00  0.00    -0.303 N 
ATOM      8  C   UNL     1      -0.081  -7.606  18.679  1.00  0.00     0.057 C 
ATOM      9  C   UNL     1       1.451  -8.677  16.478  1.00  0.00     0.247 C 
ATOM     10  C   UNL     1      -0.840  -7.725  17.375  1.00  0.00     0.040 C 
ATOM     11  O   UNL     1       2.097  -9.339  15.655  1.00  0.00    -0.272 OA
BRANCH   6  12
ATOM     12  O   UNL     1       1.316  -5.829  17.854  1.00  0.00    -0.373 OA
ATOM     13  H   UNL     1       0.410  -5.475  17.981  1.00  0.00     0.213 HD
ENDBRANCH   6  12
BRANCH   7  14
ATOM     14  C   UNL     1       3.541  -7.973  17.623  1.00  0.00     0.177 C 
BRANCH  14  15
ATOM     15  C   UNL     1       4.178  -9.335  17.960  1.00  0.00     0.038 C 
BRANCH  15  16
ATOM     16  C   UNL     1       5.357  -9.856  17.108  1.00  0.00    -0.015 C 
ATOM     17  C   UNL     1       4.946 -11.007  16.184  1.00  0.00     0.007 C 
ATOM     18  C   UNL     1       6.480 -10.354  18.026  1.00  0.00     0.007 C 
ENDBRANCH  15  16
ENDBRANCH  14  15
BRANCH  14  19
ATOM     19  C   UNL     1       4.158  -6.895  16.666  1.00  0.00     0.245 C 
ATOM     20  O   UNL     1       3.409  -6.428  15.793  1.00  0.00    -0.272 OA
BRANCH  19  21
ATOM     21  N   UNL     1       5.493  -6.531  16.674  1.00  0.00    -0.332 N 
ATOM     22  C   UNL     1       6.318  -6.378  17.859  1.00  0.00     0.147 C 
BRANCH  21  23
ATOM     23  C   UNL     1       6.148  -6.260  15.364  1.00  0.00     0.178 C 
BRANCH  23  24
ATOM     24  C   UNL     1       7.611  -5.781  15.461  1.00  0.00     0.070 C 
BRANCH  24  25
ATOM     25  C   UNL     1       7.908  -4.377  14.990  1.00  0.00    -0.045 A 
ATOM     26  C   UNL     1       7.636  -3.273  15.809  1.00  0.00     0.004 A 
ATOM     27  C   UNL     1       8.457  -4.158  13.718  1.00  0.00     0.004 A 
ATOM     28  C   UNL     1       7.897  -1.977  15.360  1.00  0.00     0.000 A 
ATOM     29  C   UNL     1       8.719  -2.861  13.271  1.00  0.00     0.000 A 
ATOM     30  C   UNL     1       8.436  -1.772  14.092  1.00  0.00     0.000 A 
ENDBRANCH  24  25
ENDBRANCH  23  24
BRANCH  23  31
ATOM     31  C   UNL     1       5.895  -7.374  14.320  1.00  0.00     0.243 C 
ATOM     32  O   UNL     1       6.449  -8.470  14.337  1.00  0.00    -0.273 OA
ATOM     33  N   UNL     1       5.121  -6.963  13.249  1.00  0.00    -0.341 N 
ATOM     34  H   UNL     1       4.689  -6.036  13.289  1.00  0.00     0.164 HD
BRANCH  33  35
ATOM     35  C   UNL     1       4.851  -7.812  12.085  1.00  0.00     0.194 C 
BRANCH  35  36
ATOM     36  C   UNL     1       5.481  -7.295  10.762  1.00  0.00     0.017 C 
ATOM     37  C   UNL     1       6.352  -8.375  10.097  1.00  0.00     0.010 C 
ATOM     38  C   UNL     1       6.359  -6.053  10.955  1.00  0.00     0.010 C 
ENDBRANCH  35  36
BRANCH  35  39
ATOM     39  C   UNL     1       3.340  -8.137  11.920  1.00  0.00     0.329 C 
ATOM     40  O   UNL     1       2.449  -7.610  12.576  1.00  0.00    -0.250 OA
BRANCH  39  41
ATOM     41  O   UNL     1       3.106  -9.016  10.899  1.00  0.00    -0.458 OA
BRANCH  41  42
ATOM     42  C   UNL     1       2.292 -10.170  11.221  1.00  0.00     0.205 CG0
ATOM     43  C   UNL     1       3.228 -11.374  11.310  1.00  0.00     0.056 C 
ATOM     44  G   UNL     1       1.220 -10.336  10.125  1.00  0.00     0.000 G0
ENDBRANCH  41  42
ENDBRANCH  39  41
ENDBRANCH  35  39
ENDBRANCH  33  35
ENDBRANCH  23  31
ENDBRANCH  21  23
ENDBRANCH  19  21
ENDBRANCH  14  19
ENDBRANCH   7  14
ENDBRANCH   2   5
BRANCH   3  45
ATOM     45  C   UNL     1      -1.201  -8.822  12.708  1.00  0.00     0.171 C 
BRANCH  45  46
ATOM     46  N   UNL     1      -0.034  -9.234  11.941  1.00  0.00    -0.342 N 
ATOM     47  C   UNL     1      -0.136  -9.873  10.730  1.00  0.00     0.247 C 
ATOM     48  O   UNL     1      -1.214 -10.078  10.172  1.00  0.00    -0.273 OA
ATOM     49  H   UNL     1       0.881  -9.033  12.340  1.00  0.00     0.164 HD
BRANCH  47  50
ATOM     50  C   UNL     1       1.196 -10.342  10.128  1.00  0.00     0.212 CG0
ATOM     51  G   UNL     1       2.280 -10.188  11.214  1.00  0.00     0.000 G0
BRANCH  50  52
ATOM     52  N   UNL     1       0.975 -11.728   9.726  1.00  0.00    -0.339 N 
ATOM     53  C   UNL     1       0.621 -12.099   8.452  1.00  0.00     0.243 C 
ATOM     54  O   UNL     1       0.410 -11.282   7.560  1.00  0.00    -0.273 OA
ATOM     55  H   UNL     1       1.026 -12.444  10.449  1.00  0.00     0.164 HD
BRANCH  53  56
ATOM     56  C   UNL     1       0.358 -13.609   8.287  1.00  0.00     0.182 C 
BRANCH  56  57
ATOM     57  N   UNL     1      -0.482 -13.873   7.114  1.00  0.00    -0.344 N 
ATOM     58  C   UNL     1      -0.332 -14.997   6.339  1.00  0.00     0.220 C 
ATOM     59  O   UNL     1       0.558 -15.819   6.528  1.00  0.00    -0.275 OA
ATOM     60  H   UNL     1      -1.292 -13.272   6.984  1.00  0.00     0.164 HD
BRANCH  58  61
ATOM     61  C   UNL     1      -1.347 -15.092   5.215  1.00  0.00     0.100 C 
BRANCH  61  62
ATOM     62  C   UNL     1      -0.753 -14.847   3.827  1.00  0.00     0.010 C 
BRANCH  62  63
ATOM     63  C   UNL     1      -1.479 -13.767   3.015  1.00  0.00     0.000 C 
BRANCH  63  64
ATOM     64  C   UNL     1      -2.326 -14.311   1.865  1.00  0.00    -0.003 C 
ATOM     65  C   UNL     1      -2.311 -15.832   1.836  1.00  0.00     0.004 C 
ENDBRANCH  63  64
ENDBRANCH  62  63
ENDBRANCH  61  62
ENDBRANCH  58  61
ENDBRANCH  56  57
BRANCH  56  66
ATOM     66  C   UNL     1      -0.223 -14.219   9.562  1.00  0.00     0.157 C 
BRANCH  66  67
ATOM     67  C   UNL     1      -1.665 -13.836   9.739  1.00  0.00     0.305 C 
ATOM     68  O   UNL     1      -2.601 -14.154   9.021  1.00  0.00    -0.252 OA
BRANCH  67  69
ATOM     69  O   UNL     1      -1.867 -13.107  10.852  1.00  0.00    -0.481 OA
ATOM     70  H   UNL     1      -2.832 -13.167  11.019  1.00  0.00     0.296 HD
ENDBRANCH  67  69
ENDBRANCH  66  67
ENDBRANCH  56  66
ENDBRANCH  53  56
ENDBRANCH  50  52
ENDBRANCH  47  50
ENDBRANCH  45  46
BRANCH  45  71
ATOM     71  C   UNL     1      -1.407  -7.304  12.654  1.00  0.00     0.037 C 
BRANCH  71  72
ATOM     72  C   UNL     1      -1.073  -6.727  11.276  1.00  0.00     0.026 C 
BRANCH  72  73
ATOM     73  C   UNL     1      -2.309  -6.136  10.601  1.00  0.00     0.146 C 
BRANCH  73  74
ATOM     74  N   UNL     1      -3.374  -7.131  10.670  1.00  0.00    -0.254 NA
ATOM     75  C   UNL     1      -3.778  -7.654   9.572  1.00  0.00     0.185 C 
ATOM     76  N   UNL     1      -4.757  -8.573   9.603  1.00  0.00    -0.370 N 
ATOM     77  N   UNL     1      -3.355  -7.417   8.318  1.00  0.00    -0.370 N 
ATOM     78  H   UNL     1      -5.138  -8.805  10.509  1.00  0.00     0.159 HD
ATOM     79  H   UNL     1      -5.220  -8.916   8.781  1.00  0.00     0.159 HD
ATOM     80  H   UNL     1      -2.618  -6.751   8.141  1.00  0.00     0.159 HD
ATOM     81  H   UNL     1      -3.668  -7.975   7.541  1.00  0.00     0.159 HD
ENDBRANCH  73  74
ENDBRANCH  72  73
ENDBRANCH  71  72
ENDBRANCH  45  71
ENDBRANCH   3  45
TORSDOF 20
ENDMDL
MODEL 8
REMARK VINA RESULT:    -4.264      1.954      2.645
REMARK INTER + INTRA:         -19.003
REMARK INTER:                 -13.896
REMARK INTRA:                  -5.107
REMARK UNBOUND:                -6.762
REMARK SMILES CCCCCC(=O)N[C@H](CC(=O)O)C(=O)N[C@H]1C(=O)N[C@H](CCCN=C(N)N)C(=O)N[C@@H]2CC[C@H](O)N(C2=O)[C@@H](CC(C)C)C(=O)N(C)[C@@H](Cc2ccccc2)C(=O)N[C@H](C(C)C)C(=O)O[C@@H]1C
REMARK SMILES IDX 30 1 31 2 29 3 32 5 35 6 37 7 34 8 38 9 33 10 39 11 36 12
REMARK SMILES IDX 40 14 41 15 42 16 43 17 44 18 45 19 46 20 47 21 48 22 49 23
REMARK SMILES IDX 50 24 51 25 52 26 56 27 53 28 55 29 54 30 57 31 58 32 59 33
REMARK SMILES IDX 60 35 61 36 62 37 63 38 64 39 65 40 66 41 67 42 68 43 21 45
REMARK SMILES IDX 20 46 18 47 19 48 17 50 16 52 14 53 15 54 9 56 8 57 6 58
REMARK SMILES IDX 7 59 5 61 4 62 3 63 2 64 1 65 10 66 11 67 12 68 13 69 22 71
REMARK SMILES IDX 23 72 24 73 25 74 26 75 27 76 28 77
REMARK H PARENT 31 4 36 13 59 34 20 49 16 55 8 60 13 70 27 78 27 79 28 80
REMARK H PARENT 28 81
REMARK Flexibility Score:  259.900
ROOT
ATOM      1  O   UNL     1       3.907  -9.534  12.877  1.00  0.00    -0.273 OA
ATOM      2  N   UNL     1       3.227  -8.140  11.196  1.00  0.00    -0.343 N 
ATOM      3  C   UNL     1       3.034  -9.175  12.086  1.00  0.00     0.243 C 
ATOM      4  H   UNL     1       2.481  -7.862  10.570  1.00  0.00     0.164 HD
ENDROOT
BRANCH   2   5
ATOM      5  C   UNL     1       4.532  -7.501  11.072  1.00  0.00     0.171 C 
ATOM      6  C   UNL     1       6.840  -7.392  12.823  1.00  0.00     0.214 C 
ATOM      7  N   UNL     1       5.828  -6.365  12.917  1.00  0.00    -0.303 N 
ATOM      8  C   UNL     1       6.976  -7.977  11.427  1.00  0.00     0.057 C 
ATOM      9  C   UNL     1       4.677  -6.385  12.147  1.00  0.00     0.247 C 
ATOM     10  C   UNL     1       5.646  -8.542  10.976  1.00  0.00     0.040 C 
ATOM     11  O   UNL     1       3.774  -5.550  12.294  1.00  0.00    -0.272 OA
BRANCH   6  12
ATOM     12  O   UNL     1       6.516  -8.401  13.751  1.00  0.00    -0.373 OA
ATOM     13  H   UNL     1       5.610  -8.708  13.537  1.00  0.00     0.213 HD
ENDBRANCH   6  12
BRANCH   7  14
ATOM     14  C   UNL     1       5.995  -5.355  13.984  1.00  0.00     0.177 C 
BRANCH  14  15
ATOM     15  C   UNL     1       6.110  -3.898  13.495  1.00  0.00     0.038 C 
BRANCH  15  16
ATOM     16  C   UNL     1       7.465  -3.164  13.606  1.00  0.00    -0.015 C 
ATOM     17  C   UNL     1       8.644  -4.045  13.184  1.00  0.00     0.007 C 
ATOM     18  C   UNL     1       7.694  -2.717  15.056  1.00  0.00     0.007 C 
ENDBRANCH  15  16
ENDBRANCH  14  15
BRANCH  14  19
ATOM     19  C   UNL     1       5.262  -5.818  15.290  1.00  0.00     0.245 C 
ATOM     20  O   UNL     1       4.039  -6.021  15.204  1.00  0.00    -0.272 OA
BRANCH  19  21
ATOM     21  N   UNL     1       5.873  -5.899  16.529  1.00  0.00    -0.332 N 
ATOM     22  C   UNL     1       5.988  -4.813  17.485  1.00  0.00     0.147 C 
BRANCH  21  23
ATOM     23  C   UNL     1       6.477  -7.202  16.923  1.00  0.00     0.178 C 
BRANCH  23  24
ATOM     24  C   UNL     1       7.880  -7.099  17.555  1.00  0.00     0.070 C 
BRANCH  24  25
ATOM     25  C   UNL     1       9.013  -6.677  16.649  1.00  0.00    -0.045 A 
ATOM     26  C   UNL     1       9.344  -7.430  15.515  1.00  0.00     0.004 A 
ATOM     27  C   UNL     1       9.756  -5.522  16.936  1.00  0.00     0.004 A 
ATOM     28  C   UNL     1      10.404  -7.042  14.692  1.00  0.00     0.000 A 
ATOM     29  C   UNL     1      10.815  -5.136  16.112  1.00  0.00     0.000 A 
ATOM     30  C   UNL     1      11.139  -5.898  14.992  1.00  0.00     0.000 A 
ENDBRANCH  24  25
ENDBRANCH  23  24
BRANCH  23  31
ATOM     31  C   UNL     1       5.488  -8.122  17.678  1.00  0.00     0.243 C 
ATOM     32  O   UNL     1       5.265  -8.048  18.884  1.00  0.00    -0.273 OA
ATOM     33  N   UNL     1       5.007  -9.168  16.909  1.00  0.00    -0.341 N 
ATOM     34  H   UNL     1       5.232  -9.180  15.911  1.00  0.00     0.164 HD
BRANCH  33  35
ATOM     35  C   UNL     1       4.152 -10.229  17.448  1.00  0.00     0.194 C 
BRANCH  35  36
ATOM     36  C   UNL     1       4.925 -11.502  17.896  1.00  0.00     0.017 C 
ATOM     37  C   UNL     1       5.993 -11.900  16.862  1.00  0.00     0.010 C 
ATOM     38  C   UNL     1       4.016 -12.718  18.108  1.00  0.00     0.010 C 
ENDBRANCH  35  36
BRANCH  35  39
ATOM     39  C   UNL     1       2.963 -10.574  16.509  1.00  0.00     0.329 C 
ATOM     40  O   UNL     1       3.042 -11.335  15.553  1.00  0.00    -0.250 OA
BRANCH  39  41
ATOM     41  O   UNL     1       1.792  -9.998  16.920  1.00  0.00    -0.458 OA
BRANCH  41  42
ATOM     42  C   UNL     1       1.348  -8.842  16.171  1.00  0.00     0.205 CG0
ATOM     43  C   UNL     1       1.222  -7.683  17.158  1.00  0.00     0.056 C 
ATOM     44  G   UNL     1       0.009  -9.183  15.488  1.00  0.00     0.000 G0
ENDBRANCH  41  42
ENDBRANCH  39  41
ENDBRANCH  35  39
ENDBRANCH  33  35
ENDBRANCH  23  31
ENDBRANCH  21  23
ENDBRANCH  19  21
ENDBRANCH  14  19
ENDBRANCH   7  14
ENDBRANCH   2   5
BRANCH   3  45
ATOM     45  C   UNL     1       1.649  -9.832  12.039  1.00  0.00     0.171 C 
BRANCH  45  46
ATOM     46  N   UNL     1       1.199  -9.903  13.423  1.00  0.00    -0.342 N 
ATOM     47  C   UNL     1       0.245  -9.059  13.932  1.00  0.00     0.247 C 
ATOM     48  O   UNL     1      -0.352  -8.232  13.242  1.00  0.00    -0.273 OA
ATOM     49  H   UNL     1       1.627 -10.613  14.016  1.00  0.00     0.164 HD
BRANCH  47  50
ATOM     50  C   UNL     1      -0.010  -9.199  15.439  1.00  0.00     0.212 CG0
ATOM     51  G   UNL     1       1.298  -8.838  16.170  1.00  0.00     0.000 G0
BRANCH  50  52
ATOM     52  N   UNL     1      -1.109  -8.283  15.735  1.00  0.00    -0.339 N 
ATOM     53  C   UNL     1      -2.043  -8.515  16.715  1.00  0.00     0.243 C 
ATOM     54  O   UNL     1      -2.057  -9.544  17.386  1.00  0.00    -0.273 OA
ATOM     55  H   UNL     1      -1.216  -7.465  15.139  1.00  0.00     0.164 HD
BRANCH  53  56
ATOM     56  C   UNL     1      -3.157  -7.451  16.785  1.00  0.00     0.182 C 
BRANCH  56  57
ATOM     57  N   UNL     1      -3.218  -6.671  15.545  1.00  0.00    -0.344 N 
ATOM     58  C   UNL     1      -4.381  -6.511  14.832  1.00  0.00     0.220 C 
ATOM     59  O   UNL     1      -5.430  -7.067  15.141  1.00  0.00    -0.275 OA
ATOM     60  H   UNL     1      -2.401  -6.113  15.311  1.00  0.00     0.164 HD
BRANCH  58  61
ATOM     61  C   UNL     1      -4.224  -5.617  13.616  1.00  0.00     0.100 C 
BRANCH  61  62
ATOM     62  C   UNL     1      -2.910  -4.836  13.592  1.00  0.00     0.010 C 
BRANCH  62  63
ATOM     63  C   UNL     1      -3.087  -3.316  13.479  1.00  0.00     0.000 C 
BRANCH  63  64
ATOM     64  C   UNL     1      -3.157  -2.798  12.043  1.00  0.00    -0.003 C 
ATOM     65  C   UNL     1      -4.537  -2.241  11.721  1.00  0.00     0.004 C 
ENDBRANCH  63  64
ENDBRANCH  62  63
ENDBRANCH  61  62
ENDBRANCH  58  61
ENDBRANCH  56  57
BRANCH  56  66
ATOM     66  C   UNL     1      -3.006  -6.563  18.018  1.00  0.00     0.157 C 
BRANCH  66  67
ATOM     67  C   UNL     1      -2.113  -5.389  17.737  1.00  0.00     0.305 C 
ATOM     68  O   UNL     1      -2.288  -4.520  16.897  1.00  0.00    -0.252 OA
BRANCH  67  69
ATOM     69  O   UNL     1      -1.057  -5.338  18.572  1.00  0.00    -0.481 OA
ATOM     70  H   UNL     1      -0.622  -4.482  18.373  1.00  0.00     0.296 HD
ENDBRANCH  67  69
ENDBRANCH  66  67
ENDBRANCH  56  66
ENDBRANCH  53  56
ENDBRANCH  50  52
ENDBRANCH  47  50
ENDBRANCH  45  46
BRANCH  45  71
ATOM     71  C   UNL     1       1.739 -11.223  11.402  1.00  0.00     0.037 C 
BRANCH  71  72
ATOM     72  C   UNL     1       0.458 -11.598  10.653  1.00  0.00     0.026 C 
BRANCH  72  73
ATOM     73  C   UNL     1       0.541 -11.221   9.176  1.00  0.00     0.146 C 
BRANCH  73  74
ATOM     74  N   UNL     1       1.417 -12.184   8.517  1.00  0.00    -0.254 NA
ATOM     75  C   UNL     1       1.089 -12.590   7.346  1.00  0.00     0.185 C 
ATOM     76  N   UNL     1       1.876 -13.475   6.714  1.00  0.00    -0.370 N 
ATOM     77  N   UNL     1       0.020 -12.252   6.604  1.00  0.00    -0.370 N 
ATOM     78  H   UNL     1       2.700 -13.789   7.207  1.00  0.00     0.159 HD
ATOM     79  H   UNL     1       1.611 -13.944   5.866  1.00  0.00     0.159 HD
ATOM     80  H   UNL     1      -0.658 -11.590   6.951  1.00  0.00     0.159 HD
ATOM     81  H   UNL     1      -0.073 -12.549   5.646  1.00  0.00     0.159 HD
ENDBRANCH  73  74
ENDBRANCH  72  73
ENDBRANCH  71  72
ENDBRANCH  45  71
ENDBRANCH   3  45
TORSDOF 20
ENDMDL
MODEL 9
REMARK VINA RESULT:    -4.023      4.292      8.651
REMARK INTER + INTRA:         -18.310
REMARK INTER:                 -12.940
REMARK INTRA:                  -5.370
REMARK UNBOUND:                -6.762
REMARK SMILES CCCCCC(=O)N[C@H](CC(=O)O)C(=O)N[C@H]1C(=O)N[C@H](CCCN=C(N)N)C(=O)N[C@@H]2CC[C@H](O)N(C2=O)[C@@H](CC(C)C)C(=O)N(C)[C@@H](Cc2ccccc2)C(=O)N[C@H](C(C)C)C(=O)O[C@@H]1C
REMARK SMILES IDX 30 1 31 2 29 3 32 5 35 6 37 7 34 8 38 9 33 10 39 11 36 12
REMARK SMILES IDX 40 14 41 15 42 16 43 17 44 18 45 19 46 20 47 21 48 22 49 23
REMARK SMILES IDX 50 24 51 25 52 26 56 27 53 28 55 29 54 30 57 31 58 32 59 33
REMARK SMILES IDX 60 35 61 36 62 37 63 38 64 39 65 40 66 41 67 42 68 43 21 45
REMARK SMILES IDX 20 46 18 47 19 48 17 50 16 52 14 53 15 54 9 56 8 57 6 58
REMARK SMILES IDX 7 59 5 61 4 62 3 63 2 64 1 65 10 66 11 67 12 68 13 69 22 71
REMARK SMILES IDX 23 72 24 73 25 74 26 75 27 76 28 77
REMARK H PARENT 31 4 36 13 59 34 20 49 16 55 8 60 13 70 27 78 27 79 28 80
REMARK H PARENT 28 81
REMARK Flexibility Score:  259.900
ROOT
ATOM      1  O   UNL     1      -1.895 -10.709  12.185  1.00  0.00    -0.273 OA
ATOM      2  N   UNL     1      -0.438  -9.166  13.038  1.00  0.00    -0.343 N 
ATOM      3  C   UNL     1      -1.107  -9.780  12.001  1.00  0.00     0.243 C 
ATOM      4  H   UNL     1       0.192  -8.396  12.852  1.00  0.00     0.164 HD
ENDROOT
BRANCH   2   5
ATOM      5  C   UNL     1      -0.548  -9.679  14.400  1.00  0.00     0.171 C 
ATOM      6  C   UNL     1       0.023  -8.510  16.991  1.00  0.00     0.214 C 
ATOM      7  N   UNL     1       1.056  -9.247  16.300  1.00  0.00    -0.303 N 
ATOM      8  C   UNL     1      -1.380  -9.001  16.674  1.00  0.00     0.057 C 
ATOM      9  C   UNL     1       0.866  -9.787  15.039  1.00  0.00     0.247 C 
ATOM     10  C   UNL     1      -1.624  -8.928  15.182  1.00  0.00     0.040 C 
ATOM     11  O   UNL     1       1.782 -10.342  14.418  1.00  0.00    -0.272 OA
BRANCH   6  12
ATOM     12  O   UNL     1       0.160  -7.151  16.644  1.00  0.00    -0.373 OA
ATOM     13  H   UNL     1       0.021  -6.630  17.464  1.00  0.00     0.213 HD
ENDBRANCH   6  12
BRANCH   7  14
ATOM     14  C   UNL     1       2.392  -9.282  16.933  1.00  0.00     0.177 C 
BRANCH  14  15
ATOM     15  C   UNL     1       2.823 -10.657  17.480  1.00  0.00     0.038 C 
BRANCH  15  16
ATOM     16  C   UNL     1       1.749 -11.647  17.982  1.00  0.00    -0.015 C 
ATOM     17  C   UNL     1       1.078 -11.176  19.276  1.00  0.00     0.007 C 
ATOM     18  C   UNL     1       2.388 -13.017  18.244  1.00  0.00     0.007 C 
ENDBRANCH  15  16
ENDBRANCH  14  15
BRANCH  14  19
ATOM     19  C   UNL     1       3.343  -8.238  16.253  1.00  0.00     0.245 C 
ATOM     20  O   UNL     1       2.875  -7.105  16.051  1.00  0.00    -0.272 OA
BRANCH  19  21
ATOM     21  N   UNL     1       4.606  -8.540  15.777  1.00  0.00    -0.332 N 
ATOM     22  C   UNL     1       5.790  -8.735  16.595  1.00  0.00     0.147 C 
BRANCH  21  23
ATOM     23  C   UNL     1       4.782  -8.670  14.304  1.00  0.00     0.178 C 
BRANCH  23  24
ATOM     24  C   UNL     1       5.869  -7.756  13.702  1.00  0.00     0.070 C 
BRANCH  24  25
ATOM     25  C   UNL     1       5.479  -6.918  12.507  1.00  0.00    -0.045 A 
ATOM     26  C   UNL     1       4.237  -6.272  12.458  1.00  0.00     0.004 A 
ATOM     27  C   UNL     1       6.358  -6.779  11.422  1.00  0.00     0.004 A 
ATOM     28  C   UNL     1       3.877  -5.513  11.342  1.00  0.00     0.000 A 
ATOM     29  C   UNL     1       5.998  -6.019  10.309  1.00  0.00     0.000 A 
ATOM     30  C   UNL     1       4.755  -5.389  10.268  1.00  0.00     0.000 A 
ENDBRANCH  24  25
ENDBRANCH  23  24
BRANCH  23  31
ATOM     31  C   UNL     1       4.831 -10.141  13.829  1.00  0.00     0.243 C 
ATOM     32  O   UNL     1       5.529 -11.008  14.348  1.00  0.00    -0.273 OA
ATOM     33  N   UNL     1       4.153 -10.361  12.641  1.00  0.00    -0.341 N 
ATOM     34  H   UNL     1       3.593  -9.599  12.254  1.00  0.00     0.164 HD
BRANCH  33  35
ATOM     35  C   UNL     1       4.163 -11.650  11.943  1.00  0.00     0.194 C 
BRANCH  35  36
ATOM     36  C   UNL     1       5.041 -11.670  10.660  1.00  0.00     0.017 C 
ATOM     37  C   UNL     1       5.794 -13.004  10.518  1.00  0.00     0.010 C 
ATOM     38  C   UNL     1       6.086 -10.548  10.625  1.00  0.00     0.010 C 
ENDBRANCH  35  36
BRANCH  35  39
ATOM     39  C   UNL     1       2.733 -12.196  11.677  1.00  0.00     0.329 C 
ATOM     40  O   UNL     1       2.029 -12.723  12.531  1.00  0.00    -0.250 OA
BRANCH  39  41
ATOM     41  O   UNL     1       2.310 -11.946  10.400  1.00  0.00    -0.458 OA
BRANCH  41  42
ATOM     42  C   UNL     1       1.311 -12.848   9.868  1.00  0.00     0.205 CG0
ATOM     43  C   UNL     1       2.027 -14.139   9.476  1.00  0.00     0.056 C 
ATOM     44  G   UNL     1       0.624 -12.167   8.667  1.00  0.00     0.000 G0
ENDBRANCH  41  42
ENDBRANCH  39  41
ENDBRANCH  35  39
ENDBRANCH  33  35
ENDBRANCH  23  31
ENDBRANCH  21  23
ENDBRANCH  19  21
ENDBRANCH  14  19
ENDBRANCH   7  14
ENDBRANCH   2   5
BRANCH   3  45
ATOM     45  C   UNL     1      -0.819  -9.212  10.606  1.00  0.00     0.171 C 
BRANCH  45  46
ATOM     46  N   UNL     1       0.047 -10.186   9.955  1.00  0.00    -0.342 N 
ATOM     47  C   UNL     1      -0.442 -11.182   9.147  1.00  0.00     0.247 C 
ATOM     48  O   UNL     1      -1.635 -11.281   8.856  1.00  0.00    -0.273 OA
ATOM     49  H   UNL     1       1.048 -10.105  10.124  1.00  0.00     0.164 HD
BRANCH  47  50
ATOM     50  C   UNL     1       0.605 -12.188   8.650  1.00  0.00     0.212 CG0
ATOM     51  G   UNL     1       1.290 -12.800   9.888  1.00  0.00     0.000 G0
BRANCH  50  52
ATOM     52  N   UNL     1      -0.138 -13.166   7.860  1.00  0.00    -0.339 N 
ATOM     53  C   UNL     1      -0.148 -13.178   6.486  1.00  0.00     0.243 C 
ATOM     54  O   UNL     1       0.429 -12.328   5.813  1.00  0.00    -0.273 OA
ATOM     55  H   UNL     1      -0.727 -13.829   8.361  1.00  0.00     0.164 HD
BRANCH  53  56
ATOM     56  C   UNL     1      -1.074 -14.249   5.875  1.00  0.00     0.182 C 
BRANCH  56  57
ATOM     57  N   UNL     1      -1.464 -15.243   6.879  1.00  0.00    -0.344 N 
ATOM     58  C   UNL     1      -2.534 -16.087   6.703  1.00  0.00     0.220 C 
ATOM     59  O   UNL     1      -3.278 -16.019   5.731  1.00  0.00    -0.275 OA
ATOM     60  H   UNL     1      -0.818 -15.400   7.648  1.00  0.00     0.164 HD
BRANCH  58  61
ATOM     61  C   UNL     1      -2.718 -17.072   7.843  1.00  0.00     0.100 C 
BRANCH  61  62
ATOM     62  C   UNL     1      -4.121 -17.674   7.916  1.00  0.00     0.010 C 
BRANCH  62  63
ATOM     63  C   UNL     1      -5.252 -16.645   7.797  1.00  0.00     0.000 C 
BRANCH  63  64
ATOM     64  C   UNL     1      -5.467 -15.801   9.052  1.00  0.00    -0.003 C 
ATOM     65  C   UNL     1      -6.926 -15.811   9.485  1.00  0.00     0.004 C 
ENDBRANCH  63  64
ENDBRANCH  62  63
ENDBRANCH  61  62
ENDBRANCH  58  61
ENDBRANCH  56  57
BRANCH  56  66
ATOM     66  C   UNL     1      -0.445 -14.893   4.640  1.00  0.00     0.157 C 
BRANCH  66  67
ATOM     67  C   UNL     1      -1.139 -14.452   3.384  1.00  0.00     0.305 C 
ATOM     68  O   UNL     1      -1.724 -15.163   2.582  1.00  0.00    -0.252 OA
BRANCH  67  69
ATOM     69  O   UNL     1      -1.106 -13.115   3.223  1.00  0.00    -0.481 OA
ATOM     70  H   UNL     1      -0.187 -12.859   3.451  1.00  0.00     0.296 HD
ENDBRANCH  67  69
ENDBRANCH  66  67
ENDBRANCH  56  66
ENDBRANCH  53  56
ENDBRANCH  50  52
ENDBRANCH  47  50
ENDBRANCH  45  46
BRANCH  45  71
ATOM     71  C   UNL     1      -0.144  -7.840  10.717  1.00  0.00     0.037 C 
BRANCH  71  72
ATOM     72  C   UNL     1      -1.124  -6.693  10.455  1.00  0.00     0.026 C 
BRANCH  72  73
ATOM     73  C   UNL     1      -2.572  -7.175  10.491  1.00  0.00     0.146 C 
BRANCH  73  74
ATOM     74  N   UNL     1      -3.215  -6.751   9.251  1.00  0.00    -0.254 NA
ATOM     75  C   UNL     1      -3.626  -7.662   8.448  1.00  0.00     0.185 C 
ATOM     76  N   UNL     1      -4.223  -7.304   7.300  1.00  0.00    -0.370 N 
ATOM     77  N   UNL     1      -3.554  -8.998   8.578  1.00  0.00    -0.370 N 
ATOM     78  H   UNL     1      -4.312  -6.314   7.120  1.00  0.00     0.159 HD
ATOM     79  H   UNL     1      -4.438  -7.952   6.562  1.00  0.00     0.159 HD
ATOM     80  H   UNL     1      -3.133  -9.413   9.396  1.00  0.00     0.159 HD
ATOM     81  H   UNL     1      -4.016  -9.618   7.933  1.00  0.00     0.159 HD
ENDBRANCH  73  74
ENDBRANCH  72  73
ENDBRANCH  71  72
ENDBRANCH  45  71
ENDBRANCH   3  45
TORSDOF 20
ENDMDL
MODEL 10
REMARK VINA RESULT:    -3.832      3.139      5.402
REMARK INTER + INTRA:         -17.763
REMARK INTER:                 -12.839
REMARK INTRA:                  -4.924
REMARK UNBOUND:                -6.762
REMARK SMILES CCCCCC(=O)N[C@H](CC(=O)O)C(=O)N[C@H]1C(=O)N[C@H](CCCN=C(N)N)C(=O)N[C@@H]2CC[C@H](O)N(C2=O)[C@@H](CC(C)C)C(=O)N(C)[C@@H](Cc2ccccc2)C(=O)N[C@H](C(C)C)C(=O)O[C@@H]1C
REMARK SMILES IDX 30 1 31 2 29 3 32 5 35 6 37 7 34 8 38 9 33 10 39 11 36 12
REMARK SMILES IDX 40 14 41 15 42 16 43 17 44 18 45 19 46 20 47 21 48 22 49 23
REMARK SMILES IDX 50 24 51 25 52 26 56 27 53 28 55 29 54 30 57 31 58 32 59 33
REMARK SMILES IDX 60 35 61 36 62 37 63 38 64 39 65 40 66 41 67 42 68 43 21 45
REMARK SMILES IDX 20 46 18 47 19 48 17 50 16 52 14 53 15 54 9 56 8 57 6 58
REMARK SMILES IDX 7 59 5 61 4 62 3 63 2 64 1 65 10 66 11 67 12 68 13 69 22 71
REMARK SMILES IDX 23 72 24 73 25 74 26 75 27 76 28 77
REMARK H PARENT 31 4 36 13 59 34 20 49 16 55 8 60 13 70 27 78 27 79 28 80
REMARK H PARENT 28 81
REMARK Flexibility Score:  259.900
ROOT
ATOM      1  O   UNL     1       2.695 -13.372  12.014  1.00  0.00    -0.273 OA
ATOM      2  N   UNL     1       3.072 -13.900   9.821  1.00  0.00    -0.343 N 
ATOM      3  C   UNL     1       2.300 -13.400  10.848  1.00  0.00     0.243 C 
ATOM      4  H   UNL     1       2.721 -13.893   8.871  1.00  0.00     0.164 HD
ENDROOT
BRANCH   2   5
ATOM      5  C   UNL     1       4.358 -14.532  10.098  1.00  0.00     0.171 C 
ATOM      6  C   UNL     1       6.059 -14.577  12.444  1.00  0.00     0.214 C 
ATOM      7  N   UNL     1       6.253 -13.551  11.447  1.00  0.00    -0.303 N 
ATOM      8  C   UNL     1       5.523 -15.880  11.872  1.00  0.00     0.057 C 
ATOM      9  C   UNL     1       5.443 -13.441  10.328  1.00  0.00     0.247 C 
ATOM     10  C   UNL     1       4.215 -15.625  11.156  1.00  0.00     0.040 C 
ATOM     11  O   UNL     1       5.560 -12.508   9.523  1.00  0.00    -0.272 OA
BRANCH   6  12
ATOM     12  O   UNL     1       5.179 -14.069  13.420  1.00  0.00    -0.373 OA
ATOM     13  H   UNL     1       5.732 -13.678  14.130  1.00  0.00     0.213 HD
ENDBRANCH   6  12
BRANCH   7  14
ATOM     14  C   UNL     1       7.268 -12.517  11.737  1.00  0.00     0.177 C 
BRANCH  14  15
ATOM     15  C   UNL     1       8.571 -12.629  10.921  1.00  0.00     0.038 C 
BRANCH  15  16
ATOM     16  C   UNL     1       9.742 -13.474  11.469  1.00  0.00    -0.015 C 
ATOM     17  C   UNL     1      10.778 -12.626  12.211  1.00  0.00     0.007 C 
ATOM     18  C   UNL     1      10.448 -14.193  10.312  1.00  0.00     0.007 C 
ENDBRANCH  15  16
ENDBRANCH  14  15
BRANCH  14  19
ATOM     19  C   UNL     1       6.573 -11.176  12.157  1.00  0.00     0.245 C 
ATOM     20  O   UNL     1       5.651 -11.259  12.985  1.00  0.00    -0.272 OA
BRANCH  19  21
ATOM     21  N   UNL     1       6.853  -9.949  11.581  1.00  0.00    -0.332 N 
ATOM     22  C   UNL     1       7.164  -9.727  10.180  1.00  0.00     0.147 C 
BRANCH  21  23
ATOM     23  C   UNL     1       6.848  -8.749  12.463  1.00  0.00     0.178 C 
BRANCH  23  24
ATOM     24  C   UNL     1       7.817  -7.628  12.033  1.00  0.00     0.070 C 
BRANCH  24  25
ATOM     25  C   UNL     1       7.988  -6.465  12.982  1.00  0.00    -0.045 A 
ATOM     26  C   UNL     1       7.739  -5.153  12.560  1.00  0.00     0.004 A 
ATOM     27  C   UNL     1       8.406  -6.685  14.303  1.00  0.00     0.004 A 
ATOM     28  C   UNL     1       7.916  -4.082  13.439  1.00  0.00     0.000 A 
ATOM     29  C   UNL     1       8.581  -5.614  15.180  1.00  0.00     0.000 A 
ATOM     30  C   UNL     1       8.339  -4.312  14.746  1.00  0.00     0.000 A 
ENDBRANCH  24  25
ENDBRANCH  23  24
BRANCH  23  31
ATOM     31  C   UNL     1       5.422  -8.273  12.827  1.00  0.00     0.243 C 
ATOM     32  O   UNL     1       4.710  -7.603  12.082  1.00  0.00    -0.273 OA
ATOM     33  N   UNL     1       5.080  -8.511  14.147  1.00  0.00    -0.341 N 
ATOM     34  H   UNL     1       5.716  -9.070  14.720  1.00  0.00     0.164 HD
BRANCH  33  35
ATOM     35  C   UNL     1       3.827  -8.040  14.745  1.00  0.00     0.194 C 
BRANCH  35  36
ATOM     36  C   UNL     1       3.965  -7.566  16.219  1.00  0.00     0.017 C 
ATOM     37  C   UNL     1       2.630  -7.026  16.760  1.00  0.00     0.010 C 
ATOM     38  C   UNL     1       5.015  -6.463  16.403  1.00  0.00     0.010 C 
ENDBRANCH  35  36
BRANCH  35  39
ATOM     39  C   UNL     1       2.662  -9.055  14.568  1.00  0.00     0.329 C 
ATOM     40  O   UNL     1       2.672 -10.195  15.018  1.00  0.00    -0.250 OA
BRANCH  39  41
ATOM     41  O   UNL     1       1.586  -8.506  13.928  1.00  0.00    -0.458 OA
BRANCH  41  42
ATOM     42  C   UNL     1       1.464  -8.795  12.515  1.00  0.00     0.205 CG0
ATOM     43  C   UNL     1       1.468  -7.459  11.776  1.00  0.00     0.056 C 
ATOM     44  G   UNL     1       0.163  -9.591  12.287  1.00  0.00     0.000 G0
ENDBRANCH  41  42
ENDBRANCH  39  41
ENDBRANCH  35  39
ENDBRANCH  33  35
ENDBRANCH  23  31
ENDBRANCH  21  23
ENDBRANCH  19  21
ENDBRANCH  14  19
ENDBRANCH   7  14
ENDBRANCH   2   5
BRANCH   3  45
ATOM     45  C   UNL     1       0.924 -12.862  10.434  1.00  0.00     0.171 C 
BRANCH  45  46
ATOM     46  N   UNL     1       0.586 -11.846  11.422  1.00  0.00    -0.342 N 
ATOM     47  C   UNL     1       0.366 -10.534  11.083  1.00  0.00     0.247 C 
ATOM     48  O   UNL     1       0.368 -10.136   9.917  1.00  0.00    -0.273 OA
ATOM     49  H   UNL     1       0.519 -12.144  12.393  1.00  0.00     0.164 HD
BRANCH  47  50
ATOM     50  C   UNL     1       0.145  -9.585  12.269  1.00  0.00     0.212 CG0
ATOM     51  G   UNL     1       1.465  -8.826  12.513  1.00  0.00     0.000 G0
BRANCH  50  52
ATOM     52  N   UNL     1      -0.957  -8.713  11.869  1.00  0.00    -0.339 N 
ATOM     53  C   UNL     1      -2.280  -9.045  12.031  1.00  0.00     0.243 C 
ATOM     54  O   UNL     1      -2.640 -10.130  12.478  1.00  0.00    -0.273 OA
ATOM     55  H   UNL     1      -0.723  -7.846  11.390  1.00  0.00     0.164 HD
BRANCH  53  56
ATOM     56  C   UNL     1      -3.262  -8.005  11.456  1.00  0.00     0.182 C 
BRANCH  56  57
ATOM     57  N   UNL     1      -3.666  -7.038  12.481  1.00  0.00    -0.344 N 
ATOM     58  C   UNL     1      -2.887  -5.959  12.823  1.00  0.00     0.220 C 
ATOM     59  O   UNL     1      -1.771  -5.770  12.350  1.00  0.00    -0.275 OA
ATOM     60  H   UNL     1      -4.621  -7.100  12.823  1.00  0.00     0.164 HD
BRANCH  58  61
ATOM     61  C   UNL     1      -3.527  -5.060  13.864  1.00  0.00     0.100 C 
BRANCH  61  62
ATOM     62  C   UNL     1      -4.855  -4.447  13.417  1.00  0.00     0.010 C 
BRANCH  62  63
ATOM     63  C   UNL     1      -4.844  -2.915  13.339  1.00  0.00     0.000 C 
BRANCH  63  64
ATOM     64  C   UNL     1      -3.483  -2.315  12.990  1.00  0.00    -0.003 C 
ATOM     65  C   UNL     1      -3.091  -2.627  11.553  1.00  0.00     0.004 C 
ENDBRANCH  63  64
ENDBRANCH  62  63
ENDBRANCH  61  62
ENDBRANCH  58  61
ENDBRANCH  56  57
BRANCH  56  66
ATOM     66  C   UNL     1      -4.463  -8.676  10.792  1.00  0.00     0.157 C 
BRANCH  66  67
ATOM     67  C   UNL     1      -4.419  -8.517   9.300  1.00  0.00     0.305 C 
ATOM     68  O   UNL     1      -4.492  -7.472   8.671  1.00  0.00    -0.252 OA
BRANCH  67  69
ATOM     69  O   UNL     1      -4.231  -9.690   8.666  1.00  0.00    -0.481 OA
ATOM     70  H   UNL     1      -4.592 -10.366   9.278  1.00  0.00     0.296 HD
ENDBRANCH  67  69
ENDBRANCH  66  67
ENDBRANCH  56  66
ENDBRANCH  53  56
ENDBRANCH  50  52
ENDBRANCH  47  50
ENDBRANCH  45  46
BRANCH  45  71
ATOM     71  C   UNL     1      -0.107 -13.995  10.412  1.00  0.00     0.037 C 
BRANCH  71  72
ATOM     72  C   UNL     1      -1.544 -13.466  10.410  1.00  0.00     0.026 C 
BRANCH  72  73
ATOM     73  C   UNL     1      -2.181 -13.579   9.026  1.00  0.00     0.146 C 
BRANCH  73  74
ATOM     74  N   UNL     1      -1.138 -13.337   8.034  1.00  0.00    -0.254 NA
ATOM     75  C   UNL     1      -1.004 -12.144   7.584  1.00  0.00     0.185 C 
ATOM     76  N   UNL     1      -0.053 -11.891   6.670  1.00  0.00    -0.370 N 
ATOM     77  N   UNL     1      -1.704 -11.040   7.897  1.00  0.00    -0.370 N 
ATOM     78  H   UNL     1       0.515 -12.671   6.373  1.00  0.00     0.159 HD
ATOM     79  H   UNL     1       0.016 -11.022   6.169  1.00  0.00     0.159 HD
ATOM     80  H   UNL     1      -2.450 -11.079   8.575  1.00  0.00     0.159 HD
ATOM     81  H   UNL     1      -1.432 -10.130   7.563  1.00  0.00     0.159 HD
ENDBRANCH  73  74
ENDBRANCH  72  73
ENDBRANCH  71  72
ENDBRANCH  45  71
ENDBRANCH   3  45
TORSDOF 20
ENDMDL
