MODEL 1
REMARK VINA RESULT:    -5.576      0.000      0.000
REMARK INTER + INTRA:         -11.182
REMARK INTER:                  -9.488
REMARK INTRA:                  -1.694
REMARK UNBOUND:                -1.694
REMARK SMILES CC[C@H](C)[C@@H]1NC(=O)[C@H]2CSC(=N2)[C@@H]([C@@H](C)CC)NC(=O)c2csc(n2)CNC(=O)[C@H]2N=C1O[C@@H]2C
REMARK SMILES IDX 27 1 25 2 22 3 26 4 23 5 24 6 20 7 19 8 21 9 14 11 12 12
REMARK SMILES IDX 11 13 10 14 13 15 9 16 15 18 16 19 17 20 18 21 28 22 29 23
REMARK SMILES IDX 30 24 31 26 32 27 35 28 33 29 34 30 36 31 5 32 6 33 7 34
REMARK SMILES IDX 8 35 3 38 4 39 2 40 1 41
REMARK H PARENT 19 10 28 25 6 36
REMARK Flexibility Score:   91.900
ROOT
ATOM      1  C   UNL     1     -12.604  -8.231   6.919  1.00  0.00     0.183 C 
ENDROOT
BRANCH   1   2
ATOM      2  C   UNL     1     -11.201  -8.091   7.435  1.00  0.00     0.113 A 
ATOM      3  C   UNL     1      -9.264  -7.130   7.976  1.00  0.00     0.139 A 
ATOM      4  N   UNL     1     -10.591  -6.930   7.591  1.00  0.00    -0.234 NA
ATOM      5  C   UNL     1      -8.916  -8.454   8.161  1.00  0.00     0.101 A 
ATOM      6  S   UNL     1     -10.257  -9.471   7.826  1.00  0.00    -0.125 S 
BRANCH   3   7
ATOM      7  C   UNL     1      -8.360  -5.987   8.112  1.00  0.00     0.271 C 
ATOM      8  N   UNL     1      -8.199  -5.622   9.426  1.00  0.00    -0.341 N 
ATOM      9  O   UNL     1      -7.842  -5.411   7.163  1.00  0.00    -0.267 OA
ATOM     10  H   UNL     1      -8.676  -6.211  10.108  1.00  0.00     0.164 HD
BRANCH   8  11
ATOM     11  C   UNL     1      -7.515  -4.416   9.862  1.00  0.00     0.140 C 
BRANCH  11  12
ATOM     12  C   UNL     1      -8.446  -3.668  10.822  1.00  0.00     0.091 C 
ATOM     13  S   UNL     1      -8.170  -3.722  12.547  1.00  0.00    -0.106 SA
ATOM     14  C   UNL     1      -9.370  -2.396  12.793  1.00  0.00     0.113 C 
ATOM     15  N   UNL     1      -9.499  -3.039  10.406  1.00  0.00    -0.267 NA
ATOM     16  C   UNL     1     -10.269  -2.500  11.571  1.00  0.00     0.205 CG0
ATOM     17  G   UNL     1     -11.496  -3.377  11.871  1.00  0.00     0.000 G0
ENDBRANCH  11  12
BRANCH  11  18
ATOM     18  C   UNL     1      -6.066  -4.657  10.356  1.00  0.00     0.015 C 
ATOM     19  C   UNL     1      -5.773  -6.161  10.441  1.00  0.00     0.010 C 
BRANCH  18  20
ATOM     20  C   UNL     1      -4.979  -3.916   9.551  1.00  0.00     0.002 C 
ATOM     21  C   UNL     1      -5.551  -2.874   8.597  1.00  0.00     0.004 C 
ENDBRANCH  18  20
ENDBRANCH  11  18
ENDBRANCH   8  11
ENDBRANCH   3   7
ENDBRANCH   1   2
BRANCH   1  22
ATOM     22  N   UNL     1     -13.327  -7.039   7.303  1.00  0.00    -0.348 N 
ATOM     23  C   UNL     1     -14.378  -7.014   8.179  1.00  0.00     0.249 C 
ATOM     24  O   UNL     1     -14.762  -8.000   8.797  1.00  0.00    -0.272 OA
ATOM     25  H   UNL     1     -13.104  -6.163   6.831  1.00  0.00     0.163 HD
BRANCH  23  26
ATOM     26  C   UNL     1     -14.980  -5.611   8.346  1.00  0.00     0.238 C 
ATOM     27  N   UNL     1     -15.131  -5.311   9.798  1.00  0.00    -0.236 NA
ATOM     28  C   UNL     1     -14.063  -4.530   7.801  1.00  0.00     0.206 C 
ATOM     29  C   UNL     1     -14.245  -4.383  10.003  1.00  0.00     0.208 C 
ATOM     30  O   UNL     1     -13.491  -3.940   8.967  1.00  0.00    -0.474 OA
ATOM     31  C   UNL     1     -14.819  -3.454   7.033  1.00  0.00     0.056 C 
BRANCH  29  32
ATOM     32  C   UNL     1     -13.902  -3.740  11.344  1.00  0.00     0.171 C 
BRANCH  32  33
ATOM     33  N   UNL     1     -12.664  -2.982  11.257  1.00  0.00    -0.342 N 
ATOM     34  C   UNL     1     -11.498  -3.395  11.857  1.00  0.00     0.246 CG0
ATOM     35  O   UNL     1     -11.419  -4.418  12.532  1.00  0.00    -0.273 OA
ATOM     36  H   UNL     1     -12.628  -2.091  10.773  1.00  0.00     0.164 HD
ATOM     37  G   UNL     1     -10.289  -2.483  11.594  1.00  0.00     0.000 G0
ENDBRANCH  32  33
BRANCH  32  38
ATOM     38  C   UNL     1     -15.090  -2.881  11.853  1.00  0.00     0.017 C 
ATOM     39  C   UNL     1     -15.269  -3.072  13.365  1.00  0.00     0.010 C 
BRANCH  38  40
ATOM     40  C   UNL     1     -14.956  -1.387  11.481  1.00  0.00     0.002 C 
ATOM     41  C   UNL     1     -14.697  -0.481  12.677  1.00  0.00     0.004 C 
ENDBRANCH  38  40
ENDBRANCH  32  38
ENDBRANCH  29  32
ENDBRANCH  23  26
ENDBRANCH   1  22
TORSDOF 4
ENDMDL
MODEL 2
REMARK VINA RESULT:    -5.325      7.654     12.051
REMARK INTER + INTRA:         -10.754
REMARK INTER:                  -9.033
REMARK INTRA:                  -1.720
REMARK UNBOUND:                -1.694
REMARK SMILES CC[C@H](C)[C@@H]1NC(=O)[C@H]2CSC(=N2)[C@@H]([C@@H](C)CC)NC(=O)c2csc(n2)CNC(=O)[C@H]2N=C1O[C@@H]2C
REMARK SMILES IDX 27 1 25 2 22 3 26 4 23 5 24 6 20 7 19 8 21 9 14 11 12 12
REMARK SMILES IDX 11 13 10 14 13 15 9 16 15 18 16 19 17 20 18 21 28 22 29 23
REMARK SMILES IDX 30 24 31 26 32 27 35 28 33 29 34 30 36 31 5 32 6 33 7 34
REMARK SMILES IDX 8 35 3 38 4 39 2 40 1 41
REMARK H PARENT 19 10 28 25 6 36
REMARK Flexibility Score:   91.900
ROOT
ATOM      1  C   UNL     1      -4.861  -3.937   9.926  1.00  0.00     0.183 C 
ENDROOT
BRANCH   1   2
ATOM      2  C   UNL     1      -5.117  -5.215   9.181  1.00  0.00     0.113 A 
ATOM      3  C   UNL     1      -5.283  -6.635   7.471  1.00  0.00     0.139 A 
ATOM      4  N   UNL     1      -4.826  -5.389   7.905  1.00  0.00    -0.234 NA
ATOM      5  C   UNL     1      -5.865  -7.406   8.459  1.00  0.00     0.101 A 
ATOM      6  S   UNL     1      -5.865  -6.556   9.950  1.00  0.00    -0.125 S 
BRANCH   3   7
ATOM      7  C   UNL     1      -5.161  -7.010   6.061  1.00  0.00     0.271 C 
ATOM      8  N   UNL     1      -4.481  -8.193   5.909  1.00  0.00    -0.341 N 
ATOM      9  O   UNL     1      -5.587  -6.329   5.137  1.00  0.00    -0.267 OA
ATOM     10  H   UNL     1      -4.208  -8.659   6.774  1.00  0.00     0.164 HD
BRANCH   8  11
ATOM     11  C   UNL     1      -4.042  -8.725   4.629  1.00  0.00     0.140 C 
BRANCH  11  12
ATOM     12  C   UNL     1      -2.558  -8.388   4.464  1.00  0.00     0.091 C 
ATOM     13  S   UNL     1      -1.362  -9.661   4.381  1.00  0.00    -0.106 SA
ATOM     14  C   UNL     1      -0.113  -8.470   3.850  1.00  0.00     0.113 C 
ATOM     15  N   UNL     1      -2.128  -7.165   4.455  1.00  0.00    -0.267 NA
ATOM     16  C   UNL     1      -0.633  -7.146   4.389  1.00  0.00     0.205 CG0
ATOM     17  G   UNL     1      -0.027  -6.845   5.769  1.00  0.00     0.000 G0
ENDBRANCH  11  12
BRANCH  11  18
ATOM     18  C   UNL     1      -4.444 -10.203   4.390  1.00  0.00     0.015 C 
ATOM     19  C   UNL     1      -5.308 -10.717   5.549  1.00  0.00     0.010 C 
BRANCH  18  20
ATOM     20  C   UNL     1      -5.110 -10.478   3.026  1.00  0.00     0.002 C 
ATOM     21  C   UNL     1      -4.223 -10.100   1.845  1.00  0.00     0.004 C 
ENDBRANCH  18  20
ENDBRANCH  11  18
ENDBRANCH   8  11
ENDBRANCH   3   7
ENDBRANCH   1   2
BRANCH   1  22
ATOM     22  N   UNL     1      -3.589  -3.420   9.474  1.00  0.00    -0.348 N 
ATOM     23  C   UNL     1      -2.372  -3.802   9.970  1.00  0.00     0.249 C 
ATOM     24  O   UNL     1      -2.234  -4.694  10.799  1.00  0.00    -0.272 OA
ATOM     25  H   UNL     1      -3.588  -2.655   8.800  1.00  0.00     0.163 HD
BRANCH  23  26
ATOM     26  C   UNL     1      -1.202  -3.037   9.333  1.00  0.00     0.238 C 
ATOM     27  N   UNL     1      -0.039  -3.955   9.181  1.00  0.00    -0.236 NA
ATOM     28  C   UNL     1      -1.531  -2.563   7.927  1.00  0.00     0.206 C 
ATOM     29  C   UNL     1       0.049  -4.114   7.894  1.00  0.00     0.208 C 
ATOM     30  O   UNL     1      -0.822  -3.467   7.082  1.00  0.00    -0.474 OA
ATOM     31  C   UNL     1      -1.034  -1.150   7.656  1.00  0.00     0.056 C 
BRANCH  29  32
ATOM     32  C   UNL     1       1.031  -5.023   7.161  1.00  0.00     0.171 C 
BRANCH  32  33
ATOM     33  N   UNL     1       0.453  -5.518   5.921  1.00  0.00    -0.342 N 
ATOM     34  C   UNL     1       0.017  -6.813   5.772  1.00  0.00     0.246 CG0
ATOM     35  O   UNL     1       0.105  -7.656   6.662  1.00  0.00    -0.273 OA
ATOM     36  H   UNL     1       0.385  -4.926   5.101  1.00  0.00     0.164 HD
ATOM     37  G   UNL     1      -0.616  -7.119   4.405  1.00  0.00     0.000 G0
ENDBRANCH  32  33
BRANCH  32  38
ATOM     38  C   UNL     1       2.383  -4.295   6.937  1.00  0.00     0.017 C 
ATOM     39  C   UNL     1       3.403  -5.257   6.316  1.00  0.00     0.010 C 
BRANCH  38  40
ATOM     40  C   UNL     1       2.239  -3.001   6.103  1.00  0.00     0.002 C 
ATOM     41  C   UNL     1       2.602  -1.737   6.872  1.00  0.00     0.004 C 
ENDBRANCH  38  40
ENDBRANCH  32  38
ENDBRANCH  29  32
ENDBRANCH  23  26
ENDBRANCH   1  22
TORSDOF 4
ENDMDL
MODEL 3
REMARK VINA RESULT:    -5.145      8.003     12.302
REMARK INTER + INTRA:         -10.449
REMARK INTER:                  -8.600
REMARK INTRA:                  -1.849
REMARK UNBOUND:                -1.694
REMARK SMILES CC[C@H](C)[C@@H]1NC(=O)[C@H]2CSC(=N2)[C@@H]([C@@H](C)CC)NC(=O)c2csc(n2)CNC(=O)[C@H]2N=C1O[C@@H]2C
REMARK SMILES IDX 27 1 25 2 22 3 26 4 23 5 24 6 20 7 19 8 21 9 14 11 12 12
REMARK SMILES IDX 11 13 10 14 13 15 9 16 15 18 16 19 17 20 18 21 28 22 29 23
REMARK SMILES IDX 30 24 31 26 32 27 35 28 33 29 34 30 36 31 5 32 6 33 7 34
REMARK SMILES IDX 8 35 3 38 4 39 2 40 1 41
REMARK H PARENT 19 10 28 25 6 36
REMARK Flexibility Score:   91.900
ROOT
ATOM      1  C   UNL     1      -4.526  -3.418   8.265  1.00  0.00     0.183 C 
ENDROOT
BRANCH   1   2
ATOM      2  C   UNL     1      -4.957  -4.786   7.820  1.00  0.00     0.113 A 
ATOM      3  C   UNL     1      -5.059  -6.644   6.594  1.00  0.00     0.139 A 
ATOM      4  N   UNL     1      -4.364  -5.461   6.853  1.00  0.00    -0.234 NA
ATOM      5  C   UNL     1      -6.141  -6.864   7.423  1.00  0.00     0.101 A 
ATOM      6  S   UNL     1      -6.313  -5.563   8.529  1.00  0.00    -0.125 S 
BRANCH   3   7
ATOM      7  C   UNL     1      -4.643  -7.512   5.490  1.00  0.00     0.271 C 
ATOM      8  N   UNL     1      -3.773  -8.487   5.913  1.00  0.00    -0.341 N 
ATOM      9  O   UNL     1      -5.004  -7.358   4.331  1.00  0.00    -0.267 OA
ATOM     10  H   UNL     1      -3.583  -8.504   6.915  1.00  0.00     0.164 HD
BRANCH   8  11
ATOM     11  C   UNL     1      -3.047  -9.377   5.022  1.00  0.00     0.140 C 
BRANCH  11  12
ATOM     12  C   UNL     1      -1.572  -8.964   5.046  1.00  0.00     0.091 C 
ATOM     13  S   UNL     1      -0.396  -9.923   5.915  1.00  0.00    -0.106 SA
ATOM     14  C   UNL     1       0.948  -9.001   5.138  1.00  0.00     0.113 C 
ATOM     15  N   UNL     1      -1.157  -7.867   4.495  1.00  0.00    -0.267 NA
ATOM     16  C   UNL     1       0.302  -7.675   4.769  1.00  0.00     0.205 CG0
ATOM     17  G   UNL     1       0.518  -6.636   5.882  1.00  0.00     0.000 G0
ENDBRANCH  11  12
BRANCH  11  18
ATOM     18  C   UNL     1      -3.346 -10.880   5.252  1.00  0.00     0.015 C 
ATOM     19  C   UNL     1      -4.047 -11.086   6.601  1.00  0.00     0.010 C 
BRANCH  18  20
ATOM     20  C   UNL     1      -4.116 -11.567   4.106  1.00  0.00     0.002 C 
ATOM     21  C   UNL     1      -4.955 -10.594   3.286  1.00  0.00     0.004 C 
ENDBRANCH  18  20
ENDBRANCH  11  18
ENDBRANCH   8  11
ENDBRANCH   3   7
ENDBRANCH   1   2
BRANCH   1  22
ATOM     22  N   UNL     1      -3.456  -2.995   7.389  1.00  0.00    -0.348 N 
ATOM     23  C   UNL     1      -2.980  -1.715   7.301  1.00  0.00     0.249 C 
ATOM     24  O   UNL     1      -3.363  -0.804   8.027  1.00  0.00    -0.272 OA
ATOM     25  H   UNL     1      -3.079  -3.670   6.725  1.00  0.00     0.163 HD
BRANCH  23  26
ATOM     26  C   UNL     1      -1.878  -1.561   6.242  1.00  0.00     0.238 C 
ATOM     27  N   UNL     1      -0.597  -2.092   6.785  1.00  0.00    -0.236 NA
ATOM     28  C   UNL     1      -2.166  -2.385   4.998  1.00  0.00     0.206 C 
ATOM     29  C   UNL     1      -0.396  -3.165   6.079  1.00  0.00     0.208 C 
ATOM     30  O   UNL     1      -1.284  -3.502   5.112  1.00  0.00    -0.474 OA
ATOM     31  C   UNL     1      -1.839  -1.637   3.713  1.00  0.00     0.056 C 
BRANCH  29  32
ATOM     32  C   UNL     1       0.746  -4.161   6.253  1.00  0.00     0.171 C 
BRANCH  32  33
ATOM     33  N   UNL     1       0.565  -5.316   5.387  1.00  0.00    -0.342 N 
ATOM     34  C   UNL     1       0.552  -6.605   5.863  1.00  0.00     0.246 CG0
ATOM     35  O   UNL     1       0.717  -6.883   7.048  1.00  0.00    -0.273 OA
ATOM     36  H   UNL     1       0.478  -5.208   4.382  1.00  0.00     0.164 HD
ATOM     37  G   UNL     1       0.288  -7.676   4.793  1.00  0.00     0.000 G0
ENDBRANCH  32  33
BRANCH  32  38
ATOM     38  C   UNL     1       2.114  -3.463   6.035  1.00  0.00     0.017 C 
ATOM     39  C   UNL     1       2.920  -3.463   7.340  1.00  0.00     0.010 C 
BRANCH  38  40
ATOM     40  C   UNL     1       2.922  -4.072   4.867  1.00  0.00     0.002 C 
ATOM     41  C   UNL     1       4.220  -4.739   5.306  1.00  0.00     0.004 C 
ENDBRANCH  38  40
ENDBRANCH  32  38
ENDBRANCH  29  32
ENDBRANCH  23  26
ENDBRANCH   1  22
TORSDOF 4
ENDMDL
MODEL 4
REMARK VINA RESULT:    -5.094      6.905     10.800
REMARK INTER + INTRA:         -10.361
REMARK INTER:                  -8.748
REMARK INTRA:                  -1.613
REMARK UNBOUND:                -1.694
REMARK SMILES CC[C@H](C)[C@@H]1NC(=O)[C@H]2CSC(=N2)[C@@H]([C@@H](C)CC)NC(=O)c2csc(n2)CNC(=O)[C@H]2N=C1O[C@@H]2C
REMARK SMILES IDX 27 1 25 2 22 3 26 4 23 5 24 6 20 7 19 8 21 9 14 11 12 12
REMARK SMILES IDX 11 13 10 14 13 15 9 16 15 18 16 19 17 20 18 21 28 22 29 23
REMARK SMILES IDX 30 24 31 26 32 27 35 28 33 29 34 30 36 31 5 32 6 33 7 34
REMARK SMILES IDX 8 35 3 38 4 39 2 40 1 41
REMARK H PARENT 19 10 28 25 6 36
REMARK Flexibility Score:   91.900
ROOT
ATOM      1  C   UNL     1      -6.927  -5.152   8.182  1.00  0.00     0.183 C 
ENDROOT
BRANCH   1   2
ATOM      2  C   UNL     1      -6.281  -6.368   7.583  1.00  0.00     0.113 A 
ATOM      3  C   UNL     1      -5.194  -7.641   6.111  1.00  0.00     0.139 A 
ATOM      4  N   UNL     1      -5.563  -6.344   6.475  1.00  0.00    -0.234 NA
ATOM      5  C   UNL     1      -5.599  -8.620   6.997  1.00  0.00     0.101 A 
ATOM      6  S   UNL     1      -6.476  -7.918   8.294  1.00  0.00    -0.125 S 
BRANCH   3   7
ATOM      7  C   UNL     1      -4.474  -7.874   4.857  1.00  0.00     0.271 C 
ATOM      8  N   UNL     1      -3.209  -8.356   5.082  1.00  0.00    -0.341 N 
ATOM      9  O   UNL     1      -4.940  -7.632   3.750  1.00  0.00    -0.267 OA
ATOM     10  H   UNL     1      -2.970  -8.530   6.058  1.00  0.00     0.164 HD
BRANCH   8  11
ATOM     11  C   UNL     1      -2.196  -8.506   4.050  1.00  0.00     0.140 C 
BRANCH  11  12
ATOM     12  C   UNL     1      -1.101  -7.468   4.311  1.00  0.00     0.091 C 
ATOM     13  S   UNL     1       0.546  -7.970   4.609  1.00  0.00    -0.106 SA
ATOM     14  C   UNL     1       1.112  -6.265   4.430  1.00  0.00     0.113 C 
ATOM     15  N   UNL     1      -1.362  -6.201   4.395  1.00  0.00    -0.267 NA
ATOM     16  C   UNL     1      -0.124  -5.444   4.762  1.00  0.00     0.205 CG0
ATOM     17  G   UNL     1      -0.138  -5.059   6.250  1.00  0.00     0.000 G0
ENDBRANCH  11  12
BRANCH  11  18
ATOM     18  C   UNL     1      -1.723  -9.968   3.839  1.00  0.00     0.015 C 
ATOM     19  C   UNL     1      -2.138 -10.841   5.030  1.00  0.00     0.010 C 
BRANCH  18  20
ATOM     20  C   UNL     1      -2.156 -10.598   2.500  1.00  0.00     0.002 C 
ATOM     21  C   UNL     1      -2.969  -9.647   1.629  1.00  0.00     0.004 C 
ENDBRANCH  18  20
ENDBRANCH  11  18
ENDBRANCH   8  11
ENDBRANCH   3   7
ENDBRANCH   1   2
BRANCH   1  22
ATOM     22  N   UNL     1      -5.972  -4.070   8.098  1.00  0.00    -0.348 N 
ATOM     23  C   UNL     1      -5.268  -3.569   9.159  1.00  0.00     0.249 C 
ATOM     24  O   UNL     1      -5.314  -4.051  10.285  1.00  0.00    -0.272 OA
ATOM     25  H   UNL     1      -5.871  -3.580   7.210  1.00  0.00     0.163 HD
BRANCH  23  26
ATOM     26  C   UNL     1      -4.371  -2.383   8.771  1.00  0.00     0.238 C 
ATOM     27  N   UNL     1      -2.963  -2.688   9.149  1.00  0.00    -0.236 NA
ATOM     28  C   UNL     1      -4.349  -2.154   7.270  1.00  0.00     0.206 C 
ATOM     29  C   UNL     1      -2.372  -2.832   8.001  1.00  0.00     0.208 C 
ATOM     30  O   UNL     1      -3.085  -2.671   6.859  1.00  0.00    -0.474 OA
ATOM     31  C   UNL     1      -4.413  -0.677   6.903  1.00  0.00     0.056 C 
BRANCH  29  32
ATOM     32  C   UNL     1      -0.915  -3.230   7.777  1.00  0.00     0.171 C 
BRANCH  32  33
ATOM     33  N   UNL     1      -0.729  -3.794   6.450  1.00  0.00    -0.342 N 
ATOM     34  C   UNL     1      -0.133  -5.015   6.241  1.00  0.00     0.246 CG0
ATOM     35  O   UNL     1       0.310  -5.710   7.152  1.00  0.00    -0.273 OA
ATOM     36  H   UNL     1      -1.004  -3.282   5.619  1.00  0.00     0.164 HD
ATOM     37  G   UNL     1      -0.086  -5.457   4.769  1.00  0.00     0.000 G0
ENDBRANCH  32  33
BRANCH  32  38
ATOM     38  C   UNL     1       0.024  -2.025   8.048  1.00  0.00     0.017 C 
ATOM     39  C   UNL     1      -0.068  -1.016   6.896  1.00  0.00     0.010 C 
BRANCH  38  40
ATOM     40  C   UNL     1      -0.238  -1.352   9.415  1.00  0.00     0.002 C 
ATOM     41  C   UNL     1       0.698  -1.830  10.518  1.00  0.00     0.004 C 
ENDBRANCH  38  40
ENDBRANCH  32  38
ENDBRANCH  29  32
ENDBRANCH  23  26
ENDBRANCH   1  22
TORSDOF 4
ENDMDL
MODEL 5
REMARK VINA RESULT:    -4.873     18.801     22.707
REMARK INTER + INTRA:          -9.985
REMARK INTER:                  -8.160
REMARK INTRA:                  -1.826
REMARK UNBOUND:                -1.694
REMARK SMILES CC[C@H](C)[C@@H]1NC(=O)[C@H]2CSC(=N2)[C@@H]([C@@H](C)CC)NC(=O)c2csc(n2)CNC(=O)[C@H]2N=C1O[C@@H]2C
REMARK SMILES IDX 27 1 25 2 22 3 26 4 23 5 24 6 20 7 19 8 21 9 14 11 12 12
REMARK SMILES IDX 11 13 10 14 13 15 9 16 15 18 16 19 17 20 18 21 28 22 29 23
REMARK SMILES IDX 30 24 31 26 32 27 35 28 33 29 34 30 36 31 5 32 6 33 7 34
REMARK SMILES IDX 8 35 3 38 4 39 2 40 1 41
REMARK H PARENT 19 10 28 25 6 36
REMARK Flexibility Score:   91.900
ROOT
ATOM      1  C   UNL     1       4.206  -0.146   2.217  1.00  0.00     0.183 C 
ENDROOT
BRANCH   1   2
ATOM      2  C   UNL     1       5.175  -1.243   1.879  1.00  0.00     0.113 A 
ATOM      3  C   UNL     1       6.526  -2.528   0.659  1.00  0.00     0.139 A 
ATOM      4  N   UNL     1       5.779  -1.349   0.710  1.00  0.00    -0.234 NA
ATOM      5  C   UNL     1       6.514  -3.264   1.827  1.00  0.00     0.101 A 
ATOM      6  S   UNL     1       5.534  -2.488   3.004  1.00  0.00    -0.125 S 
BRANCH   3   7
ATOM      7  C   UNL     1       7.207  -2.911  -0.580  1.00  0.00     0.271 C 
ATOM      8  N   UNL     1       8.546  -2.607  -0.536  1.00  0.00    -0.341 N 
ATOM      9  O   UNL     1       6.638  -3.408  -1.543  1.00  0.00    -0.267 OA
ATOM     10  H   UNL     1       8.881  -2.218   0.345  1.00  0.00     0.164 HD
BRANCH   8  11
ATOM     11  C   UNL     1       9.442  -2.697  -1.677  1.00  0.00     0.140 C 
BRANCH  11  12
ATOM     12  C   UNL     1       9.951  -1.286  -1.987  1.00  0.00     0.091 C 
ATOM     13  S   UNL     1      11.592  -0.829  -1.595  1.00  0.00    -0.106 SA
ATOM     14  C   UNL     1      11.415   0.683  -2.566  1.00  0.00     0.113 C 
ATOM     15  N   UNL     1       9.176  -0.368  -2.474  1.00  0.00    -0.267 NA
ATOM     16  C   UNL     1       9.915   0.930  -2.570  1.00  0.00     0.205 CG0
ATOM     17  G   UNL     1       9.516   1.874  -1.423  1.00  0.00     0.000 G0
ENDBRANCH  11  12
BRANCH  11  18
ATOM     18  C   UNL     1      10.519  -3.805  -1.548  1.00  0.00     0.015 C 
ATOM     19  C   UNL     1      10.413  -4.497  -0.182  1.00  0.00     0.010 C 
BRANCH  18  20
ATOM     20  C   UNL     1      10.530  -4.830  -2.700  1.00  0.00     0.002 C 
ATOM     21  C   UNL     1       9.355  -4.663  -3.657  1.00  0.00     0.004 C 
ENDBRANCH  18  20
ENDBRANCH  11  18
ENDBRANCH   8  11
ENDBRANCH   3   7
ENDBRANCH   1   2
BRANCH   1  22
ATOM     22  N   UNL     1       4.371   0.897   1.230  1.00  0.00    -0.348 N 
ATOM     23  C   UNL     1       3.941   2.188   1.381  1.00  0.00     0.249 C 
ATOM     24  O   UNL     1       3.442   2.613   2.417  1.00  0.00    -0.272 OA
ATOM     25  H   UNL     1       4.757   0.647   0.321  1.00  0.00     0.163 HD
BRANCH  23  26
ATOM     26  C   UNL     1       4.209   3.053   0.140  1.00  0.00     0.238 C 
ATOM     27  N   UNL     1       5.490   3.791   0.323  1.00  0.00    -0.236 NA
ATOM     28  C   UNL     1       4.400   2.211  -1.110  1.00  0.00     0.206 C 
ATOM     29  C   UNL     1       6.281   3.233  -0.543  1.00  0.00     0.208 C 
ATOM     30  O   UNL     1       5.808   2.238  -1.334  1.00  0.00    -0.474 OA
ATOM     31  C   UNL     1       3.702   2.805  -2.326  1.00  0.00     0.056 C 
BRANCH  29  32
ATOM     32  C   UNL     1       7.761   3.544  -0.749  1.00  0.00     0.171 C 
BRANCH  32  33
ATOM     33  N   UNL     1       8.356   2.629  -1.710  1.00  0.00    -0.342 N 
ATOM     34  C   UNL     1       9.480   1.889  -1.431  1.00  0.00     0.246 CG0
ATOM     35  O   UNL     1      10.081   1.961  -0.362  1.00  0.00    -0.273 OA
ATOM     36  H   UNL     1       7.977   2.533  -2.646  1.00  0.00     0.164 HD
ATOM     37  G   UNL     1       9.913   0.939  -2.559  1.00  0.00     0.000 G0
ENDBRANCH  32  33
BRANCH  32  38
ATOM     38  C   UNL     1       7.952   5.032  -1.147  1.00  0.00     0.017 C 
ATOM     39  C   UNL     1       8.373   5.855   0.077  1.00  0.00     0.010 C 
BRANCH  38  40
ATOM     40  C   UNL     1       8.936   5.219  -2.324  1.00  0.00     0.002 C 
ATOM     41  C   UNL     1      10.154   6.063  -1.972  1.00  0.00     0.004 C 
ENDBRANCH  38  40
ENDBRANCH  32  38
ENDBRANCH  29  32
ENDBRANCH  23  26
ENDBRANCH   1  22
TORSDOF 4
ENDMDL
MODEL 6
REMARK VINA RESULT:    -4.870     11.748     14.993
REMARK INTER + INTRA:          -9.980
REMARK INTER:                  -8.584
REMARK INTRA:                  -1.396
REMARK UNBOUND:                -1.694
REMARK SMILES CC[C@H](C)[C@@H]1NC(=O)[C@H]2CSC(=N2)[C@@H]([C@@H](C)CC)NC(=O)c2csc(n2)CNC(=O)[C@H]2N=C1O[C@@H]2C
REMARK SMILES IDX 27 1 25 2 22 3 26 4 23 5 24 6 20 7 19 8 21 9 14 11 12 12
REMARK SMILES IDX 11 13 10 14 13 15 9 16 15 18 16 19 17 20 18 21 28 22 29 23
REMARK SMILES IDX 30 24 31 26 32 27 35 28 33 29 34 30 36 31 5 32 6 33 7 34
REMARK SMILES IDX 8 35 3 38 4 39 2 40 1 41
REMARK H PARENT 19 10 28 25 6 36
REMARK Flexibility Score:   91.900
ROOT
ATOM      1  C   UNL     1      -0.684  -4.102   2.636  1.00  0.00     0.183 C 
ENDROOT
BRANCH   1   2
ATOM      2  C   UNL     1      -0.912  -4.271   4.111  1.00  0.00     0.113 A 
ATOM      3  C   UNL     1      -0.552  -4.133   6.306  1.00  0.00     0.139 A 
ATOM      4  N   UNL     1      -0.167  -3.695   5.037  1.00  0.00    -0.234 NA
ATOM      5  C   UNL     1      -1.630  -4.996   6.311  1.00  0.00     0.101 A 
ATOM      6  S   UNL     1      -2.160  -5.289   4.705  1.00  0.00    -0.125 S 
BRANCH   3   7
ATOM      7  C   UNL     1       0.199  -3.703   7.488  1.00  0.00     0.271 C 
ATOM      8  N   UNL     1       0.367  -2.341   7.514  1.00  0.00    -0.341 N 
ATOM      9  O   UNL     1       0.647  -4.475   8.326  1.00  0.00    -0.267 OA
ATOM     10  H   UNL     1      -0.085  -1.827   6.758  1.00  0.00     0.164 HD
BRANCH   8  11
ATOM     11  C   UNL     1       1.223  -1.641   8.456  1.00  0.00     0.140 C 
BRANCH  11  12
ATOM     12  C   UNL     1       1.937  -0.517   7.698  1.00  0.00     0.091 C 
ATOM     13  S   UNL     1       1.017   0.709   6.857  1.00  0.00    -0.106 SA
ATOM     14  C   UNL     1       2.513   1.695   6.634  1.00  0.00     0.113 C 
ATOM     15  N   UNL     1       3.227  -0.474   7.590  1.00  0.00    -0.267 NA
ATOM     16  C   UNL     1       3.631   0.667   6.709  1.00  0.00     0.205 CG0
ATOM     17  G   UNL     1       4.007   0.169   5.304  1.00  0.00     0.000 G0
ENDBRANCH  11  12
BRANCH  11  18
ATOM     18  C   UNL     1       0.514  -1.239   9.775  1.00  0.00     0.015 C 
ATOM     19  C   UNL     1       0.597  -2.382  10.796  1.00  0.00     0.010 C 
BRANCH  18  20
ATOM     20  C   UNL     1       0.990   0.096  10.383  1.00  0.00     0.002 C 
ATOM     21  C   UNL     1      -0.159   1.039  10.720  1.00  0.00     0.004 C 
ENDBRANCH  18  20
ENDBRANCH  11  18
ENDBRANCH   8  11
ENDBRANCH   3   7
ENDBRANCH   1   2
BRANCH   1  22
ATOM     22  N   UNL     1       0.211  -2.980   2.463  1.00  0.00    -0.348 N 
ATOM     23  C   UNL     1      -0.112  -1.818   1.816  1.00  0.00     0.249 C 
ATOM     24  O   UNL     1      -1.234  -1.577   1.387  1.00  0.00    -0.272 OA
ATOM     25  H   UNL     1       1.180  -3.081   2.764  1.00  0.00     0.163 HD
BRANCH  23  26
ATOM     26  C   UNL     1       1.063  -0.831   1.742  1.00  0.00     0.238 C 
ATOM     27  N   UNL     1       1.788  -0.832   3.044  1.00  0.00    -0.236 NA
ATOM     28  C   UNL     1       2.092  -1.248   0.705  1.00  0.00     0.206 C 
ATOM     29  C   UNL     1       2.924  -1.392   2.752  1.00  0.00     0.208 C 
ATOM     30  O   UNL     1       3.166  -1.782   1.476  1.00  0.00    -0.474 OA
ATOM     31  C   UNL     1       2.614  -0.069  -0.106  1.00  0.00     0.056 C 
BRANCH  29  32
ATOM     32  C   UNL     1       4.047  -1.723   3.731  1.00  0.00     0.171 C 
BRANCH  32  33
ATOM     33  N   UNL     1       3.797  -1.121   5.031  1.00  0.00    -0.342 N 
ATOM     34  C   UNL     1       4.033   0.208   5.290  1.00  0.00     0.246 CG0
ATOM     35  O   UNL     1       4.496   0.981   4.456  1.00  0.00    -0.273 OA
ATOM     36  H   UNL     1       3.469  -1.679   5.813  1.00  0.00     0.164 HD
ATOM     37  G   UNL     1       3.647   0.658   6.709  1.00  0.00     0.000 G0
ENDBRANCH  32  33
BRANCH  32  38
ATOM     38  C   UNL     1       4.257  -3.258   3.816  1.00  0.00     0.017 C 
ATOM     39  C   UNL     1       5.695  -3.570   4.250  1.00  0.00     0.010 C 
BRANCH  38  40
ATOM     40  C   UNL     1       3.223  -3.958   4.728  1.00  0.00     0.002 C 
ATOM     41  C   UNL     1       3.828  -5.032   5.623  1.00  0.00     0.004 C 
ENDBRANCH  38  40
ENDBRANCH  32  38
ENDBRANCH  29  32
ENDBRANCH  23  26
ENDBRANCH   1  22
TORSDOF 4
ENDMDL
MODEL 7
REMARK VINA RESULT:    -4.773     20.091     24.293
REMARK INTER + INTRA:          -9.815
REMARK INTER:                  -8.244
REMARK INTRA:                  -1.571
REMARK UNBOUND:                -1.694
REMARK SMILES CC[C@H](C)[C@@H]1NC(=O)[C@H]2CSC(=N2)[C@@H]([C@@H](C)CC)NC(=O)c2csc(n2)CNC(=O)[C@H]2N=C1O[C@@H]2C
REMARK SMILES IDX 27 1 25 2 22 3 26 4 23 5 24 6 20 7 19 8 21 9 14 11 12 12
REMARK SMILES IDX 11 13 10 14 13 15 9 16 15 18 16 19 17 20 18 21 28 22 29 23
REMARK SMILES IDX 30 24 31 26 32 27 35 28 33 29 34 30 36 31 5 32 6 33 7 34
REMARK SMILES IDX 8 35 3 38 4 39 2 40 1 41
REMARK H PARENT 19 10 28 25 6 36
REMARK Flexibility Score:   91.900
ROOT
ATOM      1  C   UNL     1      12.327   2.540  -2.743  1.00  0.00     0.183 C 
ENDROOT
BRANCH   1   2
ATOM      2  C   UNL     1      11.020   3.254  -2.933  1.00  0.00     0.113 A 
ATOM      3  C   UNL     1       8.977   4.020  -2.480  1.00  0.00     0.139 A 
ATOM      4  N   UNL     1      10.133   3.424  -1.970  1.00  0.00    -0.234 NA
ATOM      5  C   UNL     1       9.042   4.341  -3.821  1.00  0.00     0.101 A 
ATOM      6  S   UNL     1      10.562   3.872  -4.468  1.00  0.00    -0.125 S 
BRANCH   3   7
ATOM      7  C   UNL     1       7.812   4.217  -1.614  1.00  0.00     0.271 C 
ATOM      8  N   UNL     1       7.530   3.092  -0.880  1.00  0.00    -0.341 N 
ATOM      9  O   UNL     1       7.156   5.251  -1.582  1.00  0.00    -0.267 OA
ATOM     10  H   UNL     1       8.180   2.315  -0.996  1.00  0.00     0.164 HD
BRANCH   8  11
ATOM     11  C   UNL     1       6.331   2.920  -0.076  1.00  0.00     0.140 C 
BRANCH  11  12
ATOM     12  C   UNL     1       5.611   1.661  -0.569  1.00  0.00     0.091 C 
ATOM     13  S   UNL     1       4.413   0.874   0.431  1.00  0.00    -0.106 SA
ATOM     14  C   UNL     1       3.897  -0.145  -0.967  1.00  0.00     0.113 C 
ATOM     15  N   UNL     1       5.910   1.096  -1.697  1.00  0.00    -0.267 NA
ATOM     16  C   UNL     1       5.125  -0.167  -1.863  1.00  0.00     0.205 CG0
ATOM     17  G   UNL     1       5.996  -1.398  -1.562  1.00  0.00     0.000 G0
ENDBRANCH  11  12
BRANCH  11  18
ATOM     18  C   UNL     1       6.577   3.019   1.451  1.00  0.00     0.015 C 
ATOM     19  C   UNL     1       7.961   2.461   1.808  1.00  0.00     0.010 C 
BRANCH  18  20
ATOM     20  C   UNL     1       6.366   4.425   2.048  1.00  0.00     0.002 C 
ATOM     21  C   UNL     1       7.536   4.889   2.907  1.00  0.00     0.004 C 
ENDBRANCH  18  20
ENDBRANCH  11  18
ENDBRANCH   8  11
ENDBRANCH   3   7
ENDBRANCH   1   2
BRANCH   1  22
ATOM     22  N   UNL     1      12.061   1.121  -2.825  1.00  0.00    -0.348 N 
ATOM     23  C   UNL     1      11.961   0.283  -1.748  1.00  0.00     0.249 C 
ATOM     24  O   UNL     1      12.004   0.673  -0.586  1.00  0.00    -0.272 OA
ATOM     25  H   UNL     1      12.028   0.687  -3.746  1.00  0.00     0.163 HD
BRANCH  23  26
ATOM     26  C   UNL     1      11.728  -1.181  -2.152  1.00  0.00     0.238 C 
ATOM     27  N   UNL     1      10.633  -1.752  -1.320  1.00  0.00    -0.236 NA
ATOM     28  C   UNL     1      11.254  -1.306  -3.589  1.00  0.00     0.206 C 
ATOM     29  C   UNL     1       9.665  -1.912  -2.171  1.00  0.00     0.208 C 
ATOM     30  O   UNL     1       9.859  -1.581  -3.471  1.00  0.00    -0.474 OA
ATOM     31  C   UNL     1      11.917  -2.462  -4.325  1.00  0.00     0.056 C 
BRANCH  29  32
ATOM     32  C   UNL     1       8.255  -2.404  -1.856  1.00  0.00     0.171 C 
BRANCH  32  33
ATOM     33  N   UNL     1       7.279  -1.344  -2.052  1.00  0.00    -0.342 N 
ATOM     34  C   UNL     1       5.991  -1.426  -1.579  1.00  0.00     0.246 CG0
ATOM     35  O   UNL     1       5.558  -2.407  -0.979  1.00  0.00    -0.273 OA
ATOM     36  H   UNL     1       7.508  -0.512  -2.584  1.00  0.00     0.164 HD
ATOM     37  G   UNL     1       5.136  -0.175  -1.839  1.00  0.00     0.000 G0
ENDBRANCH  32  33
BRANCH  32  38
ATOM     38  C   UNL     1       7.926  -3.675  -2.683  1.00  0.00     0.017 C 
ATOM     39  C   UNL     1       7.773  -3.314  -4.166  1.00  0.00     0.010 C 
BRANCH  38  40
ATOM     40  C   UNL     1       8.955  -4.811  -2.477  1.00  0.00     0.002 C 
ATOM     41  C   UNL     1       9.402  -5.471  -3.775  1.00  0.00     0.004 C 
ENDBRANCH  38  40
ENDBRANCH  32  38
ENDBRANCH  29  32
ENDBRANCH  23  26
ENDBRANCH   1  22
TORSDOF 4
ENDMDL
MODEL 8
REMARK VINA RESULT:    -4.731     15.203     19.051
REMARK INTER + INTRA:          -9.744
REMARK INTER:                  -7.872
REMARK INTRA:                  -1.872
REMARK UNBOUND:                -1.694
REMARK SMILES CC[C@H](C)[C@@H]1NC(=O)[C@H]2CSC(=N2)[C@@H]([C@@H](C)CC)NC(=O)c2csc(n2)CNC(=O)[C@H]2N=C1O[C@@H]2C
REMARK SMILES IDX 27 1 25 2 22 3 26 4 23 5 24 6 20 7 19 8 21 9 14 11 12 12
REMARK SMILES IDX 11 13 10 14 13 15 9 16 15 18 16 19 17 20 18 21 28 22 29 23
REMARK SMILES IDX 30 24 31 26 32 27 35 28 33 29 34 30 36 31 5 32 6 33 7 34
REMARK SMILES IDX 8 35 3 38 4 39 2 40 1 41
REMARK H PARENT 19 10 28 25 6 36
REMARK Flexibility Score:   91.900
ROOT
ATOM      1  C   UNL     1       0.210   0.978   3.304  1.00  0.00     0.183 C 
ENDROOT
BRANCH   1   2
ATOM      2  C   UNL     1       1.171   0.775   2.168  1.00  0.00     0.113 A 
ATOM      3  C   UNL     1       2.500   1.268   0.449  1.00  0.00     0.139 A 
ATOM      4  N   UNL     1       1.758   1.765   1.521  1.00  0.00    -0.234 NA
ATOM      5  C   UNL     1       2.503  -0.110   0.345  1.00  0.00     0.101 A 
ATOM      6  S   UNL     1       1.544  -0.798   1.591  1.00  0.00    -0.125 S 
BRANCH   3   7
ATOM      7  C   UNL     1       3.162   2.191  -0.476  1.00  0.00     0.271 C 
ATOM      8  N   UNL     1       4.493   2.341  -0.175  1.00  0.00    -0.341 N 
ATOM      9  O   UNL     1       2.583   2.778  -1.381  1.00  0.00    -0.267 OA
ATOM     10  H   UNL     1       4.839   1.768   0.594  1.00  0.00     0.164 HD
BRANCH   8  11
ATOM     11  C   UNL     1       5.365   3.327  -0.793  1.00  0.00     0.140 C 
BRANCH  11  12
ATOM     12  C   UNL     1       5.932   4.215   0.318  1.00  0.00     0.091 C 
ATOM     13  S   UNL     1       7.559   3.969   0.908  1.00  0.00    -0.106 SA
ATOM     14  C   UNL     1       7.485   5.535   1.803  1.00  0.00     0.113 C 
ATOM     15  N   UNL     1       5.215   5.120   0.907  1.00  0.00    -0.267 NA
ATOM     16  C   UNL     1       5.995   5.752   2.017  1.00  0.00     0.205 CG0
ATOM     17  G   UNL     1       5.556   5.196   3.382  1.00  0.00     0.000 G0
ENDBRANCH  11  12
BRANCH  11  18
ATOM     18  C   UNL     1       6.392   2.726  -1.786  1.00  0.00     0.015 C 
ATOM     19  C   UNL     1       6.267   1.197  -1.824  1.00  0.00     0.010 C 
BRANCH  18  20
ATOM     20  C   UNL     1       6.347   3.331  -3.204  1.00  0.00     0.002 C 
ATOM     21  C   UNL     1       6.716   4.810  -3.233  1.00  0.00     0.004 C 
ENDBRANCH  18  20
ENDBRANCH  11  18
ENDBRANCH   8  11
ENDBRANCH   3   7
ENDBRANCH   1   2
BRANCH   1  22
ATOM     22  N   UNL     1       0.390   2.329   3.787  1.00  0.00    -0.348 N 
ATOM     23  C   UNL     1       0.149   2.736   5.071  1.00  0.00     0.249 C 
ATOM     24  O   UNL     1      -0.167   1.967   5.972  1.00  0.00    -0.272 OA
ATOM     25  H   UNL     1       0.631   3.056   3.115  1.00  0.00     0.163 HD
BRANCH  23  26
ATOM     26  C   UNL     1       0.377   4.242   5.271  1.00  0.00     0.238 C 
ATOM     27  N   UNL     1       1.667   4.454   5.983  1.00  0.00    -0.236 NA
ATOM     28  C   UNL     1       0.517   4.976   3.948  1.00  0.00     0.206 C 
ATOM     29  C   UNL     1       2.424   4.993   5.075  1.00  0.00     0.208 C 
ATOM     30  O   UNL     1       1.917   5.229   3.840  1.00  0.00    -0.474 OA
ATOM     31  C   UNL     1      -0.220   6.308   3.937  1.00  0.00     0.056 C 
BRANCH  29  32
ATOM     32  C   UNL     1       3.897   5.362   5.227  1.00  0.00     0.171 C 
BRANCH  32  33
ATOM     33  N   UNL     1       4.460   5.788   3.955  1.00  0.00    -0.342 N 
ATOM     34  C   UNL     1       5.565   5.191   3.397  1.00  0.00     0.246 CG0
ATOM     35  O   UNL     1       6.176   4.273   3.938  1.00  0.00    -0.273 OA
ATOM     36  H   UNL     1       4.072   6.576   3.448  1.00  0.00     0.164 HD
ATOM     37  G   UNL     1       5.964   5.750   2.022  1.00  0.00     0.000 G0
ENDBRANCH  32  33
BRANCH  32  38
ATOM     38  C   UNL     1       4.078   6.424   6.343  1.00  0.00     0.017 C 
ATOM     39  C   UNL     1       5.548   6.486   6.778  1.00  0.00     0.010 C 
BRANCH  38  40
ATOM     40  C   UNL     1       3.545   7.818   5.940  1.00  0.00     0.002 C 
ATOM     41  C   UNL     1       2.366   8.287   6.783  1.00  0.00     0.004 C 
ENDBRANCH  38  40
ENDBRANCH  32  38
ENDBRANCH  29  32
ENDBRANCH  23  26
ENDBRANCH   1  22
TORSDOF 4
ENDMDL
MODEL 9
REMARK VINA RESULT:    -4.728     12.018     14.702
REMARK INTER + INTRA:          -9.738
REMARK INTER:                  -7.829
REMARK INTRA:                  -1.909
REMARK UNBOUND:                -1.694
REMARK SMILES CC[C@H](C)[C@@H]1NC(=O)[C@H]2CSC(=N2)[C@@H]([C@@H](C)CC)NC(=O)c2csc(n2)CNC(=O)[C@H]2N=C1O[C@@H]2C
REMARK SMILES IDX 27 1 25 2 22 3 26 4 23 5 24 6 20 7 19 8 21 9 14 11 12 12
REMARK SMILES IDX 11 13 10 14 13 15 9 16 15 18 16 19 17 20 18 21 28 22 29 23
REMARK SMILES IDX 30 24 31 26 32 27 35 28 33 29 34 30 36 31 5 32 6 33 7 34
REMARK SMILES IDX 8 35 3 38 4 39 2 40 1 41
REMARK H PARENT 19 10 28 25 6 36
REMARK Flexibility Score:   91.900
ROOT
ATOM      1  C   UNL     1       1.631  -7.052   7.358  1.00  0.00     0.183 C 
ENDROOT
BRANCH   1   2
ATOM      2  C   UNL     1       1.018  -7.557   6.084  1.00  0.00     0.113 A 
ATOM      3  C   UNL     1       0.367  -7.589   3.952  1.00  0.00     0.139 A 
ATOM      4  N   UNL     1       1.140  -6.944   4.920  1.00  0.00    -0.234 NA
ATOM      5  C   UNL     1      -0.282  -8.723   4.401  1.00  0.00     0.101 A 
ATOM      6  S   UNL     1       0.054  -8.977   6.064  1.00  0.00    -0.125 S 
BRANCH   3   7
ATOM      7  C   UNL     1       0.266  -7.029   2.603  1.00  0.00     0.271 C 
ATOM      8  N   UNL     1       1.483  -6.584   2.147  1.00  0.00    -0.341 N 
ATOM      9  O   UNL     1      -0.784  -6.942   1.979  1.00  0.00    -0.267 OA
ATOM     10  H   UNL     1       2.273  -6.746   2.771  1.00  0.00     0.164 HD
BRANCH   8  11
ATOM     11  C   UNL     1       1.667  -5.815   0.928  1.00  0.00     0.140 C 
BRANCH  11  12
ATOM     12  C   UNL     1       2.269  -4.460   1.313  1.00  0.00     0.091 C 
ATOM     13  S   UNL     1       3.653  -4.374   2.376  1.00  0.00    -0.106 SA
ATOM     14  C   UNL     1       3.864  -2.626   1.981  1.00  0.00     0.113 C 
ATOM     15  N   UNL     1       1.739  -3.340   0.932  1.00  0.00    -0.267 NA
ATOM     16  C   UNL     1       2.474  -2.190   1.545  1.00  0.00     0.205 CG0
ATOM     17  G   UNL     1       1.690  -1.607   2.732  1.00  0.00     0.000 G0
ENDBRANCH  11  12
BRANCH  11  18
ATOM     18  C   UNL     1       2.386  -6.592  -0.205  1.00  0.00     0.015 C 
ATOM     19  C   UNL     1       3.746  -7.110   0.282  1.00  0.00     0.010 C 
BRANCH  18  20
ATOM     20  C   UNL     1       1.550  -7.718  -0.845  1.00  0.00     0.002 C 
ATOM     21  C   UNL     1       1.839  -7.903  -2.331  1.00  0.00     0.004 C 
ENDBRANCH  18  20
ENDBRANCH  11  18
ENDBRANCH   8  11
ENDBRANCH   3   7
ENDBRANCH   1   2
BRANCH   1  22
ATOM     22  N   UNL     1       1.530  -5.610   7.345  1.00  0.00    -0.348 N 
ATOM     23  C   UNL     1       2.597  -4.753   7.332  1.00  0.00     0.249 C 
ATOM     24  O   UNL     1       3.760  -5.130   7.243  1.00  0.00    -0.272 OA
ATOM     25  H   UNL     1       0.606  -5.189   7.439  1.00  0.00     0.163 HD
BRANCH  23  26
ATOM     26  C   UNL     1       2.176  -3.277   7.378  1.00  0.00     0.238 C 
ATOM     27  N   UNL     1       2.073  -2.752   5.989  1.00  0.00    -0.236 NA
ATOM     28  C   UNL     1       0.793  -3.099   7.983  1.00  0.00     0.206 C 
ATOM     29  C   UNL     1       0.796  -2.567   5.833  1.00  0.00     0.208 C 
ATOM     30  O   UNL     1      -0.047  -2.843   6.858  1.00  0.00    -0.474 OA
ATOM     31  C   UNL     1       0.718  -1.906   8.927  1.00  0.00     0.056 C 
BRANCH  29  32
ATOM     32  C   UNL     1       0.098  -2.102   4.558  1.00  0.00     0.171 C 
BRANCH  32  33
ATOM     33  N   UNL     1       0.872  -2.464   3.381  1.00  0.00    -0.342 N 
ATOM     34  C   UNL     1       1.690  -1.571   2.729  1.00  0.00     0.246 CG0
ATOM     35  O   UNL     1       1.810  -0.398   3.073  1.00  0.00    -0.273 OA
ATOM     36  H   UNL     1       0.805  -3.390   2.973  1.00  0.00     0.164 HD
ATOM     37  G   UNL     1       2.466  -2.167   1.544  1.00  0.00     0.000 G0
ENDBRANCH  32  33
BRANCH  32  38
ATOM     38  C   UNL     1      -1.354  -2.647   4.505  1.00  0.00     0.017 C 
ATOM     39  C   UNL     1      -2.236  -1.714   3.667  1.00  0.00     0.010 C 
BRANCH  38  40
ATOM     40  C   UNL     1      -1.432  -4.107   4.003  1.00  0.00     0.002 C 
ATOM     41  C   UNL     1      -2.116  -5.052   4.982  1.00  0.00     0.004 C 
ENDBRANCH  38  40
ENDBRANCH  32  38
ENDBRANCH  29  32
ENDBRANCH  23  26
ENDBRANCH   1  22
TORSDOF 4
ENDMDL
MODEL 10
REMARK VINA RESULT:    -4.675     11.850     14.539
REMARK INTER + INTRA:          -9.648
REMARK INTER:                  -7.911
REMARK INTRA:                  -1.737
REMARK UNBOUND:                -1.694
REMARK SMILES CC[C@H](C)[C@@H]1NC(=O)[C@H]2CSC(=N2)[C@@H]([C@@H](C)CC)NC(=O)c2csc(n2)CNC(=O)[C@H]2N=C1O[C@@H]2C
REMARK SMILES IDX 27 1 25 2 22 3 26 4 23 5 24 6 20 7 19 8 21 9 14 11 12 12
REMARK SMILES IDX 11 13 10 14 13 15 9 16 15 18 16 19 17 20 18 21 28 22 29 23
REMARK SMILES IDX 30 24 31 26 32 27 35 28 33 29 34 30 36 31 5 32 6 33 7 34
REMARK SMILES IDX 8 35 3 38 4 39 2 40 1 41
REMARK H PARENT 19 10 28 25 6 36
REMARK Flexibility Score:   91.900
ROOT
ATOM      1  C   UNL     1      -0.552  -6.372   6.230  1.00  0.00     0.183 C 
ENDROOT
BRANCH   1   2
ATOM      2  C   UNL     1      -0.714  -5.875   4.823  1.00  0.00     0.113 A 
ATOM      3  C   UNL     1      -0.440  -4.595   3.019  1.00  0.00     0.139 A 
ATOM      4  N   UNL     1       0.022  -4.912   4.298  1.00  0.00    -0.234 NA
ATOM      5  C   UNL     1      -1.491  -5.377   2.580  1.00  0.00     0.101 A 
ATOM      6  S   UNL     1      -1.929  -6.511   3.791  1.00  0.00    -0.125 S 
BRANCH   3   7
ATOM      7  C   UNL     1       0.160  -3.484   2.277  1.00  0.00     0.271 C 
ATOM      8  N   UNL     1       1.532  -3.556   2.281  1.00  0.00    -0.341 N 
ATOM      9  O   UNL     1      -0.488  -2.587   1.752  1.00  0.00    -0.267 OA
ATOM     10  H   UNL     1       1.929  -4.374   2.740  1.00  0.00     0.164 HD
BRANCH   8  11
ATOM     11  C   UNL     1       2.406  -2.503   1.791  1.00  0.00     0.140 C 
BRANCH  11  12
ATOM     12  C   UNL     1       3.318  -2.075   2.944  1.00  0.00     0.091 C 
ATOM     13  S   UNL     1       4.030  -3.270   4.003  1.00  0.00    -0.106 SA
ATOM     14  C   UNL     1       5.120  -2.016   4.708  1.00  0.00     0.113 C 
ATOM     15  N   UNL     1       3.536  -0.828   3.222  1.00  0.00    -0.267 NA
ATOM     16  C   UNL     1       4.373  -0.715   4.458  1.00  0.00     0.205 CG0
ATOM     17  G   UNL     1       3.509  -0.341   5.673  1.00  0.00     0.000 G0
ENDBRANCH  11  12
BRANCH  11  18
ATOM     18  C   UNL     1       3.105  -2.838   0.448  1.00  0.00     0.015 C 
ATOM     19  C   UNL     1       3.733  -1.576  -0.158  1.00  0.00     0.010 C 
BRANCH  18  20
ATOM     20  C   UNL     1       4.122  -3.994   0.521  1.00  0.00     0.002 C 
ATOM     21  C   UNL     1       5.527  -3.578   0.099  1.00  0.00     0.004 C 
ENDBRANCH  18  20
ENDBRANCH  11  18
ENDBRANCH   8  11
ENDBRANCH   3   7
ENDBRANCH   1   2
BRANCH   1  22
ATOM     22  N   UNL     1      -0.186  -5.239   7.050  1.00  0.00    -0.348 N 
ATOM     23  C   UNL     1       1.060  -5.026   7.576  1.00  0.00     0.249 C 
ATOM     24  O   UNL     1       2.024  -5.742   7.330  1.00  0.00    -0.272 OA
ATOM     25  H   UNL     1      -0.918  -4.590   7.335  1.00  0.00     0.163 HD
BRANCH  23  26
ATOM     26  C   UNL     1       1.130  -3.766   8.451  1.00  0.00     0.238 C 
ATOM     27  N   UNL     1       1.909  -2.716   7.738  1.00  0.00    -0.236 NA
ATOM     28  C   UNL     1      -0.243  -3.162   8.689  1.00  0.00     0.206 C 
ATOM     29  C   UNL     1       1.010  -1.825   7.446  1.00  0.00     0.208 C 
ATOM     30  O   UNL     1      -0.275  -2.024   7.829  1.00  0.00    -0.474 OA
ATOM     31  C   UNL     1      -0.433  -2.692  10.125  1.00  0.00     0.056 C 
BRANCH  29  32
ATOM     32  C   UNL     1       1.230  -0.547   6.640  1.00  0.00     0.171 C 
BRANCH  32  33
ATOM     33  N   UNL     1       2.208  -0.761   5.585  1.00  0.00    -0.342 N 
ATOM     34  C   UNL     1       3.509  -0.328   5.681  1.00  0.00     0.246 CG0
ATOM     35  O   UNL     1       3.939   0.293   6.650  1.00  0.00    -0.273 OA
ATOM     36  H   UNL     1       1.949  -1.211   4.713  1.00  0.00     0.164 HD
ATOM     37  G   UNL     1       4.396  -0.705   4.483  1.00  0.00     0.000 G0
ENDBRANCH  32  33
BRANCH  32  38
ATOM     38  C   UNL     1      -0.120  -0.007   6.100  1.00  0.00     0.017 C 
ATOM     39  C   UNL     1      -0.113   1.527   6.106  1.00  0.00     0.010 C 
BRANCH  38  40
ATOM     40  C   UNL     1      -0.479  -0.568   4.705  1.00  0.00     0.002 C 
ATOM     41  C   UNL     1      -0.376   0.462   3.588  1.00  0.00     0.004 C 
ENDBRANCH  38  40
ENDBRANCH  32  38
ENDBRANCH  29  32
ENDBRANCH  23  26
ENDBRANCH   1  22
TORSDOF 4
ENDMDL
