MODEL 1
REMARK VINA RESULT:    -6.572      0.000      0.000
REMARK INTER + INTRA:         -22.347
REMARK INTER:                 -16.368
REMARK INTRA:                  -5.978
REMARK UNBOUND:                -5.978
REMARK SMILES CCCCCCC[C@H](N)[C@H](O)C(=O)N[C@H](C)C(=O)N(C)[C@H](CC(C)C)C(=O)N[C@@H](Cc1ccc(O)cc1)C(=O)N[C@@H](Cc1ccc(O)cc1)C(=O)O
REMARK SMILES IDX 18 1 17 2 15 3 16 4 14 5 12 6 13 7 10 9 11 10 8 12 9 13 7 16
REMARK SMILES IDX 6 17 5 18 4 19 3 20 2 21 1 22 19 23 20 24 21 25 22 26 23 27
REMARK SMILES IDX 24 28 25 29 26 30 27 31 28 32 29 34 30 35 31 36 32 37 37 38
REMARK SMILES IDX 33 39 36 40 34 41 35 42 38 44 39 45 40 46 41 48 42 49 43 50
REMARK SMILES IDX 44 51 49 52 45 53 48 54 46 55 47 56 50 58 51 59 52 60
REMARK H PARENT 14 8 11 11 9 14 9 15 28 33 35 43 40 47 47 57 52 61
ROOT
ATOM      1  O   UNL     1      -3.273  15.212  -0.349  1.00  0.00    -0.272 OA
ATOM      2  C   UNL     1      -3.726  16.318  -0.018  1.00  0.00     0.245 C 
ENDROOT
BRANCH   2   3
ATOM      3  C   UNL     1      -3.077  17.592  -0.613  1.00  0.00     0.168 C 
ATOM      4  C   UNL     1      -4.070  18.748  -0.631  1.00  0.00     0.041 C 
BRANCH   3   5
ATOM      5  N   UNL     1      -1.811  17.974  -0.006  1.00  0.00    -0.342 N 
ATOM      6  C   UNL     1      -0.612  17.437  -0.424  1.00  0.00     0.251 C 
ATOM      7  O   UNL     1      -0.522  16.580  -1.297  1.00  0.00    -0.272 OA
ATOM      8  H   UNL     1      -1.763  18.651   0.752  1.00  0.00     0.164 HD
BRANCH   6   9
ATOM      9  C   UNL     1       0.601  18.090   0.258  1.00  0.00     0.219 C 
BRANCH   9  10
ATOM     10  O   UNL     1       0.259  19.288   0.965  1.00  0.00    -0.382 OA
ATOM     11  H   UNL     1       1.098  19.541   1.411  1.00  0.00     0.211 HD
ENDBRANCH   9  10
BRANCH   9  12
ATOM     12  C   UNL     1       1.382  17.113   1.175  1.00  0.00     0.089 C 
BRANCH  12  13
ATOM     13  N   UNL     1       2.349  16.362   0.342  1.00  0.00    -0.325 NA
ATOM     14  H   UNL     1       2.116  16.493  -0.644  1.00  0.00     0.119 HD
ATOM     15  H   UNL     1       2.227  15.361   0.514  1.00  0.00     0.119 HD
ENDBRANCH  12  13
BRANCH  12  16
ATOM     16  C   UNL     1       2.107  17.751   2.385  1.00  0.00     0.022 C 
BRANCH  16  17
ATOM     17  C   UNL     1       1.506  17.585   3.788  1.00  0.00     0.002 C 
BRANCH  17  18
ATOM     18  C   UNL     1       0.006  17.305   3.818  1.00  0.00     0.000 C 
BRANCH  18  19
ATOM     19  C   UNL     1      -0.631  17.456   5.206  1.00  0.00    -0.000 C 
BRANCH  19  20
ATOM     20  C   UNL     1      -0.562  16.210   6.092  1.00  0.00    -0.000 C 
BRANCH  20  21
ATOM     21  C   UNL     1      -1.820  15.343   6.007  1.00  0.00    -0.003 C 
ATOM     22  C   UNL     1      -3.031  16.064   6.578  1.00  0.00     0.004 C 
ENDBRANCH  20  21
ENDBRANCH  19  20
ENDBRANCH  18  19
ENDBRANCH  17  18
ENDBRANCH  16  17
ENDBRANCH  12  16
ENDBRANCH   9  12
ENDBRANCH   6   9
ENDBRANCH   3   5
ENDBRANCH   2   3
BRANCH   2  23
ATOM     23  N   UNL     1      -4.868  16.394   0.771  1.00  0.00    -0.332 N 
ATOM     24  C   UNL     1      -6.207  16.658   0.264  1.00  0.00     0.147 C 
BRANCH  23  25
ATOM     25  C   UNL     1      -4.801  16.071   2.223  1.00  0.00     0.174 C 
BRANCH  25  26
ATOM     26  C   UNL     1      -3.648  16.803   2.950  1.00  0.00     0.038 C 
BRANCH  26  27
ATOM     27  C   UNL     1      -3.988  18.154   3.618  1.00  0.00    -0.015 C 
ATOM     28  C   UNL     1      -3.195  19.317   3.022  1.00  0.00     0.007 C 
ATOM     29  C   UNL     1      -5.481  18.470   3.624  1.00  0.00     0.007 C 
ENDBRANCH  26  27
ENDBRANCH  25  26
BRANCH  25  30
ATOM     30  C   UNL     1      -4.790  14.539   2.428  1.00  0.00     0.243 C 
ATOM     31  O   UNL     1      -5.474  13.786   1.736  1.00  0.00    -0.273 OA
ATOM     32  N   UNL     1      -3.977  14.080   3.432  1.00  0.00    -0.342 N 
ATOM     33  H   UNL     1      -3.336  14.749   3.866  1.00  0.00     0.164 HD
BRANCH  32  34
ATOM     34  C   UNL     1      -3.862  12.663   3.786  1.00  0.00     0.175 C 
BRANCH  34  35
ATOM     35  C   UNL     1      -2.393  12.249   3.966  1.00  0.00     0.070 C 
BRANCH  35  36
ATOM     36  C   UNL     1      -1.527  12.640   2.790  1.00  0.00    -0.045 A 
ATOM     37  C   UNL     1      -1.146  13.979   2.613  1.00  0.00     0.007 A 
ATOM     38  C   UNL     1      -1.113  11.684   1.853  1.00  0.00     0.007 A 
ATOM     39  C   UNL     1      -0.359  14.351   1.523  1.00  0.00     0.046 A 
ATOM     40  C   UNL     1      -0.326  12.056   0.760  1.00  0.00     0.046 A 
ATOM     41  C   UNL     1       0.046  13.388   0.606  1.00  0.00     0.115 A 
BRANCH  41  42
ATOM     42  O   UNL     1       0.812  13.794  -0.446  1.00  0.00    -0.508 OA
ATOM     43  H   UNL     1       0.244  13.851  -1.232  1.00  0.00     0.293 HD
ENDBRANCH  41  42
ENDBRANCH  35  36
ENDBRANCH  34  35
BRANCH  34  44
ATOM     44  C   UNL     1      -4.691  12.420   5.067  1.00  0.00     0.243 C 
ATOM     45  O   UNL     1      -4.425  12.896   6.167  1.00  0.00    -0.273 OA
ATOM     46  N   UNL     1      -5.705  11.501   4.898  1.00  0.00    -0.341 N 
ATOM     47  H   UNL     1      -5.813  11.045   3.996  1.00  0.00     0.164 HD
BRANCH  46  48
ATOM     48  C   UNL     1      -6.581  11.059   5.986  1.00  0.00     0.196 C 
BRANCH  48  49
ATOM     49  C   UNL     1      -8.063  11.270   5.632  1.00  0.00     0.072 C 
BRANCH  49  50
ATOM     50  C   UNL     1      -8.287  12.492   4.772  1.00  0.00    -0.045 A 
ATOM     51  C   UNL     1      -8.631  12.342   3.420  1.00  0.00     0.007 A 
ATOM     52  C   UNL     1      -8.137  13.782   5.298  1.00  0.00     0.007 A 
ATOM     53  C   UNL     1      -8.827  13.463   2.613  1.00  0.00     0.046 A 
ATOM     54  C   UNL     1      -8.332  14.904   4.489  1.00  0.00     0.046 A 
ATOM     55  C   UNL     1      -8.677  14.734   3.153  1.00  0.00     0.115 A 
BRANCH  55  56
ATOM     56  O   UNL     1      -8.876  15.803   2.330  1.00  0.00    -0.508 OA
ATOM     57  H   UNL     1      -9.793  15.778   2.012  1.00  0.00     0.293 HD
ENDBRANCH  55  56
ENDBRANCH  49  50
ENDBRANCH  48  49
BRANCH  48  58
ATOM     58  C   UNL     1      -6.324   9.571   6.260  1.00  0.00     0.326 C 
ATOM     59  O   UNL     1      -6.530   8.634   5.506  1.00  0.00    -0.250 OA
BRANCH  58  60
ATOM     60  O   UNL     1      -5.797   9.330   7.487  1.00  0.00    -0.480 OA
ATOM     61  H   UNL     1      -6.456   9.726   8.098  1.00  0.00     0.296 HD
ENDBRANCH  58  60
ENDBRANCH  48  58
ENDBRANCH  46  48
ENDBRANCH  34  44
ENDBRANCH  32  34
ENDBRANCH  25  30
ENDBRANCH  23  25
ENDBRANCH   2  23
TORSDOF 28
ENDMDL
MODEL 2
REMARK VINA RESULT:    -6.492      2.198      6.027
REMARK INTER + INTRA:         -22.148
REMARK INTER:                 -17.866
REMARK INTRA:                  -4.282
REMARK UNBOUND:                -5.978
REMARK SMILES CCCCCCC[C@H](N)[C@H](O)C(=O)N[C@H](C)C(=O)N(C)[C@H](CC(C)C)C(=O)N[C@@H](Cc1ccc(O)cc1)C(=O)N[C@@H](Cc1ccc(O)cc1)C(=O)O
REMARK SMILES IDX 18 1 17 2 15 3 16 4 14 5 12 6 13 7 10 9 11 10 8 12 9 13 7 16
REMARK SMILES IDX 6 17 5 18 4 19 3 20 2 21 1 22 19 23 20 24 21 25 22 26 23 27
REMARK SMILES IDX 24 28 25 29 26 30 27 31 28 32 29 34 30 35 31 36 32 37 37 38
REMARK SMILES IDX 33 39 36 40 34 41 35 42 38 44 39 45 40 46 41 48 42 49 43 50
REMARK SMILES IDX 44 51 49 52 45 53 48 54 46 55 47 56 50 58 51 59 52 60
REMARK H PARENT 14 8 11 11 9 14 9 15 28 33 35 43 40 47 47 57 52 61
ROOT
ATOM      1  O   UNL     1      -2.884  12.996   0.948  1.00  0.00    -0.272 OA
ATOM      2  C   UNL     1      -2.263  12.954   2.021  1.00  0.00     0.245 C 
ENDROOT
BRANCH   2   3
ATOM      3  C   UNL     1      -0.800  12.445   2.011  1.00  0.00     0.168 C 
ATOM      4  C   UNL     1      -0.638  11.280   1.042  1.00  0.00     0.041 C 
BRANCH   3   5
ATOM      5  N   UNL     1       0.204  13.475   1.793  1.00  0.00    -0.342 N 
ATOM      6  C   UNL     1       0.791  13.670   0.560  1.00  0.00     0.251 C 
ATOM      7  O   UNL     1       0.549  12.975  -0.421  1.00  0.00    -0.272 OA
ATOM      8  H   UNL     1       0.511  14.092   2.541  1.00  0.00     0.164 HD
BRANCH   6   9
ATOM      9  C   UNL     1       1.712  14.900   0.528  1.00  0.00     0.219 C 
BRANCH   9  10
ATOM     10  O   UNL     1       2.156  15.224  -0.795  1.00  0.00    -0.382 OA
ATOM     11  H   UNL     1       2.525  16.129  -0.700  1.00  0.00     0.211 HD
ENDBRANCH   9  10
BRANCH   9  12
ATOM     12  C   UNL     1       1.093  16.143   1.220  1.00  0.00     0.089 C 
BRANCH  12  13
ATOM     13  N   UNL     1       2.031  16.612   2.265  1.00  0.00    -0.325 NA
ATOM     14  H   UNL     1       2.617  17.355   1.881  1.00  0.00     0.119 HD
ATOM     15  H   UNL     1       2.678  15.853   2.494  1.00  0.00     0.119 HD
ENDBRANCH  12  13
BRANCH  12  16
ATOM     16  C   UNL     1       0.705  17.316   0.288  1.00  0.00     0.022 C 
BRANCH  16  17
ATOM     17  C   UNL     1      -0.771  17.524  -0.076  1.00  0.00     0.002 C 
BRANCH  17  18
ATOM     18  C   UNL     1      -1.643  16.275   0.027  1.00  0.00     0.000 C 
BRANCH  18  19
ATOM     19  C   UNL     1      -3.149  16.566   0.062  1.00  0.00    -0.000 C 
BRANCH  19  20
ATOM     20  C   UNL     1      -3.735  17.122  -1.239  1.00  0.00    -0.000 C 
BRANCH  20  21
ATOM     21  C   UNL     1      -4.289  18.542  -1.089  1.00  0.00    -0.003 C 
ATOM     22  C   UNL     1      -4.197  19.023   0.351  1.00  0.00     0.004 C 
ENDBRANCH  20  21
ENDBRANCH  19  20
ENDBRANCH  18  19
ENDBRANCH  17  18
ENDBRANCH  16  17
ENDBRANCH  12  16
ENDBRANCH   9  12
ENDBRANCH   6   9
ENDBRANCH   3   5
ENDBRANCH   2   3
BRANCH   2  23
ATOM     23  N   UNL     1      -2.838  13.470   3.178  1.00  0.00    -0.332 N 
ATOM     24  C   UNL     1      -3.104  12.698   4.383  1.00  0.00     0.147 C 
BRANCH  23  25
ATOM     25  C   UNL     1      -3.108  14.929   3.296  1.00  0.00     0.174 C 
BRANCH  25  26
ATOM     26  C   UNL     1      -2.263  15.611   4.398  1.00  0.00     0.038 C 
BRANCH  26  27
ATOM     27  C   UNL     1      -1.283  16.716   3.945  1.00  0.00    -0.015 C 
ATOM     28  C   UNL     1      -2.004  17.955   3.414  1.00  0.00     0.007 C 
ATOM     29  C   UNL     1      -0.268  17.104   5.017  1.00  0.00     0.007 C 
ENDBRANCH  26  27
ENDBRANCH  25  26
BRANCH  25  30
ATOM     30  C   UNL     1      -4.627  15.179   3.434  1.00  0.00     0.243 C 
ATOM     31  O   UNL     1      -5.124  15.603   4.476  1.00  0.00    -0.273 OA
ATOM     32  N   UNL     1      -5.379  14.893   2.323  1.00  0.00    -0.342 N 
ATOM     33  H   UNL     1      -4.880  14.682   1.455  1.00  0.00     0.164 HD
BRANCH  32  34
ATOM     34  C   UNL     1      -6.836  15.043   2.280  1.00  0.00     0.175 C 
BRANCH  34  35
ATOM     35  C   UNL     1      -7.290  15.720   0.978  1.00  0.00     0.070 C 
BRANCH  35  36
ATOM     36  C   UNL     1      -8.155  16.936   1.221  1.00  0.00    -0.045 A 
ATOM     37  C   UNL     1      -7.562  18.165   1.549  1.00  0.00     0.007 A 
ATOM     38  C   UNL     1      -9.551  16.851   1.146  1.00  0.00     0.007 A 
ATOM     39  C   UNL     1      -8.352  19.289   1.788  1.00  0.00     0.046 A 
ATOM     40  C   UNL     1     -10.344  17.976   1.387  1.00  0.00     0.046 A 
ATOM     41  C   UNL     1      -9.736  19.186   1.705  1.00  0.00     0.115 A 
BRANCH  41  42
ATOM     42  O   UNL     1     -10.472  20.308   1.949  1.00  0.00    -0.508 OA
ATOM     43  H   UNL     1     -10.012  21.067   1.554  1.00  0.00     0.293 HD
ENDBRANCH  41  42
ENDBRANCH  35  36
ENDBRANCH  34  35
BRANCH  34  44
ATOM     44  C   UNL     1      -7.467  13.644   2.454  1.00  0.00     0.243 C 
ATOM     45  O   UNL     1      -6.978  12.604   2.021  1.00  0.00    -0.273 OA
ATOM     46  N   UNL     1      -8.716  13.674   3.037  1.00  0.00    -0.341 N 
ATOM     47  H   UNL     1      -9.130  14.572   3.273  1.00  0.00     0.164 HD
BRANCH  46  48
ATOM     48  C   UNL     1      -9.538  12.479   3.244  1.00  0.00     0.196 C 
BRANCH  48  49
ATOM     49  C   UNL     1      -9.843  12.260   4.735  1.00  0.00     0.072 C 
BRANCH  49  50
ATOM     50  C   UNL     1      -8.775  11.450   5.434  1.00  0.00    -0.045 A 
ATOM     51  C   UNL     1      -8.019  12.030   6.464  1.00  0.00     0.007 A 
ATOM     52  C   UNL     1      -8.510  10.127   5.056  1.00  0.00     0.007 A 
ATOM     53  C   UNL     1      -7.022  11.297   7.107  1.00  0.00     0.046 A 
ATOM     54  C   UNL     1      -7.511   9.393   5.700  1.00  0.00     0.046 A 
ATOM     55  C   UNL     1      -6.776   9.985   6.721  1.00  0.00     0.115 A 
BRANCH  55  56
ATOM     56  O   UNL     1      -5.792   9.303   7.374  1.00  0.00    -0.508 OA
ATOM     57  H   UNL     1      -5.000   9.296   6.812  1.00  0.00     0.293 HD
ENDBRANCH  55  56
ENDBRANCH  49  50
ENDBRANCH  48  49
BRANCH  48  58
ATOM     58  C   UNL     1     -10.852  12.637   2.467  1.00  0.00     0.326 C 
ATOM     59  O   UNL     1     -11.315  13.664   1.998  1.00  0.00    -0.250 OA
BRANCH  58  60
ATOM     60  O   UNL     1     -11.527  11.471   2.302  1.00  0.00    -0.480 OA
ATOM     61  H   UNL     1     -10.831  10.849   1.997  1.00  0.00     0.296 HD
ENDBRANCH  58  60
ENDBRANCH  48  58
ENDBRANCH  46  48
ENDBRANCH  34  44
ENDBRANCH  32  34
ENDBRANCH  25  30
ENDBRANCH  23  25
ENDBRANCH   2  23
TORSDOF 28
ENDMDL
MODEL 3
REMARK VINA RESULT:    -6.454      2.307      6.486
REMARK INTER + INTRA:         -22.053
REMARK INTER:                 -16.852
REMARK INTRA:                  -5.200
REMARK UNBOUND:                -5.978
REMARK SMILES CCCCCCC[C@H](N)[C@H](O)C(=O)N[C@H](C)C(=O)N(C)[C@H](CC(C)C)C(=O)N[C@@H](Cc1ccc(O)cc1)C(=O)N[C@@H](Cc1ccc(O)cc1)C(=O)O
REMARK SMILES IDX 18 1 17 2 15 3 16 4 14 5 12 6 13 7 10 9 11 10 8 12 9 13 7 16
REMARK SMILES IDX 6 17 5 18 4 19 3 20 2 21 1 22 19 23 20 24 21 25 22 26 23 27
REMARK SMILES IDX 24 28 25 29 26 30 27 31 28 32 29 34 30 35 31 36 32 37 37 38
REMARK SMILES IDX 33 39 36 40 34 41 35 42 38 44 39 45 40 46 41 48 42 49 43 50
REMARK SMILES IDX 44 51 49 52 45 53 48 54 46 55 47 56 50 58 51 59 52 60
REMARK H PARENT 14 8 11 11 9 14 9 15 28 33 35 43 40 47 47 57 52 61
ROOT
ATOM      1  O   UNL     1      -1.181  15.912   2.613  1.00  0.00    -0.272 OA
ATOM      2  C   UNL     1      -2.133  15.542   3.316  1.00  0.00     0.245 C 
ENDROOT
BRANCH   2   3
ATOM      3  C   UNL     1      -3.489  16.277   3.175  1.00  0.00     0.168 C 
ATOM      4  C   UNL     1      -3.708  17.239   4.338  1.00  0.00     0.041 C 
BRANCH   3   5
ATOM      5  N   UNL     1      -3.702  16.924   1.889  1.00  0.00    -0.342 N 
ATOM      6  C   UNL     1      -4.314  16.272   0.839  1.00  0.00     0.251 C 
ATOM      7  O   UNL     1      -4.682  15.103   0.891  1.00  0.00    -0.272 OA
ATOM      8  H   UNL     1      -3.408  17.882   1.716  1.00  0.00     0.164 HD
BRANCH   6   9
ATOM      9  C   UNL     1      -4.561  17.191  -0.368  1.00  0.00     0.219 C 
BRANCH   9  10
ATOM     10  O   UNL     1      -5.517  18.222  -0.091  1.00  0.00    -0.382 OA
ATOM     11  H   UNL     1      -5.824  18.014   0.819  1.00  0.00     0.211 HD
ENDBRANCH   9  10
BRANCH   9  12
ATOM     12  C   UNL     1      -3.257  17.792  -0.953  1.00  0.00     0.089 C 
BRANCH  12  13
ATOM     13  N   UNL     1      -2.793  18.871  -0.050  1.00  0.00    -0.325 NA
ATOM     14  H   UNL     1      -1.939  18.569   0.422  1.00  0.00     0.119 HD
ATOM     15  H   UNL     1      -3.481  18.996   0.697  1.00  0.00     0.119 HD
ENDBRANCH  12  13
BRANCH  12  16
ATOM     16  C   UNL     1      -2.107  16.790  -1.218  1.00  0.00     0.022 C 
BRANCH  16  17
ATOM     17  C   UNL     1      -1.133  17.059  -2.373  1.00  0.00     0.002 C 
BRANCH  17  18
ATOM     18  C   UNL     1       0.315  16.660  -2.101  1.00  0.00     0.000 C 
BRANCH  18  19
ATOM     19  C   UNL     1       0.524  15.941  -0.761  1.00  0.00    -0.000 C 
BRANCH  19  20
ATOM     20  C   UNL     1       1.901  15.298  -0.576  1.00  0.00    -0.000 C 
BRANCH  20  21
ATOM     21  C   UNL     1       2.528  15.605   0.787  1.00  0.00    -0.003 C 
ATOM     22  C   UNL     1       2.185  17.012   1.251  1.00  0.00     0.004 C 
ENDBRANCH  20  21
ENDBRANCH  19  20
ENDBRANCH  18  19
ENDBRANCH  17  18
ENDBRANCH  16  17
ENDBRANCH  12  16
ENDBRANCH   9  12
ENDBRANCH   6   9
ENDBRANCH   3   5
ENDBRANCH   2   3
BRANCH   2  23
ATOM     23  N   UNL     1      -2.006  14.413   4.119  1.00  0.00    -0.332 N 
ATOM     24  C   UNL     1      -1.690  14.442   5.540  1.00  0.00     0.147 C 
BRANCH  23  25
ATOM     25  C   UNL     1      -2.325  13.065   3.575  1.00  0.00     0.174 C 
BRANCH  25  26
ATOM     26  C   UNL     1      -2.110  12.967   2.046  1.00  0.00     0.038 C 
BRANCH  26  27
ATOM     27  C   UNL     1      -1.024  11.985   1.553  1.00  0.00    -0.015 C 
ATOM     28  C   UNL     1      -1.536  11.050   0.458  1.00  0.00     0.007 C 
ATOM     29  C   UNL     1       0.263  12.676   1.111  1.00  0.00     0.007 C 
ENDBRANCH  26  27
ENDBRANCH  25  26
BRANCH  25  30
ATOM     30  C   UNL     1      -3.733  12.624   4.035  1.00  0.00     0.243 C 
ATOM     31  O   UNL     1      -3.902  11.662   4.782  1.00  0.00    -0.273 OA
ATOM     32  N   UNL     1      -4.776  13.371   3.550  1.00  0.00    -0.342 N 
ATOM     33  H   UNL     1      -4.549  14.235   3.052  1.00  0.00     0.164 HD
BRANCH  32  34
ATOM     34  C   UNL     1      -6.180  13.083   3.857  1.00  0.00     0.175 C 
BRANCH  34  35
ATOM     35  C   UNL     1      -6.654  13.867   5.090  1.00  0.00     0.070 C 
BRANCH  35  36
ATOM     36  C   UNL     1      -7.297  12.983   6.134  1.00  0.00    -0.045 A 
ATOM     37  C   UNL     1      -8.646  12.615   6.008  1.00  0.00     0.007 A 
ATOM     38  C   UNL     1      -6.571  12.539   7.247  1.00  0.00     0.007 A 
ATOM     39  C   UNL     1      -9.252  11.811   6.974  1.00  0.00     0.046 A 
ATOM     40  C   UNL     1      -7.178  11.735   8.215  1.00  0.00     0.046 A 
ATOM     41  C   UNL     1      -8.514  11.377   8.068  1.00  0.00     0.115 A 
BRANCH  41  42
ATOM     42  O   UNL     1      -9.144  10.595   8.990  1.00  0.00    -0.508 OA
ATOM     43  H   UNL     1     -10.047  10.421   8.676  1.00  0.00     0.293 HD
ENDBRANCH  41  42
ENDBRANCH  35  36
ENDBRANCH  34  35
BRANCH  34  44
ATOM     44  C   UNL     1      -7.022  13.412   2.604  1.00  0.00     0.243 C 
ATOM     45  O   UNL     1      -6.869  12.883   1.507  1.00  0.00    -0.273 OA
ATOM     46  N   UNL     1      -7.893  14.465   2.790  1.00  0.00    -0.341 N 
ATOM     47  H   UNL     1      -7.900  14.948   3.685  1.00  0.00     0.164 HD
BRANCH  46  48
ATOM     48  C   UNL     1      -8.746  15.002   1.727  1.00  0.00     0.196 C 
BRANCH  48  49
ATOM     49  C   UNL     1     -10.115  15.440   2.275  1.00  0.00     0.072 C 
BRANCH  49  50
ATOM     50  C   UNL     1     -10.914  14.285   2.835  1.00  0.00    -0.045 A 
ATOM     51  C   UNL     1     -11.723  14.478   3.965  1.00  0.00     0.007 A 
ATOM     52  C   UNL     1     -10.845  13.012   2.255  1.00  0.00     0.007 A 
ATOM     53  C   UNL     1     -12.454  13.417   4.499  1.00  0.00     0.046 A 
ATOM     54  C   UNL     1     -11.577  11.950   2.790  1.00  0.00     0.046 A 
ATOM     55  C   UNL     1     -12.377  12.162   3.907  1.00  0.00     0.115 A 
BRANCH  55  56
ATOM     56  O   UNL     1     -13.106  11.151   4.460  1.00  0.00    -0.508 OA
ATOM     57  H   UNL     1     -13.745  11.538   5.080  1.00  0.00     0.293 HD
ENDBRANCH  55  56
ENDBRANCH  49  50
ENDBRANCH  48  49
BRANCH  48  58
ATOM     58  C   UNL     1      -8.042  16.203   1.081  1.00  0.00     0.326 C 
ATOM     59  O   UNL     1      -7.916  17.324   1.546  1.00  0.00    -0.250 OA
BRANCH  58  60
ATOM     60  O   UNL     1      -7.507  15.926  -0.135  1.00  0.00    -0.480 OA
ATOM     61  H   UNL     1      -7.072  16.770  -0.388  1.00  0.00     0.296 HD
ENDBRANCH  58  60
ENDBRANCH  48  58
ENDBRANCH  46  48
ENDBRANCH  34  44
ENDBRANCH  32  34
ENDBRANCH  25  30
ENDBRANCH  23  25
ENDBRANCH   2  23
TORSDOF 28
ENDMDL
MODEL 4
REMARK VINA RESULT:    -6.454      2.454      7.754
REMARK INTER + INTRA:         -22.052
REMARK INTER:                 -15.310
REMARK INTRA:                  -6.743
REMARK UNBOUND:                -5.978
REMARK SMILES CCCCCCC[C@H](N)[C@H](O)C(=O)N[C@H](C)C(=O)N(C)[C@H](CC(C)C)C(=O)N[C@@H](Cc1ccc(O)cc1)C(=O)N[C@@H](Cc1ccc(O)cc1)C(=O)O
REMARK SMILES IDX 18 1 17 2 15 3 16 4 14 5 12 6 13 7 10 9 11 10 8 12 9 13 7 16
REMARK SMILES IDX 6 17 5 18 4 19 3 20 2 21 1 22 19 23 20 24 21 25 22 26 23 27
REMARK SMILES IDX 24 28 25 29 26 30 27 31 28 32 29 34 30 35 31 36 32 37 37 38
REMARK SMILES IDX 33 39 36 40 34 41 35 42 38 44 39 45 40 46 41 48 42 49 43 50
REMARK SMILES IDX 44 51 49 52 45 53 48 54 46 55 47 56 50 58 51 59 52 60
REMARK H PARENT 14 8 11 11 9 14 9 15 28 33 35 43 40 47 47 57 52 61
ROOT
ATOM      1  O   UNL     1      -6.842  13.269   1.290  1.00  0.00    -0.272 OA
ATOM      2  C   UNL     1      -6.706  14.211   2.086  1.00  0.00     0.245 C 
ENDROOT
BRANCH   2   3
ATOM      3  C   UNL     1      -5.985  13.946   3.431  1.00  0.00     0.168 C 
ATOM      4  C   UNL     1      -6.479  12.650   4.065  1.00  0.00     0.041 C 
BRANCH   3   5
ATOM      5  N   UNL     1      -4.533  13.998   3.366  1.00  0.00    -0.342 N 
ATOM      6  C   UNL     1      -3.755  14.062   4.503  1.00  0.00     0.251 C 
ATOM      7  O   UNL     1      -4.219  14.122   5.637  1.00  0.00    -0.272 OA
ATOM      8  H   UNL     1      -4.035  13.990   2.479  1.00  0.00     0.164 HD
BRANCH   6   9
ATOM      9  C   UNL     1      -2.251  13.964   4.201  1.00  0.00     0.219 C 
BRANCH   9  10
ATOM     10  O   UNL     1      -1.437  14.278   5.337  1.00  0.00    -0.382 OA
ATOM     11  H   UNL     1      -0.676  13.663   5.254  1.00  0.00     0.211 HD
ENDBRANCH   9  10
BRANCH   9  12
ATOM     12  C   UNL     1      -1.841  12.598   3.591  1.00  0.00     0.089 C 
BRANCH  12  13
ATOM     13  N   UNL     1      -2.886  11.604   3.925  1.00  0.00    -0.325 NA
ATOM     14  H   UNL     1      -2.747  11.280   4.884  1.00  0.00     0.119 HD
ATOM     15  H   UNL     1      -2.752  10.774   3.342  1.00  0.00     0.119 HD
ENDBRANCH  12  13
BRANCH  12  16
ATOM     16  C   UNL     1      -1.568  12.591   2.067  1.00  0.00     0.022 C 
BRANCH  16  17
ATOM     17  C   UNL     1      -1.020  11.315   1.413  1.00  0.00     0.002 C 
BRANCH  17  18
ATOM     18  C   UNL     1       0.216  11.519   0.540  1.00  0.00     0.000 C 
BRANCH  18  19
ATOM     19  C   UNL     1       0.369  12.946  -0.003  1.00  0.00    -0.000 C 
BRANCH  19  20
ATOM     20  C   UNL     1       1.342  13.837   0.776  1.00  0.00    -0.000 C 
BRANCH  20  21
ATOM     21  C   UNL     1       1.977  14.930  -0.087  1.00  0.00    -0.003 C 
ATOM     22  C   UNL     1       1.563  14.796  -1.544  1.00  0.00     0.004 C 
ENDBRANCH  20  21
ENDBRANCH  19  20
ENDBRANCH  18  19
ENDBRANCH  17  18
ENDBRANCH  16  17
ENDBRANCH  12  16
ENDBRANCH   9  12
ENDBRANCH   6   9
ENDBRANCH   3   5
ENDBRANCH   2   3
BRANCH   2  23
ATOM     23  N   UNL     1      -7.086  15.496   1.714  1.00  0.00    -0.332 N 
ATOM     24  C   UNL     1      -7.069  16.000   0.349  1.00  0.00     0.147 C 
BRANCH  23  25
ATOM     25  C   UNL     1      -7.676  16.424   2.717  1.00  0.00     0.174 C 
BRANCH  25  26
ATOM     26  C   UNL     1      -9.195  16.212   2.915  1.00  0.00     0.038 C 
BRANCH  26  27
ATOM     27  C   UNL     1      -9.638  15.477   4.199  1.00  0.00    -0.015 C 
ATOM     28  C   UNL     1      -9.957  14.003   3.950  1.00  0.00     0.007 C 
ATOM     29  C   UNL     1      -8.651  15.624   5.354  1.00  0.00     0.007 C 
ENDBRANCH  26  27
ENDBRANCH  25  26
BRANCH  25  30
ATOM     30  C   UNL     1      -7.291  17.884   2.382  1.00  0.00     0.243 C 
ATOM     31  O   UNL     1      -8.124  18.704   2.000  1.00  0.00    -0.273 OA
ATOM     32  N   UNL     1      -5.965  18.197   2.534  1.00  0.00    -0.342 N 
ATOM     33  H   UNL     1      -5.363  17.505   2.989  1.00  0.00     0.164 HD
BRANCH  32  34
ATOM     34  C   UNL     1      -5.415  19.522   2.237  1.00  0.00     0.175 C 
BRANCH  34  35
ATOM     35  C   UNL     1      -4.820  20.175   3.495  1.00  0.00     0.070 C 
BRANCH  35  36
ATOM     36  C   UNL     1      -4.244  19.165   4.461  1.00  0.00    -0.045 A 
ATOM     37  C   UNL     1      -2.971  18.621   4.231  1.00  0.00     0.007 A 
ATOM     38  C   UNL     1      -4.974  18.742   5.579  1.00  0.00     0.007 A 
ATOM     39  C   UNL     1      -2.436  17.679   5.110  1.00  0.00     0.046 A 
ATOM     40  C   UNL     1      -4.440  17.797   6.458  1.00  0.00     0.046 A 
ATOM     41  C   UNL     1      -3.174  17.274   6.216  1.00  0.00     0.115 A 
BRANCH  41  42
ATOM     42  O   UNL     1      -2.617  16.349   7.048  1.00  0.00    -0.508 OA
ATOM     43  H   UNL     1      -3.108  16.358   7.886  1.00  0.00     0.293 HD
ENDBRANCH  41  42
ENDBRANCH  35  36
ENDBRANCH  34  35
BRANCH  34  44
ATOM     44  C   UNL     1      -4.363  19.364   1.116  1.00  0.00     0.243 C 
ATOM     45  O   UNL     1      -3.851  20.300   0.509  1.00  0.00    -0.273 OA
ATOM     46  N   UNL     1      -4.136  18.053   0.757  1.00  0.00    -0.341 N 
ATOM     47  H   UNL     1      -4.672  17.317   1.211  1.00  0.00     0.164 HD
BRANCH  46  48
ATOM     48  C   UNL     1      -3.233  17.658  -0.326  1.00  0.00     0.196 C 
BRANCH  48  49
ATOM     49  C   UNL     1      -2.361  16.458   0.081  1.00  0.00     0.072 C 
BRANCH  49  50
ATOM     50  C   UNL     1      -1.126  16.869   0.849  1.00  0.00    -0.045 A 
ATOM     51  C   UNL     1      -0.233  17.796   0.291  1.00  0.00     0.007 A 
ATOM     52  C   UNL     1      -0.843  16.322   2.107  1.00  0.00     0.007 A 
ATOM     53  C   UNL     1       0.917  18.174   0.984  1.00  0.00     0.046 A 
ATOM     54  C   UNL     1       0.310  16.699   2.800  1.00  0.00     0.046 A 
ATOM     55  C   UNL     1       1.180  17.623   2.233  1.00  0.00     0.115 A 
BRANCH  55  56
ATOM     56  O   UNL     1       2.316  18.017   2.876  1.00  0.00    -0.508 OA
ATOM     57  H   UNL     1       3.018  17.379   2.675  1.00  0.00     0.293 HD
ENDBRANCH  55  56
ENDBRANCH  49  50
ENDBRANCH  48  49
BRANCH  48  58
ATOM     58  C   UNL     1      -4.065  17.294  -1.563  1.00  0.00     0.326 C 
ATOM     59  O   UNL     1      -4.562  18.062  -2.371  1.00  0.00    -0.250 OA
BRANCH  58  60
ATOM     60  O   UNL     1      -4.224  15.958  -1.734  1.00  0.00    -0.480 OA
ATOM     61  H   UNL     1      -5.060  15.766  -1.256  1.00  0.00     0.296 HD
ENDBRANCH  58  60
ENDBRANCH  48  58
ENDBRANCH  46  48
ENDBRANCH  34  44
ENDBRANCH  32  34
ENDBRANCH  25  30
ENDBRANCH  23  25
ENDBRANCH   2  23
TORSDOF 28
ENDMDL
MODEL 5
REMARK VINA RESULT:    -6.325      2.315      4.247
REMARK INTER + INTRA:         -21.733
REMARK INTER:                 -16.121
REMARK INTRA:                  -5.612
REMARK UNBOUND:                -5.978
REMARK SMILES CCCCCCC[C@H](N)[C@H](O)C(=O)N[C@H](C)C(=O)N(C)[C@H](CC(C)C)C(=O)N[C@@H](Cc1ccc(O)cc1)C(=O)N[C@@H](Cc1ccc(O)cc1)C(=O)O
REMARK SMILES IDX 18 1 17 2 15 3 16 4 14 5 12 6 13 7 10 9 11 10 8 12 9 13 7 16
REMARK SMILES IDX 6 17 5 18 4 19 3 20 2 21 1 22 19 23 20 24 21 25 22 26 23 27
REMARK SMILES IDX 24 28 25 29 26 30 27 31 28 32 29 34 30 35 31 36 32 37 37 38
REMARK SMILES IDX 33 39 36 40 34 41 35 42 38 44 39 45 40 46 41 48 42 49 43 50
REMARK SMILES IDX 44 51 49 52 45 53 48 54 46 55 47 56 50 58 51 59 52 60
REMARK H PARENT 14 8 11 11 9 14 9 15 28 33 35 43 40 47 47 57 52 61
ROOT
ATOM      1  O   UNL     1      -4.162  15.944  -0.953  1.00  0.00    -0.272 OA
ATOM      2  C   UNL     1      -4.143  16.129   0.273  1.00  0.00     0.245 C 
ENDROOT
BRANCH   2   3
ATOM      3  C   UNL     1      -2.988  15.509   1.097  1.00  0.00     0.168 C 
ATOM      4  C   UNL     1      -3.015  13.987   1.009  1.00  0.00     0.041 C 
BRANCH   3   5
ATOM      5  N   UNL     1      -1.669  16.045   0.801  1.00  0.00    -0.342 N 
ATOM      6  C   UNL     1      -1.240  17.250   1.316  1.00  0.00     0.251 C 
ATOM      7  O   UNL     1      -1.939  17.972   2.019  1.00  0.00    -0.272 OA
ATOM      8  H   UNL     1      -1.012  15.552   0.200  1.00  0.00     0.164 HD
BRANCH   6   9
ATOM      9  C   UNL     1       0.232  17.547   0.988  1.00  0.00     0.219 C 
BRANCH   9  10
ATOM     10  O   UNL     1       0.499  18.949   0.867  1.00  0.00    -0.382 OA
ATOM     11  H   UNL     1       0.274  19.148  -0.069  1.00  0.00     0.211 HD
ENDBRANCH   9  10
BRANCH   9  12
ATOM     12  C   UNL     1       1.223  16.881   1.977  1.00  0.00     0.089 C 
BRANCH  12  13
ATOM     13  N   UNL     1       0.451  16.339   3.118  1.00  0.00    -0.325 NA
ATOM     14  H   UNL     1       1.027  16.374   3.961  1.00  0.00     0.119 HD
ATOM     15  H   UNL     1       0.276  15.344   2.957  1.00  0.00     0.119 HD
ENDBRANCH  12  13
BRANCH  12  16
ATOM     16  C   UNL     1       2.138  15.783   1.384  1.00  0.00     0.022 C 
BRANCH  16  17
ATOM     17  C   UNL     1       2.108  15.521  -0.128  1.00  0.00     0.002 C 
BRANCH  17  18
ATOM     18  C   UNL     1       1.128  14.438  -0.575  1.00  0.00     0.000 C 
BRANCH  18  19
ATOM     19  C   UNL     1       0.678  13.499   0.552  1.00  0.00    -0.000 C 
BRANCH  19  20
ATOM     20  C   UNL     1       0.580  12.021   0.166  1.00  0.00    -0.000 C 
BRANCH  20  21
ATOM     21  C   UNL     1      -0.310  11.211   1.113  1.00  0.00    -0.003 C 
ATOM     22  C   UNL     1      -1.498  10.609   0.378  1.00  0.00     0.004 C 
ENDBRANCH  20  21
ENDBRANCH  19  20
ENDBRANCH  18  19
ENDBRANCH  17  18
ENDBRANCH  16  17
ENDBRANCH  12  16
ENDBRANCH   9  12
ENDBRANCH   6   9
ENDBRANCH   3   5
ENDBRANCH   2   3
BRANCH   2  23
ATOM     23  N   UNL     1      -5.073  16.978   0.863  1.00  0.00    -0.332 N 
ATOM     24  C   UNL     1      -5.630  18.163   0.227  1.00  0.00     0.147 C 
BRANCH  23  25
ATOM     25  C   UNL     1      -5.670  16.636   2.183  1.00  0.00     0.174 C 
BRANCH  25  26
ATOM     26  C   UNL     1      -4.695  16.865   3.362  1.00  0.00     0.038 C 
BRANCH  26  27
ATOM     27  C   UNL     1      -5.073  17.963   4.380  1.00  0.00    -0.015 C 
ATOM     28  C   UNL     1      -5.301  19.321   3.718  1.00  0.00     0.007 C 
ATOM     29  C   UNL     1      -6.261  17.590   5.263  1.00  0.00     0.007 C 
ENDBRANCH  26  27
ENDBRANCH  25  26
BRANCH  25  30
ATOM     30  C   UNL     1      -6.274  15.214   2.143  1.00  0.00     0.243 C 
ATOM     31  O   UNL     1      -6.837  14.775   1.141  1.00  0.00    -0.273 OA
ATOM     32  N   UNL     1      -6.144  14.481   3.294  1.00  0.00    -0.342 N 
ATOM     33  H   UNL     1      -5.543  14.859   4.031  1.00  0.00     0.164 HD
BRANCH  32  34
ATOM     34  C   UNL     1      -6.679  13.125   3.447  1.00  0.00     0.175 C 
BRANCH  34  35
ATOM     35  C   UNL     1      -5.839  12.301   4.435  1.00  0.00     0.070 C 
BRANCH  35  36
ATOM     36  C   UNL     1      -4.521  12.961   4.774  1.00  0.00    -0.045 A 
ATOM     37  C   UNL     1      -3.337  12.515   4.168  1.00  0.00     0.007 A 
ATOM     38  C   UNL     1      -4.459  14.003   5.709  1.00  0.00     0.007 A 
ATOM     39  C   UNL     1      -2.115  13.109   4.486  1.00  0.00     0.046 A 
ATOM     40  C   UNL     1      -3.235  14.596   6.028  1.00  0.00     0.046 A 
ATOM     41  C   UNL     1      -2.073  14.144   5.412  1.00  0.00     0.115 A 
BRANCH  41  42
ATOM     42  O   UNL     1      -0.859  14.694   5.696  1.00  0.00    -0.508 OA
ATOM     43  H   UNL     1      -0.405  14.119   6.334  1.00  0.00     0.293 HD
ENDBRANCH  41  42
ENDBRANCH  35  36
ENDBRANCH  34  35
BRANCH  34  44
ATOM     44  C   UNL     1      -8.153  13.239   3.897  1.00  0.00     0.243 C 
ATOM     45  O   UNL     1      -8.528  13.179   5.064  1.00  0.00    -0.273 OA
ATOM     46  N   UNL     1      -9.045  13.287   2.847  1.00  0.00    -0.341 N 
ATOM     47  H   UNL     1      -8.692  13.216   1.895  1.00  0.00     0.164 HD
BRANCH  46  48
ATOM     48  C   UNL     1     -10.498  13.328   3.025  1.00  0.00     0.196 C 
BRANCH  48  49
ATOM     49  C   UNL     1     -11.128  14.481   2.226  1.00  0.00     0.072 C 
BRANCH  49  50
ATOM     50  C   UNL     1     -10.482  15.816   2.523  1.00  0.00    -0.045 A 
ATOM     51  C   UNL     1      -9.887  16.551   1.488  1.00  0.00     0.007 A 
ATOM     52  C   UNL     1     -10.449  16.326   3.828  1.00  0.00     0.007 A 
ATOM     53  C   UNL     1      -9.277  17.777   1.752  1.00  0.00     0.046 A 
ATOM     54  C   UNL     1      -9.837  17.553   4.093  1.00  0.00     0.046 A 
ATOM     55  C   UNL     1      -9.257  18.269   3.051  1.00  0.00     0.115 A 
BRANCH  55  56
ATOM     56  O   UNL     1      -8.649  19.470   3.268  1.00  0.00    -0.508 OA
ATOM     57  H   UNL     1      -8.220  19.444   4.138  1.00  0.00     0.293 HD
ENDBRANCH  55  56
ENDBRANCH  49  50
ENDBRANCH  48  49
BRANCH  48  58
ATOM     58  C   UNL     1     -11.096  11.993   2.561  1.00  0.00     0.326 C 
ATOM     59  O   UNL     1     -11.006  10.910   3.116  1.00  0.00    -0.250 OA
BRANCH  58  60
ATOM     60  O   UNL     1     -11.805  12.090   1.408  1.00  0.00    -0.480 OA
ATOM     61  H   UNL     1     -11.114  12.038   0.713  1.00  0.00     0.296 HD
ENDBRANCH  58  60
ENDBRANCH  48  58
ENDBRANCH  46  48
ENDBRANCH  34  44
ENDBRANCH  32  34
ENDBRANCH  25  30
ENDBRANCH  23  25
ENDBRANCH   2  23
TORSDOF 28
ENDMDL
MODEL 6
REMARK VINA RESULT:    -6.261      2.319      6.073
REMARK INTER + INTRA:         -21.573
REMARK INTER:                 -16.674
REMARK INTRA:                  -4.899
REMARK UNBOUND:                -5.978
REMARK SMILES CCCCCCC[C@H](N)[C@H](O)C(=O)N[C@H](C)C(=O)N(C)[C@H](CC(C)C)C(=O)N[C@@H](Cc1ccc(O)cc1)C(=O)N[C@@H](Cc1ccc(O)cc1)C(=O)O
REMARK SMILES IDX 18 1 17 2 15 3 16 4 14 5 12 6 13 7 10 9 11 10 8 12 9 13 7 16
REMARK SMILES IDX 6 17 5 18 4 19 3 20 2 21 1 22 19 23 20 24 21 25 22 26 23 27
REMARK SMILES IDX 24 28 25 29 26 30 27 31 28 32 29 34 30 35 31 36 32 37 37 38
REMARK SMILES IDX 33 39 36 40 34 41 35 42 38 44 39 45 40 46 41 48 42 49 43 50
REMARK SMILES IDX 44 51 49 52 45 53 48 54 46 55 47 56 50 58 51 59 52 60
REMARK H PARENT 14 8 11 11 9 14 9 15 28 33 35 43 40 47 47 57 52 61
ROOT
ATOM      1  O   UNL     1      -4.533  15.027   2.276  1.00  0.00    -0.272 OA
ATOM      2  C   UNL     1      -4.462  16.173   1.806  1.00  0.00     0.245 C 
ENDROOT
BRANCH   2   3
ATOM      3  C   UNL     1      -3.063  16.815   1.628  1.00  0.00     0.168 C 
ATOM      4  C   UNL     1      -2.203  16.591   2.867  1.00  0.00     0.041 C 
BRANCH   3   5
ATOM      5  N   UNL     1      -2.367  16.434   0.409  1.00  0.00    -0.342 N 
ATOM      6  C   UNL     1      -2.332  17.258  -0.696  1.00  0.00     0.251 C 
ATOM      7  O   UNL     1      -2.909  18.338  -0.753  1.00  0.00    -0.272 OA
ATOM      8  H   UNL     1      -1.879  15.545   0.325  1.00  0.00     0.164 HD
BRANCH   6   9
ATOM      9  C   UNL     1      -1.423  16.717  -1.812  1.00  0.00     0.219 C 
BRANCH   9  10
ATOM     10  O   UNL     1      -1.756  17.246  -3.101  1.00  0.00    -0.382 OA
ATOM     11  H   UNL     1      -2.541  17.809  -2.924  1.00  0.00     0.211 HD
ENDBRANCH   9  10
BRANCH   9  12
ATOM     12  C   UNL     1       0.087  16.906  -1.512  1.00  0.00     0.089 C 
BRANCH  12  13
ATOM     13  N   UNL     1       0.224  17.832  -0.365  1.00  0.00    -0.325 NA
ATOM     14  H   UNL     1       0.927  18.540  -0.586  1.00  0.00     0.119 HD
ATOM     15  H   UNL     1       0.605  17.318   0.432  1.00  0.00     0.119 HD
ENDBRANCH  12  13
BRANCH  12  16
ATOM     16  C   UNL     1       0.894  15.612  -1.249  1.00  0.00     0.022 C 
BRANCH  16  17
ATOM     17  C   UNL     1       1.700  15.485   0.050  1.00  0.00     0.002 C 
BRANCH  17  18
ATOM     18  C   UNL     1       1.259  14.353   0.975  1.00  0.00     0.000 C 
BRANCH  18  19
ATOM     19  C   UNL     1       0.285  13.361   0.327  1.00  0.00    -0.000 C 
BRANCH  19  20
ATOM     20  C   UNL     1      -1.049  13.188   1.059  1.00  0.00    -0.000 C 
BRANCH  20  21
ATOM     21  C   UNL     1      -1.497  11.726   1.152  1.00  0.00    -0.003 C 
ATOM     22  C   UNL     1      -0.390  10.779   0.716  1.00  0.00     0.004 C 
ENDBRANCH  20  21
ENDBRANCH  19  20
ENDBRANCH  18  19
ENDBRANCH  17  18
ENDBRANCH  16  17
ENDBRANCH  12  16
ENDBRANCH   9  12
ENDBRANCH   6   9
ENDBRANCH   3   5
ENDBRANCH   2   3
BRANCH   2  23
ATOM     23  N   UNL     1      -5.609  16.806   1.339  1.00  0.00    -0.332 N 
ATOM     24  C   UNL     1      -6.067  16.771  -0.042  1.00  0.00     0.147 C 
BRANCH  23  25
ATOM     25  C   UNL     1      -6.536  17.477   2.290  1.00  0.00     0.174 C 
BRANCH  25  26
ATOM     26  C   UNL     1      -5.827  18.518   3.189  1.00  0.00     0.038 C 
BRANCH  26  27
ATOM     27  C   UNL     1      -5.463  19.871   2.539  1.00  0.00    -0.015 C 
ATOM     28  C   UNL     1      -6.656  20.525   1.842  1.00  0.00     0.007 C 
ATOM     29  C   UNL     1      -4.803  20.851   3.505  1.00  0.00     0.007 C 
ENDBRANCH  26  27
ENDBRANCH  25  26
BRANCH  25  30
ATOM     30  C   UNL     1      -7.344  16.422   3.080  1.00  0.00     0.243 C 
ATOM     31  O   UNL     1      -7.491  16.495   4.299  1.00  0.00    -0.273 OA
ATOM     32  N   UNL     1      -7.876  15.402   2.334  1.00  0.00    -0.342 N 
ATOM     33  H   UNL     1      -7.831  15.487   1.316  1.00  0.00     0.164 HD
BRANCH  32  34
ATOM     34  C   UNL     1      -8.647  14.300   2.917  1.00  0.00     0.175 C 
BRANCH  34  35
ATOM     35  C   UNL     1      -9.830  13.909   2.018  1.00  0.00     0.070 C 
BRANCH  35  36
ATOM     36  C   UNL     1     -10.931  13.201   2.774  1.00  0.00    -0.045 A 
ATOM     37  C   UNL     1     -11.702  12.218   2.135  1.00  0.00     0.007 A 
ATOM     38  C   UNL     1     -11.212  13.528   4.107  1.00  0.00     0.007 A 
ATOM     39  C   UNL     1     -12.729  11.569   2.821  1.00  0.00     0.046 A 
ATOM     40  C   UNL     1     -12.241  12.880   4.794  1.00  0.00     0.046 A 
ATOM     41  C   UNL     1     -12.990  11.904   4.144  1.00  0.00     0.115 A 
BRANCH  41  42
ATOM     42  O   UNL     1     -14.004  11.249   4.778  1.00  0.00    -0.508 OA
ATOM     43  H   UNL     1     -14.380  11.844   5.447  1.00  0.00     0.293 HD
ENDBRANCH  41  42
ENDBRANCH  35  36
ENDBRANCH  34  35
BRANCH  34  44
ATOM     44  C   UNL     1      -7.684  13.115   3.154  1.00  0.00     0.243 C 
ATOM     45  O   UNL     1      -6.919  12.663   2.306  1.00  0.00    -0.273 OA
ATOM     46  N   UNL     1      -7.851  12.510   4.381  1.00  0.00    -0.341 N 
ATOM     47  H   UNL     1      -8.580  12.848   5.004  1.00  0.00     0.164 HD
BRANCH  46  48
ATOM     48  C   UNL     1      -7.099  11.326   4.804  1.00  0.00     0.196 C 
BRANCH  48  49
ATOM     49  C   UNL     1      -6.204  11.634   6.016  1.00  0.00     0.072 C 
BRANCH  49  50
ATOM     50  C   UNL     1      -4.866  12.214   5.618  1.00  0.00    -0.045 A 
ATOM     51  C   UNL     1      -4.518  13.512   6.022  1.00  0.00     0.007 A 
ATOM     52  C   UNL     1      -3.969  11.483   4.829  1.00  0.00     0.007 A 
ATOM     53  C   UNL     1      -3.292  14.062   5.649  1.00  0.00     0.046 A 
ATOM     54  C   UNL     1      -2.741  12.035   4.455  1.00  0.00     0.046 A 
ATOM     55  C   UNL     1      -2.413  13.320   4.870  1.00  0.00     0.115 A 
BRANCH  55  56
ATOM     56  O   UNL     1      -1.226  13.896   4.525  1.00  0.00    -0.508 OA
ATOM     57  H   UNL     1      -0.507  13.325   4.840  1.00  0.00     0.293 HD
ENDBRANCH  55  56
ENDBRANCH  49  50
ENDBRANCH  48  49
BRANCH  48  58
ATOM     58  C   UNL     1      -8.089  10.209   5.166  1.00  0.00     0.326 C 
ATOM     59  O   UNL     1      -7.885   9.246   5.888  1.00  0.00    -0.250 OA
BRANCH  58  60
ATOM     60  O   UNL     1      -9.314  10.369   4.605  1.00  0.00    -0.480 OA
ATOM     61  H   UNL     1      -9.504  11.322   4.745  1.00  0.00     0.296 HD
ENDBRANCH  58  60
ENDBRANCH  48  58
ENDBRANCH  46  48
ENDBRANCH  34  44
ENDBRANCH  32  34
ENDBRANCH  25  30
ENDBRANCH  23  25
ENDBRANCH   2  23
TORSDOF 28
ENDMDL
MODEL 7
REMARK VINA RESULT:    -6.251      2.267      4.678
REMARK INTER + INTRA:         -21.547
REMARK INTER:                 -17.485
REMARK INTRA:                  -4.061
REMARK UNBOUND:                -5.978
REMARK SMILES CCCCCCC[C@H](N)[C@H](O)C(=O)N[C@H](C)C(=O)N(C)[C@H](CC(C)C)C(=O)N[C@@H](Cc1ccc(O)cc1)C(=O)N[C@@H](Cc1ccc(O)cc1)C(=O)O
REMARK SMILES IDX 18 1 17 2 15 3 16 4 14 5 12 6 13 7 10 9 11 10 8 12 9 13 7 16
REMARK SMILES IDX 6 17 5 18 4 19 3 20 2 21 1 22 19 23 20 24 21 25 22 26 23 27
REMARK SMILES IDX 24 28 25 29 26 30 27 31 28 32 29 34 30 35 31 36 32 37 37 38
REMARK SMILES IDX 33 39 36 40 34 41 35 42 38 44 39 45 40 46 41 48 42 49 43 50
REMARK SMILES IDX 44 51 49 52 45 53 48 54 46 55 47 56 50 58 51 59 52 60
REMARK H PARENT 14 8 11 11 9 14 9 15 28 33 35 43 40 47 47 57 52 61
ROOT
ATOM      1  O   UNL     1      -3.490  13.755   1.011  1.00  0.00    -0.272 OA
ATOM      2  C   UNL     1      -3.709  14.696   1.789  1.00  0.00     0.245 C 
ENDROOT
BRANCH   2   3
ATOM      3  C   UNL     1      -2.502  15.482   2.360  1.00  0.00     0.168 C 
ATOM      4  C   UNL     1      -1.651  14.590   3.258  1.00  0.00     0.041 C 
BRANCH   3   5
ATOM      5  N   UNL     1      -1.698  16.175   1.366  1.00  0.00    -0.342 N 
ATOM      6  C   UNL     1      -1.750  17.544   1.213  1.00  0.00     0.251 C 
ATOM      7  O   UNL     1      -2.496  18.269   1.863  1.00  0.00    -0.272 OA
ATOM      8  H   UNL     1      -1.067  15.675   0.744  1.00  0.00     0.164 HD
BRANCH   6   9
ATOM      9  C   UNL     1      -0.715  18.070   0.206  1.00  0.00     0.219 C 
BRANCH   9  10
ATOM     10  O   UNL     1       0.052  19.165   0.723  1.00  0.00    -0.382 OA
ATOM     11  H   UNL     1      -0.416  19.957   0.378  1.00  0.00     0.211 HD
ENDBRANCH   9  10
BRANCH   9  12
ATOM     12  C   UNL     1       0.215  16.959  -0.348  1.00  0.00     0.089 C 
BRANCH  12  13
ATOM     13  N   UNL     1       0.498  17.253  -1.771  1.00  0.00    -0.325 NA
ATOM     14  H   UNL     1       0.889  18.194  -1.849  1.00  0.00     0.119 HD
ATOM     15  H   UNL     1      -0.386  17.289  -2.284  1.00  0.00     0.119 HD
ENDBRANCH  12  13
BRANCH  12  16
ATOM     16  C   UNL     1       1.538  16.736   0.422  1.00  0.00     0.022 C 
BRANCH  16  17
ATOM     17  C   UNL     1       1.998  15.302   0.719  1.00  0.00     0.002 C 
BRANCH  17  18
ATOM     18  C   UNL     1       1.443  14.239  -0.226  1.00  0.00     0.000 C 
BRANCH  18  19
ATOM     19  C   UNL     1       0.375  13.336   0.407  1.00  0.00    -0.000 C 
BRANCH  19  20
ATOM     20  C   UNL     1       0.385  11.882  -0.075  1.00  0.00    -0.000 C 
BRANCH  20  21
ATOM     21  C   UNL     1      -0.097  10.895   0.991  1.00  0.00    -0.003 C 
ATOM     22  C   UNL     1      -1.364  11.388   1.672  1.00  0.00     0.004 C 
ENDBRANCH  20  21
ENDBRANCH  19  20
ENDBRANCH  18  19
ENDBRANCH  17  18
ENDBRANCH  16  17
ENDBRANCH  12  16
ENDBRANCH   9  12
ENDBRANCH   6   9
ENDBRANCH   3   5
ENDBRANCH   2   3
BRANCH   2  23
ATOM     23  N   UNL     1      -5.015  15.104   2.036  1.00  0.00    -0.332 N 
ATOM     24  C   UNL     1      -5.650  16.260   1.420  1.00  0.00     0.147 C 
BRANCH  23  25
ATOM     25  C   UNL     1      -5.914  14.274   2.885  1.00  0.00     0.174 C 
BRANCH  25  26
ATOM     26  C   UNL     1      -7.188  15.029   3.331  1.00  0.00     0.038 C 
BRANCH  26  27
ATOM     27  C   UNL     1      -8.542  14.334   3.068  1.00  0.00    -0.015 C 
ATOM     28  C   UNL     1      -8.374  12.914   2.527  1.00  0.00     0.007 C 
ATOM     29  C   UNL     1      -9.474  14.341   4.277  1.00  0.00     0.007 C 
ENDBRANCH  26  27
ENDBRANCH  25  26
BRANCH  25  30
ATOM     30  C   UNL     1      -5.116  13.654   4.056  1.00  0.00     0.243 C 
ATOM     31  O   UNL     1      -4.516  12.587   3.940  1.00  0.00    -0.273 OA
ATOM     32  N   UNL     1      -5.130  14.368   5.226  1.00  0.00    -0.342 N 
ATOM     33  H   UNL     1      -5.530  15.310   5.202  1.00  0.00     0.164 HD
BRANCH  32  34
ATOM     34  C   UNL     1      -4.453  13.920   6.446  1.00  0.00     0.175 C 
BRANCH  34  35
ATOM     35  C   UNL     1      -4.031  15.111   7.320  1.00  0.00     0.070 C 
BRANCH  35  36
ATOM     36  C   UNL     1      -3.122  16.077   6.593  1.00  0.00    -0.045 A 
ATOM     37  C   UNL     1      -3.670  17.127   5.842  1.00  0.00     0.007 A 
ATOM     38  C   UNL     1      -1.729  15.926   6.639  1.00  0.00     0.007 A 
ATOM     39  C   UNL     1      -2.840  18.015   5.157  1.00  0.00     0.046 A 
ATOM     40  C   UNL     1      -0.898  16.813   5.952  1.00  0.00     0.046 A 
ATOM     41  C   UNL     1      -1.462  17.851   5.218  1.00  0.00     0.115 A 
BRANCH  41  42
ATOM     42  O   UNL     1      -0.686  18.738   4.531  1.00  0.00    -0.508 OA
ATOM     43  H   UNL     1      -0.248  19.321   5.174  1.00  0.00     0.293 HD
ENDBRANCH  41  42
ENDBRANCH  35  36
ENDBRANCH  34  35
BRANCH  34  44
ATOM     44  C   UNL     1      -5.404  12.962   7.197  1.00  0.00     0.243 C 
ATOM     45  O   UNL     1      -5.433  12.828   8.418  1.00  0.00    -0.273 OA
ATOM     46  N   UNL     1      -6.146  12.156   6.359  1.00  0.00    -0.341 N 
ATOM     47  H   UNL     1      -6.001  12.223   5.355  1.00  0.00     0.164 HD
BRANCH  46  48
ATOM     48  C   UNL     1      -7.066  11.123   6.840  1.00  0.00     0.196 C 
BRANCH  48  49
ATOM     49  C   UNL     1      -8.483  11.331   6.282  1.00  0.00     0.072 C 
BRANCH  49  50
ATOM     50  C   UNL     1      -9.545  11.285   7.357  1.00  0.00    -0.045 A 
ATOM     51  C   UNL     1     -10.876  11.594   7.039  1.00  0.00     0.007 A 
ATOM     52  C   UNL     1      -9.218  10.956   8.679  1.00  0.00     0.007 A 
ATOM     53  C   UNL     1     -11.862  11.567   8.026  1.00  0.00     0.046 A 
ATOM     54  C   UNL     1     -10.205  10.930   9.667  1.00  0.00     0.046 A 
ATOM     55  C   UNL     1     -11.520  11.235   9.331  1.00  0.00     0.115 A 
BRANCH  55  56
ATOM     56  O   UNL     1     -12.512  11.223  10.266  1.00  0.00    -0.508 OA
ATOM     57  H   UNL     1     -12.700  10.300  10.500  1.00  0.00     0.293 HD
ENDBRANCH  55  56
ENDBRANCH  49  50
ENDBRANCH  48  49
BRANCH  48  58
ATOM     58  C   UNL     1      -6.540   9.747   6.410  1.00  0.00     0.326 C 
ATOM     59  O   UNL     1      -6.761   9.166   5.359  1.00  0.00    -0.250 OA
BRANCH  58  60
ATOM     60  O   UNL     1      -5.734   9.162   7.332  1.00  0.00    -0.480 OA
ATOM     61  H   UNL     1      -5.143   8.596   6.790  1.00  0.00     0.296 HD
ENDBRANCH  58  60
ENDBRANCH  48  58
ENDBRANCH  46  48
ENDBRANCH  34  44
ENDBRANCH  32  34
ENDBRANCH  25  30
ENDBRANCH  23  25
ENDBRANCH   2  23
TORSDOF 28
ENDMDL
MODEL 8
REMARK VINA RESULT:    -6.157      2.675      4.301
REMARK INTER + INTRA:         -21.315
REMARK INTER:                 -16.325
REMARK INTRA:                  -4.989
REMARK UNBOUND:                -5.978
REMARK SMILES CCCCCCC[C@H](N)[C@H](O)C(=O)N[C@H](C)C(=O)N(C)[C@H](CC(C)C)C(=O)N[C@@H](Cc1ccc(O)cc1)C(=O)N[C@@H](Cc1ccc(O)cc1)C(=O)O
REMARK SMILES IDX 18 1 17 2 15 3 16 4 14 5 12 6 13 7 10 9 11 10 8 12 9 13 7 16
REMARK SMILES IDX 6 17 5 18 4 19 3 20 2 21 1 22 19 23 20 24 21 25 22 26 23 27
REMARK SMILES IDX 24 28 25 29 26 30 27 31 28 32 29 34 30 35 31 36 32 37 37 38
REMARK SMILES IDX 33 39 36 40 34 41 35 42 38 44 39 45 40 46 41 48 42 49 43 50
REMARK SMILES IDX 44 51 49 52 45 53 48 54 46 55 47 56 50 58 51 59 52 60
REMARK H PARENT 14 8 11 11 9 14 9 15 28 33 35 43 40 47 47 57 52 61
ROOT
ATOM      1  O   UNL     1      -4.345  15.952  -0.794  1.00  0.00    -0.272 OA
ATOM      2  C   UNL     1      -4.187  16.192   0.412  1.00  0.00     0.245 C 
ENDROOT
BRANCH   2   3
ATOM      3  C   UNL     1      -2.995  15.533   1.149  1.00  0.00     0.168 C 
ATOM      4  C   UNL     1      -3.038  14.016   1.000  1.00  0.00     0.041 C 
BRANCH   3   5
ATOM      5  N   UNL     1      -1.689  16.075   0.806  1.00  0.00    -0.342 N 
ATOM      6  C   UNL     1      -1.209  17.235   1.375  1.00  0.00     0.251 C 
ATOM      7  O   UNL     1      -1.851  17.913   2.171  1.00  0.00    -0.272 OA
ATOM      8  H   UNL     1      -1.080  15.618   0.131  1.00  0.00     0.164 HD
BRANCH   6   9
ATOM      9  C   UNL     1       0.243  17.538   0.974  1.00  0.00     0.219 C 
BRANCH   9  10
ATOM     10  O   UNL     1       0.506  18.943   0.871  1.00  0.00    -0.382 OA
ATOM     11  H   UNL     1       1.419  18.981   0.509  1.00  0.00     0.211 HD
ENDBRANCH   9  10
BRANCH   9  12
ATOM     12  C   UNL     1       1.286  16.848   1.891  1.00  0.00     0.089 C 
BRANCH  12  13
ATOM     13  N   UNL     1       0.591  16.362   3.105  1.00  0.00    -0.325 NA
ATOM     14  H   UNL     1       0.586  15.340   3.103  1.00  0.00     0.119 HD
ATOM     15  H   UNL     1      -0.394  16.633   3.053  1.00  0.00     0.119 HD
ENDBRANCH  12  13
BRANCH  12  16
ATOM     16  C   UNL     1       2.100  15.700   1.248  1.00  0.00     0.022 C 
BRANCH  16  17
ATOM     17  C   UNL     1       1.874  15.361  -0.232  1.00  0.00     0.002 C 
BRANCH  17  18
ATOM     18  C   UNL     1       1.033  14.112  -0.486  1.00  0.00     0.000 C 
BRANCH  18  19
ATOM     19  C   UNL     1       0.634  13.357   0.789  1.00  0.00    -0.000 C 
BRANCH  19  20
ATOM     20  C   UNL     1       0.645  11.830   0.671  1.00  0.00    -0.000 C 
BRANCH  20  21
ATOM     21  C   UNL     1      -0.585  11.172   1.302  1.00  0.00    -0.003 C 
ATOM     22  C   UNL     1      -1.547  10.661   0.241  1.00  0.00     0.004 C 
ENDBRANCH  20  21
ENDBRANCH  19  20
ENDBRANCH  18  19
ENDBRANCH  17  18
ENDBRANCH  16  17
ENDBRANCH  12  16
ENDBRANCH   9  12
ENDBRANCH   6   9
ENDBRANCH   3   5
ENDBRANCH   2   3
BRANCH   2  23
ATOM     23  N   UNL     1      -4.994  17.131   1.046  1.00  0.00    -0.332 N 
ATOM     24  C   UNL     1      -5.335  18.434   0.495  1.00  0.00     0.147 C 
BRANCH  23  25
ATOM     25  C   UNL     1      -5.686  16.789   2.319  1.00  0.00     0.174 C 
BRANCH  25  26
ATOM     26  C   UNL     1      -4.805  17.034   3.567  1.00  0.00     0.038 C 
BRANCH  26  27
ATOM     27  C   UNL     1      -5.335  18.043   4.610  1.00  0.00    -0.015 C 
ATOM     28  C   UNL     1      -5.960  17.356   5.823  1.00  0.00     0.007 C 
ATOM     29  C   UNL     1      -4.289  19.065   5.052  1.00  0.00     0.007 C 
ENDBRANCH  26  27
ENDBRANCH  25  26
BRANCH  25  30
ATOM     30  C   UNL     1      -6.269  15.360   2.241  1.00  0.00     0.243 C 
ATOM     31  O   UNL     1      -6.911  14.972   1.266  1.00  0.00    -0.273 OA
ATOM     32  N   UNL     1      -6.029  14.561   3.329  1.00  0.00    -0.342 N 
ATOM     33  H   UNL     1      -5.372  14.904   4.033  1.00  0.00     0.164 HD
BRANCH  32  34
ATOM     34  C   UNL     1      -6.528  13.187   3.441  1.00  0.00     0.175 C 
BRANCH  34  35
ATOM     35  C   UNL     1      -5.684  12.364   4.426  1.00  0.00     0.070 C 
BRANCH  35  36
ATOM     36  C   UNL     1      -4.359  13.017   4.747  1.00  0.00    -0.045 A 
ATOM     37  C   UNL     1      -4.297  14.048   5.698  1.00  0.00     0.007 A 
ATOM     38  C   UNL     1      -3.185  12.624   4.091  1.00  0.00     0.007 A 
ATOM     39  C   UNL     1      -3.081  14.666   5.991  1.00  0.00     0.046 A 
ATOM     40  C   UNL     1      -1.967  13.243   4.384  1.00  0.00     0.046 A 
ATOM     41  C   UNL     1      -1.927  14.259   5.333  1.00  0.00     0.115 A 
BRANCH  41  42
ATOM     42  O   UNL     1      -0.760  14.891   5.647  1.00  0.00    -0.508 OA
ATOM     43  H   UNL     1      -0.764  15.766   5.224  1.00  0.00     0.293 HD
ENDBRANCH  41  42
ENDBRANCH  35  36
ENDBRANCH  34  35
BRANCH  34  44
ATOM     44  C   UNL     1      -8.013  13.250   3.865  1.00  0.00     0.243 C 
ATOM     45  O   UNL     1      -8.403  13.607   4.974  1.00  0.00    -0.273 OA
ATOM     46  N   UNL     1      -8.876  12.739   2.920  1.00  0.00    -0.341 N 
ATOM     47  H   UNL     1      -8.494  12.347   2.063  1.00  0.00     0.164 HD
BRANCH  46  48
ATOM     48  C   UNL     1     -10.323  12.631   3.124  1.00  0.00     0.196 C 
BRANCH  48  49
ATOM     49  C   UNL     1     -11.087  12.754   1.795  1.00  0.00     0.072 C 
BRANCH  49  50
ATOM     50  C   UNL     1     -12.053  13.918   1.785  1.00  0.00    -0.045 A 
ATOM     51  C   UNL     1     -11.677  15.143   2.356  1.00  0.00     0.007 A 
ATOM     52  C   UNL     1     -13.332  13.787   1.231  1.00  0.00     0.007 A 
ATOM     53  C   UNL     1     -12.565  16.219   2.365  1.00  0.00     0.046 A 
ATOM     54  C   UNL     1     -14.222  14.864   1.241  1.00  0.00     0.046 A 
ATOM     55  C   UNL     1     -13.829  16.072   1.807  1.00  0.00     0.115 A 
BRANCH  55  56
ATOM     56  O   UNL     1     -14.667  17.147   1.838  1.00  0.00    -0.508 OA
ATOM     57  H   UNL     1     -14.478  17.660   2.639  1.00  0.00     0.293 HD
ENDBRANCH  55  56
ENDBRANCH  49  50
ENDBRANCH  48  49
BRANCH  48  58
ATOM     58  C   UNL     1     -10.635  11.276   3.773  1.00  0.00     0.326 C 
ATOM     59  O   UNL     1     -10.613  11.003   4.963  1.00  0.00    -0.250 OA
BRANCH  58  60
ATOM     60  O   UNL     1     -10.980  10.314   2.880  1.00  0.00    -0.480 OA
ATOM     61  H   UNL     1     -10.255  10.349   2.219  1.00  0.00     0.296 HD
ENDBRANCH  58  60
ENDBRANCH  48  58
ENDBRANCH  46  48
ENDBRANCH  34  44
ENDBRANCH  32  34
ENDBRANCH  25  30
ENDBRANCH  23  25
ENDBRANCH   2  23
TORSDOF 28
ENDMDL
MODEL 9
REMARK VINA RESULT:    -6.157      2.294      4.153
REMARK INTER + INTRA:         -21.314
REMARK INTER:                 -16.289
REMARK INTRA:                  -5.026
REMARK UNBOUND:                -5.978
REMARK SMILES CCCCCCC[C@H](N)[C@H](O)C(=O)N[C@H](C)C(=O)N(C)[C@H](CC(C)C)C(=O)N[C@@H](Cc1ccc(O)cc1)C(=O)N[C@@H](Cc1ccc(O)cc1)C(=O)O
REMARK SMILES IDX 18 1 17 2 15 3 16 4 14 5 12 6 13 7 10 9 11 10 8 12 9 13 7 16
REMARK SMILES IDX 6 17 5 18 4 19 3 20 2 21 1 22 19 23 20 24 21 25 22 26 23 27
REMARK SMILES IDX 24 28 25 29 26 30 27 31 28 32 29 34 30 35 31 36 32 37 37 38
REMARK SMILES IDX 33 39 36 40 34 41 35 42 38 44 39 45 40 46 41 48 42 49 43 50
REMARK SMILES IDX 44 51 49 52 45 53 48 54 46 55 47 56 50 58 51 59 52 60
REMARK H PARENT 14 8 11 11 9 14 9 15 28 33 35 43 40 47 47 57 52 61
ROOT
ATOM      1  O   UNL     1      -4.130  13.974   1.427  1.00  0.00    -0.272 OA
ATOM      2  C   UNL     1      -4.425  15.176   1.508  1.00  0.00     0.245 C 
ENDROOT
BRANCH   2   3
ATOM      3  C   UNL     1      -3.280  16.220   1.520  1.00  0.00     0.168 C 
ATOM      4  C   UNL     1      -2.651  16.318   2.906  1.00  0.00     0.041 C 
BRANCH   3   5
ATOM      5  N   UNL     1      -2.278  16.040   0.481  1.00  0.00    -0.342 N 
ATOM      6  C   UNL     1      -2.168  16.910  -0.582  1.00  0.00     0.251 C 
ATOM      7  O   UNL     1      -2.919  17.864  -0.757  1.00  0.00    -0.272 OA
ATOM      8  H   UNL     1      -1.620  15.264   0.499  1.00  0.00     0.164 HD
BRANCH   6   9
ATOM      9  C   UNL     1      -0.953  16.608  -1.475  1.00  0.00     0.219 C 
BRANCH   9  10
ATOM     10  O   UNL     1      -1.129  17.066  -2.821  1.00  0.00    -0.382 OA
ATOM     11  H   UNL     1      -0.590  16.438  -3.351  1.00  0.00     0.211 HD
ENDBRANCH   9  10
BRANCH   9  12
ATOM     12  C   UNL     1       0.382  17.131  -0.884  1.00  0.00     0.089 C 
BRANCH  12  13
ATOM     13  N   UNL     1       0.070  18.126   0.167  1.00  0.00    -0.325 NA
ATOM     14  H   UNL     1      -0.166  19.018  -0.274  1.00  0.00     0.119 HD
ATOM     15  H   UNL     1       0.917  18.312   0.709  1.00  0.00     0.119 HD
ENDBRANCH  12  13
BRANCH  12  16
ATOM     16  C   UNL     1       1.346  16.056  -0.328  1.00  0.00     0.022 C 
BRANCH  16  17
ATOM     17  C   UNL     1       1.527  14.743  -1.103  1.00  0.00     0.002 C 
BRANCH  17  18
ATOM     18  C   UNL     1       0.982  13.500  -0.403  1.00  0.00     0.000 C 
BRANCH  18  19
ATOM     19  C   UNL     1       0.444  13.765   1.009  1.00  0.00    -0.000 C 
BRANCH  19  20
ATOM     20  C   UNL     1      -0.518  12.702   1.548  1.00  0.00    -0.000 C 
BRANCH  20  21
ATOM     21  C   UNL     1      -0.154  11.283   1.103  1.00  0.00    -0.003 C 
ATOM     22  C   UNL     1      -1.319  10.607   0.397  1.00  0.00     0.004 C 
ENDBRANCH  20  21
ENDBRANCH  19  20
ENDBRANCH  18  19
ENDBRANCH  17  18
ENDBRANCH  16  17
ENDBRANCH  12  16
ENDBRANCH   9  12
ENDBRANCH   6   9
ENDBRANCH   3   5
ENDBRANCH   2   3
BRANCH   2  23
ATOM     23  N   UNL     1      -5.758  15.570   1.464  1.00  0.00    -0.332 N 
ATOM     24  C   UNL     1      -6.416  16.125   0.290  1.00  0.00     0.147 C 
BRANCH  23  25
ATOM     25  C   UNL     1      -6.654  15.319   2.625  1.00  0.00     0.174 C 
BRANCH  25  26
ATOM     26  C   UNL     1      -6.137  15.959   3.935  1.00  0.00     0.038 C 
BRANCH  26  27
ATOM     27  C   UNL     1      -7.186  16.633   4.847  1.00  0.00    -0.015 C 
ATOM     28  C   UNL     1      -7.054  16.201   6.308  1.00  0.00     0.007 C 
ATOM     29  C   UNL     1      -7.199  18.155   4.736  1.00  0.00     0.007 C 
ENDBRANCH  26  27
ENDBRANCH  25  26
BRANCH  25  30
ATOM     30  C   UNL     1      -6.955  13.808   2.748  1.00  0.00     0.243 C 
ATOM     31  O   UNL     1      -7.249  13.122   1.771  1.00  0.00    -0.273 OA
ATOM     32  N   UNL     1      -6.877  13.288   4.015  1.00  0.00    -0.342 N 
ATOM     33  H   UNL     1      -6.490  13.887   4.749  1.00  0.00     0.164 HD
BRANCH  32  34
ATOM     34  C   UNL     1      -7.156  11.883   4.324  1.00  0.00     0.175 C 
BRANCH  34  35
ATOM     35  C   UNL     1      -6.130  11.316   5.318  1.00  0.00     0.070 C 
BRANCH  35  36
ATOM     36  C   UNL     1      -4.834  12.095   5.330  1.00  0.00    -0.045 A 
ATOM     37  C   UNL     1      -4.699  13.219   6.159  1.00  0.00     0.007 A 
ATOM     38  C   UNL     1      -3.765  11.725   4.504  1.00  0.00     0.007 A 
ATOM     39  C   UNL     1      -3.512  13.952   6.167  1.00  0.00     0.046 A 
ATOM     40  C   UNL     1      -2.577  12.460   4.510  1.00  0.00     0.046 A 
ATOM     41  C   UNL     1      -2.461  13.567   5.344  1.00  0.00     0.115 A 
BRANCH  41  42
ATOM     42  O   UNL     1      -1.320  14.313   5.379  1.00  0.00    -0.508 OA
ATOM     43  H   UNL     1      -0.607  13.799   4.965  1.00  0.00     0.293 HD
ENDBRANCH  41  42
ENDBRANCH  35  36
ENDBRANCH  34  35
BRANCH  34  44
ATOM     44  C   UNL     1      -8.599  11.790   4.868  1.00  0.00     0.243 C 
ATOM     45  O   UNL     1      -9.386  10.888   4.595  1.00  0.00    -0.273 OA
ATOM     46  N   UNL     1      -8.983  12.894   5.598  1.00  0.00    -0.341 N 
ATOM     47  H   UNL     1      -8.333  13.670   5.699  1.00  0.00     0.164 HD
BRANCH  46  48
ATOM     48  C   UNL     1     -10.326  13.064   6.157  1.00  0.00     0.196 C 
BRANCH  48  49
ATOM     49  C   UNL     1     -11.357  13.366   5.057  1.00  0.00     0.072 C 
BRANCH  49  50
ATOM     50  C   UNL     1     -10.966  14.552   4.204  1.00  0.00    -0.045 A 
ATOM     51  C   UNL     1     -10.980  15.843   4.753  1.00  0.00     0.007 A 
ATOM     52  C   UNL     1     -10.608  14.387   2.860  1.00  0.00     0.007 A 
ATOM     53  C   UNL     1     -10.634  16.946   3.972  1.00  0.00     0.046 A 
ATOM     54  C   UNL     1     -10.263  15.492   2.078  1.00  0.00     0.046 A 
ATOM     55  C   UNL     1     -10.278  16.763   2.642  1.00  0.00     0.115 A 
BRANCH  55  56
ATOM     56  O   UNL     1      -9.949  17.867   1.913  1.00  0.00    -0.508 OA
ATOM     57  H   UNL     1      -9.198  17.643   1.340  1.00  0.00     0.293 HD
ENDBRANCH  55  56
ENDBRANCH  49  50
ENDBRANCH  48  49
BRANCH  48  58
ATOM     58  C   UNL     1     -10.725  11.779   6.897  1.00  0.00     0.326 C 
ATOM     59  O   UNL     1     -11.775  11.166   6.799  1.00  0.00    -0.250 OA
BRANCH  58  60
ATOM     60  O   UNL     1      -9.759  11.311   7.727  1.00  0.00    -0.480 OA
ATOM     61  H   UNL     1      -9.045  11.979   7.642  1.00  0.00     0.296 HD
ENDBRANCH  58  60
ENDBRANCH  48  58
ENDBRANCH  46  48
ENDBRANCH  34  44
ENDBRANCH  32  34
ENDBRANCH  25  30
ENDBRANCH  23  25
ENDBRANCH   2  23
TORSDOF 28
ENDMDL
MODEL 10
REMARK VINA RESULT:    -6.056      2.272      6.686
REMARK INTER + INTRA:         -21.062
REMARK INTER:                 -16.179
REMARK INTRA:                  -4.883
REMARK UNBOUND:                -5.978
REMARK SMILES CCCCCCC[C@H](N)[C@H](O)C(=O)N[C@H](C)C(=O)N(C)[C@H](CC(C)C)C(=O)N[C@@H](Cc1ccc(O)cc1)C(=O)N[C@@H](Cc1ccc(O)cc1)C(=O)O
REMARK SMILES IDX 18 1 17 2 15 3 16 4 14 5 12 6 13 7 10 9 11 10 8 12 9 13 7 16
REMARK SMILES IDX 6 17 5 18 4 19 3 20 2 21 1 22 19 23 20 24 21 25 22 26 23 27
REMARK SMILES IDX 24 28 25 29 26 30 27 31 28 32 29 34 30 35 31 36 32 37 37 38
REMARK SMILES IDX 33 39 36 40 34 41 35 42 38 44 39 45 40 46 41 48 42 49 43 50
REMARK SMILES IDX 44 51 49 52 45 53 48 54 46 55 47 56 50 58 51 59 52 60
REMARK H PARENT 14 8 11 11 9 14 9 15 28 33 35 43 40 47 47 57 52 61
ROOT
ATOM      1  O   UNL     1      -6.986  14.825   0.281  1.00  0.00    -0.272 OA
ATOM      2  C   UNL     1      -7.233  15.960   0.716  1.00  0.00     0.245 C 
ENDROOT
BRANCH   2   3
ATOM      3  C   UNL     1      -6.276  17.120   0.345  1.00  0.00     0.168 C 
ATOM      4  C   UNL     1      -6.225  18.158   1.461  1.00  0.00     0.041 C 
BRANCH   3   5
ATOM      5  N   UNL     1      -4.946  16.706  -0.071  1.00  0.00    -0.342 N 
ATOM      6  C   UNL     1      -4.257  17.363  -1.069  1.00  0.00     0.251 C 
ATOM      7  O   UNL     1      -4.720  18.306  -1.702  1.00  0.00    -0.272 OA
ATOM      8  H   UNL     1      -4.472  15.914   0.358  1.00  0.00     0.164 HD
BRANCH   6   9
ATOM      9  C   UNL     1      -2.821  16.844  -1.241  1.00  0.00     0.219 C 
BRANCH   9  10
ATOM     10  O   UNL     1      -2.297  17.092  -2.551  1.00  0.00    -0.382 OA
ATOM     11  H   UNL     1      -2.331  18.071  -2.632  1.00  0.00     0.211 HD
ENDBRANCH   9  10
BRANCH   9  12
ATOM     12  C   UNL     1      -1.849  17.367  -0.151  1.00  0.00     0.089 C 
BRANCH  12  13
ATOM     13  N   UNL     1      -2.460  18.556   0.487  1.00  0.00    -0.325 NA
ATOM     14  H   UNL     1      -2.973  18.263   1.321  1.00  0.00     0.119 HD
ATOM     15  H   UNL     1      -3.168  18.942  -0.141  1.00  0.00     0.119 HD
ENDBRANCH  12  13
BRANCH  12  16
ATOM     16  C   UNL     1      -1.426  16.343   0.929  1.00  0.00     0.022 C 
BRANCH  16  17
ATOM     17  C   UNL     1       0.029  15.856   0.966  1.00  0.00     0.002 C 
BRANCH  17  18
ATOM     18  C   UNL     1       0.572  15.344  -0.366  1.00  0.00     0.000 C 
BRANCH  18  19
ATOM     19  C   UNL     1       1.038  13.882  -0.331  1.00  0.00    -0.000 C 
BRANCH  19  20
ATOM     20  C   UNL     1       0.301  12.989   0.671  1.00  0.00    -0.000 C 
BRANCH  20  21
ATOM     21  C   UNL     1       0.356  11.504   0.303  1.00  0.00    -0.003 C 
ATOM     22  C   UNL     1      -0.773  10.727   0.962  1.00  0.00     0.004 C 
ENDBRANCH  20  21
ENDBRANCH  19  20
ENDBRANCH  18  19
ENDBRANCH  17  18
ENDBRANCH  16  17
ENDBRANCH  12  16
ENDBRANCH   9  12
ENDBRANCH   6   9
ENDBRANCH   3   5
ENDBRANCH   2   3
BRANCH   2  23
ATOM     23  N   UNL     1      -8.412  16.195   1.416  1.00  0.00    -0.332 N 
ATOM     24  C   UNL     1      -9.436  17.147   1.013  1.00  0.00     0.147 C 
BRANCH  23  25
ATOM     25  C   UNL     1      -8.763  15.360   2.597  1.00  0.00     0.174 C 
BRANCH  25  26
ATOM     26  C   UNL     1     -10.290  15.230   2.810  1.00  0.00     0.038 C 
BRANCH  26  27
ATOM     27  C   UNL     1     -10.819  13.849   3.258  1.00  0.00    -0.015 C 
ATOM     28  C   UNL     1     -11.996  13.961   4.228  1.00  0.00     0.007 C 
ATOM     29  C   UNL     1     -11.169  12.926   2.094  1.00  0.00     0.007 C 
ENDBRANCH  26  27
ENDBRANCH  25  26
BRANCH  25  30
ATOM     30  C   UNL     1      -8.001  15.858   3.846  1.00  0.00     0.243 C 
ATOM     31  O   UNL     1      -8.157  16.993   4.293  1.00  0.00    -0.273 OA
ATOM     32  N   UNL     1      -7.141  14.955   4.416  1.00  0.00    -0.342 N 
ATOM     33  H   UNL     1      -7.172  13.991   4.075  1.00  0.00     0.164 HD
BRANCH  32  34
ATOM     34  C   UNL     1      -6.316  15.262   5.588  1.00  0.00     0.175 C 
BRANCH  34  35
ATOM     35  C   UNL     1      -6.201  14.049   6.524  1.00  0.00     0.070 C 
BRANCH  35  36
ATOM     36  C   UNL     1      -6.979  12.851   6.026  1.00  0.00    -0.045 A 
ATOM     37  C   UNL     1      -8.367  12.785   6.220  1.00  0.00     0.007 A 
ATOM     38  C   UNL     1      -6.329  11.785   5.390  1.00  0.00     0.007 A 
ATOM     39  C   UNL     1      -9.091  11.678   5.777  1.00  0.00     0.046 A 
ATOM     40  C   UNL     1      -7.052  10.676   4.947  1.00  0.00     0.046 A 
ATOM     41  C   UNL     1      -8.429  10.633   5.144  1.00  0.00     0.115 A 
BRANCH  41  42
ATOM     42  O   UNL     1      -9.172   9.568   4.729  1.00  0.00    -0.508 OA
ATOM     43  H   UNL     1      -9.645   9.823   3.919  1.00  0.00     0.293 HD
ENDBRANCH  41  42
ENDBRANCH  35  36
ENDBRANCH  34  35
BRANCH  34  44
ATOM     44  C   UNL     1      -4.934  15.739   5.089  1.00  0.00     0.243 C 
ATOM     45  O   UNL     1      -4.648  16.909   4.850  1.00  0.00    -0.273 OA
ATOM     46  N   UNL     1      -4.066  14.706   4.804  1.00  0.00    -0.341 N 
ATOM     47  H   UNL     1      -4.390  13.747   4.907  1.00  0.00     0.164 HD
BRANCH  46  48
ATOM     48  C   UNL     1      -2.724  14.909   4.255  1.00  0.00     0.196 C 
BRANCH  48  49
ATOM     49  C   UNL     1      -1.701  15.192   5.367  1.00  0.00     0.072 C 
BRANCH  49  50
ATOM     50  C   UNL     1      -0.918  16.464   5.128  1.00  0.00    -0.045 A 
ATOM     51  C   UNL     1       0.209  16.749   5.913  1.00  0.00     0.007 A 
ATOM     52  C   UNL     1      -1.314  17.379   4.144  1.00  0.00     0.007 A 
ATOM     53  C   UNL     1       0.930  17.925   5.710  1.00  0.00     0.046 A 
ATOM     54  C   UNL     1      -0.592  18.558   3.942  1.00  0.00     0.046 A 
ATOM     55  C   UNL     1       0.526  18.820   4.727  1.00  0.00     0.115 A 
BRANCH  55  56
ATOM     56  O   UNL     1       1.257  19.959   4.562  1.00  0.00    -0.508 OA
ATOM     57  H   UNL     1       1.498  20.297   5.439  1.00  0.00     0.293 HD
ENDBRANCH  55  56
ENDBRANCH  49  50
ENDBRANCH  48  49
BRANCH  48  58
ATOM     58  C   UNL     1      -2.307  13.652   3.479  1.00  0.00     0.326 C 
ATOM     59  O   UNL     1      -2.799  13.222   2.448  1.00  0.00    -0.250 OA
BRANCH  58  60
ATOM     60  O   UNL     1      -1.262  12.992   4.039  1.00  0.00    -0.480 OA
ATOM     61  H   UNL     1      -1.277  12.120   3.588  1.00  0.00     0.296 HD
ENDBRANCH  58  60
ENDBRANCH  48  58
ENDBRANCH  46  48
ENDBRANCH  34  44
ENDBRANCH  32  34
ENDBRANCH  25  30
ENDBRANCH  23  25
ENDBRANCH   2  23
TORSDOF 28
ENDMDL
