MODEL 1
REMARK VINA RESULT:    -5.034      0.000      0.000
REMARK INTER + INTRA:         -23.594
REMARK INTER:                 -15.039
REMARK INTRA:                  -8.555
REMARK UNBOUND:                -8.555
REMARK SMILES C=C1C(=O)N[C@H](C)C(=O)N[C@@H](CC(C)C)C(=O)N[C@@H](C(=O)O)[C@H](C)C(=O)N[C@@H](CCCN=C(N)N)C(=O)N[C@@H](/C=C/C(C)=C/[C@H](C)[C@H](Cc2ccccc2)OC)[C@H](C)C(=O)N[C@@H](C(=O)O)CCC(=O)N1C
REMARK SMILES IDX 39 1 38 2 37 3 36 4 28 6 27 7 25 8 26 9 23 11 24 12 19 13
REMARK SMILES IDX 18 14 16 15 17 16 11 18 10 19 8 20 9 21 12 24 13 25 14 26
REMARK SMILES IDX 15 27 20 28 21 29 22 30 29 32 30 33 31 34 32 35 33 36 34 37
REMARK SMILES IDX 35 38 57 43 58 44 59 45 60 46 61 47 62 49 66 50 67 51 68 52
REMARK SMILES IDX 69 53 70 54 71 55 2 56 1 57 3 58 4 59 5 60 6 62 7 63 63 65
REMARK SMILES IDX 64 66 65 67 40 69 41 70 42 71 44 72 43 73 45 74 46 75 47 76
REMARK SMILES IDX 55 77 56 78 48 79 49 80 50 81 54 82 51 83 53 84 52 85
REMARK H PARENT 38 5 27 10 18 17 10 22 22 31 34 39 34 40 35 41 35 42 61 48
REMARK H PARENT 5 61 65 68
REMARK Flexibility Score:  369.900
ROOT
ATOM      1  C   UNL     1      -4.300  -3.002   7.118  1.00  0.00     0.117 C 
ENDROOT
BRANCH   1   2
ATOM      2  N   UNL     1      -3.352  -3.559   8.084  1.00  0.00    -0.347 N 
ATOM      3  O   UNL     1      -3.585  -5.770   7.511  1.00  0.00    -0.273 OA
ATOM      4  C   UNL     1      -3.002  -4.894   8.142  1.00  0.00     0.243 C 
ATOM      5  H   UNL     1      -2.878  -2.940   8.724  1.00  0.00     0.164 HD
BRANCH   4   6
ATOM      6  C   UNL     1      -1.913  -5.207   9.199  1.00  0.00     0.171 C 
BRANCH   6   7
ATOM      7  N   UNL     1      -0.599  -4.728   8.743  1.00  0.00    -0.344 N 
ATOM      8  C   UNL     1       0.383  -5.620   8.368  1.00  0.00     0.226 C 
ATOM      9  O   UNL     1       0.225  -6.834   8.416  1.00  0.00    -0.275 OA
ATOM     10  H   UNL     1      -0.408  -3.734   8.753  1.00  0.00     0.164 HD
BRANCH   8  11
ATOM     11  C   UNL     1       1.661  -4.970   7.869  1.00  0.00     0.109 C 
ATOM     12  C   UNL     1       2.858  -5.475   8.675  1.00  0.00     0.021 C 
BRANCH  11  13
ATOM     13  C   UNL     1       1.781  -5.158   6.344  1.00  0.00     0.204 C 
BRANCH  13  14
ATOM     14  N   UNL     1       2.160  -6.528   5.985  1.00  0.00    -0.340 N 
ATOM     15  C   UNL     1       3.389  -6.849   5.449  1.00  0.00     0.243 C 
ATOM     16  O   UNL     1       4.278  -6.015   5.291  1.00  0.00    -0.273 OA
ATOM     17  H   UNL     1       1.422  -7.236   5.949  1.00  0.00     0.164 HD
BRANCH  15  18
ATOM     18  C   UNL     1       3.486  -8.314   4.958  1.00  0.00     0.171 C 
BRANCH  18  19
ATOM     19  N   UNL     1       4.800  -8.461   4.337  1.00  0.00    -0.343 N 
ATOM     20  C   UNL     1       4.989  -9.230   3.205  1.00  0.00     0.242 CG0
ATOM     21  O   UNL     1       4.091  -9.931   2.746  1.00  0.00    -0.273 OA
ATOM     22  H   UNL     1       5.600  -7.993   4.748  1.00  0.00     0.164 HD
ATOM     23  G   UNL     1       6.428  -9.202   2.649  1.00  0.00     0.000 G0
ENDBRANCH  18  19
BRANCH  18  24
ATOM     24  C   UNL     1       3.304  -9.290   6.127  1.00  0.00     0.038 C 
BRANCH  24  25
ATOM     25  C   UNL     1       2.058 -10.195   6.024  1.00  0.00    -0.015 C 
ATOM     26  C   UNL     1       1.204  -9.877   4.797  1.00  0.00     0.007 C 
ATOM     27  C   UNL     1       1.212 -10.053   7.292  1.00  0.00     0.007 C 
ENDBRANCH  24  25
ENDBRANCH  18  24
ENDBRANCH  15  18
ENDBRANCH  13  14
BRANCH  13  28
ATOM     28  C   UNL     1       0.487  -4.833   5.592  1.00  0.00     0.327 C 
ATOM     29  O   UNL     1      -0.173  -5.611   4.920  1.00  0.00    -0.250 OA
BRANCH  28  30
ATOM     30  O   UNL     1       0.166  -3.524   5.633  1.00  0.00    -0.480 OA
ATOM     31  H   UNL     1      -0.631  -3.489   6.202  1.00  0.00     0.296 HD
ENDBRANCH  28  30
ENDBRANCH  13  28
ENDBRANCH  11  13
ENDBRANCH   8  11
ENDBRANCH   6   7
BRANCH   6  32
ATOM     32  C   UNL     1      -2.302  -4.553  10.530  1.00  0.00     0.037 C 
BRANCH  32  33
ATOM     33  C   UNL     1      -2.361  -5.569  11.679  1.00  0.00     0.026 C 
BRANCH  33  34
ATOM     34  C   UNL     1      -2.157  -7.007  11.200  1.00  0.00     0.146 C 
BRANCH  34  35
ATOM     35  N   UNL     1      -3.304  -7.806  11.611  1.00  0.00    -0.254 NA
ATOM     36  C   UNL     1      -3.714  -8.737  10.832  1.00  0.00     0.185 C 
ATOM     37  N   UNL     1      -4.767  -9.483  11.203  1.00  0.00    -0.370 N 
ATOM     38  N   UNL     1      -3.232  -9.110   9.634  1.00  0.00    -0.370 N 
ATOM     39  H   UNL     1      -5.180  -9.269  12.102  1.00  0.00     0.159 HD
ATOM     40  H   UNL     1      -5.038 -10.332  10.739  1.00  0.00     0.159 HD
ATOM     41  H   UNL     1      -3.729  -9.766   9.054  1.00  0.00     0.159 HD
ATOM     42  H   UNL     1      -2.450  -8.625   9.222  1.00  0.00     0.159 HD
ENDBRANCH  34  35
ENDBRANCH  33  34
ENDBRANCH  32  33
ENDBRANCH   6  32
ENDBRANCH   4   6
ENDBRANCH   1   2
BRANCH   1  43
ATOM     43  C   UNL     1      -3.639  -1.773   6.429  1.00  0.00     0.102 C 
ATOM     44  C   UNL     1      -3.409  -1.967   4.921  1.00  0.00     0.020 C 
BRANCH  43  45
ATOM     45  C   UNL     1      -2.394  -1.317   7.194  1.00  0.00     0.225 C 
ATOM     46  O   UNL     1      -1.357  -1.974   7.241  1.00  0.00    -0.275 OA
ATOM     47  N   UNL     1      -2.535  -0.153   7.916  1.00  0.00    -0.342 N 
ATOM     48  H   UNL     1      -3.330   0.447   7.747  1.00  0.00     0.164 HD
BRANCH  47  49
ATOM     49  C   UNL     1      -1.415   0.422   8.668  1.00  0.00     0.192 C 
BRANCH  49  50
ATOM     50  C   UNL     1      -1.953   1.244   9.841  1.00  0.00     0.047 C 
BRANCH  50  51
ATOM     51  C   UNL     1      -3.487   1.283   9.871  1.00  0.00     0.103 C 
BRANCH  51  52
ATOM     52  C   UNL     1      -4.031   2.684   9.601  1.00  0.00     0.226 C 
ATOM     53  O   UNL     1      -3.892   3.188   8.485  1.00  0.00    -0.275 OA
BRANCH  52  54
ATOM     54  N   UNL     1      -4.740   3.295  10.652  1.00  0.00    -0.311 N 
ATOM     55  C   UNL     1      -4.319   4.594  11.194  1.00  0.00     0.153 C 
BRANCH  54  56
ATOM     56  C   UNL     1      -5.875   2.691  11.218  1.00  0.00     0.102 C 
ATOM     57  C   UNL     1      -5.885   2.001  12.371  1.00  0.00     0.043 C 
BRANCH  56  58
ATOM     58  C   UNL     1      -7.230   2.820  10.562  1.00  0.00     0.268 C 
ATOM     59  O   UNL     1      -7.402   2.710   9.356  1.00  0.00    -0.268 OA
ATOM     60  N   UNL     1      -8.251   3.006  11.463  1.00  0.00    -0.339 N 
ATOM     61  H   UNL     1      -8.023   3.097  12.446  1.00  0.00     0.164 HD
BRANCH  60  62
ATOM     62  C   UNL     1      -9.650   3.093  11.047  1.00  0.00     0.168 CG0
ATOM     63  C   UNL     1     -10.541   2.240  11.942  1.00  0.00     0.041 C 
ATOM     64  G   UNL     1      -9.779   2.658   9.573  1.00  0.00     0.000 G0
ENDBRANCH  60  62
ENDBRANCH  56  58
ENDBRANCH  54  56
ENDBRANCH  52  54
ENDBRANCH  51  52
ENDBRANCH  50  51
ENDBRANCH  49  50
BRANCH  49  65
ATOM     65  C   UNL     1      -0.536   1.317   7.780  1.00  0.00     0.326 C 
ATOM     66  O   UNL     1      -0.627   2.532   7.685  1.00  0.00    -0.250 OA
BRANCH  65  67
ATOM     67  O   UNL     1       0.359   0.650   7.019  1.00  0.00    -0.480 OA
ATOM     68  H   UNL     1       0.613   1.305   6.333  1.00  0.00     0.296 HD
ENDBRANCH  65  67
ENDBRANCH  49  65
ENDBRANCH  47  49
ENDBRANCH  43  45
ENDBRANCH   1  43
BRANCH   1  69
ATOM     69  C   UNL     1      -5.606  -2.809   7.867  1.00  0.00    -0.001 C 
ATOM     70  C   UNL     1      -6.007  -1.717   8.540  1.00  0.00     0.001 C 
BRANCH  70  71
ATOM     71  C   UNL     1      -7.280  -1.535   9.242  1.00  0.00    -0.055 C 
ATOM     72  C   UNL     1      -8.408  -1.906   8.601  1.00  0.00    -0.018 C 
ATOM     73  C   UNL     1      -7.239  -0.953  10.631  1.00  0.00     0.044 C 
BRANCH  72  74
ATOM     74  C   UNL     1      -9.853  -1.838   9.077  1.00  0.00     0.038 C 
ATOM     75  C   UNL     1     -10.223  -0.354   9.189  1.00  0.00     0.015 C 
BRANCH  74  76
ATOM     76  C   UNL     1      -9.982  -2.645  10.402  1.00  0.00     0.128 C 
BRANCH  76  77
ATOM     77  O   UNL     1     -11.163  -2.235  11.113  1.00  0.00    -0.381 OA
ATOM     78  C   UNL     1     -10.890  -1.611  12.361  1.00  0.00     0.195 C 
ENDBRANCH  76  77
BRANCH  76  79
ATOM     79  C   UNL     1      -9.897  -4.181  10.215  1.00  0.00     0.068 C 
BRANCH  79  80
ATOM     80  C   UNL     1      -8.528  -4.816  10.194  1.00  0.00    -0.045 A 
ATOM     81  C   UNL     1      -7.638  -4.650  11.264  1.00  0.00     0.004 A 
ATOM     82  C   UNL     1      -8.113  -5.565   9.082  1.00  0.00     0.004 A 
ATOM     83  C   UNL     1      -6.368  -5.229  11.230  1.00  0.00     0.000 A 
ATOM     84  C   UNL     1      -6.842  -6.143   9.050  1.00  0.00     0.000 A 
ATOM     85  C   UNL     1      -5.971  -5.977  10.124  1.00  0.00     0.000 A 
ENDBRANCH  79  80
ENDBRANCH  76  79
ENDBRANCH  74  76
ENDBRANCH  72  74
ENDBRANCH  70  71
ENDBRANCH   1  69
TORSDOF 17
ENDMDL
MODEL 2
REMARK VINA RESULT:    -4.858      1.774      2.177
REMARK INTER + INTRA:         -23.069
REMARK INTER:                 -15.981
REMARK INTRA:                  -7.088
REMARK UNBOUND:                -8.555
REMARK SMILES C=C1C(=O)N[C@H](C)C(=O)N[C@@H](CC(C)C)C(=O)N[C@@H](C(=O)O)[C@H](C)C(=O)N[C@@H](CCCN=C(N)N)C(=O)N[C@@H](/C=C/C(C)=C/[C@H](C)[C@H](Cc2ccccc2)OC)[C@H](C)C(=O)N[C@@H](C(=O)O)CCC(=O)N1C
REMARK SMILES IDX 39 1 38 2 37 3 36 4 28 6 27 7 25 8 26 9 23 11 24 12 19 13
REMARK SMILES IDX 18 14 16 15 17 16 11 18 10 19 8 20 9 21 12 24 13 25 14 26
REMARK SMILES IDX 15 27 20 28 21 29 22 30 29 32 30 33 31 34 32 35 33 36 34 37
REMARK SMILES IDX 35 38 57 43 58 44 59 45 60 46 61 47 62 49 66 50 67 51 68 52
REMARK SMILES IDX 69 53 70 54 71 55 2 56 1 57 3 58 4 59 5 60 6 62 7 63 63 65
REMARK SMILES IDX 64 66 65 67 40 69 41 70 42 71 44 72 43 73 45 74 46 75 47 76
REMARK SMILES IDX 55 77 56 78 48 79 49 80 50 81 54 82 51 83 53 84 52 85
REMARK H PARENT 38 5 27 10 18 17 10 22 22 31 34 39 34 40 35 41 35 42 61 48
REMARK H PARENT 5 61 65 68
REMARK Flexibility Score:  369.900
ROOT
ATOM      1  C   UNL     1      -4.445  -3.043   7.233  1.00  0.00     0.117 C 
ENDROOT
BRANCH   1   2
ATOM      2  N   UNL     1      -3.432  -3.645   8.100  1.00  0.00    -0.347 N 
ATOM      3  O   UNL     1      -3.927  -5.846   7.680  1.00  0.00    -0.273 OA
ATOM      4  C   UNL     1      -3.194  -5.003   8.184  1.00  0.00     0.243 C 
ATOM      5  H   UNL     1      -2.826  -3.047   8.642  1.00  0.00     0.164 HD
BRANCH   4   6
ATOM      6  C   UNL     1      -2.008  -5.372   9.112  1.00  0.00     0.171 C 
BRANCH   6   7
ATOM      7  N   UNL     1      -0.729  -5.011   8.480  1.00  0.00    -0.344 N 
ATOM      8  C   UNL     1       0.181  -5.984   8.128  1.00  0.00     0.226 C 
ATOM      9  O   UNL     1      -0.013  -7.176   8.339  1.00  0.00    -0.275 OA
ATOM     10  H   UNL     1      -0.504  -4.032   8.351  1.00  0.00     0.164 HD
BRANCH   8  11
ATOM     11  C   UNL     1       1.426  -5.457   7.438  1.00  0.00     0.109 C 
ATOM     12  C   UNL     1       2.676  -5.890   8.203  1.00  0.00     0.021 C 
BRANCH  11  13
ATOM     13  C   UNL     1       1.406  -5.858   5.949  1.00  0.00     0.204 C 
BRANCH  13  14
ATOM     14  N   UNL     1       1.486  -7.310   5.768  1.00  0.00    -0.340 N 
ATOM     15  C   UNL     1       2.587  -7.937   5.225  1.00  0.00     0.243 C 
ATOM     16  O   UNL     1       3.606  -7.326   4.910  1.00  0.00    -0.273 OA
ATOM     17  H   UNL     1       0.625  -7.855   5.866  1.00  0.00     0.164 HD
BRANCH  15  18
ATOM     18  C   UNL     1       2.364  -9.442   4.939  1.00  0.00     0.171 C 
BRANCH  18  19
ATOM     19  N   UNL     1       3.659  -9.990   4.541  1.00  0.00    -0.343 N 
ATOM     20  C   UNL     1       3.881 -10.486   3.270  1.00  0.00     0.242 CG0
ATOM     21  O   UNL     1       2.965 -10.613   2.461  1.00  0.00    -0.273 OA
ATOM     22  H   UNL     1       4.417 -10.013   5.213  1.00  0.00     0.164 HD
ATOM     23  G   UNL     1       5.330 -10.947   3.011  1.00  0.00     0.000 G0
ENDBRANCH  18  19
BRANCH  18  24
ATOM     24  C   UNL     1       1.811 -10.153   6.181  1.00  0.00     0.038 C 
BRANCH  24  25
ATOM     25  C   UNL     1       0.483 -10.906   5.956  1.00  0.00    -0.015 C 
ATOM     26  C   UNL     1       0.110 -11.004   4.476  1.00  0.00     0.007 C 
ATOM     27  C   UNL     1      -0.641 -10.207   6.726  1.00  0.00     0.007 C 
ENDBRANCH  24  25
ENDBRANCH  18  24
ENDBRANCH  15  18
ENDBRANCH  13  14
BRANCH  13  28
ATOM     28  C   UNL     1       0.153  -5.377   5.211  1.00  0.00     0.327 C 
ATOM     29  O   UNL     1      -0.369  -4.277   5.313  1.00  0.00    -0.250 OA
BRANCH  28  30
ATOM     30  O   UNL     1      -0.437  -6.346   4.482  1.00  0.00    -0.480 OA
ATOM     31  H   UNL     1      -1.369  -6.056   4.404  1.00  0.00     0.296 HD
ENDBRANCH  28  30
ENDBRANCH  13  28
ENDBRANCH  11  13
ENDBRANCH   8  11
ENDBRANCH   6   7
BRANCH   6  32
ATOM     32  C   UNL     1      -2.177  -4.653  10.455  1.00  0.00     0.037 C 
BRANCH  32  33
ATOM     33  C   UNL     1      -2.894  -5.526  11.494  1.00  0.00     0.026 C 
BRANCH  33  34
ATOM     34  C   UNL     1      -2.419  -6.979  11.464  1.00  0.00     0.146 C 
BRANCH  34  35
ATOM     35  N   UNL     1      -3.565  -7.853  11.674  1.00  0.00    -0.254 NA
ATOM     36  C   UNL     1      -4.052  -8.480  10.669  1.00  0.00     0.185 C 
ATOM     37  N   UNL     1      -5.105  -9.291  10.851  1.00  0.00    -0.370 N 
ATOM     38  N   UNL     1      -3.654  -8.454   9.384  1.00  0.00    -0.370 N 
ATOM     39  H   UNL     1      -5.458  -9.372  11.797  1.00  0.00     0.159 HD
ATOM     40  H   UNL     1      -5.432  -9.943  10.159  1.00  0.00     0.159 HD
ATOM     41  H   UNL     1      -4.206  -8.884   8.660  1.00  0.00     0.159 HD
ATOM     42  H   UNL     1      -2.882  -7.873   9.098  1.00  0.00     0.159 HD
ENDBRANCH  34  35
ENDBRANCH  33  34
ENDBRANCH  32  33
ENDBRANCH   6  32
ENDBRANCH   4   6
ENDBRANCH   1   2
BRANCH   1  43
ATOM     43  C   UNL     1      -3.802  -1.843   6.480  1.00  0.00     0.102 C 
ATOM     44  C   UNL     1      -3.135  -2.240   5.152  1.00  0.00     0.020 C 
BRANCH  43  45
ATOM     45  C   UNL     1      -2.898  -1.030   7.411  1.00  0.00     0.225 C 
ATOM     46  O   UNL     1      -2.719  -1.316   8.591  1.00  0.00    -0.275 OA
ATOM     47  N   UNL     1      -2.360   0.114   6.865  1.00  0.00    -0.342 N 
ATOM     48  H   UNL     1      -2.391   0.253   5.865  1.00  0.00     0.164 HD
BRANCH  47  49
ATOM     49  C   UNL     1      -1.448   0.971   7.628  1.00  0.00     0.192 C 
BRANCH  49  50
ATOM     50  C   UNL     1      -1.583   2.419   7.150  1.00  0.00     0.047 C 
BRANCH  50  51
ATOM     51  C   UNL     1      -2.626   3.203   7.957  1.00  0.00     0.103 C 
BRANCH  51  52
ATOM     52  C   UNL     1      -3.360   4.233   7.099  1.00  0.00     0.226 C 
ATOM     53  O   UNL     1      -3.758   3.918   5.976  1.00  0.00    -0.275 OA
BRANCH  52  54
ATOM     54  N   UNL     1      -3.604   5.484   7.694  1.00  0.00    -0.311 N 
ATOM     55  C   UNL     1      -2.798   6.660   7.339  1.00  0.00     0.153 C 
BRANCH  54  56
ATOM     56  C   UNL     1      -4.627   5.658   8.641  1.00  0.00     0.102 C 
ATOM     57  C   UNL     1      -4.492   6.310   9.807  1.00  0.00     0.043 C 
BRANCH  56  58
ATOM     58  C   UNL     1      -6.021   5.138   8.380  1.00  0.00     0.268 C 
ATOM     59  O   UNL     1      -6.503   4.184   8.976  1.00  0.00    -0.268 OA
ATOM     60  N   UNL     1      -6.712   5.884   7.455  1.00  0.00    -0.339 N 
ATOM     61  H   UNL     1      -6.237   6.653   6.997  1.00  0.00     0.164 HD
BRANCH  60  62
ATOM     62  C   UNL     1      -8.100   5.594   7.099  1.00  0.00     0.168 CG0
ATOM     63  C   UNL     1      -8.175   4.762   5.824  1.00  0.00     0.041 C 
ATOM     64  G   UNL     1      -8.879   6.915   6.935  1.00  0.00     0.000 G0
ENDBRANCH  60  62
ENDBRANCH  56  58
ENDBRANCH  54  56
ENDBRANCH  52  54
ENDBRANCH  51  52
ENDBRANCH  50  51
ENDBRANCH  49  50
BRANCH  49  65
ATOM     65  C   UNL     1       0.013   0.519   7.476  1.00  0.00     0.326 C 
ATOM     66  O   UNL     1       0.835   1.013   6.718  1.00  0.00    -0.250 OA
BRANCH  65  67
ATOM     67  O   UNL     1       0.353  -0.552   8.227  1.00  0.00    -0.480 OA
ATOM     68  H   UNL     1       0.082  -1.317   7.674  1.00  0.00     0.296 HD
ENDBRANCH  65  67
ENDBRANCH  49  65
ENDBRANCH  47  49
ENDBRANCH  43  45
ENDBRANCH   1  43
BRANCH   1  69
ATOM     69  C   UNL     1      -5.659  -2.794   8.108  1.00  0.00    -0.001 C 
ATOM     70  C   UNL     1      -6.194  -1.607   8.445  1.00  0.00     0.001 C 
BRANCH  70  71
ATOM     71  C   UNL     1      -7.380  -1.380   9.274  1.00  0.00    -0.055 C 
ATOM     72  C   UNL     1      -8.588  -1.612   8.718  1.00  0.00    -0.018 C 
ATOM     73  C   UNL     1      -7.168  -0.911  10.690  1.00  0.00     0.044 C 
BRANCH  72  74
ATOM     74  C   UNL     1      -9.973  -1.467   9.331  1.00  0.00     0.038 C 
ATOM     75  C   UNL     1     -10.250   0.034   9.476  1.00  0.00     0.015 C 
BRANCH  74  76
ATOM     76  C   UNL     1     -10.018  -2.271  10.663  1.00  0.00     0.128 C 
BRANCH  76  77
ATOM     77  O   UNL     1     -11.088  -1.788  11.493  1.00  0.00    -0.381 OA
ATOM     78  C   UNL     1     -10.650  -1.233  12.726  1.00  0.00     0.195 C 
ENDBRANCH  76  77
BRANCH  76  79
ATOM     79  C   UNL     1     -10.057  -3.808  10.470  1.00  0.00     0.068 C 
BRANCH  79  80
ATOM     80  C   UNL     1      -8.741  -4.542  10.370  1.00  0.00    -0.045 A 
ATOM     81  C   UNL     1      -8.451  -5.356   9.268  1.00  0.00     0.004 A 
ATOM     82  C   UNL     1      -7.794  -4.439  11.401  1.00  0.00     0.004 A 
ATOM     83  C   UNL     1      -7.237  -6.043   9.190  1.00  0.00     0.000 A 
ATOM     84  C   UNL     1      -6.581  -5.127  11.322  1.00  0.00     0.000 A 
ATOM     85  C   UNL     1      -6.302  -5.926  10.216  1.00  0.00     0.000 A 
ENDBRANCH  79  80
ENDBRANCH  76  79
ENDBRANCH  74  76
ENDBRANCH  72  74
ENDBRANCH  70  71
ENDBRANCH   1  69
TORSDOF 17
ENDMDL
MODEL 3
REMARK VINA RESULT:    -4.816      2.525      3.425
REMARK INTER + INTRA:         -22.944
REMARK INTER:                 -16.129
REMARK INTRA:                  -6.815
REMARK UNBOUND:                -8.555
REMARK SMILES C=C1C(=O)N[C@H](C)C(=O)N[C@@H](CC(C)C)C(=O)N[C@@H](C(=O)O)[C@H](C)C(=O)N[C@@H](CCCN=C(N)N)C(=O)N[C@@H](/C=C/C(C)=C/[C@H](C)[C@H](Cc2ccccc2)OC)[C@H](C)C(=O)N[C@@H](C(=O)O)CCC(=O)N1C
REMARK SMILES IDX 39 1 38 2 37 3 36 4 28 6 27 7 25 8 26 9 23 11 24 12 19 13
REMARK SMILES IDX 18 14 16 15 17 16 11 18 10 19 8 20 9 21 12 24 13 25 14 26
REMARK SMILES IDX 15 27 20 28 21 29 22 30 29 32 30 33 31 34 32 35 33 36 34 37
REMARK SMILES IDX 35 38 57 43 58 44 59 45 60 46 61 47 62 49 66 50 67 51 68 52
REMARK SMILES IDX 69 53 70 54 71 55 2 56 1 57 3 58 4 59 5 60 6 62 7 63 63 65
REMARK SMILES IDX 64 66 65 67 40 69 41 70 42 71 44 72 43 73 45 74 46 75 47 76
REMARK SMILES IDX 55 77 56 78 48 79 49 80 50 81 54 82 51 83 53 84 52 85
REMARK H PARENT 38 5 27 10 18 17 10 22 22 31 34 39 34 40 35 41 35 42 61 48
REMARK H PARENT 5 61 65 68
REMARK Flexibility Score:  369.900
ROOT
ATOM      1  C   UNL     1      -4.617  -2.743   7.000  1.00  0.00     0.117 C 
ENDROOT
BRANCH   1   2
ATOM      2  N   UNL     1      -3.672  -3.523   7.799  1.00  0.00    -0.347 N 
ATOM      3  O   UNL     1      -4.779  -5.532   7.722  1.00  0.00    -0.273 OA
ATOM      4  C   UNL     1      -3.783  -4.882   8.019  1.00  0.00     0.243 C 
ATOM      5  H   UNL     1      -2.855  -3.070   8.180  1.00  0.00     0.164 HD
BRANCH   4   6
ATOM      6  C   UNL     1      -2.603  -5.481   8.826  1.00  0.00     0.171 C 
BRANCH   6   7
ATOM      7  N   UNL     1      -1.325  -4.911   8.369  1.00  0.00    -0.344 N 
ATOM      8  C   UNL     1      -0.325  -5.726   7.887  1.00  0.00     0.226 C 
ATOM      9  O   UNL     1      -0.434  -6.945   7.835  1.00  0.00    -0.275 OA
ATOM     10  H   UNL     1      -1.172  -3.914   8.460  1.00  0.00     0.164 HD
BRANCH   8  11
ATOM     11  C   UNL     1       0.909  -4.983   7.404  1.00  0.00     0.109 C 
ATOM     12  C   UNL     1       2.038  -5.119   8.426  1.00  0.00     0.021 C 
BRANCH  11  13
ATOM     13  C   UNL     1       1.268  -5.442   5.977  1.00  0.00     0.204 C 
BRANCH  13  14
ATOM     14  N   UNL     1       1.701  -6.842   5.939  1.00  0.00    -0.340 N 
ATOM     15  C   UNL     1       2.970  -7.223   5.559  1.00  0.00     0.243 C 
ATOM     16  O   UNL     1       3.849  -6.410   5.282  1.00  0.00    -0.273 OA
ATOM     17  H   UNL     1       0.983  -7.568   6.009  1.00  0.00     0.164 HD
BRANCH  15  18
ATOM     18  C   UNL     1       3.132  -8.755   5.396  1.00  0.00     0.171 C 
BRANCH  18  19
ATOM     19  N   UNL     1       4.529  -9.062   5.699  1.00  0.00    -0.343 N 
ATOM     20  C   UNL     1       5.354  -9.682   4.780  1.00  0.00     0.242 CG0
ATOM     21  O   UNL     1       4.919 -10.123   3.719  1.00  0.00    -0.273 OA
ATOM     22  H   UNL     1       4.905  -8.821   6.608  1.00  0.00     0.164 HD
ATOM     23  G   UNL     1       6.814  -9.853   5.249  1.00  0.00     0.000 G0
ENDBRANCH  18  19
BRANCH  18  24
ATOM     24  C   UNL     1       2.176  -9.504   6.332  1.00  0.00     0.038 C 
BRANCH  24  25
ATOM     25  C   UNL     1       1.153 -10.411   5.617  1.00  0.00    -0.015 C 
ATOM     26  C   UNL     1       1.327 -10.405   4.098  1.00  0.00     0.007 C 
ATOM     27  C   UNL     1      -0.268  -9.967   5.975  1.00  0.00     0.007 C 
ENDBRANCH  24  25
ENDBRANCH  18  24
ENDBRANCH  15  18
ENDBRANCH  13  14
BRANCH  13  28
ATOM     28  C   UNL     1       0.108  -5.298   4.987  1.00  0.00     0.327 C 
ATOM     29  O   UNL     1      -0.399  -4.251   4.614  1.00  0.00    -0.250 OA
BRANCH  28  30
ATOM     30  O   UNL     1      -0.420  -6.482   4.617  1.00  0.00    -0.480 OA
ATOM     31  H   UNL     1       0.248  -6.866   4.012  1.00  0.00     0.296 HD
ENDBRANCH  28  30
ENDBRANCH  13  28
ENDBRANCH  11  13
ENDBRANCH   8  11
ENDBRANCH   6   7
BRANCH   6  32
ATOM     32  C   UNL     1      -2.822  -5.206  10.318  1.00  0.00     0.037 C 
BRANCH  32  33
ATOM     33  C   UNL     1      -3.692  -6.281  10.984  1.00  0.00     0.026 C 
BRANCH  33  34
ATOM     34  C   UNL     1      -3.709  -7.591  10.194  1.00  0.00     0.146 C 
BRANCH  34  35
ATOM     35  N   UNL     1      -4.814  -8.412  10.670  1.00  0.00    -0.254 NA
ATOM     36  C   UNL     1      -5.933  -8.356  10.049  1.00  0.00     0.185 C 
ATOM     37  N   UNL     1      -6.956  -9.112  10.476  1.00  0.00    -0.370 N 
ATOM     38  N   UNL     1      -6.267  -7.620   8.974  1.00  0.00    -0.370 N 
ATOM     39  H   UNL     1      -6.780  -9.705  11.277  1.00  0.00     0.159 HD
ATOM     40  H   UNL     1      -7.799  -9.257   9.947  1.00  0.00     0.159 HD
ATOM     41  H   UNL     1      -7.222  -7.558   8.661  1.00  0.00     0.159 HD
ATOM     42  H   UNL     1      -5.599  -6.991   8.556  1.00  0.00     0.159 HD
ENDBRANCH  34  35
ENDBRANCH  33  34
ENDBRANCH  32  33
ENDBRANCH   6  32
ENDBRANCH   4   6
ENDBRANCH   1   2
BRANCH   1  43
ATOM     43  C   UNL     1      -3.836  -1.607   6.277  1.00  0.00     0.102 C 
ATOM     44  C   UNL     1      -3.021  -2.099   5.069  1.00  0.00     0.020 C 
BRANCH  43  45
ATOM     45  C   UNL     1      -3.027  -0.774   7.275  1.00  0.00     0.225 C 
ATOM     46  O   UNL     1      -3.175  -0.855   8.491  1.00  0.00    -0.275 OA
ATOM     47  N   UNL     1      -2.176   0.154   6.719  1.00  0.00    -0.342 N 
ATOM     48  H   UNL     1      -1.955   0.103   5.735  1.00  0.00     0.164 HD
BRANCH  47  49
ATOM     49  C   UNL     1      -1.313   0.997   7.552  1.00  0.00     0.192 C 
BRANCH  49  50
ATOM     50  C   UNL     1      -1.428   2.455   7.101  1.00  0.00     0.047 C 
BRANCH  50  51
ATOM     51  C   UNL     1      -2.789   3.069   7.457  1.00  0.00     0.103 C 
BRANCH  51  52
ATOM     52  C   UNL     1      -3.139   4.250   6.555  1.00  0.00     0.226 C 
ATOM     53  O   UNL     1      -4.227   4.274   5.976  1.00  0.00    -0.275 OA
BRANCH  52  54
ATOM     54  N   UNL     1      -2.202   5.299   6.503  1.00  0.00    -0.311 N 
ATOM     55  C   UNL     1      -1.429   5.561   5.281  1.00  0.00     0.153 C 
BRANCH  54  56
ATOM     56  C   UNL     1      -1.974   6.134   7.609  1.00  0.00     0.102 C 
ATOM     57  C   UNL     1      -0.764   6.441   8.104  1.00  0.00     0.043 C 
BRANCH  56  58
ATOM     58  C   UNL     1      -3.124   6.808   8.321  1.00  0.00     0.268 C 
ATOM     59  O   UNL     1      -3.618   6.375   9.353  1.00  0.00    -0.268 OA
ATOM     60  N   UNL     1      -3.509   7.986   7.728  1.00  0.00    -0.339 N 
ATOM     61  H   UNL     1      -3.056   8.271   6.868  1.00  0.00     0.164 HD
BRANCH  60  62
ATOM     62  C   UNL     1      -4.562   8.832   8.289  1.00  0.00     0.168 CG0
ATOM     63  C   UNL     1      -5.883   8.616   7.560  1.00  0.00     0.041 C 
ATOM     64  G   UNL     1      -4.132  10.311   8.214  1.00  0.00     0.000 G0
ENDBRANCH  60  62
ENDBRANCH  56  58
ENDBRANCH  54  56
ENDBRANCH  52  54
ENDBRANCH  51  52
ENDBRANCH  50  51
ENDBRANCH  49  50
BRANCH  49  65
ATOM     65  C   UNL     1       0.157   0.555   7.474  1.00  0.00     0.326 C 
ATOM     66  O   UNL     1       0.997   1.013   6.715  1.00  0.00    -0.250 OA
BRANCH  65  67
ATOM     67  O   UNL     1       0.482  -0.467   8.296  1.00  0.00    -0.480 OA
ATOM     68  H   UNL     1      -0.154  -0.379   9.038  1.00  0.00     0.296 HD
ENDBRANCH  65  67
ENDBRANCH  49  65
ENDBRANCH  47  49
ENDBRANCH  43  45
ENDBRANCH   1  43
BRANCH   1  69
ATOM     69  C   UNL     1      -5.755  -2.371   7.933  1.00  0.00    -0.001 C 
ATOM     70  C   UNL     1      -7.009  -2.857   7.927  1.00  0.00     0.001 C 
BRANCH  70  71
ATOM     71  C   UNL     1      -8.093  -2.506   8.847  1.00  0.00    -0.055 C 
ATOM     72  C   UNL     1      -8.688  -3.509   9.527  1.00  0.00    -0.018 C 
ATOM     73  C   UNL     1      -8.461  -1.051   8.975  1.00  0.00     0.044 C 
BRANCH  72  74
ATOM     74  C   UNL     1      -9.823  -3.445  10.539  1.00  0.00     0.038 C 
ATOM     75  C   UNL     1     -11.115  -3.186   9.754  1.00  0.00     0.015 C 
BRANCH  74  76
ATOM     76  C   UNL     1      -9.481  -2.366  11.608  1.00  0.00     0.128 C 
BRANCH  76  77
ATOM     77  O   UNL     1     -10.662  -2.019  12.351  1.00  0.00    -0.381 OA
ATOM     78  C   UNL     1     -10.785  -0.627  12.611  1.00  0.00     0.195 C 
ENDBRANCH  76  77
BRANCH  76  79
ATOM     79  C   UNL     1      -8.287  -2.741  12.521  1.00  0.00     0.068 C 
BRANCH  79  80
ATOM     80  C   UNL     1      -6.953  -2.091  12.243  1.00  0.00    -0.045 A 
ATOM     81  C   UNL     1      -6.799  -0.700  12.313  1.00  0.00     0.004 A 
ATOM     82  C   UNL     1      -5.846  -2.874  11.881  1.00  0.00     0.004 A 
ATOM     83  C   UNL     1      -5.565  -0.105  12.040  1.00  0.00     0.000 A 
ATOM     84  C   UNL     1      -4.613  -2.278  11.608  1.00  0.00     0.000 A 
ATOM     85  C   UNL     1      -4.472  -0.895  11.689  1.00  0.00     0.000 A 
ENDBRANCH  79  80
ENDBRANCH  76  79
ENDBRANCH  74  76
ENDBRANCH  72  74
ENDBRANCH  70  71
ENDBRANCH   1  69
TORSDOF 17
ENDMDL
MODEL 4
REMARK VINA RESULT:    -4.652      2.661      3.579
REMARK INTER + INTRA:         -22.454
REMARK INTER:                 -15.366
REMARK INTRA:                  -7.088
REMARK UNBOUND:                -8.555
REMARK SMILES C=C1C(=O)N[C@H](C)C(=O)N[C@@H](CC(C)C)C(=O)N[C@@H](C(=O)O)[C@H](C)C(=O)N[C@@H](CCCN=C(N)N)C(=O)N[C@@H](/C=C/C(C)=C/[C@H](C)[C@H](Cc2ccccc2)OC)[C@H](C)C(=O)N[C@@H](C(=O)O)CCC(=O)N1C
REMARK SMILES IDX 39 1 38 2 37 3 36 4 28 6 27 7 25 8 26 9 23 11 24 12 19 13
REMARK SMILES IDX 18 14 16 15 17 16 11 18 10 19 8 20 9 21 12 24 13 25 14 26
REMARK SMILES IDX 15 27 20 28 21 29 22 30 29 32 30 33 31 34 32 35 33 36 34 37
REMARK SMILES IDX 35 38 57 43 58 44 59 45 60 46 61 47 62 49 66 50 67 51 68 52
REMARK SMILES IDX 69 53 70 54 71 55 2 56 1 57 3 58 4 59 5 60 6 62 7 63 63 65
REMARK SMILES IDX 64 66 65 67 40 69 41 70 42 71 44 72 43 73 45 74 46 75 47 76
REMARK SMILES IDX 55 77 56 78 48 79 49 80 50 81 54 82 51 83 53 84 52 85
REMARK H PARENT 38 5 27 10 18 17 10 22 22 31 34 39 34 40 35 41 35 42 61 48
REMARK H PARENT 5 61 65 68
REMARK Flexibility Score:  369.900
ROOT
ATOM      1  C   UNL     1      -3.664  -4.313   7.494  1.00  0.00     0.117 C 
ENDROOT
BRANCH   1   2
ATOM      2  N   UNL     1      -2.907  -5.121   8.451  1.00  0.00    -0.347 N 
ATOM      3  O   UNL     1      -3.431  -7.187   7.598  1.00  0.00    -0.273 OA
ATOM      4  C   UNL     1      -2.777  -6.494   8.370  1.00  0.00     0.243 C 
ATOM      5  H   UNL     1      -2.402  -4.663   9.194  1.00  0.00     0.164 HD
BRANCH   4   6
ATOM      6  C   UNL     1      -1.852  -7.097   9.457  1.00  0.00     0.171 C 
BRANCH   6   7
ATOM      7  N   UNL     1      -0.591  -6.342   9.536  1.00  0.00    -0.344 N 
ATOM      8  C   UNL     1       0.604  -6.991   9.760  1.00  0.00     0.226 C 
ATOM      9  O   UNL     1       0.676  -8.203   9.925  1.00  0.00    -0.275 OA
ATOM     10  H   UNL     1      -0.618  -5.332   9.471  1.00  0.00     0.164 HD
BRANCH   8  11
ATOM     11  C   UNL     1       1.820  -6.081   9.759  1.00  0.00     0.109 C 
ATOM     12  C   UNL     1       2.729  -6.417  10.941  1.00  0.00     0.021 C 
BRANCH  11  13
ATOM     13  C   UNL     1       2.507  -6.130   8.379  1.00  0.00     0.204 C 
BRANCH  13  14
ATOM     14  N   UNL     1       2.212  -7.373   7.660  1.00  0.00    -0.340 N 
ATOM     15  C   UNL     1       3.194  -8.186   7.137  1.00  0.00     0.243 C 
ATOM     16  O   UNL     1       4.393  -7.956   7.290  1.00  0.00    -0.273 OA
ATOM     17  H   UNL     1       1.246  -7.542   7.368  1.00  0.00     0.164 HD
BRANCH  15  18
ATOM     18  C   UNL     1       2.644  -9.326   6.245  1.00  0.00     0.171 C 
BRANCH  18  19
ATOM     19  N   UNL     1       3.781 -10.183   5.913  1.00  0.00    -0.343 N 
ATOM     20  C   UNL     1       4.345 -10.190   4.652  1.00  0.00     0.242 CG0
ATOM     21  O   UNL     1       3.836  -9.577   3.716  1.00  0.00    -0.273 OA
ATOM     22  H   UNL     1       4.165 -10.796   6.623  1.00  0.00     0.164 HD
ATOM     23  G   UNL     1       5.583 -11.100   4.514  1.00  0.00     0.000 G0
ENDBRANCH  18  19
BRANCH  18  24
ATOM     24  C   UNL     1       1.547 -10.106   6.979  1.00  0.00     0.038 C 
BRANCH  24  25
ATOM     25  C   UNL     1       0.236 -10.277   6.182  1.00  0.00    -0.015 C 
ATOM     26  C   UNL     1       0.483 -10.521   4.693  1.00  0.00     0.007 C 
ATOM     27  C   UNL     1      -0.642  -9.036   6.363  1.00  0.00     0.007 C 
ENDBRANCH  24  25
ENDBRANCH  18  24
ENDBRANCH  15  18
ENDBRANCH  13  14
BRANCH  13  28
ATOM     28  C   UNL     1       2.105  -4.970   7.464  1.00  0.00     0.327 C 
ATOM     29  O   UNL     1       2.593  -4.704   6.376  1.00  0.00    -0.250 OA
BRANCH  28  30
ATOM     30  O   UNL     1       1.196  -4.145   8.024  1.00  0.00    -0.480 OA
ATOM     31  H   UNL     1       0.937  -3.542   7.296  1.00  0.00     0.296 HD
ENDBRANCH  28  30
ENDBRANCH  13  28
ENDBRANCH  11  13
ENDBRANCH   8  11
ENDBRANCH   6   7
BRANCH   6  32
ATOM     32  C   UNL     1      -2.582  -7.083  10.805  1.00  0.00     0.037 C 
BRANCH  32  33
ATOM     33  C   UNL     1      -2.926  -8.498  11.292  1.00  0.00     0.026 C 
BRANCH  33  34
ATOM     34  C   UNL     1      -3.716  -9.298  10.255  1.00  0.00     0.146 C 
BRANCH  34  35
ATOM     35  N   UNL     1      -5.094  -9.422  10.708  1.00  0.00    -0.254 NA
ATOM     36  C   UNL     1      -6.010  -8.791  10.071  1.00  0.00     0.185 C 
ATOM     37  N   UNL     1      -7.284  -8.902  10.476  1.00  0.00    -0.370 N 
ATOM     38  N   UNL     1      -5.892  -7.989   8.998  1.00  0.00    -0.370 N 
ATOM     39  H   UNL     1      -7.456  -9.499  11.275  1.00  0.00     0.159 HD
ATOM     40  H   UNL     1      -8.070  -8.585   9.935  1.00  0.00     0.159 HD
ATOM     41  H   UNL     1      -6.670  -7.438   8.672  1.00  0.00     0.159 HD
ATOM     42  H   UNL     1      -4.988  -7.801   8.594  1.00  0.00     0.159 HD
ENDBRANCH  34  35
ENDBRANCH  33  34
ENDBRANCH  32  33
ENDBRANCH   6  32
ENDBRANCH   4   6
ENDBRANCH   1   2
BRANCH   1  43
ATOM     43  C   UNL     1      -2.676  -3.364   6.756  1.00  0.00     0.102 C 
ATOM     44  C   UNL     1      -1.641  -4.108   5.896  1.00  0.00     0.020 C 
BRANCH  43  45
ATOM     45  C   UNL     1      -2.063  -2.347   7.724  1.00  0.00     0.225 C 
ATOM     46  O   UNL     1      -1.384  -2.670   8.695  1.00  0.00    -0.275 OA
ATOM     47  N   UNL     1      -2.401  -1.033   7.495  1.00  0.00    -0.342 N 
ATOM     48  H   UNL     1      -2.828  -0.772   6.617  1.00  0.00     0.164 HD
BRANCH  47  49
ATOM     49  C   UNL     1      -1.860   0.052   8.319  1.00  0.00     0.192 C 
BRANCH  49  50
ATOM     50  C   UNL     1      -2.647   1.339   8.056  1.00  0.00     0.047 C 
BRANCH  50  51
ATOM     51  C   UNL     1      -2.074   2.538   8.823  1.00  0.00     0.103 C 
BRANCH  51  52
ATOM     52  C   UNL     1      -2.551   3.869   8.245  1.00  0.00     0.226 C 
ATOM     53  O   UNL     1      -3.711   4.238   8.440  1.00  0.00    -0.275 OA
BRANCH  52  54
ATOM     54  N   UNL     1      -1.586   4.643   7.574  1.00  0.00    -0.311 N 
ATOM     55  C   UNL     1      -0.935   4.147   6.354  1.00  0.00     0.153 C 
BRANCH  54  56
ATOM     56  C   UNL     1      -1.214   5.915   8.038  1.00  0.00     0.102 C 
ATOM     57  C   UNL     1      -0.265   6.150   8.959  1.00  0.00     0.043 C 
BRANCH  56  58
ATOM     58  C   UNL     1      -1.855   7.163   7.477  1.00  0.00     0.268 C 
ATOM     59  O   UNL     1      -1.363   8.278   7.591  1.00  0.00    -0.268 OA
ATOM     60  N   UNL     1      -3.006   6.908   6.771  1.00  0.00    -0.339 N 
ATOM     61  H   UNL     1      -3.353   5.958   6.732  1.00  0.00     0.164 HD
BRANCH  60  62
ATOM     62  C   UNL     1      -3.752   7.966   6.090  1.00  0.00     0.168 CG0
ATOM     63  C   UNL     1      -3.295   8.116   4.645  1.00  0.00     0.041 C 
ATOM     64  G   UNL     1      -3.583   9.294   6.857  1.00  0.00     0.000 G0
ENDBRANCH  60  62
ENDBRANCH  56  58
ENDBRANCH  54  56
ENDBRANCH  52  54
ENDBRANCH  51  52
ENDBRANCH  50  51
ENDBRANCH  49  50
BRANCH  49  65
ATOM     65  C   UNL     1      -0.371   0.297   8.028  1.00  0.00     0.326 C 
ATOM     66  O   UNL     1       0.515   0.363   8.867  1.00  0.00    -0.250 OA
BRANCH  65  67
ATOM     67  O   UNL     1      -0.078   0.506   6.725  1.00  0.00    -0.480 OA
ATOM     68  H   UNL     1       0.876   0.732   6.736  1.00  0.00     0.296 HD
ENDBRANCH  65  67
ENDBRANCH  49  65
ENDBRANCH  47  49
ENDBRANCH  43  45
ENDBRANCH   1  43
BRANCH   1  69
ATOM     69  C   UNL     1      -4.820  -3.708   8.271  1.00  0.00    -0.001 C 
ATOM     70  C   UNL     1      -5.685  -2.769   7.849  1.00  0.00     0.001 C 
BRANCH  70  71
ATOM     71  C   UNL     1      -6.810  -2.208   8.600  1.00  0.00    -0.055 C 
ATOM     72  C   UNL     1      -8.033  -2.736   8.385  1.00  0.00    -0.018 C 
ATOM     73  C   UNL     1      -6.521  -1.088   9.565  1.00  0.00     0.044 C 
BRANCH  72  74
ATOM     74  C   UNL     1      -9.367  -2.363   9.016  1.00  0.00     0.038 C 
ATOM     75  C   UNL     1      -9.461  -0.832   9.006  1.00  0.00     0.015 C 
BRANCH  74  76
ATOM     76  C   UNL     1      -9.453  -3.013  10.428  1.00  0.00     0.128 C 
BRANCH  76  77
ATOM     77  O   UNL     1     -10.826  -3.095  10.848  1.00  0.00    -0.381 OA
ATOM     78  C   UNL     1     -11.252  -1.986  11.627  1.00  0.00     0.195 C 
ENDBRANCH  76  77
BRANCH  76  79
ATOM     79  C   UNL     1      -8.708  -4.367  10.545  1.00  0.00     0.068 C 
BRANCH  79  80
ATOM     80  C   UNL     1      -7.588  -4.473  11.551  1.00  0.00    -0.045 A 
ATOM     81  C   UNL     1      -7.634  -3.765  12.759  1.00  0.00     0.004 A 
ATOM     82  C   UNL     1      -6.464  -5.267  11.277  1.00  0.00     0.004 A 
ATOM     83  C   UNL     1      -6.587  -3.858  13.679  1.00  0.00     0.000 A 
ATOM     84  C   UNL     1      -5.418  -5.359  12.197  1.00  0.00     0.000 A 
ATOM     85  C   UNL     1      -5.480  -4.656  13.398  1.00  0.00     0.000 A 
ENDBRANCH  79  80
ENDBRANCH  76  79
ENDBRANCH  74  76
ENDBRANCH  72  74
ENDBRANCH  70  71
ENDBRANCH   1  69
TORSDOF 17
ENDMDL
MODEL 5
REMARK VINA RESULT:    -4.552      3.369      5.994
REMARK INTER + INTRA:         -22.154
REMARK INTER:                 -14.410
REMARK INTRA:                  -7.744
REMARK UNBOUND:                -8.555
REMARK SMILES C=C1C(=O)N[C@H](C)C(=O)N[C@@H](CC(C)C)C(=O)N[C@@H](C(=O)O)[C@H](C)C(=O)N[C@@H](CCCN=C(N)N)C(=O)N[C@@H](/C=C/C(C)=C/[C@H](C)[C@H](Cc2ccccc2)OC)[C@H](C)C(=O)N[C@@H](C(=O)O)CCC(=O)N1C
REMARK SMILES IDX 39 1 38 2 37 3 36 4 28 6 27 7 25 8 26 9 23 11 24 12 19 13
REMARK SMILES IDX 18 14 16 15 17 16 11 18 10 19 8 20 9 21 12 24 13 25 14 26
REMARK SMILES IDX 15 27 20 28 21 29 22 30 29 32 30 33 31 34 32 35 33 36 34 37
REMARK SMILES IDX 35 38 57 43 58 44 59 45 60 46 61 47 62 49 66 50 67 51 68 52
REMARK SMILES IDX 69 53 70 54 71 55 2 56 1 57 3 58 4 59 5 60 6 62 7 63 63 65
REMARK SMILES IDX 64 66 65 67 40 69 41 70 42 71 44 72 43 73 45 74 46 75 47 76
REMARK SMILES IDX 55 77 56 78 48 79 49 80 50 81 54 82 51 83 53 84 52 85
REMARK H PARENT 38 5 27 10 18 17 10 22 22 31 34 39 34 40 35 41 35 42 61 48
REMARK H PARENT 5 61 65 68
REMARK Flexibility Score:  369.900
ROOT
ATOM      1  C   UNL     1      -5.368  -0.589   9.227  1.00  0.00     0.117 C 
ENDROOT
BRANCH   1   2
ATOM      2  N   UNL     1      -4.826  -1.937   9.050  1.00  0.00    -0.347 N 
ATOM      3  O   UNL     1      -6.261  -2.637   7.400  1.00  0.00    -0.273 OA
ATOM      4  C   UNL     1      -5.260  -2.824   8.083  1.00  0.00     0.243 C 
ATOM      5  H   UNL     1      -4.056  -2.240   9.627  1.00  0.00     0.164 HD
BRANCH   4   6
ATOM      6  C   UNL     1      -4.462  -4.152   8.053  1.00  0.00     0.171 C 
BRANCH   6   7
ATOM      7  N   UNL     1      -3.333  -4.054   7.114  1.00  0.00    -0.344 N 
ATOM      8  C   UNL     1      -2.823  -5.181   6.508  1.00  0.00     0.226 C 
ATOM      9  O   UNL     1      -3.257  -6.305   6.731  1.00  0.00    -0.275 OA
ATOM     10  H   UNL     1      -2.904  -3.151   6.956  1.00  0.00     0.164 HD
BRANCH   8  11
ATOM     11  C   UNL     1      -1.698  -4.908   5.525  1.00  0.00     0.109 C 
ATOM     12  C   UNL     1      -1.834  -3.499   4.948  1.00  0.00     0.021 C 
BRANCH  11  13
ATOM     13  C   UNL     1      -0.340  -5.208   6.191  1.00  0.00     0.204 C 
BRANCH  13  14
ATOM     14  N   UNL     1      -0.464  -5.388   7.640  1.00  0.00    -0.340 N 
ATOM     15  C   UNL     1       0.303  -4.691   8.549  1.00  0.00     0.243 C 
ATOM     16  O   UNL     1       1.104  -3.823   8.209  1.00  0.00    -0.273 OA
ATOM     17  H   UNL     1      -0.996  -6.193   7.981  1.00  0.00     0.164 HD
BRANCH  15  18
ATOM     18  C   UNL     1       0.147  -5.195  10.005  1.00  0.00     0.171 C 
BRANCH  18  19
ATOM     19  N   UNL     1      -0.396  -4.079  10.778  1.00  0.00    -0.343 N 
ATOM     20  C   UNL     1       0.402  -3.304  11.598  1.00  0.00     0.242 CG0
ATOM     21  O   UNL     1       1.574  -3.598  11.819  1.00  0.00    -0.273 OA
ATOM     22  H   UNL     1      -1.386  -3.868  10.719  1.00  0.00     0.164 HD
ATOM     23  G   UNL     1      -0.332  -2.126  12.271  1.00  0.00     0.000 G0
ENDBRANCH  18  19
BRANCH  18  24
ATOM     24  C   UNL     1      -0.777  -6.417  10.059  1.00  0.00     0.038 C 
BRANCH  24  25
ATOM     25  C   UNL     1      -0.579  -7.321  11.295  1.00  0.00    -0.015 C 
ATOM     26  C   UNL     1       0.510  -8.372  11.083  1.00  0.00     0.007 C 
ATOM     27  C   UNL     1      -1.900  -8.010  11.645  1.00  0.00     0.007 C 
ENDBRANCH  24  25
ENDBRANCH  18  24
ENDBRANCH  15  18
ENDBRANCH  13  14
BRANCH  13  28
ATOM     28  C   UNL     1       0.341  -6.462   5.634  1.00  0.00     0.327 C 
ATOM     29  O   UNL     1       1.515  -6.769   5.774  1.00  0.00    -0.250 OA
BRANCH  28  30
ATOM     30  O   UNL     1      -0.465  -7.192   4.837  1.00  0.00    -0.480 OA
ATOM     31  H   UNL     1      -0.513  -6.676   4.005  1.00  0.00     0.296 HD
ENDBRANCH  28  30
ENDBRANCH  13  28
ENDBRANCH  11  13
ENDBRANCH   8  11
ENDBRANCH   6   7
BRANCH   6  32
ATOM     32  C   UNL     1      -3.969  -4.476   9.468  1.00  0.00     0.037 C 
BRANCH  32  33
ATOM     33  C   UNL     1      -4.368  -5.890   9.912  1.00  0.00     0.026 C 
BRANCH  33  34
ATOM     34  C   UNL     1      -5.721  -6.322   9.344  1.00  0.00     0.146 C 
BRANCH  34  35
ATOM     35  N   UNL     1      -5.863  -7.761   9.510  1.00  0.00    -0.254 NA
ATOM     36  C   UNL     1      -6.842  -8.206  10.206  1.00  0.00     0.185 C 
ATOM     37  N   UNL     1      -6.985  -9.531  10.362  1.00  0.00    -0.370 N 
ATOM     38  N   UNL     1      -7.807  -7.519  10.842  1.00  0.00    -0.370 N 
ATOM     39  H   UNL     1      -6.301 -10.119   9.902  1.00  0.00     0.159 HD
ATOM     40  H   UNL     1      -7.812  -9.961  10.739  1.00  0.00     0.159 HD
ATOM     41  H   UNL     1      -8.444  -7.977  11.473  1.00  0.00     0.159 HD
ATOM     42  H   UNL     1      -7.816  -6.511  10.824  1.00  0.00     0.159 HD
ENDBRANCH  34  35
ENDBRANCH  33  34
ENDBRANCH  32  33
ENDBRANCH   6  32
ENDBRANCH   4   6
ENDBRANCH   1   2
BRANCH   1  43
ATOM     43  C   UNL     1      -4.198   0.370   9.591  1.00  0.00     0.102 C 
ATOM     44  C   UNL     1      -4.657   1.648  10.314  1.00  0.00     0.020 C 
BRANCH  43  45
ATOM     45  C   UNL     1      -3.303   0.632   8.376  1.00  0.00     0.225 C 
ATOM     46  O   UNL     1      -2.968  -0.248   7.588  1.00  0.00    -0.275 OA
ATOM     47  N   UNL     1      -2.811   1.912   8.267  1.00  0.00    -0.342 N 
ATOM     48  H   UNL     1      -3.212   2.651   8.827  1.00  0.00     0.164 HD
BRANCH  47  49
ATOM     49  C   UNL     1      -1.970   2.317   7.136  1.00  0.00     0.192 C 
BRANCH  49  50
ATOM     50  C   UNL     1      -0.623   2.828   7.653  1.00  0.00     0.047 C 
BRANCH  50  51
ATOM     51  C   UNL     1       0.501   1.801   7.464  1.00  0.00     0.103 C 
BRANCH  51  52
ATOM     52  C   UNL     1       0.501   0.741   8.563  1.00  0.00     0.226 C 
ATOM     53  O   UNL     1       0.256  -0.433   8.278  1.00  0.00    -0.275 OA
BRANCH  52  54
ATOM     54  N   UNL     1       0.865   1.174   9.852  1.00  0.00    -0.311 N 
ATOM     55  C   UNL     1       2.269   1.432  10.195  1.00  0.00     0.153 C 
BRANCH  54  56
ATOM     56  C   UNL     1      -0.099   1.381  10.853  1.00  0.00     0.102 C 
ATOM     57  C   UNL     1      -0.572   2.581  11.228  1.00  0.00     0.043 C 
BRANCH  56  58
ATOM     58  C   UNL     1      -0.727   0.214  11.577  1.00  0.00     0.268 C 
ATOM     59  O   UNL     1      -1.881   0.222  11.986  1.00  0.00    -0.268 OA
ATOM     60  N   UNL     1       0.105  -0.876  11.670  1.00  0.00    -0.339 N 
ATOM     61  H   UNL     1       1.051  -0.798  11.316  1.00  0.00     0.164 HD
BRANCH  60  62
ATOM     62  C   UNL     1      -0.325  -2.134  12.278  1.00  0.00     0.168 CG0
ATOM     63  C   UNL     1      -0.048  -2.141  13.776  1.00  0.00     0.041 C 
ATOM     64  G   UNL     1       0.390  -3.313  11.586  1.00  0.00     0.000 G0
ENDBRANCH  60  62
ENDBRANCH  56  58
ENDBRANCH  54  56
ENDBRANCH  52  54
ENDBRANCH  51  52
ENDBRANCH  50  51
ENDBRANCH  49  50
BRANCH  49  65
ATOM     65  C   UNL     1      -2.642   3.413   6.294  1.00  0.00     0.326 C 
ATOM     66  O   UNL     1      -3.588   3.248   5.539  1.00  0.00    -0.250 OA
BRANCH  65  67
ATOM     67  O   UNL     1      -2.065   4.631   6.392  1.00  0.00    -0.480 OA
ATOM     68  H   UNL     1      -2.166   4.859   7.341  1.00  0.00     0.296 HD
ENDBRANCH  65  67
ENDBRANCH  49  65
ENDBRANCH  47  49
ENDBRANCH  43  45
ENDBRANCH   1  43
BRANCH   1  69
ATOM     69  C   UNL     1      -6.533  -0.723  10.190  1.00  0.00    -0.001 C 
ATOM     70  C   UNL     1      -6.665  -1.607  11.195  1.00  0.00     0.001 C 
BRANCH  70  71
ATOM     71  C   UNL     1      -7.785  -1.713  12.132  1.00  0.00    -0.055 C 
ATOM     72  C   UNL     1      -8.914  -1.035  11.839  1.00  0.00    -0.018 C 
ATOM     73  C   UNL     1      -7.601  -2.578  13.352  1.00  0.00     0.044 C 
BRANCH  72  74
ATOM     74  C   UNL     1     -10.222  -0.960  12.615  1.00  0.00     0.038 C 
ATOM     75  C   UNL     1     -11.220  -1.886  11.909  1.00  0.00     0.015 C 
BRANCH  74  76
ATOM     76  C   UNL     1     -10.665   0.529  12.708  1.00  0.00     0.128 C 
BRANCH  76  77
ATOM     77  O   UNL     1      -9.535   1.359  13.026  1.00  0.00    -0.381 OA
ATOM     78  C   UNL     1      -9.091   1.229  14.370  1.00  0.00     0.195 C 
ENDBRANCH  76  77
BRANCH  76  79
ATOM     79  C   UNL     1     -11.448   1.032  11.469  1.00  0.00     0.068 C 
BRANCH  79  80
ATOM     80  C   UNL     1     -10.756   2.001  10.541  1.00  0.00    -0.045 A 
ATOM     81  C   UNL     1     -10.888   3.385  10.715  1.00  0.00     0.004 A 
ATOM     82  C   UNL     1      -9.989   1.527   9.466  1.00  0.00     0.004 A 
ATOM     83  C   UNL     1     -10.256   4.275   9.843  1.00  0.00     0.000 A 
ATOM     84  C   UNL     1      -9.359   2.418   8.595  1.00  0.00     0.000 A 
ATOM     85  C   UNL     1      -9.491   3.791   8.785  1.00  0.00     0.000 A 
ENDBRANCH  79  80
ENDBRANCH  76  79
ENDBRANCH  74  76
ENDBRANCH  72  74
ENDBRANCH  70  71
ENDBRANCH   1  69
TORSDOF 17
ENDMDL
MODEL 6
REMARK VINA RESULT:    -4.476      3.039      5.691
REMARK INTER + INTRA:         -21.927
REMARK INTER:                 -15.298
REMARK INTRA:                  -6.629
REMARK UNBOUND:                -8.555
REMARK SMILES C=C1C(=O)N[C@H](C)C(=O)N[C@@H](CC(C)C)C(=O)N[C@@H](C(=O)O)[C@H](C)C(=O)N[C@@H](CCCN=C(N)N)C(=O)N[C@@H](/C=C/C(C)=C/[C@H](C)[C@H](Cc2ccccc2)OC)[C@H](C)C(=O)N[C@@H](C(=O)O)CCC(=O)N1C
REMARK SMILES IDX 39 1 38 2 37 3 36 4 28 6 27 7 25 8 26 9 23 11 24 12 19 13
REMARK SMILES IDX 18 14 16 15 17 16 11 18 10 19 8 20 9 21 12 24 13 25 14 26
REMARK SMILES IDX 15 27 20 28 21 29 22 30 29 32 30 33 31 34 32 35 33 36 34 37
REMARK SMILES IDX 35 38 57 43 58 44 59 45 60 46 61 47 62 49 66 50 67 51 68 52
REMARK SMILES IDX 69 53 70 54 71 55 2 56 1 57 3 58 4 59 5 60 6 62 7 63 63 65
REMARK SMILES IDX 64 66 65 67 40 69 41 70 42 71 44 72 43 73 45 74 46 75 47 76
REMARK SMILES IDX 55 77 56 78 48 79 49 80 50 81 54 82 51 83 53 84 52 85
REMARK H PARENT 38 5 27 10 18 17 10 22 22 31 34 39 34 40 35 41 35 42 61 48
REMARK H PARENT 5 61 65 68
REMARK Flexibility Score:  369.900
ROOT
ATOM      1  C   UNL     1      -4.829  -1.248   8.259  1.00  0.00     0.117 C 
ENDROOT
BRANCH   1   2
ATOM      2  N   UNL     1      -4.128  -2.529   8.356  1.00  0.00    -0.347 N 
ATOM      3  O   UNL     1      -3.599  -2.766   6.135  1.00  0.00    -0.273 OA
ATOM      4  C   UNL     1      -3.487  -3.143   7.297  1.00  0.00     0.243 C 
ATOM      5  H   UNL     1      -4.054  -2.985   9.253  1.00  0.00     0.164 HD
BRANCH   4   6
ATOM      6  C   UNL     1      -2.748  -4.447   7.687  1.00  0.00     0.171 C 
BRANCH   6   7
ATOM      7  N   UNL     1      -1.537  -4.617   6.868  1.00  0.00    -0.344 N 
ATOM      8  C   UNL     1      -1.537  -5.463   5.781  1.00  0.00     0.226 C 
ATOM      9  O   UNL     1      -2.517  -6.124   5.458  1.00  0.00    -0.275 OA
ATOM     10  H   UNL     1      -0.687  -4.140   7.144  1.00  0.00     0.164 HD
BRANCH   8  11
ATOM     11  C   UNL     1      -0.230  -5.487   5.007  1.00  0.00     0.109 C 
ATOM     12  C   UNL     1       0.326  -4.070   4.869  1.00  0.00     0.021 C 
BRANCH  11  13
ATOM     13  C   UNL     1       0.737  -6.503   5.647  1.00  0.00     0.204 C 
BRANCH  13  14
ATOM     14  N   UNL     1       1.343  -5.988   6.878  1.00  0.00    -0.340 N 
ATOM     15  C   UNL     1       2.656  -5.576   6.950  1.00  0.00     0.243 C 
ATOM     16  O   UNL     1       3.397  -5.555   5.968  1.00  0.00    -0.273 OA
ATOM     17  H   UNL     1       0.834  -6.120   7.756  1.00  0.00     0.164 HD
BRANCH  15  18
ATOM     18  C   UNL     1       3.131  -5.270   8.392  1.00  0.00     0.171 C 
BRANCH  18  19
ATOM     19  N   UNL     1       1.974  -4.740   9.110  1.00  0.00    -0.343 N 
ATOM     20  C   UNL     1       2.083  -3.678   9.986  1.00  0.00     0.242 CG0
ATOM     21  O   UNL     1       3.177  -3.215  10.303  1.00  0.00    -0.273 OA
ATOM     22  H   UNL     1       1.064  -5.165   8.969  1.00  0.00     0.164 HD
ATOM     23  G   UNL     1       0.743  -3.208  10.588  1.00  0.00     0.000 G0
ENDBRANCH  18  19
BRANCH  18  24
ATOM     24  C   UNL     1       3.677  -6.537   9.062  1.00  0.00     0.038 C 
BRANCH  24  25
ATOM     25  C   UNL     1       4.793  -6.287  10.099  1.00  0.00    -0.015 C 
ATOM     26  C   UNL     1       5.766  -5.193   9.660  1.00  0.00     0.007 C 
ATOM     27  C   UNL     1       5.559  -7.588  10.353  1.00  0.00     0.007 C 
ENDBRANCH  24  25
ENDBRANCH  18  24
ENDBRANCH  15  18
ENDBRANCH  13  14
BRANCH  13  28
ATOM     28  C   UNL     1       0.068  -7.837   5.995  1.00  0.00     0.327 C 
ATOM     29  O   UNL     1      -0.419  -8.142   7.073  1.00  0.00    -0.250 OA
BRANCH  28  30
ATOM     30  O   UNL     1       0.157  -8.747   5.004  1.00  0.00    -0.480 OA
ATOM     31  H   UNL     1       0.498  -9.552   5.446  1.00  0.00     0.296 HD
ENDBRANCH  28  30
ENDBRANCH  13  28
ENDBRANCH  11  13
ENDBRANCH   8  11
ENDBRANCH   6   7
BRANCH   6  32
ATOM     32  C   UNL     1      -2.398  -4.401   9.179  1.00  0.00     0.037 C 
BRANCH  32  33
ATOM     33  C   UNL     1      -2.902  -5.640   9.931  1.00  0.00     0.026 C 
BRANCH  33  34
ATOM     34  C   UNL     1      -4.251  -5.403  10.612  1.00  0.00     0.146 C 
BRANCH  34  35
ATOM     35  N   UNL     1      -5.305  -5.947   9.767  1.00  0.00    -0.254 NA
ATOM     36  C   UNL     1      -5.678  -7.159   9.954  1.00  0.00     0.185 C 
ATOM     37  N   UNL     1      -6.652  -7.669   9.185  1.00  0.00    -0.370 N 
ATOM     38  N   UNL     1      -5.225  -8.053  10.850  1.00  0.00    -0.370 N 
ATOM     39  H   UNL     1      -7.054  -7.051   8.491  1.00  0.00     0.159 HD
ATOM     40  H   UNL     1      -7.117  -8.539   9.380  1.00  0.00     0.159 HD
ATOM     41  H   UNL     1      -5.502  -9.020  10.806  1.00  0.00     0.159 HD
ATOM     42  H   UNL     1      -4.480  -7.811  11.484  1.00  0.00     0.159 HD
ENDBRANCH  34  35
ENDBRANCH  33  34
ENDBRANCH  32  33
ENDBRANCH   6  32
ENDBRANCH   4   6
ENDBRANCH   1   2
BRANCH   1  43
ATOM     43  C   UNL     1      -3.959  -0.154   8.942  1.00  0.00     0.102 C 
ATOM     44  C   UNL     1      -4.714   0.644  10.019  1.00  0.00     0.020 C 
BRANCH  43  45
ATOM     45  C   UNL     1      -3.256   0.720   7.900  1.00  0.00     0.225 C 
ATOM     46  O   UNL     1      -3.032   0.347   6.752  1.00  0.00    -0.275 OA
ATOM     47  N   UNL     1      -2.799   1.935   8.357  1.00  0.00    -0.342 N 
ATOM     48  H   UNL     1      -3.120   2.288   9.248  1.00  0.00     0.164 HD
BRANCH  47  49
ATOM     49  C   UNL     1      -2.138   2.891   7.463  1.00  0.00     0.192 C 
BRANCH  49  50
ATOM     50  C   UNL     1      -0.807   3.332   8.075  1.00  0.00     0.047 C 
BRANCH  50  51
ATOM     51  C   UNL     1       0.378   2.516   7.541  1.00  0.00     0.103 C 
BRANCH  51  52
ATOM     52  C   UNL     1       0.456   1.131   8.181  1.00  0.00     0.226 C 
ATOM     53  O   UNL     1       0.365   0.126   7.474  1.00  0.00    -0.275 OA
BRANCH  52  54
ATOM     54  N   UNL     1       0.709   1.094   9.565  1.00  0.00    -0.311 N 
ATOM     55  C   UNL     1       1.924   1.696  10.129  1.00  0.00     0.153 C 
BRANCH  54  56
ATOM     56  C   UNL     1      -0.191   0.487  10.458  1.00  0.00     0.102 C 
ATOM     57  C   UNL     1      -0.942   1.144  11.356  1.00  0.00     0.043 C 
BRANCH  56  58
ATOM     58  C   UNL     1      -0.416  -1.006  10.435  1.00  0.00     0.268 C 
ATOM     59  O   UNL     1      -1.506  -1.516  10.210  1.00  0.00    -0.268 OA
ATOM     60  N   UNL     1       0.737  -1.730  10.627  1.00  0.00    -0.339 N 
ATOM     61  H   UNL     1       1.598  -1.232  10.817  1.00  0.00     0.164 HD
BRANCH  60  62
ATOM     62  C   UNL     1       0.757  -3.191  10.580  1.00  0.00     0.168 CG0
ATOM     63  C   UNL     1       0.523  -3.785  11.964  1.00  0.00     0.041 C 
ATOM     64  G   UNL     1       2.102  -3.672  10.000  1.00  0.00     0.000 G0
ENDBRANCH  60  62
ENDBRANCH  56  58
ENDBRANCH  54  56
ENDBRANCH  52  54
ENDBRANCH  51  52
ENDBRANCH  50  51
ENDBRANCH  49  50
BRANCH  49  65
ATOM     65  C   UNL     1      -3.015   4.126   7.207  1.00  0.00     0.326 C 
ATOM     66  O   UNL     1      -4.194   4.236   7.511  1.00  0.00    -0.250 OA
BRANCH  65  67
ATOM     67  O   UNL     1      -2.400   5.126   6.539  1.00  0.00    -0.480 OA
ATOM     68  H   UNL     1      -2.602   4.934   5.598  1.00  0.00     0.296 HD
ENDBRANCH  65  67
ENDBRANCH  49  65
ENDBRANCH  47  49
ENDBRANCH  43  45
ENDBRANCH   1  43
BRANCH   1  69
ATOM     69  C   UNL     1      -6.236  -1.495   8.773  1.00  0.00    -0.001 C 
ATOM     70  C   UNL     1      -6.811  -2.680   9.043  1.00  0.00     0.001 C 
BRANCH  70  71
ATOM     71  C   UNL     1      -8.162  -2.904   9.560  1.00  0.00    -0.055 C 
ATOM     72  C   UNL     1      -9.074  -1.926   9.379  1.00  0.00    -0.018 C 
ATOM     73  C   UNL     1      -8.442  -4.214  10.250  1.00  0.00     0.044 C 
BRANCH  72  74
ATOM     74  C   UNL     1     -10.536  -1.881   9.800  1.00  0.00     0.038 C 
ATOM     75  C   UNL     1     -11.353  -2.513   8.667  1.00  0.00     0.015 C 
BRANCH  74  76
ATOM     76  C   UNL     1     -10.916  -0.409  10.137  1.00  0.00     0.128 C 
BRANCH  76  77
ATOM     77  O   UNL     1     -11.271  -0.299  11.525  1.00  0.00    -0.381 OA
ATOM     78  C   UNL     1     -10.170  -0.003  12.374  1.00  0.00     0.195 C 
ENDBRANCH  76  77
BRANCH  76  79
ATOM     79  C   UNL     1      -9.851   0.630   9.705  1.00  0.00     0.068 C 
BRANCH  79  80
ATOM     80  C   UNL     1     -10.131   1.462   8.477  1.00  0.00    -0.045 A 
ATOM     81  C   UNL     1     -10.904   0.956   7.424  1.00  0.00     0.004 A 
ATOM     82  C   UNL     1      -9.593   2.752   8.359  1.00  0.00     0.004 A 
ATOM     83  C   UNL     1     -11.147   1.726   6.285  1.00  0.00     0.000 A 
ATOM     84  C   UNL     1      -9.835   3.521   7.219  1.00  0.00     0.000 A 
ATOM     85  C   UNL     1     -10.613   3.009   6.183  1.00  0.00     0.000 A 
ENDBRANCH  79  80
ENDBRANCH  76  79
ENDBRANCH  74  76
ENDBRANCH  72  74
ENDBRANCH  70  71
ENDBRANCH   1  69
TORSDOF 17
ENDMDL
MODEL 7
REMARK VINA RESULT:    -4.416      2.598      3.514
REMARK INTER + INTRA:         -21.749
REMARK INTER:                 -14.011
REMARK INTRA:                  -7.738
REMARK UNBOUND:                -8.555
REMARK SMILES C=C1C(=O)N[C@H](C)C(=O)N[C@@H](CC(C)C)C(=O)N[C@@H](C(=O)O)[C@H](C)C(=O)N[C@@H](CCCN=C(N)N)C(=O)N[C@@H](/C=C/C(C)=C/[C@H](C)[C@H](Cc2ccccc2)OC)[C@H](C)C(=O)N[C@@H](C(=O)O)CCC(=O)N1C
REMARK SMILES IDX 39 1 38 2 37 3 36 4 28 6 27 7 25 8 26 9 23 11 24 12 19 13
REMARK SMILES IDX 18 14 16 15 17 16 11 18 10 19 8 20 9 21 12 24 13 25 14 26
REMARK SMILES IDX 15 27 20 28 21 29 22 30 29 32 30 33 31 34 32 35 33 36 34 37
REMARK SMILES IDX 35 38 57 43 58 44 59 45 60 46 61 47 62 49 66 50 67 51 68 52
REMARK SMILES IDX 69 53 70 54 71 55 2 56 1 57 3 58 4 59 5 60 6 62 7 63 63 65
REMARK SMILES IDX 64 66 65 67 40 69 41 70 42 71 44 72 43 73 45 74 46 75 47 76
REMARK SMILES IDX 55 77 56 78 48 79 49 80 50 81 54 82 51 83 53 84 52 85
REMARK H PARENT 38 5 27 10 18 17 10 22 22 31 34 39 34 40 35 41 35 42 61 48
REMARK H PARENT 5 61 65 68
REMARK Flexibility Score:  369.900
ROOT
ATOM      1  C   UNL     1      -3.183  -4.286   7.352  1.00  0.00     0.117 C 
ENDROOT
BRANCH   1   2
ATOM      2  N   UNL     1      -2.249  -4.878   8.311  1.00  0.00    -0.347 N 
ATOM      3  O   UNL     1      -2.885  -7.069   8.058  1.00  0.00    -0.273 OA
ATOM      4  C   UNL     1      -2.112  -6.236   8.520  1.00  0.00     0.243 C 
ATOM      5  H   UNL     1      -1.622  -4.277   8.825  1.00  0.00     0.164 HD
BRANCH   4   6
ATOM      6  C   UNL     1      -0.991  -6.602   9.526  1.00  0.00     0.171 C 
BRANCH   6   7
ATOM      7  N   UNL     1       0.260  -5.911   9.176  1.00  0.00    -0.344 N 
ATOM      8  C   UNL     1       1.469  -6.569   9.245  1.00  0.00     0.226 C 
ATOM      9  O   UNL     1       1.567  -7.733   9.615  1.00  0.00    -0.275 OA
ATOM     10  H   UNL     1       0.226  -4.930   8.930  1.00  0.00     0.164 HD
BRANCH   8  11
ATOM     11  C   UNL     1       2.659  -5.738   8.800  1.00  0.00     0.109 C 
ATOM     12  C   UNL     1       3.758  -5.782   9.862  1.00  0.00     0.021 C 
BRANCH  11  13
ATOM     13  C   UNL     1       3.103  -6.176   7.390  1.00  0.00     0.204 C 
BRANCH  13  14
ATOM     14  N   UNL     1       2.404  -7.384   6.942  1.00  0.00    -0.340 N 
ATOM     15  C   UNL     1       2.988  -8.327   6.124  1.00  0.00     0.243 C 
ATOM     16  O   UNL     1       4.161  -8.251   5.761  1.00  0.00    -0.273 OA
ATOM     17  H   UNL     1       1.391  -7.432   7.080  1.00  0.00     0.164 HD
BRANCH  15  18
ATOM     18  C   UNL     1       1.998  -9.403   5.614  1.00  0.00     0.171 C 
BRANCH  18  19
ATOM     19  N   UNL     1       2.786 -10.372   4.856  1.00  0.00    -0.343 N 
ATOM     20  C   UNL     1       2.362 -10.862   3.636  1.00  0.00     0.242 CG0
ATOM     21  O   UNL     1       1.243 -10.609   3.196  1.00  0.00    -0.273 OA
ATOM     22  H   UNL     1       3.667 -10.701   5.235  1.00  0.00     0.164 HD
ATOM     23  G   UNL     1       3.362 -11.814   2.950  1.00  0.00     0.000 G0
ENDBRANCH  18  19
BRANCH  18  24
ATOM     24  C   UNL     1       1.269 -10.067   6.789  1.00  0.00     0.038 C 
BRANCH  24  25
ATOM     25  C   UNL     1      -0.271  -9.982   6.723  1.00  0.00    -0.015 C 
ATOM     26  C   UNL     1      -0.757  -8.734   5.986  1.00  0.00     0.007 C 
ATOM     27  C   UNL     1      -0.849 -10.002   8.140  1.00  0.00     0.007 C 
ENDBRANCH  24  25
ENDBRANCH  18  24
ENDBRANCH  15  18
ENDBRANCH  13  14
BRANCH  13  28
ATOM     28  C   UNL     1       2.877  -5.099   6.324  1.00  0.00     0.327 C 
ATOM     29  O   UNL     1       3.730  -4.606   5.602  1.00  0.00    -0.250 OA
BRANCH  28  30
ATOM     30  O   UNL     1       1.615  -4.623   6.313  1.00  0.00    -0.480 OA
ATOM     31  H   UNL     1       1.058  -5.412   6.478  1.00  0.00     0.296 HD
ENDBRANCH  28  30
ENDBRANCH  13  28
ENDBRANCH  11  13
ENDBRANCH   8  11
ENDBRANCH   6   7
BRANCH   6  32
ATOM     32  C   UNL     1      -1.445  -6.230  10.942  1.00  0.00     0.037 C 
BRANCH  32  33
ATOM     33  C   UNL     1      -1.228  -7.376  11.940  1.00  0.00     0.026 C 
BRANCH  33  34
ATOM     34  C   UNL     1      -2.465  -7.647  12.797  1.00  0.00     0.146 C 
BRANCH  34  35
ATOM     35  N   UNL     1      -2.864  -9.036  12.622  1.00  0.00    -0.254 NA
ATOM     36  C   UNL     1      -3.645  -9.333  11.651  1.00  0.00     0.185 C 
ATOM     37  N   UNL     1      -4.015 -10.612  11.477  1.00  0.00    -0.370 N 
ATOM     38  N   UNL     1      -4.186  -8.523  10.724  1.00  0.00    -0.370 N 
ATOM     39  H   UNL     1      -3.639 -11.286  12.131  1.00  0.00     0.159 HD
ATOM     40  H   UNL     1      -4.476 -10.949  10.650  1.00  0.00     0.159 HD
ATOM     41  H   UNL     1      -4.898  -8.855  10.094  1.00  0.00     0.159 HD
ATOM     42  H   UNL     1      -4.007  -7.532  10.742  1.00  0.00     0.159 HD
ENDBRANCH  34  35
ENDBRANCH  33  34
ENDBRANCH  32  33
ENDBRANCH   6  32
ENDBRANCH   4   6
ENDBRANCH   1   2
BRANCH   1  43
ATOM     43  C   UNL     1      -2.394  -3.319   6.423  1.00  0.00     0.102 C 
ATOM     44  C   UNL     1      -1.878  -3.989   5.138  1.00  0.00     0.020 C 
BRANCH  43  45
ATOM     45  C   UNL     1      -1.315  -2.564   7.206  1.00  0.00     0.225 C 
ATOM     46  O   UNL     1      -0.248  -3.071   7.539  1.00  0.00    -0.275 OA
ATOM     47  N   UNL     1      -1.654  -1.290   7.602  1.00  0.00    -0.342 N 
ATOM     48  H   UNL     1      -2.460  -0.838   7.196  1.00  0.00     0.164 HD
BRANCH  47  49
ATOM     49  C   UNL     1      -0.707  -0.436   8.326  1.00  0.00     0.192 C 
BRANCH  49  50
ATOM     50  C   UNL     1      -1.357   0.073   9.615  1.00  0.00     0.047 C 
BRANCH  50  51
ATOM     51  C   UNL     1      -0.421   0.988  10.417  1.00  0.00     0.103 C 
BRANCH  51  52
ATOM     52  C   UNL     1      -0.314   0.559  11.879  1.00  0.00     0.226 C 
ATOM     53  O   UNL     1       0.718   0.021  12.283  1.00  0.00    -0.275 OA
BRANCH  52  54
ATOM     54  N   UNL     1      -1.403   0.885  12.709  1.00  0.00    -0.311 N 
ATOM     55  C   UNL     1      -1.911  -0.073  13.701  1.00  0.00     0.153 C 
BRANCH  54  56
ATOM     56  C   UNL     1      -2.039   2.135  12.626  1.00  0.00     0.102 C 
ATOM     57  C   UNL     1      -3.286   2.333  12.167  1.00  0.00     0.043 C 
BRANCH  56  58
ATOM     58  C   UNL     1      -1.351   3.389  13.111  1.00  0.00     0.268 C 
ATOM     59  O   UNL     1      -0.327   3.374  13.781  1.00  0.00    -0.268 OA
ATOM     60  N   UNL     1      -1.953   4.542  12.667  1.00  0.00    -0.339 N 
ATOM     61  H   UNL     1      -2.805   4.468  12.124  1.00  0.00     0.164 HD
BRANCH  60  62
ATOM     62  C   UNL     1      -1.415   5.867  12.968  1.00  0.00     0.168 CG0
ATOM     63  C   UNL     1      -0.550   6.379  11.822  1.00  0.00     0.041 C 
ATOM     64  G   UNL     1      -0.605   5.811  14.279  1.00  0.00     0.000 G0
ENDBRANCH  60  62
ENDBRANCH  56  58
ENDBRANCH  54  56
ENDBRANCH  52  54
ENDBRANCH  51  52
ENDBRANCH  50  51
ENDBRANCH  49  50
BRANCH  49  65
ATOM     65  C   UNL     1      -0.258   0.762   7.475  1.00  0.00     0.326 C 
ATOM     66  O   UNL     1      -1.000   1.515   6.861  1.00  0.00    -0.250 OA
BRANCH  65  67
ATOM     67  O   UNL     1       1.081   0.920   7.386  1.00  0.00    -0.480 OA
ATOM     68  H   UNL     1       1.429   0.352   8.107  1.00  0.00     0.296 HD
ENDBRANCH  65  67
ENDBRANCH  49  65
ENDBRANCH  47  49
ENDBRANCH  43  45
ENDBRANCH   1  43
BRANCH   1  69
ATOM     69  C   UNL     1      -4.339  -3.739   8.169  1.00  0.00    -0.001 C 
ATOM     70  C   UNL     1      -5.214  -2.784   7.808  1.00  0.00     0.001 C 
BRANCH  70  71
ATOM     71  C   UNL     1      -6.339  -2.278   8.597  1.00  0.00    -0.055 C 
ATOM     72  C   UNL     1      -7.564  -2.783   8.339  1.00  0.00    -0.018 C 
ATOM     73  C   UNL     1      -6.049  -1.237   9.646  1.00  0.00     0.044 C 
BRANCH  72  74
ATOM     74  C   UNL     1      -8.899  -2.454   8.993  1.00  0.00     0.038 C 
ATOM     75  C   UNL     1      -9.041  -0.927   8.989  1.00  0.00     0.015 C 
BRANCH  74  76
ATOM     76  C   UNL     1      -8.940  -3.110  10.404  1.00  0.00     0.128 C 
BRANCH  76  77
ATOM     77  O   UNL     1     -10.295  -3.165  10.881  1.00  0.00    -0.381 OA
ATOM     78  C   UNL     1     -11.174  -3.880  10.022  1.00  0.00     0.195 C 
ENDBRANCH  76  77
BRANCH  76  79
ATOM     79  C   UNL     1      -8.221  -4.480  10.483  1.00  0.00     0.068 C 
BRANCH  79  80
ATOM     80  C   UNL     1      -7.128  -4.647  11.510  1.00  0.00    -0.045 A 
ATOM     81  C   UNL     1      -5.843  -5.062  11.136  1.00  0.00     0.004 A 
ATOM     82  C   UNL     1      -7.392  -4.415  12.868  1.00  0.00     0.004 A 
ATOM     83  C   UNL     1      -4.840  -5.228  12.094  1.00  0.00     0.000 A 
ATOM     84  C   UNL     1      -6.389  -4.581  13.826  1.00  0.00     0.000 A 
ATOM     85  C   UNL     1      -5.113  -4.986  13.439  1.00  0.00     0.000 A 
ENDBRANCH  79  80
ENDBRANCH  76  79
ENDBRANCH  74  76
ENDBRANCH  72  74
ENDBRANCH  70  71
ENDBRANCH   1  69
TORSDOF 17
ENDMDL
MODEL 8
REMARK VINA RESULT:    -4.381      3.200      4.868
REMARK INTER + INTRA:         -21.643
REMARK INTER:                 -15.060
REMARK INTRA:                  -6.583
REMARK UNBOUND:                -8.555
REMARK SMILES C=C1C(=O)N[C@H](C)C(=O)N[C@@H](CC(C)C)C(=O)N[C@@H](C(=O)O)[C@H](C)C(=O)N[C@@H](CCCN=C(N)N)C(=O)N[C@@H](/C=C/C(C)=C/[C@H](C)[C@H](Cc2ccccc2)OC)[C@H](C)C(=O)N[C@@H](C(=O)O)CCC(=O)N1C
REMARK SMILES IDX 39 1 38 2 37 3 36 4 28 6 27 7 25 8 26 9 23 11 24 12 19 13
REMARK SMILES IDX 18 14 16 15 17 16 11 18 10 19 8 20 9 21 12 24 13 25 14 26
REMARK SMILES IDX 15 27 20 28 21 29 22 30 29 32 30 33 31 34 32 35 33 36 34 37
REMARK SMILES IDX 35 38 57 43 58 44 59 45 60 46 61 47 62 49 66 50 67 51 68 52
REMARK SMILES IDX 69 53 70 54 71 55 2 56 1 57 3 58 4 59 5 60 6 62 7 63 63 65
REMARK SMILES IDX 64 66 65 67 40 69 41 70 42 71 44 72 43 73 45 74 46 75 47 76
REMARK SMILES IDX 55 77 56 78 48 79 49 80 50 81 54 82 51 83 53 84 52 85
REMARK H PARENT 38 5 27 10 18 17 10 22 22 31 34 39 34 40 35 41 35 42 61 48
REMARK H PARENT 5 61 65 68
REMARK Flexibility Score:  369.900
ROOT
ATOM      1  C   UNL     1      -2.571  -3.361   5.895  1.00  0.00     0.117 C 
ENDROOT
BRANCH   1   2
ATOM      2  N   UNL     1      -1.824  -4.563   6.264  1.00  0.00    -0.347 N 
ATOM      3  O   UNL     1      -2.142  -5.740   4.319  1.00  0.00    -0.273 OA
ATOM      4  C   UNL     1      -1.591  -5.623   5.408  1.00  0.00     0.243 C 
ATOM      5  H   UNL     1      -1.401  -4.621   7.178  1.00  0.00     0.164 HD
BRANCH   4   6
ATOM      6  C   UNL     1      -0.699  -6.733   6.019  1.00  0.00     0.171 C 
BRANCH   6   7
ATOM      7  N   UNL     1       0.674  -6.240   6.213  1.00  0.00    -0.344 N 
ATOM      8  C   UNL     1       1.081  -5.756   7.438  1.00  0.00     0.226 C 
ATOM      9  O   UNL     1       0.330  -5.692   8.404  1.00  0.00    -0.275 OA
ATOM     10  H   UNL     1       1.304  -6.214   5.420  1.00  0.00     0.164 HD
BRANCH   8  11
ATOM     11  C   UNL     1       2.539  -5.337   7.492  1.00  0.00     0.109 C 
ATOM     12  C   UNL     1       2.748  -4.302   8.597  1.00  0.00     0.021 C 
BRANCH  11  13
ATOM     13  C   UNL     1       3.438  -6.586   7.596  1.00  0.00     0.204 C 
BRANCH  13  14
ATOM     14  N   UNL     1       2.710  -7.747   8.117  1.00  0.00    -0.340 N 
ATOM     15  C   UNL     1       2.788  -8.151   9.432  1.00  0.00     0.243 C 
ATOM     16  O   UNL     1       3.428  -7.528  10.277  1.00  0.00    -0.273 OA
ATOM     17  H   UNL     1       2.286  -8.391   7.443  1.00  0.00     0.164 HD
BRANCH  15  18
ATOM     18  C   UNL     1       2.105  -9.515   9.702  1.00  0.00     0.171 C 
BRANCH  18  19
ATOM     19  N   UNL     1       3.178 -10.491   9.882  1.00  0.00    -0.343 N 
ATOM     20  C   UNL     1       3.829 -11.065   8.807  1.00  0.00     0.242 CG0
ATOM     21  O   UNL     1       3.449 -10.883   7.653  1.00  0.00    -0.273 OA
ATOM     22  H   UNL     1       3.451 -10.763  10.820  1.00  0.00     0.164 HD
ATOM     23  G   UNL     1       4.984 -12.011   9.194  1.00  0.00     0.000 G0
ENDBRANCH  18  19
BRANCH  18  24
ATOM     24  C   UNL     1       1.205  -9.434  10.941  1.00  0.00     0.038 C 
BRANCH  24  25
ATOM     25  C   UNL     1      -0.124  -8.680  10.724  1.00  0.00    -0.015 C 
ATOM     26  C   UNL     1      -0.232  -7.423  11.588  1.00  0.00     0.007 C 
ATOM     27  C   UNL     1      -1.300  -9.613  11.023  1.00  0.00     0.007 C 
ENDBRANCH  24  25
ENDBRANCH  18  24
ENDBRANCH  15  18
ENDBRANCH  13  14
BRANCH  13  28
ATOM     28  C   UNL     1       4.053  -7.000   6.256  1.00  0.00     0.327 C 
ATOM     29  O   UNL     1       3.458  -7.132   5.197  1.00  0.00    -0.250 OA
BRANCH  28  30
ATOM     30  O   UNL     1       5.355  -7.337   6.354  1.00  0.00    -0.480 OA
ATOM     31  H   UNL     1       5.739  -7.066   5.494  1.00  0.00     0.296 HD
ENDBRANCH  28  30
ENDBRANCH  13  28
ENDBRANCH  11  13
ENDBRANCH   8  11
ENDBRANCH   6   7
BRANCH   6  32
ATOM     32  C   UNL     1      -1.307  -7.194   7.347  1.00  0.00     0.037 C 
BRANCH  32  33
ATOM     33  C   UNL     1      -1.692  -8.680   7.323  1.00  0.00     0.026 C 
BRANCH  33  34
ATOM     34  C   UNL     1      -0.478  -9.597   7.168  1.00  0.00     0.146 C 
BRANCH  34  35
ATOM     35  N   UNL     1      -0.527 -10.224   5.855  1.00  0.00    -0.254 NA
ATOM     36  C   UNL     1       0.516 -10.178   5.113  1.00  0.00     0.185 C 
ATOM     37  N   UNL     1       0.483 -10.757   3.902  1.00  0.00    -0.370 N 
ATOM     38  N   UNL     1       1.708  -9.610   5.366  1.00  0.00    -0.370 N 
ATOM     39  H   UNL     1      -0.380 -11.216   3.642  1.00  0.00     0.159 HD
ATOM     40  H   UNL     1       1.301 -10.915   3.339  1.00  0.00     0.159 HD
ATOM     41  H   UNL     1       2.405  -9.519   4.645  1.00  0.00     0.159 HD
ATOM     42  H   UNL     1       1.871  -9.123   6.234  1.00  0.00     0.159 HD
ENDBRANCH  34  35
ENDBRANCH  33  34
ENDBRANCH  32  33
ENDBRANCH   6  32
ENDBRANCH   4   6
ENDBRANCH   1   2
BRANCH   1  43
ATOM     43  C   UNL     1      -1.557  -2.219   5.597  1.00  0.00     0.102 C 
ATOM     44  C   UNL     1      -0.567  -2.559   4.470  1.00  0.00     0.020 C 
BRANCH  43  45
ATOM     45  C   UNL     1      -0.890  -1.726   6.884  1.00  0.00     0.225 C 
ATOM     46  O   UNL     1      -0.236  -2.457   7.623  1.00  0.00    -0.275 OA
ATOM     47  N   UNL     1      -1.145  -0.416   7.220  1.00  0.00    -0.342 N 
ATOM     48  H   UNL     1      -1.551   0.206   6.535  1.00  0.00     0.164 HD
BRANCH  47  49
ATOM     49  C   UNL     1      -0.544   0.201   8.406  1.00  0.00     0.192 C 
BRANCH  49  50
ATOM     50  C   UNL     1      -1.567   1.116   9.084  1.00  0.00     0.047 C 
BRANCH  50  51
ATOM     51  C   UNL     1      -2.761   1.431   8.172  1.00  0.00     0.103 C 
BRANCH  51  52
ATOM     52  C   UNL     1      -2.420   2.493   7.128  1.00  0.00     0.226 C 
ATOM     53  O   UNL     1      -2.139   2.151   5.978  1.00  0.00    -0.275 OA
BRANCH  52  54
ATOM     54  N   UNL     1      -2.526   3.834   7.541  1.00  0.00    -0.311 N 
ATOM     55  C   UNL     1      -2.014   4.265   8.849  1.00  0.00     0.153 C 
BRANCH  54  56
ATOM     56  C   UNL     1      -3.116   4.809   6.720  1.00  0.00     0.102 C 
ATOM     57  C   UNL     1      -4.418   5.136   6.730  1.00  0.00     0.043 C 
BRANCH  56  58
ATOM     58  C   UNL     1      -2.280   5.623   5.759  1.00  0.00     0.268 C 
ATOM     59  O   UNL     1      -1.236   5.215   5.270  1.00  0.00    -0.268 OA
ATOM     60  N   UNL     1      -2.847   6.835   5.444  1.00  0.00    -0.339 N 
ATOM     61  H   UNL     1      -3.710   7.103   5.901  1.00  0.00     0.164 HD
BRANCH  60  62
ATOM     62  C   UNL     1      -2.236   7.754   4.484  1.00  0.00     0.168 CG0
ATOM     63  C   UNL     1      -1.496   8.878   5.198  1.00  0.00     0.041 C 
ATOM     64  G   UNL     1      -3.323   8.322   3.549  1.00  0.00     0.000 G0
ENDBRANCH  60  62
ENDBRANCH  56  58
ENDBRANCH  54  56
ENDBRANCH  52  54
ENDBRANCH  51  52
ENDBRANCH  50  51
ENDBRANCH  49  50
BRANCH  49  65
ATOM     65  C   UNL     1       0.708   1.016   8.047  1.00  0.00     0.326 C 
ATOM     66  O   UNL     1       1.528   1.448   8.845  1.00  0.00    -0.250 OA
BRANCH  65  67
ATOM     67  O   UNL     1       0.840   1.299   6.732  1.00  0.00    -0.480 OA
ATOM     68  H   UNL     1       0.424   2.183   6.643  1.00  0.00     0.296 HD
ENDBRANCH  65  67
ENDBRANCH  49  65
ENDBRANCH  47  49
ENDBRANCH  43  45
ENDBRANCH   1  43
BRANCH   1  69
ATOM     69  C   UNL     1      -3.608  -3.155   6.984  1.00  0.00    -0.001 C 
ATOM     70  C   UNL     1      -4.519  -2.169   7.070  1.00  0.00     0.001 C 
BRANCH  70  71
ATOM     71  C   UNL     1      -5.529  -1.993   8.115  1.00  0.00    -0.055 C 
ATOM     72  C   UNL     1      -6.501  -2.924   8.212  1.00  0.00    -0.018 C 
ATOM     73  C   UNL     1      -5.407  -0.790   9.014  1.00  0.00     0.044 C 
BRANCH  72  74
ATOM     74  C   UNL     1      -7.665  -3.003   9.189  1.00  0.00     0.038 C 
ATOM     75  C   UNL     1      -8.203  -1.578   9.368  1.00  0.00     0.015 C 
BRANCH  74  76
ATOM     76  C   UNL     1      -7.174  -3.685  10.500  1.00  0.00     0.128 C 
BRANCH  76  77
ATOM     77  O   UNL     1      -8.018  -4.805  10.816  1.00  0.00    -0.381 OA
ATOM     78  C   UNL     1      -9.024  -5.055   9.844  1.00  0.00     0.195 C 
ENDBRANCH  76  77
BRANCH  76  79
ATOM     79  C   UNL     1      -5.669  -4.052  10.492  1.00  0.00     0.068 C 
BRANCH  79  80
ATOM     80  C   UNL     1      -5.289  -5.475  10.159  1.00  0.00    -0.045 A 
ATOM     81  C   UNL     1      -5.475  -5.988   8.869  1.00  0.00     0.004 A 
ATOM     82  C   UNL     1      -4.767  -6.318  11.151  1.00  0.00     0.004 A 
ATOM     83  C   UNL     1      -5.135  -7.310   8.572  1.00  0.00     0.000 A 
ATOM     84  C   UNL     1      -4.428  -7.640  10.854  1.00  0.00     0.000 A 
ATOM     85  C   UNL     1      -4.610  -8.135   9.564  1.00  0.00     0.000 A 
ENDBRANCH  79  80
ENDBRANCH  76  79
ENDBRANCH  74  76
ENDBRANCH  72  74
ENDBRANCH  70  71
ENDBRANCH   1  69
TORSDOF 17
ENDMDL
MODEL 9
REMARK VINA RESULT:    -4.365      3.600     10.276
REMARK INTER + INTRA:         -21.595
REMARK INTER:                 -16.308
REMARK INTRA:                  -5.287
REMARK UNBOUND:                -8.555
REMARK SMILES C=C1C(=O)N[C@H](C)C(=O)N[C@@H](CC(C)C)C(=O)N[C@@H](C(=O)O)[C@H](C)C(=O)N[C@@H](CCCN=C(N)N)C(=O)N[C@@H](/C=C/C(C)=C/[C@H](C)[C@H](Cc2ccccc2)OC)[C@H](C)C(=O)N[C@@H](C(=O)O)CCC(=O)N1C
REMARK SMILES IDX 39 1 38 2 37 3 36 4 28 6 27 7 25 8 26 9 23 11 24 12 19 13
REMARK SMILES IDX 18 14 16 15 17 16 11 18 10 19 8 20 9 21 12 24 13 25 14 26
REMARK SMILES IDX 15 27 20 28 21 29 22 30 29 32 30 33 31 34 32 35 33 36 34 37
REMARK SMILES IDX 35 38 57 43 58 44 59 45 60 46 61 47 62 49 66 50 67 51 68 52
REMARK SMILES IDX 69 53 70 54 71 55 2 56 1 57 3 58 4 59 5 60 6 62 7 63 63 65
REMARK SMILES IDX 64 66 65 67 40 69 41 70 42 71 44 72 43 73 45 74 46 75 47 76
REMARK SMILES IDX 55 77 56 78 48 79 49 80 50 81 54 82 51 83 53 84 52 85
REMARK H PARENT 38 5 27 10 18 17 10 22 22 31 34 39 34 40 35 41 35 42 61 48
REMARK H PARENT 5 61 65 68
REMARK Flexibility Score:  369.900
ROOT
ATOM      1  C   UNL     1      -3.235  -3.601   7.204  1.00  0.00     0.117 C 
ENDROOT
BRANCH   1   2
ATOM      2  N   UNL     1      -4.341  -4.332   7.823  1.00  0.00    -0.347 N 
ATOM      3  O   UNL     1      -4.157  -3.449   9.934  1.00  0.00    -0.273 OA
ATOM      4  C   UNL     1      -4.773  -4.129   9.120  1.00  0.00     0.243 C 
ATOM      5  H   UNL     1      -4.866  -4.995   7.273  1.00  0.00     0.164 HD
BRANCH   4   6
ATOM      6  C   UNL     1      -6.017  -4.970   9.502  1.00  0.00     0.171 C 
BRANCH   6   7
ATOM      7  N   UNL     1      -7.161  -4.092   9.798  1.00  0.00    -0.344 N 
ATOM      8  C   UNL     1      -7.581  -3.153   8.881  1.00  0.00     0.226 C 
ATOM      9  O   UNL     1      -7.023  -2.986   7.803  1.00  0.00    -0.275 OA
ATOM     10  H   UNL     1      -7.605  -4.154  10.705  1.00  0.00     0.164 HD
BRANCH   8  11
ATOM     11  C   UNL     1      -8.805  -2.363   9.311  1.00  0.00     0.109 C 
ATOM     12  C   UNL     1     -10.031  -3.275   9.352  1.00  0.00     0.021 C 
BRANCH  11  13
ATOM     13  C   UNL     1      -8.508  -1.617  10.627  1.00  0.00     0.204 C 
BRANCH  13  14
ATOM     14  N   UNL     1      -9.093  -0.273  10.643  1.00  0.00    -0.340 N 
ATOM     15  C   UNL     1      -8.447   0.831  10.129  1.00  0.00     0.243 C 
ATOM     16  O   UNL     1      -7.358   0.755   9.564  1.00  0.00    -0.273 OA
ATOM     17  H   UNL     1      -9.919  -0.115  11.227  1.00  0.00     0.164 HD
BRANCH  15  18
ATOM     18  C   UNL     1      -9.162   2.168  10.443  1.00  0.00     0.171 C 
BRANCH  18  19
ATOM     19  N   UNL     1      -8.826   3.088   9.358  1.00  0.00    -0.343 N 
ATOM     20  C   UNL     1      -8.004   4.180   9.556  1.00  0.00     0.242 CG0
ATOM     21  O   UNL     1      -7.626   4.505  10.680  1.00  0.00    -0.273 OA
ATOM     22  H   UNL     1      -9.209   2.927   8.433  1.00  0.00     0.164 HD
ATOM     23  G   UNL     1      -7.699   4.989   8.278  1.00  0.00     0.000 G0
ENDBRANCH  18  19
BRANCH  18  24
ATOM     24  C   UNL     1     -10.677   1.959  10.553  1.00  0.00     0.038 C 
BRANCH  24  25
ATOM     25  C   UNL     1     -11.311   2.508  11.850  1.00  0.00    -0.015 C 
ATOM     26  C   UNL     1     -10.709   3.848  12.274  1.00  0.00     0.007 C 
ATOM     27  C   UNL     1     -11.141   1.487  12.977  1.00  0.00     0.007 C 
ENDBRANCH  24  25
ENDBRANCH  18  24
ENDBRANCH  15  18
ENDBRANCH  13  14
BRANCH  13  28
ATOM     28  C   UNL     1      -9.025  -2.351  11.868  1.00  0.00     0.327 C 
ATOM     29  O   UNL     1      -8.513  -3.326  12.396  1.00  0.00    -0.250 OA
BRANCH  28  30
ATOM     30  O   UNL     1     -10.217  -1.889  12.298  1.00  0.00    -0.480 OA
ATOM     31  H   UNL     1     -10.815  -2.661  12.225  1.00  0.00     0.296 HD
ENDBRANCH  28  30
ENDBRANCH  13  28
ENDBRANCH  11  13
ENDBRANCH   8  11
ENDBRANCH   6   7
BRANCH   6  32
ATOM     32  C   UNL     1      -6.348  -5.930   8.353  1.00  0.00     0.037 C 
BRANCH  32  33
ATOM     33  C   UNL     1      -5.901  -7.368   8.653  1.00  0.00     0.026 C 
BRANCH  33  34
ATOM     34  C   UNL     1      -5.111  -7.475   9.958  1.00  0.00     0.146 C 
BRANCH  34  35
ATOM     35  N   UNL     1      -4.897  -8.883  10.264  1.00  0.00    -0.254 NA
ATOM     36  C   UNL     1      -4.216  -9.189  11.305  1.00  0.00     0.185 C 
ATOM     37  N   UNL     1      -4.017 -10.483  11.599  1.00  0.00    -0.370 N 
ATOM     38  N   UNL     1      -3.635  -8.375  12.203  1.00  0.00    -0.370 N 
ATOM     39  H   UNL     1      -4.434 -11.160  10.973  1.00  0.00     0.159 HD
ATOM     40  H   UNL     1      -3.650 -10.803  12.478  1.00  0.00     0.159 HD
ATOM     41  H   UNL     1      -3.007  -8.735  12.903  1.00  0.00     0.159 HD
ATOM     42  H   UNL     1      -3.689  -7.374  12.099  1.00  0.00     0.159 HD
ENDBRANCH  34  35
ENDBRANCH  33  34
ENDBRANCH  32  33
ENDBRANCH   6  32
ENDBRANCH   4   6
ENDBRANCH   1   2
BRANCH   1  43
ATOM     43  C   UNL     1      -3.810  -2.340   6.497  1.00  0.00     0.102 C 
ATOM     44  C   UNL     1      -3.507  -2.293   4.990  1.00  0.00     0.020 C 
BRANCH  43  45
ATOM     45  C   UNL     1      -3.423  -1.063   7.249  1.00  0.00     0.225 C 
ATOM     46  O   UNL     1      -4.183  -0.481   8.017  1.00  0.00    -0.275 OA
ATOM     47  N   UNL     1      -2.187  -0.545   6.939  1.00  0.00    -0.342 N 
ATOM     48  H   UNL     1      -1.521  -1.109   6.429  1.00  0.00     0.164 HD
BRANCH  47  49
ATOM     49  C   UNL     1      -1.669   0.654   7.606  1.00  0.00     0.192 C 
BRANCH  49  50
ATOM     50  C   UNL     1      -2.142   1.903   6.860  1.00  0.00     0.047 C 
BRANCH  50  51
ATOM     51  C   UNL     1      -1.920   3.186   7.673  1.00  0.00     0.103 C 
BRANCH  51  52
ATOM     52  C   UNL     1      -3.219   3.710   8.282  1.00  0.00     0.226 C 
ATOM     53  O   UNL     1      -4.018   2.920   8.789  1.00  0.00    -0.275 OA
BRANCH  52  54
ATOM     54  N   UNL     1      -3.388   5.108   8.291  1.00  0.00    -0.311 N 
ATOM     55  C   UNL     1      -2.803   5.933   9.357  1.00  0.00     0.153 C 
BRANCH  54  56
ATOM     56  C   UNL     1      -4.113   5.764   7.283  1.00  0.00     0.102 C 
ATOM     57  C   UNL     1      -3.592   6.639   6.407  1.00  0.00     0.043 C 
BRANCH  56  58
ATOM     58  C   UNL     1      -5.583   5.484   7.079  1.00  0.00     0.268 C 
ATOM     59  O   UNL     1      -6.090   5.339   5.975  1.00  0.00    -0.268 OA
ATOM     60  N   UNL     1      -6.276   5.346   8.258  1.00  0.00    -0.339 N 
ATOM     61  H   UNL     1      -5.784   5.492   9.132  1.00  0.00     0.164 HD
BRANCH  60  62
ATOM     62  C   UNL     1      -7.699   5.011   8.291  1.00  0.00     0.168 CG0
ATOM     63  C   UNL     1      -8.558   6.269   8.253  1.00  0.00     0.041 C 
ATOM     64  G   UNL     1      -8.005   4.179   9.554  1.00  0.00     0.000 G0
ENDBRANCH  60  62
ENDBRANCH  56  58
ENDBRANCH  54  56
ENDBRANCH  52  54
ENDBRANCH  51  52
ENDBRANCH  50  51
ENDBRANCH  49  50
BRANCH  49  65
ATOM     65  C   UNL     1      -0.134   0.649   7.669  1.00  0.00     0.326 C 
ATOM     66  O   UNL     1       0.617   0.690   6.705  1.00  0.00    -0.250 OA
BRANCH  65  67
ATOM     67  O   UNL     1       0.379   0.532   8.914  1.00  0.00    -0.480 OA
ATOM     68  H   UNL     1       0.765   1.417   9.089  1.00  0.00     0.296 HD
ENDBRANCH  65  67
ENDBRANCH  49  65
ENDBRANCH  47  49
ENDBRANCH  43  45
ENDBRANCH   1  43
BRANCH   1  69
ATOM     69  C   UNL     1      -2.464  -4.616   6.381  1.00  0.00    -0.001 C 
ATOM     70  C   UNL     1      -1.776  -5.680   6.831  1.00  0.00     0.001 C 
BRANCH  70  71
ATOM     71  C   UNL     1      -1.053  -6.666   6.025  1.00  0.00    -0.055 C 
ATOM     72  C   UNL     1      -0.867  -7.894   6.553  1.00  0.00    -0.018 C 
ATOM     73  C   UNL     1      -0.575  -6.243   4.661  1.00  0.00     0.044 C 
BRANCH  72  74
ATOM     74  C   UNL     1      -0.165  -9.104   5.954  1.00  0.00     0.038 C 
ATOM     75  C   UNL     1      -0.977 -10.342   6.352  1.00  0.00     0.015 C 
BRANCH  74  76
ATOM     76  C   UNL     1       1.316  -9.112   6.433  1.00  0.00     0.128 C 
BRANCH  76  77
ATOM     77  O   UNL     1       2.198  -8.979   5.306  1.00  0.00    -0.381 OA
ATOM     78  C   UNL     1       2.436 -10.201   4.619  1.00  0.00     0.195 C 
ENDBRANCH  76  77
BRANCH  76  79
ATOM     79  C   UNL     1       1.620  -8.089   7.557  1.00  0.00     0.068 C 
BRANCH  79  80
ATOM     80  C   UNL     1       2.685  -7.050   7.298  1.00  0.00    -0.045 A 
ATOM     81  C   UNL     1       2.401  -5.895   6.558  1.00  0.00     0.004 A 
ATOM     82  C   UNL     1       3.990  -7.242   7.774  1.00  0.00     0.004 A 
ATOM     83  C   UNL     1       3.395  -4.945   6.311  1.00  0.00     0.000 A 
ATOM     84  C   UNL     1       4.984  -6.292   7.526  1.00  0.00     0.000 A 
ATOM     85  C   UNL     1       4.686  -5.144   6.796  1.00  0.00     0.000 A 
ENDBRANCH  79  80
ENDBRANCH  76  79
ENDBRANCH  74  76
ENDBRANCH  72  74
ENDBRANCH  70  71
ENDBRANCH   1  69
TORSDOF 17
ENDMDL
MODEL 10
REMARK VINA RESULT:    -4.326      4.265     10.351
REMARK INTER + INTRA:         -21.479
REMARK INTER:                 -15.529
REMARK INTRA:                  -5.950
REMARK UNBOUND:                -8.555
REMARK SMILES C=C1C(=O)N[C@H](C)C(=O)N[C@@H](CC(C)C)C(=O)N[C@@H](C(=O)O)[C@H](C)C(=O)N[C@@H](CCCN=C(N)N)C(=O)N[C@@H](/C=C/C(C)=C/[C@H](C)[C@H](Cc2ccccc2)OC)[C@H](C)C(=O)N[C@@H](C(=O)O)CCC(=O)N1C
REMARK SMILES IDX 39 1 38 2 37 3 36 4 28 6 27 7 25 8 26 9 23 11 24 12 19 13
REMARK SMILES IDX 18 14 16 15 17 16 11 18 10 19 8 20 9 21 12 24 13 25 14 26
REMARK SMILES IDX 15 27 20 28 21 29 22 30 29 32 30 33 31 34 32 35 33 36 34 37
REMARK SMILES IDX 35 38 57 43 58 44 59 45 60 46 61 47 62 49 66 50 67 51 68 52
REMARK SMILES IDX 69 53 70 54 71 55 2 56 1 57 3 58 4 59 5 60 6 62 7 63 63 65
REMARK SMILES IDX 64 66 65 67 40 69 41 70 42 71 44 72 43 73 45 74 46 75 47 76
REMARK SMILES IDX 55 77 56 78 48 79 49 80 50 81 54 82 51 83 53 84 52 85
REMARK H PARENT 38 5 27 10 18 17 10 22 22 31 34 39 34 40 35 41 35 42 61 48
REMARK H PARENT 5 61 65 68
REMARK Flexibility Score:  369.900
ROOT
ATOM      1  C   UNL     1      -4.577  -1.876  10.361  1.00  0.00     0.117 C 
ENDROOT
BRANCH   1   2
ATOM      2  N   UNL     1      -5.970  -2.324  10.370  1.00  0.00    -0.347 N 
ATOM      3  O   UNL     1      -6.616  -1.298  12.320  1.00  0.00    -0.273 OA
ATOM      4  C   UNL     1      -6.906  -1.922  11.304  1.00  0.00     0.243 C 
ATOM      5  H   UNL     1      -6.302  -2.924   9.630  1.00  0.00     0.164 HD
BRANCH   4   6
ATOM      6  C   UNL     1      -8.329  -2.474  11.038  1.00  0.00     0.171 C 
BRANCH   6   7
ATOM      7  N   UNL     1      -9.257  -1.374  10.729  1.00  0.00    -0.344 N 
ATOM      8  C   UNL     1      -9.139  -0.664   9.554  1.00  0.00     0.226 C 
ATOM      9  O   UNL     1      -8.260  -0.891   8.731  1.00  0.00    -0.275 OA
ATOM     10  H   UNL     1      -9.955  -1.113  11.415  1.00  0.00     0.164 HD
BRANCH   8  11
ATOM     11  C   UNL     1     -10.204   0.401   9.356  1.00  0.00     0.109 C 
ATOM     12  C   UNL     1     -11.517  -0.042  10.002  1.00  0.00     0.021 C 
BRANCH  11  13
ATOM     13  C   UNL     1      -9.671   1.765   9.839  1.00  0.00     0.204 C 
BRANCH  13  14
ATOM     14  N   UNL     1     -10.001   2.847   8.905  1.00  0.00    -0.340 N 
ATOM     15  C   UNL     1      -9.052   3.697   8.380  1.00  0.00     0.243 C 
ATOM     16  O   UNL     1      -7.851   3.569   8.610  1.00  0.00    -0.273 OA
ATOM     17  H   UNL     1     -10.986   3.101   8.793  1.00  0.00     0.164 HD
BRANCH  15  18
ATOM     18  C   UNL     1      -9.654   4.883   7.588  1.00  0.00     0.171 C 
BRANCH  18  19
ATOM     19  N   UNL     1      -8.529   5.616   7.011  1.00  0.00    -0.343 N 
ATOM     20  C   UNL     1      -8.592   6.975   6.770  1.00  0.00     0.242 CG0
ATOM     21  O   UNL     1      -9.638   7.605   6.904  1.00  0.00    -0.273 OA
ATOM     22  H   UNL     1      -7.679   5.117   6.775  1.00  0.00     0.164 HD
ATOM     23  G   UNL     1      -7.281   7.587   6.233  1.00  0.00     0.000 G0
ENDBRANCH  18  19
BRANCH  18  24
ATOM     24  C   UNL     1     -10.613   4.379   6.502  1.00  0.00     0.038 C 
BRANCH  24  25
ATOM     25  C   UNL     1     -10.027   3.286   5.584  1.00  0.00    -0.015 C 
ATOM     26  C   UNL     1     -10.013   3.703   4.113  1.00  0.00     0.007 C 
ATOM     27  C   UNL     1     -10.833   1.993   5.744  1.00  0.00     0.007 C 
ENDBRANCH  24  25
ENDBRANCH  18  24
ENDBRANCH  15  18
ENDBRANCH  13  14
BRANCH  13  28
ATOM     28  C   UNL     1     -10.211   2.172  11.213  1.00  0.00     0.327 C 
ATOM     29  O   UNL     1     -10.839   3.187  11.472  1.00  0.00    -0.250 OA
BRANCH  28  30
ATOM     30  O   UNL     1      -9.826   1.337  12.200  1.00  0.00    -0.480 OA
ATOM     31  H   UNL     1      -9.627   1.931  12.954  1.00  0.00     0.296 HD
ENDBRANCH  28  30
ENDBRANCH  13  28
ENDBRANCH  11  13
ENDBRANCH   8  11
ENDBRANCH   6   7
BRANCH   6  32
ATOM     32  C   UNL     1      -8.271  -3.481   9.884  1.00  0.00     0.037 C 
BRANCH  32  33
ATOM     33  C   UNL     1      -8.465  -4.926  10.367  1.00  0.00     0.026 C 
BRANCH  33  34
ATOM     34  C   UNL     1      -7.772  -5.943   9.459  1.00  0.00     0.146 C 
BRANCH  34  35
ATOM     35  N   UNL     1      -7.548  -7.169  10.213  1.00  0.00    -0.254 NA
ATOM     36  C   UNL     1      -6.671  -8.000   9.789  1.00  0.00     0.185 C 
ATOM     37  N   UNL     1      -6.453  -9.131  10.478  1.00  0.00    -0.370 N 
ATOM     38  N   UNL     1      -5.885  -7.917   8.700  1.00  0.00    -0.370 N 
ATOM     39  H   UNL     1      -7.001  -9.262  11.319  1.00  0.00     0.159 HD
ATOM     40  H   UNL     1      -5.672  -9.742  10.312  1.00  0.00     0.159 HD
ATOM     41  H   UNL     1      -5.332  -8.701   8.396  1.00  0.00     0.159 HD
ATOM     42  H   UNL     1      -5.953  -7.126   8.079  1.00  0.00     0.159 HD
ENDBRANCH  34  35
ENDBRANCH  33  34
ENDBRANCH  32  33
ENDBRANCH   6  32
ENDBRANCH   4   6
ENDBRANCH   1   2
BRANCH   1  43
ATOM     43  C   UNL     1      -4.389  -0.868   9.191  1.00  0.00     0.102 C 
ATOM     44  C   UNL     1      -4.588  -1.498   7.802  1.00  0.00     0.020 C 
BRANCH  43  45
ATOM     45  C   UNL     1      -3.077  -0.092   9.340  1.00  0.00     0.225 C 
ATOM     46  O   UNL     1      -2.571   0.168  10.427  1.00  0.00    -0.275 OA
ATOM     47  N   UNL     1      -2.537   0.388   8.168  1.00  0.00    -0.342 N 
ATOM     48  H   UNL     1      -2.876   0.041   7.282  1.00  0.00     0.164 HD
BRANCH  47  49
ATOM     49  C   UNL     1      -1.265   1.117   8.153  1.00  0.00     0.192 C 
BRANCH  49  50
ATOM     50  C   UNL     1      -1.428   2.419   7.364  1.00  0.00     0.047 C 
BRANCH  50  51
ATOM     51  C   UNL     1      -2.063   3.534   8.205  1.00  0.00     0.103 C 
BRANCH  51  52
ATOM     52  C   UNL     1      -3.306   4.119   7.537  1.00  0.00     0.226 C 
ATOM     53  O   UNL     1      -3.708   3.645   6.473  1.00  0.00    -0.275 OA
BRANCH  52  54
ATOM     54  N   UNL     1      -3.973   5.141   8.239  1.00  0.00    -0.311 N 
ATOM     55  C   UNL     1      -4.678   4.858   9.497  1.00  0.00     0.153 C 
BRANCH  54  56
ATOM     56  C   UNL     1      -3.985   6.465   7.770  1.00  0.00     0.102 C 
ATOM     57  C   UNL     1      -3.164   7.438   8.195  1.00  0.00     0.043 C 
BRANCH  56  58
ATOM     58  C   UNL     1      -4.934   6.889   6.674  1.00  0.00     0.268 C 
ATOM     59  O   UNL     1      -4.626   6.903   5.490  1.00  0.00    -0.268 OA
ATOM     60  N   UNL     1      -6.192   7.194   7.137  1.00  0.00    -0.339 N 
ATOM     61  H   UNL     1      -6.363   7.169   8.135  1.00  0.00     0.164 HD
BRANCH  60  62
ATOM     62  C   UNL     1      -7.283   7.569   6.238  1.00  0.00     0.168 CG0
ATOM     63  C   UNL     1      -7.389   9.084   6.109  1.00  0.00     0.041 C 
ATOM     64  G   UNL     1      -8.607   6.970   6.755  1.00  0.00     0.000 G0
ENDBRANCH  60  62
ENDBRANCH  56  58
ENDBRANCH  54  56
ENDBRANCH  52  54
ENDBRANCH  51  52
ENDBRANCH  50  51
ENDBRANCH  49  50
BRANCH  49  65
ATOM     65  C   UNL     1      -0.139   0.280   7.528  1.00  0.00     0.326 C 
ATOM     66  O   UNL     1      -0.293  -0.729   6.855  1.00  0.00    -0.250 OA
BRANCH  65  67
ATOM     67  O   UNL     1       1.110   0.706   7.821  1.00  0.00    -0.480 OA
ATOM     68  H   UNL     1       0.992   1.213   8.653  1.00  0.00     0.296 HD
ENDBRANCH  65  67
ENDBRANCH  49  65
ENDBRANCH  47  49
ENDBRANCH  43  45
ENDBRANCH   1  43
BRANCH   1  69
ATOM     69  C   UNL     1      -3.728  -3.134  10.389  1.00  0.00    -0.001 C 
ATOM     70  C   UNL     1      -4.127  -4.395  10.150  1.00  0.00     0.001 C 
BRANCH  70  71
ATOM     71  C   UNL     1      -3.293  -5.599  10.159  1.00  0.00    -0.055 C 
ATOM     72  C   UNL     1      -2.281  -5.667   9.269  1.00  0.00    -0.018 C 
ATOM     73  C   UNL     1      -3.618  -6.671  11.167  1.00  0.00     0.044 C 
BRANCH  72  74
ATOM     74  C   UNL     1      -1.263  -6.778   9.052  1.00  0.00     0.038 C 
ATOM     75  C   UNL     1       0.129  -6.145   9.169  1.00  0.00     0.015 C 
BRANCH  74  76
ATOM     76  C   UNL     1      -1.555  -7.466   7.686  1.00  0.00     0.128 C 
BRANCH  76  77
ATOM     77  O   UNL     1      -2.087  -8.783   7.904  1.00  0.00    -0.381 OA
ATOM     78  C   UNL     1      -1.813  -9.303   9.198  1.00  0.00     0.195 C 
ENDBRANCH  76  77
BRANCH  76  79
ATOM     79  C   UNL     1      -2.428  -6.617   6.728  1.00  0.00     0.068 C 
BRANCH  79  80
ATOM     80  C   UNL     1      -1.760  -5.500   5.964  1.00  0.00    -0.045 A 
ATOM     81  C   UNL     1      -0.380  -5.517   5.720  1.00  0.00     0.004 A 
ATOM     82  C   UNL     1      -2.511  -4.405   5.510  1.00  0.00     0.004 A 
ATOM     83  C   UNL     1       0.233  -4.473   5.025  1.00  0.00     0.000 A 
ATOM     84  C   UNL     1      -1.896  -3.361   4.816  1.00  0.00     0.000 A 
ATOM     85  C   UNL     1      -0.525  -3.396   4.572  1.00  0.00     0.000 A 
ENDBRANCH  79  80
ENDBRANCH  76  79
ENDBRANCH  74  76
ENDBRANCH  72  74
ENDBRANCH  70  71
ENDBRANCH   1  69
TORSDOF 17
ENDMDL
