MODEL 1
REMARK VINA RESULT:    -5.874      0.000      0.000
REMARK INTER + INTRA:         -11.877
REMARK INTER:                  -9.995
REMARK INTRA:                  -1.882
REMARK UNBOUND:                -1.882
REMARK SMILES CC[C@H](C)[C@@H]1NC(=O)[C@H]2CSC(=N2)[C@@H]([C@@H](C)CC)NC(=O)c2csc(n2)CNC(=O)[C@H]2N=C1O[C@@H]2C
REMARK SMILES IDX 27 1 25 2 22 3 26 4 23 5 24 6 20 7 19 8 21 9 14 11 12 12
REMARK SMILES IDX 11 13 10 14 13 15 9 16 15 18 16 19 17 20 18 21 28 22 29 23
REMARK SMILES IDX 30 24 31 26 32 27 35 28 33 29 34 30 36 31 5 32 6 33 7 34
REMARK SMILES IDX 8 35 3 38 4 39 2 40 1 41
REMARK H PARENT 19 10 28 25 6 36
REMARK Flexibility Score:   91.900
ROOT
ATOM      1  C   UNL     1     -10.975   4.132  10.875  1.00  0.00     0.183 C 
ENDROOT
BRANCH   1   2
ATOM      2  C   UNL     1     -10.387   3.239   9.820  1.00  0.00     0.113 A 
ATOM      3  C   UNL     1      -9.212   2.620   8.030  1.00  0.00     0.139 A 
ATOM      4  N   UNL     1      -9.475   3.636   8.951  1.00  0.00    -0.234 NA
ATOM      5  C   UNL     1      -9.898   1.445   8.264  1.00  0.00     0.101 A 
ATOM      6  S   UNL     1     -10.909   1.614   9.641  1.00  0.00    -0.125 S 
BRANCH   3   7
ATOM      7  C   UNL     1      -8.304   2.866   6.908  1.00  0.00     0.271 C 
ATOM      8  N   UNL     1      -8.066   4.207   6.733  1.00  0.00    -0.341 N 
ATOM      9  O   UNL     1      -7.846   1.980   6.197  1.00  0.00    -0.267 OA
ATOM     10  H   UNL     1      -8.499   4.824   7.419  1.00  0.00     0.164 HD
BRANCH   8  11
ATOM     11  C   UNL     1      -7.359   4.770   5.595  1.00  0.00     0.140 C 
BRANCH  11  12
ATOM     12  C   UNL     1      -8.240   5.869   4.992  1.00  0.00     0.091 C 
ATOM     13  S   UNL     1      -7.519   7.291   4.275  1.00  0.00    -0.106 SA
ATOM     14  C   UNL     1      -9.113   7.759   3.570  1.00  0.00     0.113 C 
ATOM     15  N   UNL     1      -9.533   5.823   5.054  1.00  0.00    -0.267 NA
ATOM     16  C   UNL     1     -10.120   7.076   4.482  1.00  0.00     0.205 CG0
ATOM     17  G   UNL     1     -10.575   8.028   5.599  1.00  0.00     0.000 G0
ENDBRANCH  11  12
BRANCH  11  18
ATOM     18  C   UNL     1      -5.887   5.154   5.893  1.00  0.00     0.015 C 
ATOM     19  C   UNL     1      -5.597   5.034   7.395  1.00  0.00     0.010 C 
BRANCH  18  20
ATOM     20  C   UNL     1      -4.840   4.392   5.055  1.00  0.00     0.002 C 
ATOM     21  C   UNL     1      -5.466   3.423   4.059  1.00  0.00     0.004 C 
ENDBRANCH  18  20
ENDBRANCH  11  18
ENDBRANCH   8  11
ENDBRANCH   3   7
ENDBRANCH   1   2
BRANCH   1  22
ATOM     22  N   UNL     1     -12.004   4.927  10.244  1.00  0.00    -0.348 N 
ATOM     23  C   UNL     1     -12.903   5.711  10.914  1.00  0.00     0.249 C 
ATOM     24  O   UNL     1     -12.871   5.885  12.127  1.00  0.00    -0.272 OA
ATOM     25  H   UNL     1     -12.134   4.841   9.237  1.00  0.00     0.163 HD
BRANCH  23  26
ATOM     26  C   UNL     1     -13.912   6.394   9.978  1.00  0.00     0.238 C 
ATOM     27  N   UNL     1     -13.336   7.676   9.486  1.00  0.00    -0.236 NA
ATOM     28  C   UNL     1     -14.182   5.566   8.733  1.00  0.00     0.206 C 
ATOM     29  C   UNL     1     -13.121   7.442   8.226  1.00  0.00     0.208 C 
ATOM     30  O   UNL     1     -13.450   6.234   7.707  1.00  0.00    -0.474 OA
ATOM     31  C   UNL     1     -15.656   5.553   8.349  1.00  0.00     0.056 C 
BRANCH  29  32
ATOM     32  C   UNL     1     -12.464   8.393   7.229  1.00  0.00     0.171 C 
BRANCH  32  33
ATOM     33  N   UNL     1     -11.833   7.655   6.146  1.00  0.00    -0.342 N 
ATOM     34  C   UNL     1     -10.629   8.029   5.598  1.00  0.00     0.246 CG0
ATOM     35  O   UNL     1     -10.008   9.025   5.960  1.00  0.00    -0.273 OA
ATOM     36  H   UNL     1     -12.284   6.849   5.728  1.00  0.00     0.164 HD
ATOM     37  G   UNL     1     -10.105   7.082   4.506  1.00  0.00     0.000 G0
ENDBRANCH  32  33
BRANCH  32  38
ATOM     38  C   UNL     1     -13.492   9.437   6.717  1.00  0.00     0.017 C 
ATOM     39  C   UNL     1     -12.891  10.846   6.788  1.00  0.00     0.010 C 
BRANCH  38  40
ATOM     40  C   UNL     1     -14.023   9.115   5.301  1.00  0.00     0.002 C 
ATOM     41  C   UNL     1     -15.136  10.048   4.841  1.00  0.00     0.004 C 
ENDBRANCH  38  40
ENDBRANCH  32  38
ENDBRANCH  29  32
ENDBRANCH  23  26
ENDBRANCH   1  22
TORSDOF 4
ENDMDL
MODEL 2
REMARK VINA RESULT:    -5.839      3.033      7.556
REMARK INTER + INTRA:         -11.817
REMARK INTER:                 -10.368
REMARK INTRA:                  -1.448
REMARK UNBOUND:                -1.882
REMARK SMILES CC[C@H](C)[C@@H]1NC(=O)[C@H]2CSC(=N2)[C@@H]([C@@H](C)CC)NC(=O)c2csc(n2)CNC(=O)[C@H]2N=C1O[C@@H]2C
REMARK SMILES IDX 27 1 25 2 22 3 26 4 23 5 24 6 20 7 19 8 21 9 14 11 12 12
REMARK SMILES IDX 11 13 10 14 13 15 9 16 15 18 16 19 17 20 18 21 28 22 29 23
REMARK SMILES IDX 30 24 31 26 32 27 35 28 33 29 34 30 36 31 5 32 6 33 7 34
REMARK SMILES IDX 8 35 3 38 4 39 2 40 1 41
REMARK H PARENT 19 10 28 25 6 36
REMARK Flexibility Score:   91.900
ROOT
ATOM      1  C   UNL     1     -14.642  10.033   4.992  1.00  0.00     0.183 C 
ENDROOT
BRANCH   1   2
ATOM      2  C   UNL     1     -15.418   9.573   6.192  1.00  0.00     0.113 A 
ATOM      3  C   UNL     1     -16.086   8.264   7.868  1.00  0.00     0.139 A 
ATOM      4  N   UNL     1     -15.119   8.491   6.886  1.00  0.00    -0.234 NA
ATOM      5  C   UNL     1     -17.074   9.227   7.930  1.00  0.00     0.101 A 
ATOM      6  S   UNL     1     -16.810  10.424   6.728  1.00  0.00    -0.125 S 
BRANCH   3   7
ATOM      7  C   UNL     1     -16.018   7.060   8.699  1.00  0.00     0.271 C 
ATOM      8  N   UNL     1     -14.733   6.798   9.106  1.00  0.00    -0.341 N 
ATOM      9  O   UNL     1     -16.988   6.362   8.965  1.00  0.00    -0.267 OA
ATOM     10  H   UNL     1     -14.033   7.484   8.825  1.00  0.00     0.164 HD
BRANCH   8  11
ATOM     11  C   UNL     1     -14.322   5.578   9.781  1.00  0.00     0.140 C 
BRANCH  11  12
ATOM     12  C   UNL     1     -13.546   4.722   8.776  1.00  0.00     0.091 C 
ATOM     13  S   UNL     1     -12.582   3.370   9.319  1.00  0.00    -0.106 SA
ATOM     14  C   UNL     1     -12.395   2.802   7.616  1.00  0.00     0.113 C 
ATOM     15  N   UNL     1     -13.515   5.007   7.512  1.00  0.00    -0.267 NA
ATOM     16  C   UNL     1     -12.597   4.066   6.796  1.00  0.00     0.205 CG0
ATOM     17  G   UNL     1     -11.248   4.740   6.494  1.00  0.00     0.000 G0
ENDBRANCH  11  12
BRANCH  11  18
ATOM     18  C   UNL     1     -13.641   5.816  11.154  1.00  0.00     0.015 C 
ATOM     19  C   UNL     1     -13.355   7.310  11.357  1.00  0.00     0.010 C 
BRANCH  18  20
ATOM     20  C   UNL     1     -14.394   5.217  12.359  1.00  0.00     0.002 C 
ATOM     21  C   UNL     1     -15.896   5.475  12.311  1.00  0.00     0.004 C 
ENDBRANCH  18  20
ENDBRANCH  11  18
ENDBRANCH   8  11
ENDBRANCH   3   7
ENDBRANCH   1   2
BRANCH   1  22
ATOM     22  N   UNL     1     -13.238   9.858   5.291  1.00  0.00    -0.348 N 
ATOM     23  C   UNL     1     -12.571  10.496   6.301  1.00  0.00     0.249 C 
ATOM     24  O   UNL     1     -13.123  11.225   7.116  1.00  0.00    -0.272 OA
ATOM     25  H   UNL     1     -12.676   9.287   4.660  1.00  0.00     0.163 HD
BRANCH  23  26
ATOM     26  C   UNL     1     -11.074  10.150   6.337  1.00  0.00     0.238 C 
ATOM     27  N   UNL     1     -10.911   8.713   6.693  1.00  0.00    -0.236 NA
ATOM     28  C   UNL     1     -10.421  10.308   4.975  1.00  0.00     0.206 C 
ATOM     29  C   UNL     1     -10.470   8.182   5.591  1.00  0.00     0.208 C 
ATOM     30  O   UNL     1     -10.265   8.970   4.507  1.00  0.00    -0.474 OA
ATOM     31  C   UNL     1      -9.046  10.957   5.058  1.00  0.00     0.056 C 
BRANCH  29  32
ATOM     32  C   UNL     1     -10.191   6.701   5.350  1.00  0.00     0.171 C 
BRANCH  32  33
ATOM     33  N   UNL     1     -11.343   5.890   5.709  1.00  0.00    -0.342 N 
ATOM     34  C   UNL     1     -11.240   4.753   6.475  1.00  0.00     0.246 CG0
ATOM     35  O   UNL     1     -10.168   4.322   6.892  1.00  0.00    -0.273 OA
ATOM     36  H   UNL     1     -12.272   6.119   5.370  1.00  0.00     0.164 HD
ATOM     37  G   UNL     1     -12.582   4.074   6.791  1.00  0.00     0.000 G0
ENDBRANCH  32  33
BRANCH  32  38
ATOM     38  C   UNL     1      -9.732   6.467   3.886  1.00  0.00     0.017 C 
ATOM     39  C   UNL     1      -8.655   5.376   3.840  1.00  0.00     0.010 C 
BRANCH  38  40
ATOM     40  C   UNL     1     -10.905   6.150   2.930  1.00  0.00     0.002 C 
ATOM     41  C   UNL     1     -10.458   5.675   1.554  1.00  0.00     0.004 C 
ENDBRANCH  38  40
ENDBRANCH  32  38
ENDBRANCH  29  32
ENDBRANCH  23  26
ENDBRANCH   1  22
TORSDOF 4
ENDMDL
MODEL 3
REMARK VINA RESULT:    -5.462      2.369      4.376
REMARK INTER + INTRA:         -11.176
REMARK INTER:                  -9.588
REMARK INTRA:                  -1.588
REMARK UNBOUND:                -1.882
REMARK SMILES CC[C@H](C)[C@@H]1NC(=O)[C@H]2CSC(=N2)[C@@H]([C@@H](C)CC)NC(=O)c2csc(n2)CNC(=O)[C@H]2N=C1O[C@@H]2C
REMARK SMILES IDX 27 1 25 2 22 3 26 4 23 5 24 6 20 7 19 8 21 9 14 11 12 12
REMARK SMILES IDX 11 13 10 14 13 15 9 16 15 18 16 19 17 20 18 21 28 22 29 23
REMARK SMILES IDX 30 24 31 26 32 27 35 28 33 29 34 30 36 31 5 32 6 33 7 34
REMARK SMILES IDX 8 35 3 38 4 39 2 40 1 41
REMARK H PARENT 19 10 28 25 6 36
REMARK Flexibility Score:   91.900
ROOT
ATOM      1  C   UNL     1     -13.987   6.447  10.707  1.00  0.00     0.183 C 
ENDROOT
BRANCH   1   2
ATOM      2  C   UNL     1     -12.982   5.331  10.704  1.00  0.00     0.113 A 
ATOM      3  C   UNL     1     -11.909   3.492  10.044  1.00  0.00     0.139 A 
ATOM      4  N   UNL     1     -12.838   4.478   9.706  1.00  0.00    -0.234 NA
ATOM      5  C   UNL     1     -11.323   3.659  11.283  1.00  0.00     0.101 A 
ATOM      6  S   UNL     1     -11.957   5.056  12.054  1.00  0.00    -0.125 S 
BRANCH   3   7
ATOM      7  C   UNL     1     -11.658   2.377   9.129  1.00  0.00     0.271 C 
ATOM      8  N   UNL     1     -10.359   2.368   8.686  1.00  0.00    -0.341 N 
ATOM      9  O   UNL     1     -12.517   1.576   8.780  1.00  0.00    -0.267 OA
ATOM     10  H   UNL     1      -9.753   3.086   9.083  1.00  0.00     0.164 HD
BRANCH   8  11
ATOM     11  C   UNL     1      -9.860   1.501   7.631  1.00  0.00     0.140 C 
BRANCH  11  12
ATOM     12  C   UNL     1      -9.562   2.372   6.408  1.00  0.00     0.091 C 
ATOM     13  S   UNL     1      -7.978   2.352   5.668  1.00  0.00    -0.106 SA
ATOM     14  C   UNL     1      -8.617   3.264   4.247  1.00  0.00     0.113 C 
ATOM     15  N   UNL     1     -10.434   3.201   5.926  1.00  0.00    -0.267 NA
ATOM     16  C   UNL     1      -9.831   3.989   4.806  1.00  0.00     0.205 CG0
ATOM     17  G   UNL     1      -9.451   5.404   5.274  1.00  0.00     0.000 G0
ENDBRANCH  11  12
BRANCH  11  18
ATOM     18  C   UNL     1      -8.730   0.541   8.086  1.00  0.00     0.015 C 
ATOM     19  C   UNL     1      -8.224   0.933   9.480  1.00  0.00     0.010 C 
BRANCH  18  20
ATOM     20  C   UNL     1      -9.090  -0.957   8.017  1.00  0.00     0.002 C 
ATOM     21  C   UNL     1     -10.496  -1.255   8.528  1.00  0.00     0.004 C 
ENDBRANCH  18  20
ENDBRANCH  11  18
ENDBRANCH   8  11
ENDBRANCH   3   7
ENDBRANCH   1   2
BRANCH   1  22
ATOM     22  N   UNL     1     -13.506   7.465   9.800  1.00  0.00    -0.348 N 
ATOM     23  C   UNL     1     -13.847   7.555   8.477  1.00  0.00     0.249 C 
ATOM     24  O   UNL     1     -14.671   6.821   7.944  1.00  0.00    -0.272 OA
ATOM     25  H   UNL     1     -12.796   8.116  10.134  1.00  0.00     0.163 HD
BRANCH  23  26
ATOM     26  C   UNL     1     -13.133   8.708   7.756  1.00  0.00     0.238 C 
ATOM     27  N   UNL     1     -11.695   8.362   7.578  1.00  0.00    -0.236 NA
ATOM     28  C   UNL     1     -13.676   8.924   6.354  1.00  0.00     0.206 C 
ATOM     29  C   UNL     1     -11.587   8.189   6.295  1.00  0.00     0.208 C 
ATOM     30  O   UNL     1     -12.675   8.363   5.505  1.00  0.00    -0.474 OA
ATOM     31  C   UNL     1     -13.834  10.399   6.009  1.00  0.00     0.056 C 
BRANCH  29  32
ATOM     32  C   UNL     1     -10.336   7.743   5.544  1.00  0.00     0.171 C 
BRANCH  32  33
ATOM     33  N   UNL     1     -10.464   6.367   5.091  1.00  0.00    -0.342 N 
ATOM     34  C   UNL     1      -9.487   5.423   5.301  1.00  0.00     0.246 CG0
ATOM     35  O   UNL     1      -8.423   5.674   5.862  1.00  0.00    -0.273 OA
ATOM     36  H   UNL     1     -11.276   6.062   4.565  1.00  0.00     0.164 HD
ATOM     37  G   UNL     1      -9.842   4.015   4.797  1.00  0.00     0.000 G0
ENDBRANCH  32  33
BRANCH  32  38
ATOM     38  C   UNL     1     -10.020   8.724   4.384  1.00  0.00     0.017 C 
ATOM     39  C   UNL     1      -9.671  10.108   4.945  1.00  0.00     0.010 C 
BRANCH  38  40
ATOM     40  C   UNL     1      -8.918   8.200   3.435  1.00  0.00     0.002 C 
ATOM     41  C   UNL     1      -7.805   9.208   3.178  1.00  0.00     0.004 C 
ENDBRANCH  38  40
ENDBRANCH  32  38
ENDBRANCH  29  32
ENDBRANCH  23  26
ENDBRANCH   1  22
TORSDOF 4
ENDMDL
MODEL 4
REMARK VINA RESULT:    -5.296      2.168      5.778
REMARK INTER + INTRA:         -10.893
REMARK INTER:                  -9.082
REMARK INTRA:                  -1.812
REMARK UNBOUND:                -1.882
REMARK SMILES CC[C@H](C)[C@@H]1NC(=O)[C@H]2CSC(=N2)[C@@H]([C@@H](C)CC)NC(=O)c2csc(n2)CNC(=O)[C@H]2N=C1O[C@@H]2C
REMARK SMILES IDX 27 1 25 2 22 3 26 4 23 5 24 6 20 7 19 8 21 9 14 11 12 12
REMARK SMILES IDX 11 13 10 14 13 15 9 16 15 18 16 19 17 20 18 21 28 22 29 23
REMARK SMILES IDX 30 24 31 26 32 27 35 28 33 29 34 30 36 31 5 32 6 33 7 34
REMARK SMILES IDX 8 35 3 38 4 39 2 40 1 41
REMARK H PARENT 19 10 28 25 6 36
REMARK Flexibility Score:   91.900
ROOT
ATOM      1  C   UNL     1      -7.752   4.155   3.316  1.00  0.00     0.183 C 
ENDROOT
BRANCH   1   2
ATOM      2  C   UNL     1      -7.265   3.706   4.664  1.00  0.00     0.113 A 
ATOM      3  C   UNL     1      -7.287   2.751   6.677  1.00  0.00     0.139 A 
ATOM      4  N   UNL     1      -7.941   2.890   5.451  1.00  0.00    -0.234 NA
ATOM      5  C   UNL     1      -6.087   3.429   6.765  1.00  0.00     0.101 A 
ATOM      6  S   UNL     1      -5.778   4.276   5.305  1.00  0.00    -0.125 S 
BRANCH   3   7
ATOM      7  C   UNL     1      -7.903   1.968   7.751  1.00  0.00     0.271 C 
ATOM      8  N   UNL     1      -9.270   2.095   7.749  1.00  0.00    -0.341 N 
ATOM      9  O   UNL     1      -7.266   1.314   8.567  1.00  0.00    -0.267 OA
ATOM     10  H   UNL     1      -9.660   2.656   6.993  1.00  0.00     0.164 HD
BRANCH   8  11
ATOM     11  C   UNL     1     -10.139   1.591   8.801  1.00  0.00     0.140 C 
BRANCH  11  12
ATOM     12  C   UNL     1     -11.083   2.724   9.213  1.00  0.00     0.091 C 
ATOM     13  S   UNL     1     -12.701   2.371   9.772  1.00  0.00    -0.106 SA
ATOM     14  C   UNL     1     -12.892   4.076  10.335  1.00  0.00     0.113 C 
ATOM     15  N   UNL     1     -10.751   3.971   9.095  1.00  0.00    -0.267 NA
ATOM     16  C   UNL     1     -11.905   4.847   9.472  1.00  0.00     0.205 CG0
ATOM     17  G   UNL     1     -12.600   5.407   8.220  1.00  0.00     0.000 G0
ENDBRANCH  11  12
BRANCH  11  18
ATOM     18  C   UNL     1     -10.800   0.228   8.472  1.00  0.00     0.015 C 
ATOM     19  C   UNL     1     -11.079   0.117   6.968  1.00  0.00     0.010 C 
BRANCH  18  20
ATOM     20  C   UNL     1     -10.032  -1.004   8.995  1.00  0.00     0.002 C 
ATOM     21  C   UNL     1      -9.201  -1.689   7.916  1.00  0.00     0.004 C 
ENDBRANCH  18  20
ENDBRANCH  11  18
ENDBRANCH   8  11
ENDBRANCH   3   7
ENDBRANCH   1   2
BRANCH   1  22
ATOM     22  N   UNL     1      -8.537   5.353   3.517  1.00  0.00    -0.348 N 
ATOM     23  C   UNL     1      -9.901   5.417   3.422  1.00  0.00     0.249 C 
ATOM     24  O   UNL     1     -10.608   4.433   3.237  1.00  0.00    -0.272 OA
ATOM     25  H   UNL     1      -8.047   6.236   3.655  1.00  0.00     0.163 HD
BRANCH  23  26
ATOM     26  C   UNL     1     -10.446   6.837   3.632  1.00  0.00     0.238 C 
ATOM     27  N   UNL     1     -11.788   6.758   4.274  1.00  0.00    -0.236 NA
ATOM     28  C   UNL     1      -9.584   7.642   4.589  1.00  0.00     0.206 C 
ATOM     29  C   UNL     1     -11.575   7.229   5.467  1.00  0.00     0.208 C 
ATOM     30  O   UNL     1     -10.332   7.653   5.804  1.00  0.00    -0.474 OA
ATOM     31  C   UNL     1      -9.384   9.079   4.129  1.00  0.00     0.056 C 
BRANCH  29  32
ATOM     32  C   UNL     1     -12.595   7.318   6.599  1.00  0.00     0.171 C 
BRANCH  32  33
ATOM     33  N   UNL     1     -12.108   6.640   7.790  1.00  0.00    -0.342 N 
ATOM     34  C   UNL     1     -12.608   5.431   8.211  1.00  0.00     0.246 CG0
ATOM     35  O   UNL     1     -13.518   4.843   7.631  1.00  0.00    -0.273 OA
ATOM     36  H   UNL     1     -11.398   7.061   8.380  1.00  0.00     0.164 HD
ATOM     37  G   UNL     1     -11.918   4.855   9.458  1.00  0.00     0.000 G0
ENDBRANCH  32  33
BRANCH  32  38
ATOM     38  C   UNL     1     -12.976   8.797   6.871  1.00  0.00     0.017 C 
ATOM     39  C   UNL     1     -11.899   9.469   7.731  1.00  0.00     0.010 C 
BRANCH  38  40
ATOM     40  C   UNL     1     -13.251   9.596   5.576  1.00  0.00     0.002 C 
ATOM     41  C   UNL     1     -13.127  11.104   5.753  1.00  0.00     0.004 C 
ENDBRANCH  38  40
ENDBRANCH  32  38
ENDBRANCH  29  32
ENDBRANCH  23  26
ENDBRANCH   1  22
TORSDOF 4
ENDMDL
MODEL 5
REMARK VINA RESULT:    -5.295      3.266      4.346
REMARK INTER + INTRA:         -10.892
REMARK INTER:                  -8.969
REMARK INTRA:                  -1.923
REMARK UNBOUND:                -1.882
REMARK SMILES CC[C@H](C)[C@@H]1NC(=O)[C@H]2CSC(=N2)[C@@H]([C@@H](C)CC)NC(=O)c2csc(n2)CNC(=O)[C@H]2N=C1O[C@@H]2C
REMARK SMILES IDX 27 1 25 2 22 3 26 4 23 5 24 6 20 7 19 8 21 9 14 11 12 12
REMARK SMILES IDX 11 13 10 14 13 15 9 16 15 18 16 19 17 20 18 21 28 22 29 23
REMARK SMILES IDX 30 24 31 26 32 27 35 28 33 29 34 30 36 31 5 32 6 33 7 34
REMARK SMILES IDX 8 35 3 38 4 39 2 40 1 41
REMARK H PARENT 19 10 28 25 6 36
REMARK Flexibility Score:   91.900
ROOT
ATOM      1  C   UNL     1     -12.156  -1.002   9.660  1.00  0.00     0.183 C 
ENDROOT
BRANCH   1   2
ATOM      2  C   UNL     1     -11.002  -0.598   8.788  1.00  0.00     0.113 A 
ATOM      3  C   UNL     1      -9.884   0.402   7.140  1.00  0.00     0.139 A 
ATOM      4  N   UNL     1     -11.081   0.333   7.855  1.00  0.00    -0.234 NA
ATOM      5  C   UNL     1      -8.897  -0.450   7.593  1.00  0.00     0.101 A 
ATOM      6  S   UNL     1      -9.476  -1.373   8.920  1.00  0.00    -0.125 S 
BRANCH   3   7
ATOM      7  C   UNL     1      -9.770   1.298   5.986  1.00  0.00     0.271 C 
ATOM      8  N   UNL     1      -9.329   2.544   6.356  1.00  0.00    -0.341 N 
ATOM      9  O   UNL     1     -10.067   0.975   4.843  1.00  0.00    -0.267 OA
ATOM     10  H   UNL     1      -9.099   2.656   7.342  1.00  0.00     0.164 HD
BRANCH   8  11
ATOM     11  C   UNL     1      -9.294   3.695   5.468  1.00  0.00     0.140 C 
BRANCH  11  12
ATOM     12  C   UNL     1     -10.251   4.751   6.030  1.00  0.00     0.091 C 
ATOM     13  S   UNL     1      -9.635   6.119   6.927  1.00  0.00    -0.106 SA
ATOM     14  C   UNL     1     -11.252   6.917   6.846  1.00  0.00     0.113 C 
ATOM     15  N   UNL     1     -11.538   4.635   5.929  1.00  0.00    -0.267 NA
ATOM     16  C   UNL     1     -12.213   5.753   6.660  1.00  0.00     0.205 CG0
ATOM     17  G   UNL     1     -12.755   5.273   8.016  1.00  0.00     0.000 G0
ENDBRANCH  11  12
BRANCH  11  18
ATOM     18  C   UNL     1      -7.863   4.178   5.118  1.00  0.00     0.015 C 
ATOM     19  C   UNL     1      -6.839   3.552   6.073  1.00  0.00     0.010 C 
BRANCH  18  20
ATOM     20  C   UNL     1      -7.457   3.975   3.644  1.00  0.00     0.002 C 
ATOM     21  C   UNL     1      -8.545   3.302   2.814  1.00  0.00     0.004 C 
ENDBRANCH  18  20
ENDBRANCH  11  18
ENDBRANCH   8  11
ENDBRANCH   3   7
ENDBRANCH   1   2
BRANCH   1  22
ATOM     22  N   UNL     1     -13.299  -0.212   9.258  1.00  0.00    -0.348 N 
ATOM     23  C   UNL     1     -14.483  -0.151   9.941  1.00  0.00     0.249 C 
ATOM     24  O   UNL     1     -14.666  -0.702  11.021  1.00  0.00    -0.272 OA
ATOM     25  H   UNL     1     -13.264   0.270   8.361  1.00  0.00     0.163 HD
BRANCH  23  26
ATOM     26  C   UNL     1     -15.531   0.727   9.240  1.00  0.00     0.238 C 
ATOM     27  N   UNL     1     -15.570   2.063   9.897  1.00  0.00    -0.236 NA
ATOM     28  C   UNL     1     -15.167   0.997   7.790  1.00  0.00     0.206 C 
ATOM     29  C   UNL     1     -15.070   2.853   8.994  1.00  0.00     0.208 C 
ATOM     30  O   UNL     1     -14.692   2.342   7.797  1.00  0.00    -0.474 OA
ATOM     31  C   UNL     1     -16.371   0.911   6.860  1.00  0.00     0.056 C 
BRANCH  29  32
ATOM     32  C   UNL     1     -14.800   4.347   9.149  1.00  0.00     0.171 C 
BRANCH  32  33
ATOM     33  N   UNL     1     -14.104   4.873   7.985  1.00  0.00    -0.342 N 
ATOM     34  C   UNL     1     -12.792   5.279   8.028  1.00  0.00     0.246 CG0
ATOM     35  O   UNL     1     -12.116   5.255   9.053  1.00  0.00    -0.273 OA
ATOM     36  H   UNL     1     -14.581   4.993   7.098  1.00  0.00     0.164 HD
ATOM     37  G   UNL     1     -12.225   5.747   6.677  1.00  0.00     0.000 G0
ENDBRANCH  32  33
BRANCH  32  38
ATOM     38  C   UNL     1     -16.119   5.109   9.447  1.00  0.00     0.017 C 
ATOM     39  C   UNL     1     -16.040   5.778  10.825  1.00  0.00     0.010 C 
BRANCH  38  40
ATOM     40  C   UNL     1     -16.491   6.124   8.342  1.00  0.00     0.002 C 
ATOM     41  C   UNL     1     -17.004   7.452   8.883  1.00  0.00     0.004 C 
ENDBRANCH  38  40
ENDBRANCH  32  38
ENDBRANCH  29  32
ENDBRANCH  23  26
ENDBRANCH   1  22
TORSDOF 4
ENDMDL
MODEL 6
REMARK VINA RESULT:    -5.244      2.350      6.622
REMARK INTER + INTRA:         -10.804
REMARK INTER:                  -9.262
REMARK INTRA:                  -1.542
REMARK UNBOUND:                -1.882
REMARK SMILES CC[C@H](C)[C@@H]1NC(=O)[C@H]2CSC(=N2)[C@@H]([C@@H](C)CC)NC(=O)c2csc(n2)CNC(=O)[C@H]2N=C1O[C@@H]2C
REMARK SMILES IDX 27 1 25 2 22 3 26 4 23 5 24 6 20 7 19 8 21 9 14 11 12 12
REMARK SMILES IDX 11 13 10 14 13 15 9 16 15 18 16 19 17 20 18 21 28 22 29 23
REMARK SMILES IDX 30 24 31 26 32 27 35 28 33 29 34 30 36 31 5 32 6 33 7 34
REMARK SMILES IDX 8 35 3 38 4 39 2 40 1 41
REMARK H PARENT 19 10 28 25 6 36
REMARK Flexibility Score:   91.900
ROOT
ATOM      1  C   UNL     1      -9.751   2.699   5.807  1.00  0.00     0.183 C 
ENDROOT
BRANCH   1   2
ATOM      2  C   UNL     1     -10.055   3.067   7.231  1.00  0.00     0.113 A 
ATOM      3  C   UNL     1     -11.007   4.105   8.959  1.00  0.00     0.139 A 
ATOM      4  N   UNL     1     -11.051   3.859   7.585  1.00  0.00    -0.234 NA
ATOM      5  C   UNL     1      -9.999   3.437   9.627  1.00  0.00     0.101 A 
ATOM      6  S   UNL     1      -9.073   2.505   8.522  1.00  0.00    -0.125 S 
BRANCH   3   7
ATOM      7  C   UNL     1     -11.956   5.039   9.567  1.00  0.00     0.271 C 
ATOM      8  N   UNL     1     -12.812   5.570   8.634  1.00  0.00    -0.341 N 
ATOM      9  O   UNL     1     -11.957   5.330  10.756  1.00  0.00    -0.267 OA
ATOM     10  H   UNL     1     -12.706   5.212   7.685  1.00  0.00     0.164 HD
BRANCH   8  11
ATOM     11  C   UNL     1     -13.738   6.659   8.899  1.00  0.00     0.140 C 
BRANCH  11  12
ATOM     12  C   UNL     1     -13.300   7.863   8.060  1.00  0.00     0.091 C 
ATOM     13  S   UNL     1     -14.469   8.767   7.128  1.00  0.00    -0.106 SA
ATOM     14  C   UNL     1     -13.250  10.066   6.834  1.00  0.00     0.113 C 
ATOM     15  N   UNL     1     -12.055   8.207   7.951  1.00  0.00    -0.267 NA
ATOM     16  C   UNL     1     -11.920   9.345   6.988  1.00  0.00     0.205 CG0
ATOM     17  G   UNL     1     -11.408   8.851   5.625  1.00  0.00     0.000 G0
ENDBRANCH  11  12
BRANCH  11  18
ATOM     18  C   UNL     1     -15.231   6.255   8.799  1.00  0.00     0.015 C 
ATOM     19  C   UNL     1     -15.370   4.879   8.136  1.00  0.00     0.010 C 
BRANCH  18  20
ATOM     20  C   UNL     1     -16.007   6.321  10.130  1.00  0.00     0.002 C 
ATOM     21  C   UNL     1     -15.130   6.721  11.311  1.00  0.00     0.004 C 
ENDBRANCH  18  20
ENDBRANCH  11  18
ENDBRANCH   8  11
ENDBRANCH   3   7
ENDBRANCH   1   2
BRANCH   1  22
ATOM     22  N   UNL     1      -9.026   3.804   5.219  1.00  0.00    -0.348 N 
ATOM     23  C   UNL     1      -9.467   4.550   4.160  1.00  0.00     0.249 C 
ATOM     24  O   UNL     1     -10.573   4.406   3.651  1.00  0.00    -0.272 OA
ATOM     25  H   UNL     1      -8.083   3.997   5.553  1.00  0.00     0.163 HD
BRANCH  23  26
ATOM     26  C   UNL     1      -8.455   5.619   3.722  1.00  0.00     0.238 C 
ATOM     27  N   UNL     1      -9.183   6.758   3.097  1.00  0.00    -0.236 NA
ATOM     28  C   UNL     1      -7.709   6.213   4.905  1.00  0.00     0.206 C 
ATOM     29  C   UNL     1      -9.031   7.718   3.959  1.00  0.00     0.208 C 
ATOM     30  O   UNL     1      -8.312   7.494   5.087  1.00  0.00    -0.474 OA
ATOM     31  C   UNL     1      -6.226   6.411   4.620  1.00  0.00     0.056 C 
BRANCH  29  32
ATOM     32  C   UNL     1      -9.636   9.116   3.872  1.00  0.00     0.171 C 
BRANCH  32  33
ATOM     33  N   UNL     1     -10.278   9.484   5.125  1.00  0.00    -0.342 N 
ATOM     34  C   UNL     1     -11.404   8.852   5.594  1.00  0.00     0.246 CG0
ATOM     35  O   UNL     1     -11.970   7.949   4.982  1.00  0.00    -0.273 OA
ATOM     36  H   UNL     1      -9.931  10.255   5.685  1.00  0.00     0.164 HD
ATOM     37  G   UNL     1     -11.890   9.350   6.965  1.00  0.00     0.000 G0
ENDBRANCH  32  33
BRANCH  32  38
ATOM     38  C   UNL     1      -8.563  10.146   3.429  1.00  0.00     0.017 C 
ATOM     39  C   UNL     1      -8.126  10.999   4.626  1.00  0.00     0.010 C 
BRANCH  38  40
ATOM     40  C   UNL     1      -7.353   9.489   2.725  1.00  0.00     0.002 C 
ATOM     41  C   UNL     1      -6.296  10.488   2.273  1.00  0.00     0.004 C 
ENDBRANCH  38  40
ENDBRANCH  32  38
ENDBRANCH  29  32
ENDBRANCH  23  26
ENDBRANCH   1  22
TORSDOF 4
ENDMDL
MODEL 7
REMARK VINA RESULT:    -5.051      1.950      2.564
REMARK INTER + INTRA:         -10.475
REMARK INTER:                  -9.259
REMARK INTRA:                  -1.217
REMARK UNBOUND:                -1.882
REMARK SMILES CC[C@H](C)[C@@H]1NC(=O)[C@H]2CSC(=N2)[C@@H]([C@@H](C)CC)NC(=O)c2csc(n2)CNC(=O)[C@H]2N=C1O[C@@H]2C
REMARK SMILES IDX 27 1 25 2 22 3 26 4 23 5 24 6 20 7 19 8 21 9 14 11 12 12
REMARK SMILES IDX 11 13 10 14 13 15 9 16 15 18 16 19 17 20 18 21 28 22 29 23
REMARK SMILES IDX 30 24 31 26 32 27 35 28 33 29 34 30 36 31 5 32 6 33 7 34
REMARK SMILES IDX 8 35 3 38 4 39 2 40 1 41
REMARK H PARENT 19 10 28 25 6 36
REMARK Flexibility Score:   91.900
ROOT
ATOM      1  C   UNL     1     -11.032   0.436   7.902  1.00  0.00     0.183 C 
ENDROOT
BRANCH   1   2
ATOM      2  C   UNL     1      -9.662   0.949   7.561  1.00  0.00     0.113 A 
ATOM      3  C   UNL     1      -7.991   1.785   6.347  1.00  0.00     0.139 A 
ATOM      4  N   UNL     1      -9.361   1.522   6.411  1.00  0.00    -0.234 NA
ATOM      5  C   UNL     1      -7.291   1.452   7.489  1.00  0.00     0.101 A 
ATOM      6  S   UNL     1      -8.352   0.776   8.657  1.00  0.00    -0.125 S 
BRANCH   3   7
ATOM      7  C   UNL     1      -7.407   2.331   5.120  1.00  0.00     0.271 C 
ATOM      8  N   UNL     1      -7.196   3.685   5.219  1.00  0.00    -0.341 N 
ATOM      9  O   UNL     1      -7.170   1.662   4.122  1.00  0.00    -0.267 OA
ATOM     10  H   UNL     1      -7.420   4.101   6.122  1.00  0.00     0.164 HD
BRANCH   8  11
ATOM     11  C   UNL     1      -6.804   4.534   4.106  1.00  0.00     0.140 C 
BRANCH  11  12
ATOM     12  C   UNL     1      -7.862   5.631   3.956  1.00  0.00     0.091 C 
ATOM     13  S   UNL     1      -7.387   7.299   3.738  1.00  0.00    -0.106 SA
ATOM     14  C   UNL     1      -9.084   7.739   3.308  1.00  0.00     0.113 C 
ATOM     15  N   UNL     1      -9.129   5.380   4.058  1.00  0.00    -0.267 NA
ATOM     16  C   UNL     1      -9.913   6.653   3.976  1.00  0.00     0.205 CG0
ATOM     17  G   UNL     1     -10.376   7.103   5.372  1.00  0.00     0.000 G0
ENDBRANCH  11  12
BRANCH  11  18
ATOM     18  C   UNL     1      -5.327   5.004   4.162  1.00  0.00     0.015 C 
ATOM     19  C   UNL     1      -4.686   4.595   5.495  1.00  0.00     0.010 C 
BRANCH  18  20
ATOM     20  C   UNL     1      -4.464   4.563   2.963  1.00  0.00     0.002 C 
ATOM     21  C   UNL     1      -3.718   5.720   2.309  1.00  0.00     0.004 C 
ENDBRANCH  18  20
ENDBRANCH  11  18
ENDBRANCH   8  11
ENDBRANCH   3   7
ENDBRANCH   1   2
BRANCH   1  22
ATOM     22  N   UNL     1     -11.899   1.584   8.049  1.00  0.00    -0.348 N 
ATOM     23  C   UNL     1     -11.958   2.379   9.162  1.00  0.00     0.249 C 
ATOM     24  O   UNL     1     -11.211   2.245  10.124  1.00  0.00    -0.272 OA
ATOM     25  H   UNL     1     -12.579   1.775   7.315  1.00  0.00     0.163 HD
BRANCH  23  26
ATOM     26  C   UNL     1     -13.014   3.488   9.046  1.00  0.00     0.238 C 
ATOM     27  N   UNL     1     -12.336   4.814   9.049  1.00  0.00    -0.236 NA
ATOM     28  C   UNL     1     -13.768   3.420   7.728  1.00  0.00     0.206 C 
ATOM     29  C   UNL     1     -12.514   5.243   7.835  1.00  0.00     0.208 C 
ATOM     30  O   UNL     1     -13.211   4.482   6.955  1.00  0.00    -0.474 OA
ATOM     31  C   UNL     1     -15.260   3.672   7.895  1.00  0.00     0.056 C 
BRANCH  29  32
ATOM     32  C   UNL     1     -11.962   6.536   7.242  1.00  0.00     0.171 C 
BRANCH  32  33
ATOM     33  N   UNL     1     -11.401   6.304   5.921  1.00  0.00    -0.342 N 
ATOM     34  C   UNL     1     -10.411   7.094   5.387  1.00  0.00     0.246 CG0
ATOM     35  O   UNL     1      -9.943   8.068   5.970  1.00  0.00    -0.273 OA
ATOM     36  H   UNL     1     -11.753   5.562   5.325  1.00  0.00     0.164 HD
ATOM     37  G   UNL     1      -9.915   6.645   4.003  1.00  0.00     0.000 G0
ENDBRANCH  32  33
BRANCH  32  38
ATOM     38  C   UNL     1     -13.052   7.641   7.240  1.00  0.00     0.017 C 
ATOM     39  C   UNL     1     -14.380   7.071   7.753  1.00  0.00     0.010 C 
BRANCH  38  40
ATOM     40  C   UNL     1     -12.632   8.903   8.027  1.00  0.00     0.002 C 
ATOM     41  C   UNL     1     -12.254  10.079   7.136  1.00  0.00     0.004 C 
ENDBRANCH  38  40
ENDBRANCH  32  38
ENDBRANCH  29  32
ENDBRANCH  23  26
ENDBRANCH   1  22
TORSDOF 4
ENDMDL
MODEL 8
REMARK VINA RESULT:    -4.991      2.635      4.497
REMARK INTER + INTRA:         -10.373
REMARK INTER:                  -9.165
REMARK INTRA:                  -1.208
REMARK UNBOUND:                -1.882
REMARK SMILES CC[C@H](C)[C@@H]1NC(=O)[C@H]2CSC(=N2)[C@@H]([C@@H](C)CC)NC(=O)c2csc(n2)CNC(=O)[C@H]2N=C1O[C@@H]2C
REMARK SMILES IDX 27 1 25 2 22 3 26 4 23 5 24 6 20 7 19 8 21 9 14 11 12 12
REMARK SMILES IDX 11 13 10 14 13 15 9 16 15 18 16 19 17 20 18 21 28 22 29 23
REMARK SMILES IDX 30 24 31 26 32 27 35 28 33 29 34 30 36 31 5 32 6 33 7 34
REMARK SMILES IDX 8 35 3 38 4 39 2 40 1 41
REMARK H PARENT 19 10 28 25 6 36
REMARK Flexibility Score:   91.900
ROOT
ATOM      1  C   UNL     1     -11.260   0.778   6.707  1.00  0.00     0.183 C 
ENDROOT
BRANCH   1   2
ATOM      2  C   UNL     1     -10.258   1.888   6.566  1.00  0.00     0.113 A 
ATOM      3  C   UNL     1      -9.450   3.956   6.381  1.00  0.00     0.139 A 
ATOM      4  N   UNL     1     -10.564   3.167   6.675  1.00  0.00    -0.234 NA
ATOM      5  C   UNL     1      -8.299   3.242   6.110  1.00  0.00     0.101 A 
ATOM      6  S   UNL     1      -8.614   1.557   6.198  1.00  0.00    -0.125 S 
BRANCH   3   7
ATOM      7  C   UNL     1      -9.575   5.415   6.340  1.00  0.00     0.271 C 
ATOM      8  N   UNL     1     -10.188   5.838   5.186  1.00  0.00    -0.341 N 
ATOM      9  O   UNL     1      -9.151   6.159   7.215  1.00  0.00    -0.267 OA
ATOM     10  H   UNL     1     -10.508   5.099   4.561  1.00  0.00     0.164 HD
BRANCH   8  11
ATOM     11  C   UNL     1     -10.285   7.229   4.775  1.00  0.00     0.140 C 
BRANCH  11  12
ATOM     12  C   UNL     1     -11.240   7.938   5.740  1.00  0.00     0.091 C 
ATOM     13  S   UNL     1     -10.643   9.145   6.854  1.00  0.00    -0.106 SA
ATOM     14  C   UNL     1     -12.335   9.640   7.244  1.00  0.00     0.113 C 
ATOM     15  N   UNL     1     -12.495   7.623   5.818  1.00  0.00    -0.267 NA
ATOM     16  C   UNL     1     -13.153   8.401   6.915  1.00  0.00     0.205 CG0
ATOM     17  G   UNL     1     -13.346   7.529   8.166  1.00  0.00     0.000 G0
ENDBRANCH  11  12
BRANCH  11  18
ATOM     18  C   UNL     1      -8.915   7.913   4.536  1.00  0.00     0.015 C 
ATOM     19  C   UNL     1      -8.033   7.042   3.631  1.00  0.00     0.010 C 
BRANCH  18  20
ATOM     20  C   UNL     1      -9.000   9.362   4.015  1.00  0.00     0.002 C 
ATOM     21  C   UNL     1      -7.728   9.815   3.307  1.00  0.00     0.004 C 
ENDBRANCH  18  20
ENDBRANCH  11  18
ENDBRANCH   8  11
ENDBRANCH   3   7
ENDBRANCH   1   2
BRANCH   1  22
ATOM     22  N   UNL     1     -12.538   1.385   7.009  1.00  0.00    -0.348 N 
ATOM     23  C   UNL     1     -13.262   1.153   8.147  1.00  0.00     0.249 C 
ATOM     24  O   UNL     1     -12.853   0.464   9.075  1.00  0.00    -0.272 OA
ATOM     25  H   UNL     1     -12.981   1.961   6.294  1.00  0.00     0.163 HD
BRANCH  23  26
ATOM     26  C   UNL     1     -14.605   1.897   8.159  1.00  0.00     0.238 C 
ATOM     27  N   UNL     1     -14.571   2.956   9.206  1.00  0.00    -0.236 NA
ATOM     28  C   UNL     1     -14.864   2.626   6.852  1.00  0.00     0.206 C 
ATOM     29  C   UNL     1     -14.566   4.057   8.515  1.00  0.00     0.208 C 
ATOM     30  O   UNL     1     -14.609   3.995   7.162  1.00  0.00    -0.474 OA
ATOM     31  C   UNL     1     -16.308   2.494   6.385  1.00  0.00     0.056 C 
BRANCH  29  32
ATOM     32  C   UNL     1     -14.462   5.474   9.072  1.00  0.00     0.171 C 
BRANCH  32  33
ATOM     33  N   UNL     1     -14.190   6.431   8.011  1.00  0.00    -0.342 N 
ATOM     34  C   UNL     1     -13.371   7.521   8.188  1.00  0.00     0.246 CG0
ATOM     35  O   UNL     1     -12.829   7.785   9.259  1.00  0.00    -0.273 OA
ATOM     36  H   UNL     1     -14.631   6.344   7.102  1.00  0.00     0.164 HD
ATOM     37  G   UNL     1     -13.167   8.375   6.927  1.00  0.00     0.000 G0
ENDBRANCH  32  33
BRANCH  32  38
ATOM     38  C   UNL     1     -15.734   5.833   9.885  1.00  0.00     0.017 C 
ATOM     39  C   UNL     1     -15.342   6.500  11.209  1.00  0.00     0.010 C 
BRANCH  38  40
ATOM     40  C   UNL     1     -16.735   6.698   9.086  1.00  0.00     0.002 C 
ATOM     41  C   UNL     1     -17.633   5.890   8.158  1.00  0.00     0.004 C 
ENDBRANCH  38  40
ENDBRANCH  32  38
ENDBRANCH  29  32
ENDBRANCH  23  26
ENDBRANCH   1  22
TORSDOF 4
ENDMDL
MODEL 9
REMARK VINA RESULT:    -4.953      2.262      2.994
REMARK INTER + INTRA:         -10.309
REMARK INTER:                  -8.974
REMARK INTRA:                  -1.335
REMARK UNBOUND:                -1.882
REMARK SMILES CC[C@H](C)[C@@H]1NC(=O)[C@H]2CSC(=N2)[C@@H]([C@@H](C)CC)NC(=O)c2csc(n2)CNC(=O)[C@H]2N=C1O[C@@H]2C
REMARK SMILES IDX 27 1 25 2 22 3 26 4 23 5 24 6 20 7 19 8 21 9 14 11 12 12
REMARK SMILES IDX 11 13 10 14 13 15 9 16 15 18 16 19 17 20 18 21 28 22 29 23
REMARK SMILES IDX 30 24 31 26 32 27 35 28 33 29 34 30 36 31 5 32 6 33 7 34
REMARK SMILES IDX 8 35 3 38 4 39 2 40 1 41
REMARK H PARENT 19 10 28 25 6 36
REMARK Flexibility Score:   91.900
ROOT
ATOM      1  C   UNL     1      -9.413   1.206  10.738  1.00  0.00     0.183 C 
ENDROOT
BRANCH   1   2
ATOM      2  C   UNL     1      -8.983   0.869   9.339  1.00  0.00     0.113 A 
ATOM      3  C   UNL     1      -8.264   1.165   7.250  1.00  0.00     0.139 A 
ATOM      4  N   UNL     1      -8.450   1.745   8.507  1.00  0.00    -0.234 NA
ATOM      5  C   UNL     1      -8.611  -0.170   7.179  1.00  0.00     0.101 A 
ATOM      6  S   UNL     1      -9.205  -0.708   8.697  1.00  0.00    -0.125 S 
BRANCH   3   7
ATOM      7  C   UNL     1      -7.776   1.977   6.134  1.00  0.00     0.271 C 
ATOM      8  N   UNL     1      -7.849   3.319   6.414  1.00  0.00    -0.341 N 
ATOM      9  O   UNL     1      -7.385   1.509   5.072  1.00  0.00    -0.267 OA
ATOM     10  H   UNL     1      -8.173   3.557   7.351  1.00  0.00     0.164 HD
BRANCH   8  11
ATOM     11  C   UNL     1      -7.613   4.372   5.439  1.00  0.00     0.140 C 
BRANCH  11  12
ATOM     12  C   UNL     1      -8.917   5.157   5.272  1.00  0.00     0.091 C 
ATOM     13  S   UNL     1      -8.886   6.836   4.786  1.00  0.00    -0.106 SA
ATOM     14  C   UNL     1     -10.669   6.800   4.502  1.00  0.00     0.113 C 
ATOM     15  N   UNL     1     -10.072   4.639   5.552  1.00  0.00    -0.267 NA
ATOM     16  C   UNL     1     -11.148   5.668   5.397  1.00  0.00     0.205 CG0
ATOM     17  G   UNL     1     -11.592   6.207   6.766  1.00  0.00     0.000 G0
ENDBRANCH  11  12
BRANCH  11  18
ATOM     18  C   UNL     1      -6.336   5.207   5.710  1.00  0.00     0.015 C 
ATOM     19  C   UNL     1      -5.551   4.618   6.890  1.00  0.00     0.010 C 
BRANCH  18  20
ATOM     20  C   UNL     1      -5.430   5.417   4.479  1.00  0.00     0.002 C 
ATOM     21  C   UNL     1      -5.462   4.241   3.510  1.00  0.00     0.004 C 
ENDBRANCH  18  20
ENDBRANCH  11  18
ENDBRANCH   8  11
ENDBRANCH   3   7
ENDBRANCH   1   2
BRANCH   1  22
ATOM     22  N   UNL     1     -10.729   1.799  10.656  1.00  0.00    -0.348 N 
ATOM     23  C   UNL     1     -11.286   2.596  11.618  1.00  0.00     0.249 C 
ATOM     24  O   UNL     1     -10.683   2.961  12.621  1.00  0.00    -0.272 OA
ATOM     25  H   UNL     1     -11.327   1.544   9.871  1.00  0.00     0.163 HD
BRANCH  23  26
ATOM     26  C   UNL     1     -12.718   3.031  11.275  1.00  0.00     0.238 C 
ATOM     27  N   UNL     1     -12.722   4.480  10.930  1.00  0.00    -0.236 NA
ATOM     28  C   UNL     1     -13.249   2.319  10.042  1.00  0.00     0.206 C 
ATOM     29  C   UNL     1     -12.977   4.483   9.656  1.00  0.00     0.208 C 
ATOM     30  O   UNL     1     -13.177   3.306   9.014  1.00  0.00    -0.474 OA
ATOM     31  C   UNL     1     -14.700   1.885  10.198  1.00  0.00     0.056 C 
BRANCH  29  32
ATOM     32  C   UNL     1     -13.030   5.707   8.746  1.00  0.00     0.171 C 
BRANCH  32  33
ATOM     33  N   UNL     1     -12.509   5.395   7.425  1.00  0.00    -0.342 N 
ATOM     34  C   UNL     1     -11.628   6.217   6.762  1.00  0.00     0.246 CG0
ATOM     35  O   UNL     1     -11.235   7.286   7.221  1.00  0.00    -0.273 OA
ATOM     36  H   UNL     1     -12.811   4.566   6.924  1.00  0.00     0.164 HD
ATOM     37  G   UNL     1     -11.152   5.678   5.404  1.00  0.00     0.000 G0
ENDBRANCH  32  33
BRANCH  32  38
ATOM     38  C   UNL     1     -14.469   6.285   8.697  1.00  0.00     0.017 C 
ATOM     39  C   UNL     1     -15.476   5.231   9.173  1.00  0.00     0.010 C 
BRANCH  38  40
ATOM     40  C   UNL     1     -14.614   7.608   9.483  1.00  0.00     0.002 C 
ATOM     41  C   UNL     1     -13.853   7.620  10.802  1.00  0.00     0.004 C 
ENDBRANCH  38  40
ENDBRANCH  32  38
ENDBRANCH  29  32
ENDBRANCH  23  26
ENDBRANCH   1  22
TORSDOF 4
ENDMDL
MODEL 10
REMARK VINA RESULT:    -4.839      2.683      6.827
REMARK INTER + INTRA:         -10.115
REMARK INTER:                  -8.721
REMARK INTRA:                  -1.393
REMARK UNBOUND:                -1.882
REMARK SMILES CC[C@H](C)[C@@H]1NC(=O)[C@H]2CSC(=N2)[C@@H]([C@@H](C)CC)NC(=O)c2csc(n2)CNC(=O)[C@H]2N=C1O[C@@H]2C
REMARK SMILES IDX 27 1 25 2 22 3 26 4 23 5 24 6 20 7 19 8 21 9 14 11 12 12
REMARK SMILES IDX 11 13 10 14 13 15 9 16 15 18 16 19 17 20 18 21 28 22 29 23
REMARK SMILES IDX 30 24 31 26 32 27 35 28 33 29 34 30 36 31 5 32 6 33 7 34
REMARK SMILES IDX 8 35 3 38 4 39 2 40 1 41
REMARK H PARENT 19 10 28 25 6 36
REMARK Flexibility Score:   91.900
ROOT
ATOM      1  C   UNL     1      -9.063   0.694   6.438  1.00  0.00     0.183 C 
ENDROOT
BRANCH   1   2
ATOM      2  C   UNL     1      -9.766   0.614   7.762  1.00  0.00     0.113 A 
ATOM      3  C   UNL     1     -10.980   1.249   9.521  1.00  0.00     0.139 A 
ATOM      4  N   UNL     1     -10.571   1.555   8.221  1.00  0.00    -0.234 NA
ATOM      5  C   UNL     1     -10.513   0.039   9.997  1.00  0.00     0.101 A 
ATOM      6  S   UNL     1      -9.527  -0.721   8.815  1.00  0.00    -0.125 S 
BRANCH   3   7
ATOM      7  C   UNL     1     -11.800   2.199  10.274  1.00  0.00     0.271 C 
ATOM      8  N   UNL     1     -12.985   2.464   9.632  1.00  0.00    -0.341 N 
ATOM      9  O   UNL     1     -11.450   2.715  11.327  1.00  0.00    -0.267 OA
ATOM     10  H   UNL     1     -13.148   1.939   8.774  1.00  0.00     0.164 HD
BRANCH   8  11
ATOM     11  C   UNL     1     -13.920   3.501  10.037  1.00  0.00     0.140 C 
BRANCH  11  12
ATOM     12  C   UNL     1     -13.562   4.779   9.273  1.00  0.00     0.091 C 
ATOM     13  S   UNL     1     -14.781   5.637   8.359  1.00  0.00    -0.106 SA
ATOM     14  C   UNL     1     -13.664   7.042   8.165  1.00  0.00     0.113 C 
ATOM     15  N   UNL     1     -12.348   5.227   9.214  1.00  0.00    -0.267 NA
ATOM     16  C   UNL     1     -12.284   6.422   8.315  1.00  0.00     0.205 CG0
ATOM     17  G   UNL     1     -11.705   6.045   6.941  1.00  0.00     0.000 G0
ENDBRANCH  11  12
BRANCH  11  18
ATOM     18  C   UNL     1     -15.406   3.064   9.991  1.00  0.00     0.015 C 
ATOM     19  C   UNL     1     -15.512   1.535   9.901  1.00  0.00     0.010 C 
BRANCH  18  20
ATOM     20  C   UNL     1     -16.279   3.622  11.133  1.00  0.00     0.002 C 
ATOM     21  C   UNL     1     -16.612   2.578  12.193  1.00  0.00     0.004 C 
ENDBRANCH  18  20
ENDBRANCH  11  18
ENDBRANCH   8  11
ENDBRANCH   3   7
ENDBRANCH   1   2
BRANCH   1  22
ATOM     22  N   UNL     1      -8.475   2.011   6.339  1.00  0.00    -0.348 N 
ATOM     23  C   UNL     1      -7.386   2.323   5.570  1.00  0.00     0.249 C 
ATOM     24  O   UNL     1      -6.847   1.524   4.813  1.00  0.00    -0.272 OA
ATOM     25  H   UNL     1      -8.833   2.748   6.945  1.00  0.00     0.163 HD
BRANCH  23  26
ATOM     26  C   UNL     1      -6.958   3.791   5.713  1.00  0.00     0.238 C 
ATOM     27  N   UNL     1      -7.860   4.648   4.896  1.00  0.00    -0.236 NA
ATOM     28  C   UNL     1      -7.105   4.290   7.140  1.00  0.00     0.206 C 
ATOM     29  C   UNL     1      -8.536   5.306   5.790  1.00  0.00     0.208 C 
ATOM     30  O   UNL     1      -8.280   5.099   7.105  1.00  0.00    -0.474 OA
ATOM     31  C   UNL     1      -5.932   5.155   7.581  1.00  0.00     0.056 C 
BRANCH  29  32
ATOM     32  C   UNL     1      -9.671   6.291   5.522  1.00  0.00     0.171 C 
BRANCH  32  33
ATOM     33  N   UNL     1     -10.428   6.553   6.736  1.00  0.00    -0.342 N 
ATOM     34  C   UNL     1     -11.694   6.059   6.941  1.00  0.00     0.246 CG0
ATOM     35  O   UNL     1     -12.293   5.383   6.108  1.00  0.00    -0.273 OA
ATOM     36  H   UNL     1     -10.056   7.149   7.467  1.00  0.00     0.164 HD
ATOM     37  G   UNL     1     -12.297   6.402   8.313  1.00  0.00     0.000 G0
ENDBRANCH  32  33
BRANCH  32  38
ATOM     38  C   UNL     1      -9.122   7.588   4.872  1.00  0.00     0.017 C 
ATOM     39  C   UNL     1      -9.467   7.615   3.377  1.00  0.00     0.010 C 
BRANCH  38  40
ATOM     40  C   UNL     1      -9.600   8.871   5.589  1.00  0.00     0.002 C 
ATOM     41  C   UNL     1      -9.711  10.079   4.668  1.00  0.00     0.004 C 
ENDBRANCH  38  40
ENDBRANCH  32  38
ENDBRANCH  29  32
ENDBRANCH  23  26
ENDBRANCH   1  22
TORSDOF 4
ENDMDL
