MODEL 1
REMARK VINA RESULT:    -4.077      0.000      0.000
REMARK INTER + INTRA:          -8.710
REMARK INTER:                  -6.937
REMARK INTRA:                  -1.773
REMARK UNBOUND:                -1.773
REMARK SMILES CC[C@H](C)[C@@H]1NC(=O)[C@H]2CSC(=N2)[C@@H]([C@@H](C)CC)NC(=O)c2csc(n2)CNC(=O)[C@H]2N=C1O[C@@H]2C
REMARK SMILES IDX 27 1 25 2 22 3 26 4 23 5 24 6 20 7 19 8 21 9 14 11 12 12
REMARK SMILES IDX 11 13 10 14 13 15 9 16 15 18 16 19 17 20 18 21 28 22 29 23
REMARK SMILES IDX 30 24 31 26 32 27 35 28 33 29 34 30 36 31 5 32 6 33 7 34
REMARK SMILES IDX 8 35 3 38 4 39 2 40 1 41
REMARK H PARENT 19 10 28 25 6 36
REMARK Flexibility Score:   91.900
ROOT
ATOM      1  C   UNL     1      -2.919   6.498  -4.158  1.00  0.00     0.183 C 
ENDROOT
BRANCH   1   2
ATOM      2  C   UNL     1      -2.740   7.473  -3.031  1.00  0.00     0.113 A 
ATOM      3  C   UNL     1      -1.711   8.787  -1.553  1.00  0.00     0.139 A 
ATOM      4  N   UNL     1      -1.579   8.015  -2.710  1.00  0.00    -0.234 NA
ATOM      5  C   UNL     1      -2.997   8.857  -1.056  1.00  0.00     0.101 A 
ATOM      6  S   UNL     1      -4.059   7.925  -2.030  1.00  0.00    -0.125 S 
BRANCH   3   7
ATOM      7  C   UNL     1      -0.530   9.408  -0.949  1.00  0.00     0.271 C 
ATOM      8  N   UNL     1      -0.396  10.719  -1.332  1.00  0.00    -0.341 N 
ATOM      9  O   UNL     1       0.254   8.812  -0.220  1.00  0.00    -0.267 OA
ATOM     10  H   UNL     1      -1.141  11.084  -1.925  1.00  0.00     0.164 HD
BRANCH   8  11
ATOM     11  C   UNL     1       0.771  11.539  -1.047  1.00  0.00     0.140 C 
BRANCH  11  12
ATOM     12  C   UNL     1       1.628  11.592  -2.315  1.00  0.00     0.091 C 
ATOM     13  S   UNL     1       1.754  13.070  -3.240  1.00  0.00    -0.106 SA
ATOM     14  C   UNL     1       3.115  12.370  -4.198  1.00  0.00     0.113 C 
ATOM     15  N   UNL     1       2.224  10.542  -2.785  1.00  0.00    -0.267 NA
ATOM     16  C   UNL     1       2.895  10.869  -4.083  1.00  0.00     0.205 CG0
ATOM     17  G   UNL     1       2.071  10.348  -5.272  1.00  0.00     0.000 G0
ENDBRANCH  11  12
BRANCH  11  18
ATOM     18  C   UNL     1       0.438  12.899  -0.382  1.00  0.00     0.015 C 
ATOM     19  C   UNL     1      -0.895  12.814   0.373  1.00  0.00     0.010 C 
BRANCH  18  20
ATOM     20  C   UNL     1       1.558  13.470   0.512  1.00  0.00     0.002 C 
ATOM     21  C   UNL     1       1.131  14.719   1.275  1.00  0.00     0.004 C 
ENDBRANCH  18  20
ENDBRANCH  11  18
ENDBRANCH   8  11
ENDBRANCH   3   7
ENDBRANCH   1   2
BRANCH   1  22
ATOM     22  N   UNL     1      -1.610   6.231  -4.712  1.00  0.00    -0.348 N 
ATOM     23  C   UNL     1      -1.381   5.593  -5.900  1.00  0.00     0.249 C 
ATOM     24  O   UNL     1      -2.278   5.253  -6.664  1.00  0.00    -0.272 OA
ATOM     25  H   UNL     1      -0.791   6.453  -4.147  1.00  0.00     0.163 HD
BRANCH  23  26
ATOM     26  C   UNL     1       0.114   5.405  -6.197  1.00  0.00     0.238 C 
ATOM     27  N   UNL     1       0.551   6.430  -7.186  1.00  0.00    -0.236 NA
ATOM     28  C   UNL     1       0.972   5.636  -4.965  1.00  0.00     0.206 C 
ATOM     29  C   UNL     1       1.324   7.206  -6.487  1.00  0.00     0.208 C 
ATOM     30  O   UNL     1       1.545   6.925  -5.180  1.00  0.00    -0.474 OA
ATOM     31  C   UNL     1       2.098   4.619  -4.838  1.00  0.00     0.056 C 
BRANCH  29  32
ATOM     32  C   UNL     1       2.003   8.483  -6.976  1.00  0.00     0.171 C 
BRANCH  32  33
ATOM     33  N   UNL     1       2.632   9.191  -5.872  1.00  0.00    -0.342 N 
ATOM     34  C   UNL     1       2.075  10.307  -5.294  1.00  0.00     0.246 CG0
ATOM     35  O   UNL     1       1.021  10.805  -5.679  1.00  0.00    -0.273 OA
ATOM     36  H   UNL     1       3.535   8.903  -5.511  1.00  0.00     0.164 HD
ATOM     37  G   UNL     1       2.868  10.871  -4.104  1.00  0.00     0.000 G0
ENDBRANCH  32  33
BRANCH  32  38
ATOM     38  C   UNL     1       2.999   8.164  -8.122  1.00  0.00     0.017 C 
ATOM     39  C   UNL     1       3.433   9.460  -8.819  1.00  0.00     0.010 C 
BRANCH  38  40
ATOM     40  C   UNL     1       4.217   7.337  -7.650  1.00  0.00     0.002 C 
ATOM     41  C   UNL     1       5.522   7.734  -8.326  1.00  0.00     0.004 C 
ENDBRANCH  38  40
ENDBRANCH  32  38
ENDBRANCH  29  32
ENDBRANCH  23  26
ENDBRANCH   1  22
TORSDOF 4
ENDMDL
MODEL 2
REMARK VINA RESULT:    -3.900      8.425     11.829
REMARK INTER + INTRA:          -8.409
REMARK INTER:                  -6.850
REMARK INTRA:                  -1.559
REMARK UNBOUND:                -1.773
REMARK SMILES CC[C@H](C)[C@@H]1NC(=O)[C@H]2CSC(=N2)[C@@H]([C@@H](C)CC)NC(=O)c2csc(n2)CNC(=O)[C@H]2N=C1O[C@@H]2C
REMARK SMILES IDX 27 1 25 2 22 3 26 4 23 5 24 6 20 7 19 8 21 9 14 11 12 12
REMARK SMILES IDX 11 13 10 14 13 15 9 16 15 18 16 19 17 20 18 21 28 22 29 23
REMARK SMILES IDX 30 24 31 26 32 27 35 28 33 29 34 30 36 31 5 32 6 33 7 34
REMARK SMILES IDX 8 35 3 38 4 39 2 40 1 41
REMARK H PARENT 19 10 28 25 6 36
REMARK Flexibility Score:   91.900
ROOT
ATOM      1  C   UNL     1       5.355  11.362  -0.563  1.00  0.00     0.183 C 
ENDROOT
BRANCH   1   2
ATOM      2  C   UNL     1       5.998  12.535  -1.247  1.00  0.00     0.113 A 
ATOM      3  C   UNL     1       7.598  13.837  -2.091  1.00  0.00     0.139 A 
ATOM      4  N   UNL     1       7.276  12.579  -1.576  1.00  0.00    -0.234 NA
ATOM      5  C   UNL     1       6.528  14.704  -2.193  1.00  0.00     0.101 A 
ATOM      6  S   UNL     1       5.099  13.950  -1.615  1.00  0.00    -0.125 S 
BRANCH   3   7
ATOM      7  C   UNL     1       8.986  14.155  -2.433  1.00  0.00     0.271 C 
ATOM      8  N   UNL     1       9.791  13.045  -2.364  1.00  0.00    -0.341 N 
ATOM      9  O   UNL     1       9.377  15.281  -2.712  1.00  0.00    -0.267 OA
ATOM     10  H   UNL     1       9.318  12.170  -2.142  1.00  0.00     0.164 HD
BRANCH   8  11
ATOM     11  C   UNL     1      11.241  13.079  -2.466  1.00  0.00     0.140 C 
BRANCH  11  12
ATOM     12  C   UNL     1      11.818  12.723  -1.093  1.00  0.00     0.091 C 
ATOM     13  S   UNL     1      13.275  11.767  -0.963  1.00  0.00    -0.106 SA
ATOM     14  C   UNL     1      13.387  12.153   0.797  1.00  0.00     0.113 C 
ATOM     15  N   UNL     1      11.217  13.046   0.009  1.00  0.00    -0.267 NA
ATOM     16  C   UNL     1      11.952  12.476   1.182  1.00  0.00     0.205 CG0
ATOM     17  G   UNL     1      11.239  11.224   1.719  1.00  0.00     0.000 G0
ENDBRANCH  11  12
BRANCH  11  18
ATOM     18  C   UNL     1      11.807  12.292  -3.676  1.00  0.00     0.015 C 
ATOM     19  C   UNL     1      10.715  11.413  -4.300  1.00  0.00     0.010 C 
BRANCH  18  20
ATOM     20  C   UNL     1      12.507  13.162  -4.740  1.00  0.00     0.002 C 
ATOM     21  C   UNL     1      11.710  14.408  -5.109  1.00  0.00     0.004 C 
ENDBRANCH  18  20
ENDBRANCH  11  18
ENDBRANCH   8  11
ENDBRANCH   3   7
ENDBRANCH   1   2
BRANCH   1  22
ATOM     22  N   UNL     1       5.784  11.379   0.818  1.00  0.00    -0.348 N 
ATOM     23  C   UNL     1       5.272  10.579   1.803  1.00  0.00     0.249 C 
ATOM     24  O   UNL     1       4.446   9.698   1.591  1.00  0.00    -0.272 OA
ATOM     25  H   UNL     1       6.453  12.091   1.109  1.00  0.00     0.163 HD
BRANCH  23  26
ATOM     26  C   UNL     1       5.886  10.864   3.181  1.00  0.00     0.238 C 
ATOM     27  N   UNL     1       7.075   9.988   3.380  1.00  0.00    -0.236 NA
ATOM     28  C   UNL     1       6.408  12.287   3.288  1.00  0.00     0.206 C 
ATOM     29  C   UNL     1       8.069  10.824   3.346  1.00  0.00     0.208 C 
ATOM     30  O   UNL     1       7.824  12.146   3.178  1.00  0.00    -0.474 OA
ATOM     31  C   UNL     1       6.086  12.928   4.631  1.00  0.00     0.056 C 
BRANCH  29  32
ATOM     32  C   UNL     1       9.552  10.469   3.426  1.00  0.00     0.171 C 
BRANCH  32  33
ATOM     33  N   UNL     1      10.366  11.494   2.793  1.00  0.00    -0.342 N 
ATOM     34  C   UNL     1      11.231  11.220   1.760  1.00  0.00     0.246 CG0
ATOM     35  O   UNL     1      11.401  10.090   1.311  1.00  0.00    -0.273 OA
ATOM     36  H   UNL     1      10.350  12.454   3.121  1.00  0.00     0.164 HD
ATOM     37  G   UNL     1      11.954  12.452   1.191  1.00  0.00     0.000 G0
ENDBRANCH  32  33
BRANCH  32  38
ATOM     38  C   UNL     1       9.967  10.204   4.897  1.00  0.00     0.017 C 
ATOM     39  C   UNL     1       8.751  10.339   5.821  1.00  0.00     0.010 C 
BRANCH  38  40
ATOM     40  C   UNL     1      10.678   8.844   5.087  1.00  0.00     0.002 C 
ATOM     41  C   UNL     1      10.603   7.941   3.863  1.00  0.00     0.004 C 
ENDBRANCH  38  40
ENDBRANCH  32  38
ENDBRANCH  29  32
ENDBRANCH  23  26
ENDBRANCH   1  22
TORSDOF 4
ENDMDL
MODEL 3
REMARK VINA RESULT:    -3.634      7.842     10.286
REMARK INTER + INTRA:          -7.957
REMARK INTER:                  -7.268
REMARK INTRA:                  -0.689
REMARK UNBOUND:                -1.773
REMARK SMILES CC[C@H](C)[C@@H]1NC(=O)[C@H]2CSC(=N2)[C@@H]([C@@H](C)CC)NC(=O)c2csc(n2)CNC(=O)[C@H]2N=C1O[C@@H]2C
REMARK SMILES IDX 27 1 25 2 22 3 26 4 23 5 24 6 20 7 19 8 21 9 14 11 12 12
REMARK SMILES IDX 11 13 10 14 13 15 9 16 15 18 16 19 17 20 18 21 28 22 29 23
REMARK SMILES IDX 30 24 31 26 32 27 35 28 33 29 34 30 36 31 5 32 6 33 7 34
REMARK SMILES IDX 8 35 3 38 4 39 2 40 1 41
REMARK H PARENT 19 10 28 25 6 36
REMARK Flexibility Score:   91.900
ROOT
ATOM      1  C   UNL     1       4.938  13.920   0.063  1.00  0.00     0.183 C 
ENDROOT
BRANCH   1   2
ATOM      2  C   UNL     1       4.325  12.586   0.379  1.00  0.00     0.113 A 
ATOM      3  C   UNL     1       4.015  10.616   1.375  1.00  0.00     0.139 A 
ATOM      4  N   UNL     1       4.678  11.845   1.413  1.00  0.00    -0.234 NA
ATOM      5  C   UNL     1       3.121  10.481   0.330  1.00  0.00     0.101 A 
ATOM      6  S   UNL     1       3.124  11.899  -0.637  1.00  0.00    -0.125 S 
BRANCH   3   7
ATOM      7  C   UNL     1       4.322   9.586   2.369  1.00  0.00     0.271 C 
ATOM      8  N   UNL     1       5.256  10.022   3.277  1.00  0.00    -0.341 N 
ATOM      9  O   UNL     1       3.829   8.465   2.363  1.00  0.00    -0.267 OA
ATOM     10  H   UNL     1       5.558  10.990   3.169  1.00  0.00     0.164 HD
BRANCH   8  11
ATOM     11  C   UNL     1       5.896   9.168   4.264  1.00  0.00     0.140 C 
BRANCH  11  12
ATOM     12  C   UNL     1       7.382   9.069   3.906  1.00  0.00     0.091 C 
ATOM     13  S   UNL     1       8.608   9.333   5.123  1.00  0.00    -0.106 SA
ATOM     14  C   UNL     1       9.873   8.692   4.006  1.00  0.00     0.113 C 
ATOM     15  N   UNL     1       7.783   8.862   2.691  1.00  0.00    -0.267 NA
ATOM     16  C   UNL     1       9.277   8.920   2.626  1.00  0.00     0.205 CG0
ATOM     17  G   UNL     1       9.748  10.264   2.046  1.00  0.00     0.000 G0
ENDBRANCH  11  12
BRANCH  11  18
ATOM     18  C   UNL     1       5.565   9.543   5.731  1.00  0.00     0.015 C 
ATOM     19  C   UNL     1       5.693  11.059   5.938  1.00  0.00     0.010 C 
BRANCH  18  20
ATOM     20  C   UNL     1       4.207   9.018   6.240  1.00  0.00     0.002 C 
ATOM     21  C   UNL     1       3.938   7.573   5.834  1.00  0.00     0.004 C 
ENDBRANCH  18  20
ENDBRANCH  11  18
ENDBRANCH   8  11
ENDBRANCH   3   7
ENDBRANCH   1   2
BRANCH   1  22
ATOM     22  N   UNL     1       6.199  13.670  -0.600  1.00  0.00    -0.348 N 
ATOM     23  C   UNL     1       7.429  13.911  -0.052  1.00  0.00     0.249 C 
ATOM     24  O   UNL     1       7.588  14.289   1.103  1.00  0.00    -0.272 OA
ATOM     25  H   UNL     1       6.182  13.374  -1.575  1.00  0.00     0.163 HD
BRANCH  23  26
ATOM     26  C   UNL     1       8.582  13.599  -1.018  1.00  0.00     0.238 C 
ATOM     27  N   UNL     1       9.829  13.368  -0.236  1.00  0.00    -0.236 NA
ATOM     28  C   UNL     1       8.344  12.314  -1.792  1.00  0.00     0.206 C 
ATOM     29  C   UNL     1      10.048  12.097  -0.395  1.00  0.00     0.208 C 
ATOM     30  O   UNL     1       9.203  11.365  -1.162  1.00  0.00    -0.474 OA
ATOM     31  C   UNL     1       8.741  12.433  -3.258  1.00  0.00     0.056 C 
BRANCH  29  32
ATOM     32  C   UNL     1      11.168  11.284   0.250  1.00  0.00     0.171 C 
BRANCH  32  33
ATOM     33  N   UNL     1      10.630  10.143   0.973  1.00  0.00    -0.342 N 
ATOM     34  C   UNL     1       9.781  10.278   2.046  1.00  0.00     0.246 CG0
ATOM     35  O   UNL     1       9.431  11.368   2.491  1.00  0.00    -0.273 OA
ATOM     36  H   UNL     1      10.897   9.195   0.730  1.00  0.00     0.164 HD
ATOM     37  G   UNL     1       9.279   8.948   2.632  1.00  0.00     0.000 G0
ENDBRANCH  32  33
BRANCH  32  38
ATOM     38  C   UNL     1      12.222  10.873  -0.811  1.00  0.00     0.017 C 
ATOM     39  C   UNL     1      11.694  11.171  -2.220  1.00  0.00     0.010 C 
BRANCH  38  40
ATOM     40  C   UNL     1      13.604  11.523  -0.572  1.00  0.00     0.002 C 
ATOM     41  C   UNL     1      13.699  12.956  -1.079  1.00  0.00     0.004 C 
ENDBRANCH  38  40
ENDBRANCH  32  38
ENDBRANCH  29  32
ENDBRANCH  23  26
ENDBRANCH   1  22
TORSDOF 4
ENDMDL
MODEL 4
REMARK VINA RESULT:    -3.472      4.518      5.972
REMARK INTER + INTRA:          -7.681
REMARK INTER:                  -5.939
REMARK INTRA:                  -1.741
REMARK UNBOUND:                -1.773
REMARK SMILES CC[C@H](C)[C@@H]1NC(=O)[C@H]2CSC(=N2)[C@@H]([C@@H](C)CC)NC(=O)c2csc(n2)CNC(=O)[C@H]2N=C1O[C@@H]2C
REMARK SMILES IDX 27 1 25 2 22 3 26 4 23 5 24 6 20 7 19 8 21 9 14 11 12 12
REMARK SMILES IDX 11 13 10 14 13 15 9 16 15 18 16 19 17 20 18 21 28 22 29 23
REMARK SMILES IDX 30 24 31 26 32 27 35 28 33 29 34 30 36 31 5 32 6 33 7 34
REMARK SMILES IDX 8 35 3 38 4 39 2 40 1 41
REMARK H PARENT 19 10 28 25 6 36
REMARK Flexibility Score:   91.900
ROOT
ATOM      1  C   UNL     1      -3.471   4.822  -5.726  1.00  0.00     0.183 C 
ENDROOT
BRANCH   1   2
ATOM      2  C   UNL     1      -2.189   5.396  -5.195  1.00  0.00     0.113 A 
ATOM      3  C   UNL     1      -0.796   6.836  -4.219  1.00  0.00     0.139 A 
ATOM      4  N   UNL     1      -2.128   6.492  -4.462  1.00  0.00    -0.234 NA
ATOM      5  C   UNL     1       0.127   5.946  -4.733  1.00  0.00     0.101 A 
ATOM      6  S   UNL     1      -0.676   4.671  -5.556  1.00  0.00    -0.125 S 
BRANCH   3   7
ATOM      7  C   UNL     1      -0.477   8.075  -3.507  1.00  0.00     0.271 C 
ATOM      8  N   UNL     1      -1.590   8.860  -3.333  1.00  0.00    -0.341 N 
ATOM      9  O   UNL     1       0.653   8.381  -3.146  1.00  0.00    -0.267 OA
ATOM     10  H   UNL     1      -2.467   8.461  -3.667  1.00  0.00     0.164 HD
BRANCH   8  11
ATOM     11  C   UNL     1      -1.558  10.224  -2.830  1.00  0.00     0.140 C 
BRANCH  11  12
ATOM     12  C   UNL     1      -1.871  11.162  -3.999  1.00  0.00     0.091 C 
ATOM     13  S   UNL     1      -2.463  12.780  -3.704  1.00  0.00    -0.106 SA
ATOM     14  C   UNL     1      -2.194  13.208  -5.438  1.00  0.00     0.113 C 
ATOM     15  N   UNL     1      -1.781  10.776  -5.233  1.00  0.00    -0.267 NA
ATOM     16  C   UNL     1      -2.248  11.865  -6.148  1.00  0.00     0.205 CG0
ATOM     17  G   UNL     1      -3.669  11.578  -6.660  1.00  0.00     0.000 G0
ENDBRANCH  11  12
BRANCH  11  18
ATOM     18  C   UNL     1      -2.383  10.437  -1.535  1.00  0.00     0.015 C 
ATOM     19  C   UNL     1      -3.096   9.139  -1.134  1.00  0.00     0.010 C 
BRANCH  18  20
ATOM     20  C   UNL     1      -1.588  11.031  -0.355  1.00  0.00     0.002 C 
ATOM     21  C   UNL     1      -0.087  11.083  -0.615  1.00  0.00     0.004 C 
ENDBRANCH  18  20
ENDBRANCH  11  18
ENDBRANCH   8  11
ENDBRANCH   3   7
ENDBRANCH   1   2
BRANCH   1  22
ATOM     22  N   UNL     1      -3.838   5.589  -6.895  1.00  0.00    -0.348 N 
ATOM     23  C   UNL     1      -5.012   5.446  -7.585  1.00  0.00     0.249 C 
ATOM     24  O   UNL     1      -5.917   4.702  -7.224  1.00  0.00    -0.272 OA
ATOM     25  H   UNL     1      -3.148   6.224  -7.294  1.00  0.00     0.163 HD
BRANCH  23  26
ATOM     26  C   UNL     1      -5.093   6.360  -8.816  1.00  0.00     0.238 C 
ATOM     27  N   UNL     1      -5.781   7.627  -8.443  1.00  0.00    -0.236 NA
ATOM     28  C   UNL     1      -3.718   6.775  -9.309  1.00  0.00     0.206 C 
ATOM     29  C   UNL     1      -4.830   8.511  -8.502  1.00  0.00     0.208 C 
ATOM     30  O   UNL     1      -3.583   8.125  -8.868  1.00  0.00    -0.474 OA
ATOM     31  C   UNL     1      -3.608   6.747 -10.828  1.00  0.00     0.056 C 
BRANCH  29  32
ATOM     32  C   UNL     1      -4.946   9.990  -8.145  1.00  0.00     0.171 C 
BRANCH  32  33
ATOM     33  N   UNL     1      -3.707  10.483  -7.563  1.00  0.00    -0.342 N 
ATOM     34  C   UNL     1      -3.669  11.543  -6.690  1.00  0.00     0.246 CG0
ATOM     35  O   UNL     1      -4.669  12.172  -6.354  1.00  0.00    -0.273 OA
ATOM     36  H   UNL     1      -2.812  10.077  -7.815  1.00  0.00     0.164 HD
ATOM     37  G   UNL     1      -2.269  11.868  -6.144  1.00  0.00     0.000 G0
ENDBRANCH  32  33
BRANCH  32  38
ATOM     38  C   UNL     1      -5.392  10.814  -9.381  1.00  0.00     0.017 C 
ATOM     39  C   UNL     1      -4.772  10.229 -10.656  1.00  0.00     0.010 C 
BRANCH  38  40
ATOM     40  C   UNL     1      -6.928  10.939  -9.501  1.00  0.00     0.002 C 
ATOM     41  C   UNL     1      -7.577  11.642  -8.316  1.00  0.00     0.004 C 
ENDBRANCH  38  40
ENDBRANCH  32  38
ENDBRANCH  29  32
ENDBRANCH  23  26
ENDBRANCH   1  22
TORSDOF 4
ENDMDL
MODEL 5
REMARK VINA RESULT:    -3.453      3.355      4.763
REMARK INTER + INTRA:          -7.647
REMARK INTER:                  -6.937
REMARK INTRA:                  -0.710
REMARK UNBOUND:                -1.773
REMARK SMILES CC[C@H](C)[C@@H]1NC(=O)[C@H]2CSC(=N2)[C@@H]([C@@H](C)CC)NC(=O)c2csc(n2)CNC(=O)[C@H]2N=C1O[C@@H]2C
REMARK SMILES IDX 27 1 25 2 22 3 26 4 23 5 24 6 20 7 19 8 21 9 14 11 12 12
REMARK SMILES IDX 11 13 10 14 13 15 9 16 15 18 16 19 17 20 18 21 28 22 29 23
REMARK SMILES IDX 30 24 31 26 32 27 35 28 33 29 34 30 36 31 5 32 6 33 7 34
REMARK SMILES IDX 8 35 3 38 4 39 2 40 1 41
REMARK H PARENT 19 10 28 25 6 36
REMARK Flexibility Score:   91.900
ROOT
ATOM      1  C   UNL     1      -4.701  10.073  -8.129  1.00  0.00     0.183 C 
ENDROOT
BRANCH   1   2
ATOM      2  C   UNL     1      -4.002  11.039  -7.216  1.00  0.00     0.113 A 
ATOM      3  C   UNL     1      -2.747  11.778  -5.529  1.00  0.00     0.139 A 
ATOM      4  N   UNL     1      -3.138  10.673  -6.287  1.00  0.00    -0.234 NA
ATOM      5  C   UNL     1      -3.288  12.978  -5.948  1.00  0.00     0.101 A 
ATOM      6  S   UNL     1      -4.322  12.723  -7.294  1.00  0.00    -0.125 S 
BRANCH   3   7
ATOM      7  C   UNL     1      -1.867  11.600  -4.373  1.00  0.00     0.271 C 
ATOM      8  N   UNL     1      -2.581  11.490  -3.205  1.00  0.00    -0.341 N 
ATOM      9  O   UNL     1      -0.644  11.586  -4.444  1.00  0.00    -0.267 OA
ATOM     10  H   UNL     1      -3.595  11.496  -3.307  1.00  0.00     0.164 HD
BRANCH   8  11
ATOM     11  C   UNL     1      -1.984  11.492  -1.879  1.00  0.00     0.140 C 
BRANCH  11  12
ATOM     12  C   UNL     1      -1.203  10.185  -1.714  1.00  0.00     0.091 C 
ATOM     13  S   UNL     1       0.488  10.213  -1.271  1.00  0.00    -0.106 SA
ATOM     14  C   UNL     1       0.449   8.434  -0.962  1.00  0.00     0.113 C 
ATOM     15  N   UNL     1      -1.735   9.030  -1.965  1.00  0.00    -0.267 NA
ATOM     16  C   UNL     1      -0.709   7.950  -1.821  1.00  0.00     0.205 CG0
ATOM     17  G   UNL     1      -0.207   7.484  -3.198  1.00  0.00     0.000 G0
ENDBRANCH  11  12
BRANCH  11  18
ATOM     18  C   UNL     1      -1.225  12.798  -1.531  1.00  0.00     0.015 C 
ATOM     19  C   UNL     1      -1.978  14.017  -2.080  1.00  0.00     0.010 C 
BRANCH  18  20
ATOM     20  C   UNL     1      -0.890  12.969  -0.036  1.00  0.00     0.002 C 
ATOM     21  C   UNL     1      -0.152  14.270   0.263  1.00  0.00     0.004 C 
ENDBRANCH  18  20
ENDBRANCH  11  18
ENDBRANCH   8  11
ENDBRANCH   3   7
ENDBRANCH   1   2
BRANCH   1  22
ATOM     22  N   UNL     1      -4.410   8.739  -7.652  1.00  0.00    -0.348 N 
ATOM     23  C   UNL     1      -3.838   7.750  -8.404  1.00  0.00     0.249 C 
ATOM     24  O   UNL     1      -3.432   7.924  -9.548  1.00  0.00    -0.272 OA
ATOM     25  H   UNL     1      -4.727   8.479  -6.719  1.00  0.00     0.163 HD
BRANCH  23  26
ATOM     26  C   UNL     1      -3.705   6.423  -7.642  1.00  0.00     0.238 C 
ATOM     27  N   UNL     1      -2.266   6.157  -7.366  1.00  0.00    -0.236 NA
ATOM     28  C   UNL     1      -4.376   6.481  -6.280  1.00  0.00     0.206 C 
ATOM     29  C   UNL     1      -2.177   6.301  -6.077  1.00  0.00     0.208 C 
ATOM     30  O   UNL     1      -3.289   6.605  -5.363  1.00  0.00    -0.474 OA
ATOM     31  C   UNL     1      -5.144   5.207  -5.953  1.00  0.00     0.056 C 
BRANCH  29  32
ATOM     32  C   UNL     1      -0.903   6.215  -5.243  1.00  0.00     0.171 C 
BRANCH  32  33
ATOM     33  N   UNL     1      -1.135   6.693  -3.889  1.00  0.00    -0.342 N 
ATOM     34  C   UNL     1      -0.235   7.487  -3.219  1.00  0.00     0.246 CG0
ATOM     35  O   UNL     1       0.841   7.833  -3.699  1.00  0.00    -0.273 OA
ATOM     36  H   UNL     1      -1.965   6.422  -3.372  1.00  0.00     0.164 HD
ATOM     37  G   UNL     1      -0.696   7.933  -1.822  1.00  0.00     0.000 G0
ENDBRANCH  32  33
BRANCH  32  38
ATOM     38  C   UNL     1      -0.330   4.773  -5.274  1.00  0.00     0.017 C 
ATOM     39  C   UNL     1      -1.397   3.793  -5.779  1.00  0.00     0.010 C 
BRANCH  38  40
ATOM     40  C   UNL     1       0.978   4.662  -6.091  1.00  0.00     0.002 C 
ATOM     41  C   UNL     1       1.957   3.636  -5.537  1.00  0.00     0.004 C 
ENDBRANCH  38  40
ENDBRANCH  32  38
ENDBRANCH  29  32
ENDBRANCH  23  26
ENDBRANCH   1  22
TORSDOF 4
ENDMDL
MODEL 6
REMARK VINA RESULT:    -3.384      4.554      6.399
REMARK INTER + INTRA:          -7.530
REMARK INTER:                  -5.935
REMARK INTRA:                  -1.595
REMARK UNBOUND:                -1.773
REMARK SMILES CC[C@H](C)[C@@H]1NC(=O)[C@H]2CSC(=N2)[C@@H]([C@@H](C)CC)NC(=O)c2csc(n2)CNC(=O)[C@H]2N=C1O[C@@H]2C
REMARK SMILES IDX 27 1 25 2 22 3 26 4 23 5 24 6 20 7 19 8 21 9 14 11 12 12
REMARK SMILES IDX 11 13 10 14 13 15 9 16 15 18 16 19 17 20 18 21 28 22 29 23
REMARK SMILES IDX 30 24 31 26 32 27 35 28 33 29 34 30 36 31 5 32 6 33 7 34
REMARK SMILES IDX 8 35 3 38 4 39 2 40 1 41
REMARK H PARENT 19 10 28 25 6 36
REMARK Flexibility Score:   91.900
ROOT
ATOM      1  C   UNL     1       1.112   3.024  -8.117  1.00  0.00     0.183 C 
ENDROOT
BRANCH   1   2
ATOM      2  C   UNL     1       1.490   3.957  -7.003  1.00  0.00     0.113 A 
ATOM      3  C   UNL     1       2.090   5.841  -5.974  1.00  0.00     0.139 A 
ATOM      4  N   UNL     1       1.621   5.262  -7.155  1.00  0.00    -0.234 NA
ATOM      5  C   UNL     1       2.249   4.955  -4.927  1.00  0.00     0.101 A 
ATOM      6  S   UNL     1       1.831   3.367  -5.428  1.00  0.00    -0.125 S 
BRANCH   3   7
ATOM      7  C   UNL     1       2.407   7.270  -5.933  1.00  0.00     0.271 C 
ATOM      8  N   UNL     1       1.455   8.018  -6.582  1.00  0.00    -0.341 N 
ATOM      9  O   UNL     1       3.416   7.729  -5.413  1.00  0.00    -0.267 OA
ATOM     10  H   UNL     1       0.658   7.497  -6.945  1.00  0.00     0.164 HD
BRANCH   8  11
ATOM     11  C   UNL     1       1.587   9.437  -6.869  1.00  0.00     0.140 C 
BRANCH  11  12
ATOM     12  C   UNL     1       1.208   9.656  -8.337  1.00  0.00     0.091 C 
ATOM     13  S   UNL     1      -0.197   8.871  -9.018  1.00  0.00    -0.106 SA
ATOM     14  C   UNL     1      -0.079   9.910 -10.490  1.00  0.00     0.113 C 
ATOM     15  N   UNL     1       1.945  10.360  -9.138  1.00  0.00    -0.267 NA
ATOM     16  C   UNL     1       1.387  10.309 -10.526  1.00  0.00     0.205 CG0
ATOM     17  G   UNL     1       2.194   9.340 -11.406  1.00  0.00     0.000 G0
ENDBRANCH  11  12
BRANCH  11  18
ATOM     18  C   UNL     1       0.891  10.357  -5.833  1.00  0.00     0.015 C 
ATOM     19  C   UNL     1       1.532  11.751  -5.840  1.00  0.00     0.010 C 
BRANCH  18  20
ATOM     20  C   UNL     1      -0.643  10.442  -5.974  1.00  0.00     0.002 C 
ATOM     21  C   UNL     1      -1.121  11.803  -6.465  1.00  0.00     0.004 C 
ENDBRANCH  18  20
ENDBRANCH  11  18
ENDBRANCH   8  11
ENDBRANCH   3   7
ENDBRANCH   1   2
BRANCH   1  22
ATOM     22  N   UNL     1       1.058   3.802  -9.334  1.00  0.00    -0.348 N 
ATOM     23  C   UNL     1       1.598   3.417 -10.531  1.00  0.00     0.249 C 
ATOM     24  O   UNL     1       2.115   2.320 -10.713  1.00  0.00    -0.272 OA
ATOM     25  H   UNL     1       0.668   4.743  -9.291  1.00  0.00     0.163 HD
BRANCH  23  26
ATOM     26  C   UNL     1       1.431   4.478 -11.629  1.00  0.00     0.238 C 
ATOM     27  N   UNL     1       1.755   5.819 -11.069  1.00  0.00    -0.236 NA
ATOM     28  C   UNL     1       2.407   4.269 -12.774  1.00  0.00     0.206 C 
ATOM     29  C   UNL     1       2.865   6.132 -11.667  1.00  0.00     0.208 C 
ATOM     30  O   UNL     1       3.399   5.275 -12.572  1.00  0.00    -0.474 OA
ATOM     31  C   UNL     1       1.764   4.488 -14.137  1.00  0.00     0.056 C 
BRANCH  29  32
ATOM     32  C   UNL     1       3.702   7.384 -11.423  1.00  0.00     0.171 C 
BRANCH  32  33
ATOM     33  N   UNL     1       2.919   8.411 -10.754  1.00  0.00    -0.342 N 
ATOM     34  C   UNL     1       2.192   9.353 -11.440  1.00  0.00     0.246 CG0
ATOM     35  O   UNL     1       2.167   9.418 -12.666  1.00  0.00    -0.273 OA
ATOM     36  H   UNL     1       2.913   8.489  -9.742  1.00  0.00     0.164 HD
ATOM     37  G   UNL     1       1.387  10.311 -10.546  1.00  0.00     0.000 G0
ENDBRANCH  32  33
BRANCH  32  38
ATOM     38  C   UNL     1       5.000   7.027 -10.651  1.00  0.00     0.017 C 
ATOM     39  C   UNL     1       6.221   7.608 -11.375  1.00  0.00     0.010 C 
BRANCH  38  40
ATOM     40  C   UNL     1       4.957   7.463  -9.168  1.00  0.00     0.002 C 
ATOM     41  C   UNL     1       6.228   7.128  -8.398  1.00  0.00     0.004 C 
ENDBRANCH  38  40
ENDBRANCH  32  38
ENDBRANCH  29  32
ENDBRANCH  23  26
ENDBRANCH   1  22
TORSDOF 4
ENDMDL
MODEL 7
REMARK VINA RESULT:    -3.229      3.919      7.270
REMARK INTER + INTRA:          -7.267
REMARK INTER:                  -5.582
REMARK INTRA:                  -1.685
REMARK UNBOUND:                -1.773
REMARK SMILES CC[C@H](C)[C@@H]1NC(=O)[C@H]2CSC(=N2)[C@@H]([C@@H](C)CC)NC(=O)c2csc(n2)CNC(=O)[C@H]2N=C1O[C@@H]2C
REMARK SMILES IDX 27 1 25 2 22 3 26 4 23 5 24 6 20 7 19 8 21 9 14 11 12 12
REMARK SMILES IDX 11 13 10 14 13 15 9 16 15 18 16 19 17 20 18 21 28 22 29 23
REMARK SMILES IDX 30 24 31 26 32 27 35 28 33 29 34 30 36 31 5 32 6 33 7 34
REMARK SMILES IDX 8 35 3 38 4 39 2 40 1 41
REMARK H PARENT 19 10 28 25 6 36
REMARK Flexibility Score:   91.900
ROOT
ATOM      1  C   UNL     1       2.289   6.644  -6.687  1.00  0.00     0.183 C 
ENDROOT
BRANCH   1   2
ATOM      2  C   UNL     1       2.218   7.958  -7.412  1.00  0.00     0.113 A 
ATOM      3  C   UNL     1       1.348   9.677  -8.533  1.00  0.00     0.139 A 
ATOM      4  N   UNL     1       1.086   8.529  -7.782  1.00  0.00    -0.234 NA
ATOM      5  C   UNL     1       2.689   9.980  -8.665  1.00  0.00     0.101 A 
ATOM      6  S   UNL     1       3.644   8.802  -7.861  1.00  0.00    -0.125 S 
BRANCH   3   7
ATOM      7  C   UNL     1       0.244  10.425  -9.136  1.00  0.00     0.271 C 
ATOM      8  N   UNL     1       0.129  11.682  -8.595  1.00  0.00    -0.341 N 
ATOM      9  O   UNL     1      -0.501   9.966  -9.993  1.00  0.00    -0.267 OA
ATOM     10  H   UNL     1       0.838  11.932  -7.907  1.00  0.00     0.164 HD
BRANCH   8  11
ATOM     11  C   UNL     1      -0.980  12.586  -8.856  1.00  0.00     0.140 C 
BRANCH  11  12
ATOM     12  C   UNL     1      -1.849  12.639  -7.596  1.00  0.00     0.091 C 
ATOM     13  S   UNL     1      -1.964  14.111  -6.660  1.00  0.00    -0.106 SA
ATOM     14  C   UNL     1      -3.343  13.420  -5.721  1.00  0.00     0.113 C 
ATOM     15  N   UNL     1      -2.462  11.593  -7.140  1.00  0.00    -0.267 NA
ATOM     16  C   UNL     1      -3.141  11.918  -5.846  1.00  0.00     0.205 CG0
ATOM     17  G   UNL     1      -2.335  11.376  -4.654  1.00  0.00     0.000 G0
ENDBRANCH  11  12
BRANCH  11  18
ATOM     18  C   UNL     1      -0.553  13.949  -9.457  1.00  0.00     0.015 C 
ATOM     19  C   UNL     1       0.958  13.969  -9.720  1.00  0.00     0.010 C 
BRANCH  18  20
ATOM     20  C   UNL     1      -1.348  14.380 -10.707  1.00  0.00     0.002 C 
ATOM     21  C   UNL     1      -0.716  15.559 -11.438  1.00  0.00     0.004 C 
ENDBRANCH  18  20
ENDBRANCH  11  18
ENDBRANCH   8  11
ENDBRANCH   3   7
ENDBRANCH   1   2
BRANCH   1  22
ATOM     22  N   UNL     1       1.093   6.530  -5.882  1.00  0.00    -0.348 N 
ATOM     23  C   UNL     1       1.082   6.372  -4.522  1.00  0.00     0.249 C 
ATOM     24  O   UNL     1       2.096   6.397  -3.834  1.00  0.00    -0.272 OA
ATOM     25  H   UNL     1       0.193   6.476  -6.356  1.00  0.00     0.163 HD
BRANCH  23  26
ATOM     26  C   UNL     1      -0.337   6.223  -3.952  1.00  0.00     0.238 C 
ATOM     27  N   UNL     1      -0.605   7.340  -3.004  1.00  0.00    -0.236 NA
ATOM     28  C   UNL     1      -1.399   6.343  -5.032  1.00  0.00     0.206 C 
ATOM     29  C   UNL     1      -1.496   8.052  -3.627  1.00  0.00     0.208 C 
ATOM     30  O   UNL     1      -1.939   7.650  -4.844  1.00  0.00    -0.474 OA
ATOM     31  C   UNL     1      -2.519   5.326  -4.865  1.00  0.00     0.056 C 
BRANCH  29  32
ATOM     32  C   UNL     1      -2.092   9.374  -3.151  1.00  0.00     0.171 C 
BRANCH  32  33
ATOM     33  N   UNL     1      -2.728  10.083  -4.250  1.00  0.00    -0.342 N 
ATOM     34  C   UNL     1      -2.365  11.357  -4.619  1.00  0.00     0.246 CG0
ATOM     35  O   UNL     1      -1.498  12.002  -4.035  1.00  0.00    -0.273 OA
ATOM     36  H   UNL     1      -3.497   9.669  -4.765  1.00  0.00     0.164 HD
ATOM     37  G   UNL     1      -3.118  11.904  -5.842  1.00  0.00     0.000 G0
ENDBRANCH  32  33
BRANCH  32  38
ATOM     38  C   UNL     1      -3.057   9.136  -1.959  1.00  0.00     0.017 C 
ATOM     39  C   UNL     1      -3.652   7.725  -2.037  1.00  0.00     0.010 C 
BRANCH  38  40
ATOM     40  C   UNL     1      -2.396   9.400  -0.587  1.00  0.00     0.002 C 
ATOM     41  C   UNL     1      -1.682  10.742  -0.501  1.00  0.00     0.004 C 
ENDBRANCH  38  40
ENDBRANCH  32  38
ENDBRANCH  29  32
ENDBRANCH  23  26
ENDBRANCH   1  22
TORSDOF 4
ENDMDL
MODEL 8
REMARK VINA RESULT:    -3.213      3.884      7.457
REMARK INTER + INTRA:          -7.239
REMARK INTER:                  -5.465
REMARK INTRA:                  -1.774
REMARK UNBOUND:                -1.773
REMARK SMILES CC[C@H](C)[C@@H]1NC(=O)[C@H]2CSC(=N2)[C@@H]([C@@H](C)CC)NC(=O)c2csc(n2)CNC(=O)[C@H]2N=C1O[C@@H]2C
REMARK SMILES IDX 27 1 25 2 22 3 26 4 23 5 24 6 20 7 19 8 21 9 14 11 12 12
REMARK SMILES IDX 11 13 10 14 13 15 9 16 15 18 16 19 17 20 18 21 28 22 29 23
REMARK SMILES IDX 30 24 31 26 32 27 35 28 33 29 34 30 36 31 5 32 6 33 7 34
REMARK SMILES IDX 8 35 3 38 4 39 2 40 1 41
REMARK H PARENT 19 10 28 25 6 36
REMARK Flexibility Score:   91.900
ROOT
ATOM      1  C   UNL     1      -0.987   5.188  -3.279  1.00  0.00     0.183 C 
ENDROOT
BRANCH   1   2
ATOM      2  C   UNL     1      -1.494   5.367  -4.681  1.00  0.00     0.113 A 
ATOM      3  C   UNL     1      -2.736   6.128  -6.368  1.00  0.00     0.139 A 
ATOM      4  N   UNL     1      -2.380   6.284  -5.027  1.00  0.00    -0.234 NA
ATOM      5  C   UNL     1      -2.059   5.122  -7.027  1.00  0.00     0.101 A 
ATOM      6  S   UNL     1      -0.975   4.336  -5.952  1.00  0.00    -0.125 S 
BRANCH   3   7
ATOM      7  C   UNL     1      -3.782   6.972  -6.950  1.00  0.00     0.271 C 
ATOM      8  N   UNL     1      -3.265   7.866  -7.856  1.00  0.00    -0.341 N 
ATOM      9  O   UNL     1      -4.964   6.904  -6.637  1.00  0.00    -0.267 OA
ATOM     10  H   UNL     1      -2.264   7.787  -8.031  1.00  0.00     0.164 HD
BRANCH   8  11
ATOM     11  C   UNL     1      -4.023   8.952  -8.456  1.00  0.00     0.140 C 
BRANCH  11  12
ATOM     12  C   UNL     1      -3.381  10.271  -8.017  1.00  0.00     0.091 C 
ATOM     13  S   UNL     1      -2.346  11.161  -9.109  1.00  0.00    -0.106 SA
ATOM     14  C   UNL     1      -2.382  12.586  -8.002  1.00  0.00     0.113 C 
ATOM     15  N   UNL     1      -3.518  10.734  -6.814  1.00  0.00    -0.267 NA
ATOM     16  C   UNL     1      -2.697  11.974  -6.645  1.00  0.00     0.205 CG0
ATOM     17  G   UNL     1      -1.403  11.674  -5.871  1.00  0.00     0.000 G0
ENDBRANCH  11  12
BRANCH  11  18
ATOM     18  C   UNL     1      -4.275   8.780  -9.976  1.00  0.00     0.015 C 
ATOM     19  C   UNL     1      -3.240   7.824 -10.585  1.00  0.00     0.010 C 
BRANCH  18  20
ATOM     20  C   UNL     1      -5.713   8.364 -10.348  1.00  0.00     0.002 C 
ATOM     21  C   UNL     1      -6.649   8.317  -9.146  1.00  0.00     0.004 C 
ENDBRANCH  18  20
ENDBRANCH  11  18
ENDBRANCH   8  11
ENDBRANCH   3   7
ENDBRANCH   1   2
BRANCH   1  22
ATOM     22  N   UNL     1      -1.068   6.473  -2.621  1.00  0.00    -0.348 N 
ATOM     23  C   UNL     1      -0.041   7.372  -2.538  1.00  0.00     0.249 C 
ATOM     24  O   UNL     1       1.040   7.212  -3.093  1.00  0.00    -0.272 OA
ATOM     25  H   UNL     1      -1.918   6.700  -2.107  1.00  0.00     0.163 HD
BRANCH  23  26
ATOM     26  C   UNL     1      -0.410   8.625  -1.729  1.00  0.00     0.238 C 
ATOM     27  N   UNL     1       0.339   9.795  -2.266  1.00  0.00    -0.236 NA
ATOM     28  C   UNL     1      -1.880   8.982  -1.873  1.00  0.00     0.206 C 
ATOM     29  C   UNL     1      -0.591  10.517  -2.816  1.00  0.00     0.208 C 
ATOM     30  O   UNL     1      -1.879  10.098  -2.762  1.00  0.00    -0.474 OA
ATOM     31  C   UNL     1      -2.509   9.411  -0.554  1.00  0.00     0.056 C 
BRANCH  29  32
ATOM     32  C   UNL     1      -0.388  11.814  -3.593  1.00  0.00     0.171 C 
BRANCH  32  33
ATOM     33  N   UNL     1      -1.480  12.036  -4.529  1.00  0.00    -0.342 N 
ATOM     34  C   UNL     1      -1.400  11.689  -5.856  1.00  0.00     0.246 CG0
ATOM     35  O   UNL     1      -0.397  11.191  -6.359  1.00  0.00    -0.273 OA
ATOM     36  H   UNL     1      -2.336  12.494  -4.236  1.00  0.00     0.164 HD
ATOM     37  G   UNL     1      -2.683  11.952  -6.661  1.00  0.00     0.000 G0
ENDBRANCH  32  33
BRANCH  32  38
ATOM     38  C   UNL     1      -0.189  13.005  -2.619  1.00  0.00     0.017 C 
ATOM     39  C   UNL     1      -0.301  14.333  -3.380  1.00  0.00     0.010 C 
BRANCH  38  40
ATOM     40  C   UNL     1      -1.148  12.961  -1.408  1.00  0.00     0.002 C 
ATOM     41  C   UNL     1      -2.013  14.207  -1.269  1.00  0.00     0.004 C 
ENDBRANCH  38  40
ENDBRANCH  32  38
ENDBRANCH  29  32
ENDBRANCH  23  26
ENDBRANCH   1  22
TORSDOF 4
ENDMDL
MODEL 9
REMARK VINA RESULT:    -3.210      1.804      2.014
REMARK INTER + INTRA:          -7.234
REMARK INTER:                  -5.800
REMARK INTRA:                  -1.434
REMARK UNBOUND:                -1.773
REMARK SMILES CC[C@H](C)[C@@H]1NC(=O)[C@H]2CSC(=N2)[C@@H]([C@@H](C)CC)NC(=O)c2csc(n2)CNC(=O)[C@H]2N=C1O[C@@H]2C
REMARK SMILES IDX 27 1 25 2 22 3 26 4 23 5 24 6 20 7 19 8 21 9 14 11 12 12
REMARK SMILES IDX 11 13 10 14 13 15 9 16 15 18 16 19 17 20 18 21 28 22 29 23
REMARK SMILES IDX 30 24 31 26 32 27 35 28 33 29 34 30 36 31 5 32 6 33 7 34
REMARK SMILES IDX 8 35 3 38 4 39 2 40 1 41
REMARK H PARENT 19 10 28 25 6 36
REMARK Flexibility Score:   91.900
ROOT
ATOM      1  C   UNL     1      -1.947   5.807  -3.388  1.00  0.00     0.183 C 
ENDROOT
BRANCH   1   2
ATOM      2  C   UNL     1      -2.041   7.234  -2.930  1.00  0.00     0.113 A 
ATOM      3  C   UNL     1      -1.392   9.292  -2.374  1.00  0.00     0.139 A 
ATOM      4  N   UNL     1      -1.030   8.083  -2.971  1.00  0.00    -0.234 NA
ATOM      5  C   UNL     1      -2.703   9.347  -1.942  1.00  0.00     0.101 A 
ATOM      6  S   UNL     1      -3.494   7.858  -2.263  1.00  0.00    -0.125 S 
BRANCH   3   7
ATOM      7  C   UNL     1      -0.399  10.357  -2.213  1.00  0.00     0.271 C 
ATOM      8  N   UNL     1      -0.572  11.355  -3.140  1.00  0.00    -0.341 N 
ATOM      9  O   UNL     1       0.493  10.333  -1.374  1.00  0.00    -0.267 OA
ATOM     10  H   UNL     1      -1.375  11.247  -3.759  1.00  0.00     0.164 HD
BRANCH   8  11
ATOM     11  C   UNL     1       0.365  12.446  -3.350  1.00  0.00     0.140 C 
BRANCH  11  12
ATOM     12  C   UNL     1       1.040  12.230  -4.707  1.00  0.00     0.091 C 
ATOM     13  S   UNL     1       0.427  13.020  -6.141  1.00  0.00    -0.106 SA
ATOM     14  C   UNL     1       1.911  12.545  -7.053  1.00  0.00     0.113 C 
ATOM     15  N   UNL     1       2.031  11.407  -4.858  1.00  0.00    -0.267 NA
ATOM     16  C   UNL     1       2.413  11.322  -6.303  1.00  0.00     0.205 CG0
ATOM     17  G   UNL     1       1.868  10.033  -6.939  1.00  0.00     0.000 G0
ENDBRANCH  11  12
BRANCH  11  18
ATOM     18  C   UNL     1      -0.238  13.852  -3.097  1.00  0.00     0.015 C 
ATOM     19  C   UNL     1      -1.438  13.756  -2.145  1.00  0.00     0.010 C 
BRANCH  18  20
ATOM     20  C   UNL     1       0.776  14.911  -2.621  1.00  0.00     0.002 C 
ATOM     21  C   UNL     1       1.231  15.845  -3.737  1.00  0.00     0.004 C 
ENDBRANCH  18  20
ENDBRANCH  11  18
ENDBRANCH   8  11
ENDBRANCH   3   7
ENDBRANCH   1   2
BRANCH   1  22
ATOM     22  N   UNL     1      -0.648   5.634  -4.000  1.00  0.00    -0.348 N 
ATOM     23  C   UNL     1      -0.435   5.469  -5.342  1.00  0.00     0.249 C 
ATOM     24  O   UNL     1      -1.328   5.536  -6.178  1.00  0.00    -0.272 OA
ATOM     25  H   UNL     1       0.165   5.541  -3.393  1.00  0.00     0.163 HD
BRANCH  23  26
ATOM     26  C   UNL     1       1.047   5.252  -5.687  1.00  0.00     0.238 C 
ATOM     27  N   UNL     1       1.317   5.786  -7.050  1.00  0.00    -0.236 NA
ATOM     28  C   UNL     1       1.966   6.026  -4.757  1.00  0.00     0.206 C 
ATOM     29  C   UNL     1       2.065   6.824  -6.821  1.00  0.00     0.208 C 
ATOM     30  O   UNL     1       2.403   7.132  -5.545  1.00  0.00    -0.474 OA
ATOM     31  C   UNL     1       3.186   5.217  -4.336  1.00  0.00     0.056 C 
BRANCH  29  32
ATOM     32  C   UNL     1       2.588   7.809  -7.862  1.00  0.00     0.171 C 
BRANCH  32  33
ATOM     33  N   UNL     1       2.875   9.100  -7.257  1.00  0.00    -0.342 N 
ATOM     34  C   UNL     1       1.894  10.020  -6.973  1.00  0.00     0.246 CG0
ATOM     35  O   UNL     1       0.707   9.835  -7.230  1.00  0.00    -0.273 OA
ATOM     36  H   UNL     1       3.828   9.385  -7.055  1.00  0.00     0.164 HD
ATOM     37  G   UNL     1       2.399  11.297  -6.280  1.00  0.00     0.000 G0
ENDBRANCH  32  33
BRANCH  32  38
ATOM     38  C   UNL     1       3.814   7.215  -8.604  1.00  0.00     0.017 C 
ATOM     39  C   UNL     1       3.829   7.691 -10.062  1.00  0.00     0.010 C 
BRANCH  38  40
ATOM     40  C   UNL     1       5.153   7.516  -7.893  1.00  0.00     0.002 C 
ATOM     41  C   UNL     1       5.433   6.603  -6.706  1.00  0.00     0.004 C 
ENDBRANCH  38  40
ENDBRANCH  32  38
ENDBRANCH  29  32
ENDBRANCH  23  26
ENDBRANCH   1  22
TORSDOF 4
ENDMDL
MODEL 10
REMARK VINA RESULT:    -2.883      3.377      7.105
REMARK INTER + INTRA:          -6.678
REMARK INTER:                  -5.013
REMARK INTRA:                  -1.665
REMARK UNBOUND:                -1.773
REMARK SMILES CC[C@H](C)[C@@H]1NC(=O)[C@H]2CSC(=N2)[C@@H]([C@@H](C)CC)NC(=O)c2csc(n2)CNC(=O)[C@H]2N=C1O[C@@H]2C
REMARK SMILES IDX 27 1 25 2 22 3 26 4 23 5 24 6 20 7 19 8 21 9 14 11 12 12
REMARK SMILES IDX 11 13 10 14 13 15 9 16 15 18 16 19 17 20 18 21 28 22 29 23
REMARK SMILES IDX 30 24 31 26 32 27 35 28 33 29 34 30 36 31 5 32 6 33 7 34
REMARK SMILES IDX 8 35 3 38 4 39 2 40 1 41
REMARK H PARENT 19 10 28 25 6 36
REMARK Flexibility Score:   91.900
ROOT
ATOM      1  C   UNL     1       0.719   4.266  -8.822  1.00  0.00     0.183 C 
ENDROOT
BRANCH   1   2
ATOM      2  C   UNL     1       1.179   5.487  -9.564  1.00  0.00     0.113 A 
ATOM      3  C   UNL     1       1.311   7.623 -10.186  1.00  0.00     0.139 A 
ATOM      4  N   UNL     1       0.817   6.716  -9.246  1.00  0.00    -0.234 NA
ATOM      5  C   UNL     1       2.095   7.056 -11.171  1.00  0.00     0.101 A 
ATOM      6  S   UNL     1       2.198   5.358 -10.940  1.00  0.00    -0.125 S 
BRANCH   3   7
ATOM      7  C   UNL     1       0.953   9.040 -10.095  1.00  0.00     0.271 C 
ATOM      8  N   UNL     1       1.966   9.784  -9.543  1.00  0.00    -0.341 N 
ATOM      9  O   UNL     1      -0.132   9.491 -10.441  1.00  0.00    -0.267 OA
ATOM     10  H   UNL     1       2.821   9.273  -9.326  1.00  0.00     0.164 HD
BRANCH   8  11
ATOM     11  C   UNL     1       1.838  11.179  -9.155  1.00  0.00     0.140 C 
BRANCH  11  12
ATOM     12  C   UNL     1       1.409  11.221  -7.685  1.00  0.00     0.091 C 
ATOM     13  S   UNL     1       2.486  11.855  -6.464  1.00  0.00    -0.106 SA
ATOM     14  C   UNL     1       1.139  11.866  -5.262  1.00  0.00     0.113 C 
ATOM     15  N   UNL     1       0.279  10.727  -7.285  1.00  0.00    -0.267 NA
ATOM     16  C   UNL     1       0.180  10.812  -5.794  1.00  0.00     0.205 CG0
ATOM     17  G   UNL     1       0.461   9.446  -5.147  1.00  0.00     0.000 G0
ENDBRANCH  11  12
BRANCH  11  18
ATOM     18  C   UNL     1       3.057  12.056  -9.542  1.00  0.00     0.015 C 
ATOM     19  C   UNL     1       4.203  11.179 -10.063  1.00  0.00     0.010 C 
BRANCH  18  20
ATOM     20  C   UNL     1       2.739  13.207 -10.518  1.00  0.00     0.002 C 
ATOM     21  C   UNL     1       2.171  12.721 -11.847  1.00  0.00     0.004 C 
ENDBRANCH  18  20
ENDBRANCH  11  18
ENDBRANCH   8  11
ENDBRANCH   3   7
ENDBRANCH   1   2
BRANCH   1  22
ATOM     22  N   UNL     1      -0.236   4.699  -7.827  1.00  0.00    -0.348 N 
ATOM     23  C   UNL     1      -0.571   3.988  -6.706  1.00  0.00     0.249 C 
ATOM     24  O   UNL     1      -0.023   2.939  -6.387  1.00  0.00    -0.272 OA
ATOM     25  H   UNL     1      -0.768   5.550  -8.004  1.00  0.00     0.163 HD
BRANCH  23  26
ATOM     26  C   UNL     1      -1.656   4.678  -5.866  1.00  0.00     0.238 C 
ATOM     27  N   UNL     1      -1.044   5.221  -4.622  1.00  0.00    -0.236 NA
ATOM     28  C   UNL     1      -2.253   5.877  -6.582  1.00  0.00     0.206 C 
ATOM     29  C   UNL     1      -1.103   6.507  -4.797  1.00  0.00     0.208 C 
ATOM     30  O   UNL     1      -1.661   7.000  -5.930  1.00  0.00    -0.474 OA
ATOM     31  C   UNL     1      -3.765   5.962  -6.419  1.00  0.00     0.056 C 
BRANCH  29  32
ATOM     32  C   UNL     1      -0.547   7.575  -3.859  1.00  0.00     0.171 C 
BRANCH  32  33
ATOM     33  N   UNL     1      -0.597   8.889  -4.480  1.00  0.00    -0.342 N 
ATOM     34  C   UNL     1       0.475   9.437  -5.142  1.00  0.00     0.246 CG0
ATOM     35  O   UNL     1       1.562   8.873  -5.239  1.00  0.00    -0.273 OA
ATOM     36  H   UNL     1      -1.427   9.470  -4.412  1.00  0.00     0.164 HD
ATOM     37  G   UNL     1       0.197  10.809  -5.778  1.00  0.00     0.000 G0
ENDBRANCH  32  33
BRANCH  32  38
ATOM     38  C   UNL     1      -1.283   7.534  -2.494  1.00  0.00     0.017 C 
ATOM     39  C   UNL     1      -0.666   8.556  -1.531  1.00  0.00     0.010 C 
BRANCH  38  40
ATOM     40  C   UNL     1      -2.811   7.728  -2.626  1.00  0.00     0.002 C 
ATOM     41  C   UNL     1      -3.337   8.948  -1.883  1.00  0.00     0.004 C 
ENDBRANCH  38  40
ENDBRANCH  32  38
ENDBRANCH  29  32
ENDBRANCH  23  26
ENDBRANCH   1  22
TORSDOF 4
ENDMDL
