MODEL 1
REMARK VINA RESULT:    -5.611      0.000      0.000
REMARK INTER + INTRA:         -10.983
REMARK INTER:                  -9.546
REMARK INTRA:                  -1.436
REMARK UNBOUND:                -1.436
REMARK SMILES CC[C@H](C)[C@@H]1NC(=O)[C@H]2CSC(=N2)[C@@H]([C@@H](C)CC)NC(=O)c2csc(n2)CNC(=O)[C@H]2N=C1O[C@@H]2C
REMARK SMILES IDX 27 1 25 2 22 3 26 4 23 5 24 6 20 7 19 8 21 9 14 11 12 12
REMARK SMILES IDX 11 13 10 14 13 15 9 16 15 18 16 19 17 20 18 21 28 22 29 23
REMARK SMILES IDX 30 24 31 26 32 27 35 28 33 29 34 30 36 31 5 32 6 33 7 34
REMARK SMILES IDX 8 35 3 38 4 39 2 40 1 41
REMARK H PARENT 19 10 28 25 6 36
REMARK Flexibility Score:   91.900
ROOT
ATOM      1  C   UNL     1      -5.236   3.323  -3.277  1.00  0.00     0.183 C 
ENDROOT
BRANCH   1   2
ATOM      2  C   UNL     1      -3.922   3.837  -3.791  1.00  0.00     0.113 A 
ATOM      3  C   UNL     1      -1.999   3.888  -4.917  1.00  0.00     0.139 A 
ATOM      4  N   UNL     1      -3.223   3.240  -4.739  1.00  0.00    -0.234 NA
ATOM      5  C   UNL     1      -1.826   5.010  -4.130  1.00  0.00     0.101 A 
ATOM      6  S   UNL     1      -3.201   5.248  -3.130  1.00  0.00    -0.125 S 
BRANCH   3   7
ATOM      7  C   UNL     1      -1.010   3.344  -5.850  1.00  0.00     0.271 C 
ATOM      8  N   UNL     1      -1.591   2.952  -7.031  1.00  0.00    -0.341 N 
ATOM      9  O   UNL     1       0.180   3.225  -5.586  1.00  0.00    -0.267 OA
ATOM     10  H   UNL     1      -2.590   3.136  -7.113  1.00  0.00     0.164 HD
BRANCH   8  11
ATOM     11  C   UNL     1      -0.902   2.208  -8.072  1.00  0.00     0.140 C 
BRANCH  11  12
ATOM     12  C   UNL     1      -1.464   0.783  -8.082  1.00  0.00     0.091 C 
ATOM     13  S   UNL     1      -1.184  -0.272  -9.447  1.00  0.00    -0.106 SA
ATOM     14  C   UNL     1      -1.800  -1.681  -8.500  1.00  0.00     0.113 C 
ATOM     15  N   UNL     1      -2.219   0.337  -7.128  1.00  0.00    -0.267 NA
ATOM     16  C   UNL     1      -2.704  -1.040  -7.458  1.00  0.00     0.205 CG0
ATOM     17  G   UNL     1      -4.160  -1.006  -7.949  1.00  0.00     0.000 G0
ENDBRANCH  11  12
BRANCH  11  18
ATOM     18  C   UNL     1      -0.850   2.937  -9.439  1.00  0.00     0.015 C 
ATOM     19  C   UNL     1      -1.260   4.407  -9.277  1.00  0.00     0.010 C 
BRANCH  18  20
ATOM     20  C   UNL     1       0.490   2.806 -10.190  1.00  0.00     0.002 C 
ATOM     21  C   UNL     1       1.672   3.354  -9.399  1.00  0.00     0.004 C 
ENDBRANCH  18  20
ENDBRANCH  11  18
ENDBRANCH   8  11
ENDBRANCH   3   7
ENDBRANCH   1   2
BRANCH   1  22
ATOM     22  N   UNL     1      -6.007   2.887  -4.420  1.00  0.00    -0.348 N 
ATOM     23  C   UNL     1      -7.173   2.174  -4.349  1.00  0.00     0.249 C 
ATOM     24  O   UNL     1      -7.731   1.904  -3.291  1.00  0.00    -0.272 OA
ATOM     25  H   UNL     1      -5.622   3.041  -5.352  1.00  0.00     0.163 HD
BRANCH  23  26
ATOM     26  C   UNL     1      -7.732   1.807  -5.731  1.00  0.00     0.238 C 
ATOM     27  N   UNL     1      -6.696   1.059  -6.497  1.00  0.00    -0.236 NA
ATOM     28  C   UNL     1      -8.922   0.868  -5.632  1.00  0.00     0.206 C 
ATOM     29  C   UNL     1      -7.185  -0.144  -6.561  1.00  0.00     0.208 C 
ATOM     30  O   UNL     1      -8.391  -0.405  -6.000  1.00  0.00    -0.474 OA
ATOM     31  C   UNL     1     -10.035   1.230  -6.606  1.00  0.00     0.056 C 
BRANCH  29  32
ATOM     32  C   UNL     1      -6.506  -1.364  -7.177  1.00  0.00     0.171 C 
BRANCH  32  33
ATOM     33  N   UNL     1      -5.071  -1.337  -6.936  1.00  0.00    -0.342 N 
ATOM     34  C   UNL     1      -4.159  -1.045  -7.922  1.00  0.00     0.246 CG0
ATOM     35  O   UNL     1      -4.481  -0.811  -9.084  1.00  0.00    -0.273 OA
ATOM     36  H   UNL     1      -4.688  -1.573  -6.027  1.00  0.00     0.164 HD
ATOM     37  G   UNL     1      -2.697  -1.011  -7.447  1.00  0.00     0.000 G0
ENDBRANCH  32  33
BRANCH  32  38
ATOM     38  C   UNL     1      -7.170  -2.670  -6.668  1.00  0.00     0.017 C 
ATOM     39  C   UNL     1      -8.050  -3.277  -7.768  1.00  0.00     0.010 C 
BRANCH  38  40
ATOM     40  C   UNL     1      -6.147  -3.695  -6.127  1.00  0.00     0.002 C 
ATOM     41  C   UNL     1      -5.796  -4.791  -7.125  1.00  0.00     0.004 C 
ENDBRANCH  38  40
ENDBRANCH  32  38
ENDBRANCH  29  32
ENDBRANCH  23  26
ENDBRANCH   1  22
TORSDOF 4
ENDMDL
MODEL 2
REMARK VINA RESULT:    -5.585      8.097     10.954
REMARK INTER + INTRA:         -10.939
REMARK INTER:                  -9.170
REMARK INTRA:                  -1.769
REMARK UNBOUND:                -1.436
REMARK SMILES CC[C@H](C)[C@@H]1NC(=O)[C@H]2CSC(=N2)[C@@H]([C@@H](C)CC)NC(=O)c2csc(n2)CNC(=O)[C@H]2N=C1O[C@@H]2C
REMARK SMILES IDX 27 1 25 2 22 3 26 4 23 5 24 6 20 7 19 8 21 9 14 11 12 12
REMARK SMILES IDX 11 13 10 14 13 15 9 16 15 18 16 19 17 20 18 21 28 22 29 23
REMARK SMILES IDX 30 24 31 26 32 27 35 28 33 29 34 30 36 31 5 32 6 33 7 34
REMARK SMILES IDX 8 35 3 38 4 39 2 40 1 41
REMARK H PARENT 19 10 28 25 6 36
REMARK Flexibility Score:   91.900
ROOT
ATOM      1  C   UNL     1     -14.505  -1.081  -0.967  1.00  0.00     0.183 C 
ENDROOT
BRANCH   1   2
ATOM      2  C   UNL     1     -13.766  -1.083  -2.275  1.00  0.00     0.113 A 
ATOM      3  C   UNL     1     -12.115  -1.405  -3.736  1.00  0.00     0.139 A 
ATOM      4  N   UNL     1     -12.599  -1.674  -2.454  1.00  0.00    -0.234 NA
ATOM      5  C   UNL     1     -12.967  -0.655  -4.524  1.00  0.00     0.101 A 
ATOM      6  S   UNL     1     -14.386  -0.256  -3.645  1.00  0.00    -0.125 S 
BRANCH   3   7
ATOM      7  C   UNL     1     -10.785  -1.875  -4.131  1.00  0.00     0.271 C 
ATOM      8  N   UNL     1     -10.781  -3.224  -4.386  1.00  0.00    -0.341 N 
ATOM      9  O   UNL     1      -9.798  -1.153  -4.189  1.00  0.00    -0.267 OA
ATOM     10  H   UNL     1     -11.686  -3.688  -4.319  1.00  0.00     0.164 HD
BRANCH   8  11
ATOM     11  C   UNL     1      -9.579  -4.008  -4.616  1.00  0.00     0.140 C 
BRANCH  11  12
ATOM     12  C   UNL     1      -9.501  -5.080  -3.526  1.00  0.00     0.091 C 
ATOM     13  S   UNL     1      -9.972  -6.729  -3.866  1.00  0.00    -0.106 SA
ATOM     14  C   UNL     1      -9.253  -7.271  -2.302  1.00  0.00     0.113 C 
ATOM     15  N   UNL     1      -9.160  -4.797  -2.308  1.00  0.00    -0.267 NA
ATOM     16  C   UNL     1      -9.277  -6.015  -1.445  1.00  0.00     0.205 CG0
ATOM     17  G   UNL     1     -10.556  -5.962  -0.593  1.00  0.00     0.000 G0
ENDBRANCH  11  12
BRANCH  11  18
ATOM     18  C   UNL     1      -9.417  -4.499  -6.078  1.00  0.00     0.015 C 
ATOM     19  C   UNL     1     -10.736  -4.339  -6.845  1.00  0.00     0.010 C 
BRANCH  18  20
ATOM     20  C   UNL     1      -8.238  -3.865  -6.844  1.00  0.00     0.002 C 
ATOM     21  C   UNL     1      -6.940  -4.651  -6.697  1.00  0.00     0.004 C 
ENDBRANCH  18  20
ENDBRANCH  11  18
ENDBRANCH   8  11
ENDBRANCH   3   7
ENDBRANCH   1   2
BRANCH   1  22
ATOM     22  N   UNL     1     -13.569  -1.481   0.059  1.00  0.00    -0.348 N 
ATOM     23  C   UNL     1     -13.822  -1.441   1.404  1.00  0.00     0.249 C 
ATOM     24  O   UNL     1     -14.912  -1.137   1.874  1.00  0.00    -0.272 OA
ATOM     25  H   UNL     1     -12.621  -1.732  -0.220  1.00  0.00     0.163 HD
BRANCH  23  26
ATOM     26  C   UNL     1     -12.616  -1.876   2.249  1.00  0.00     0.238 C 
ATOM     27  N   UNL     1     -12.709  -3.337   2.523  1.00  0.00    -0.236 NA
ATOM     28  C   UNL     1     -11.303  -1.684   1.509  1.00  0.00     0.206 C 
ATOM     29  C   UNL     1     -11.732  -3.834   1.825  1.00  0.00     0.208 C 
ATOM     30  O   UNL     1     -10.935  -3.003   1.109  1.00  0.00    -0.474 OA
ATOM     31  C   UNL     1     -10.205  -1.123   2.403  1.00  0.00     0.056 C 
BRANCH  29  32
ATOM     32  C   UNL     1     -11.393  -5.314   1.669  1.00  0.00     0.171 C 
BRANCH  32  33
ATOM     33  N   UNL     1     -10.326  -5.502   0.698  1.00  0.00    -0.342 N 
ATOM     34  C   UNL     1     -10.560  -5.940  -0.584  1.00  0.00     0.246 CG0
ATOM     35  O   UNL     1     -11.679  -6.228  -1.000  1.00  0.00    -0.273 OA
ATOM     36  H   UNL     1      -9.355  -5.350   0.950  1.00  0.00     0.164 HD
ATOM     37  G   UNL     1      -9.305  -6.016  -1.470  1.00  0.00     0.000 G0
ENDBRANCH  32  33
BRANCH  32  38
ATOM     38  C   UNL     1     -11.060  -5.942   3.047  1.00  0.00     0.017 C 
ATOM     39  C   UNL     1     -11.312  -7.455   3.011  1.00  0.00     0.010 C 
BRANCH  38  40
ATOM     40  C   UNL     1      -9.627  -5.616   3.529  1.00  0.00     0.002 C 
ATOM     41  C   UNL     1      -9.519  -5.431   5.037  1.00  0.00     0.004 C 
ENDBRANCH  38  40
ENDBRANCH  32  38
ENDBRANCH  29  32
ENDBRANCH  23  26
ENDBRANCH   1  22
TORSDOF 4
ENDMDL
MODEL 3
REMARK VINA RESULT:    -5.517      2.376      6.446
REMARK INTER + INTRA:         -10.823
REMARK INTER:                  -9.107
REMARK INTRA:                  -1.716
REMARK UNBOUND:                -1.436
REMARK SMILES CC[C@H](C)[C@@H]1NC(=O)[C@H]2CSC(=N2)[C@@H]([C@@H](C)CC)NC(=O)c2csc(n2)CNC(=O)[C@H]2N=C1O[C@@H]2C
REMARK SMILES IDX 27 1 25 2 22 3 26 4 23 5 24 6 20 7 19 8 21 9 14 11 12 12
REMARK SMILES IDX 11 13 10 14 13 15 9 16 15 18 16 19 17 20 18 21 28 22 29 23
REMARK SMILES IDX 30 24 31 26 32 27 35 28 33 29 34 30 36 31 5 32 6 33 7 34
REMARK SMILES IDX 8 35 3 38 4 39 2 40 1 41
REMARK H PARENT 19 10 28 25 6 36
REMARK Flexibility Score:   91.900
ROOT
ATOM      1  C   UNL     1      -1.281   5.288  -5.597  1.00  0.00     0.183 C 
ENDROOT
BRANCH   1   2
ATOM      2  C   UNL     1      -2.525   5.039  -4.794  1.00  0.00     0.113 A 
ATOM      3  C   UNL     1      -4.690   4.788  -4.327  1.00  0.00     0.139 A 
ATOM      4  N   UNL     1      -3.723   4.889  -5.329  1.00  0.00    -0.234 NA
ATOM      5  C   UNL     1      -4.185   4.806  -3.041  1.00  0.00     0.101 A 
ATOM      6  S   UNL     1      -2.477   4.977  -3.080  1.00  0.00    -0.125 S 
BRANCH   3   7
ATOM      7  C   UNL     1      -6.109   4.714  -4.682  1.00  0.00     0.271 C 
ATOM      8  N   UNL     1      -6.569   3.421  -4.662  1.00  0.00    -0.341 N 
ATOM      9  O   UNL     1      -6.784   5.688  -4.990  1.00  0.00    -0.267 OA
ATOM     10  H   UNL     1      -5.894   2.718  -4.362  1.00  0.00     0.164 HD
BRANCH   8  11
ATOM     11  C   UNL     1      -7.877   3.011  -5.146  1.00  0.00     0.140 C 
BRANCH  11  12
ATOM     12  C   UNL     1      -7.693   1.738  -5.977  1.00  0.00     0.091 C 
ATOM     13  S   UNL     1      -8.397   0.226  -5.453  1.00  0.00    -0.106 SA
ATOM     14  C   UNL     1      -8.035  -0.514  -7.059  1.00  0.00     0.113 C 
ATOM     15  N   UNL     1      -6.957   1.715  -7.044  1.00  0.00    -0.267 NA
ATOM     16  C   UNL     1      -6.876   0.320  -7.582  1.00  0.00     0.205 CG0
ATOM     17  G   UNL     1      -5.531  -0.330  -7.218  1.00  0.00     0.000 G0
ENDBRANCH  11  12
BRANCH  11  18
ATOM     18  C   UNL     1      -8.969   2.965  -4.047  1.00  0.00     0.015 C 
ATOM     19  C   UNL     1      -8.333   3.069  -2.655  1.00  0.00     0.010 C 
BRANCH  18  20
ATOM     20  C   UNL     1     -10.106   3.991  -4.225  1.00  0.00     0.002 C 
ATOM     21  C   UNL     1     -10.525   4.170  -5.680  1.00  0.00     0.004 C 
ENDBRANCH  18  20
ENDBRANCH  11  18
ENDBRANCH   8  11
ENDBRANCH   3   7
ENDBRANCH   1   2
BRANCH   1  22
ATOM     22  N   UNL     1      -1.189   4.240  -6.590  1.00  0.00    -0.348 N 
ATOM     23  C   UNL     1      -0.270   3.227  -6.570  1.00  0.00     0.249 C 
ATOM     24  O   UNL     1       0.524   3.057  -5.652  1.00  0.00    -0.272 OA
ATOM     25  H   UNL     1      -1.790   4.297  -7.411  1.00  0.00     0.163 HD
BRANCH  23  26
ATOM     26  C   UNL     1      -0.384   2.296  -7.787  1.00  0.00     0.238 C 
ATOM     27  N   UNL     1      -0.866   0.960  -7.341  1.00  0.00    -0.236 NA
ATOM     28  C   UNL     1      -1.418   2.789  -8.785  1.00  0.00     0.206 C 
ATOM     29  C   UNL     1      -2.064   0.894  -7.839  1.00  0.00     0.208 C 
ATOM     30  O   UNL     1      -2.536   1.927  -8.579  1.00  0.00    -0.474 OA
ATOM     31  C   UNL     1      -0.952   2.646 -10.228  1.00  0.00     0.056 C 
BRANCH  29  32
ATOM     32  C   UNL     1      -3.067  -0.238  -7.636  1.00  0.00     0.171 C 
BRANCH  32  33
ATOM     33  N   UNL     1      -4.428   0.228  -7.851  1.00  0.00    -0.342 N 
ATOM     34  C   UNL     1      -5.516  -0.360  -7.252  1.00  0.00     0.246 CG0
ATOM     35  O   UNL     1      -5.427  -1.337  -6.513  1.00  0.00    -0.273 OA
ATOM     36  H   UNL     1      -4.626   0.992  -8.489  1.00  0.00     0.164 HD
ATOM     37  G   UNL     1      -6.859   0.320  -7.563  1.00  0.00     0.000 G0
ENDBRANCH  32  33
BRANCH  32  38
ATOM     38  C   UNL     1      -2.705  -1.451  -8.534  1.00  0.00     0.017 C 
ATOM     39  C   UNL     1      -2.584  -1.006  -9.997  1.00  0.00     0.010 C 
BRANCH  38  40
ATOM     40  C   UNL     1      -1.436  -2.195  -8.059  1.00  0.00     0.002 C 
ATOM     41  C   UNL     1      -1.706  -3.222  -6.967  1.00  0.00     0.004 C 
ENDBRANCH  38  40
ENDBRANCH  32  38
ENDBRANCH  29  32
ENDBRANCH  23  26
ENDBRANCH   1  22
TORSDOF 4
ENDMDL
MODEL 4
REMARK VINA RESULT:    -5.515      8.069     11.246
REMARK INTER + INTRA:         -10.821
REMARK INTER:                  -9.233
REMARK INTRA:                  -1.588
REMARK UNBOUND:                -1.436
REMARK SMILES CC[C@H](C)[C@@H]1NC(=O)[C@H]2CSC(=N2)[C@@H]([C@@H](C)CC)NC(=O)c2csc(n2)CNC(=O)[C@H]2N=C1O[C@@H]2C
REMARK SMILES IDX 27 1 25 2 22 3 26 4 23 5 24 6 20 7 19 8 21 9 14 11 12 12
REMARK SMILES IDX 11 13 10 14 13 15 9 16 15 18 16 19 17 20 18 21 28 22 29 23
REMARK SMILES IDX 30 24 31 26 32 27 35 28 33 29 34 30 36 31 5 32 6 33 7 34
REMARK SMILES IDX 8 35 3 38 4 39 2 40 1 41
REMARK H PARENT 19 10 28 25 6 36
REMARK Flexibility Score:   91.900
ROOT
ATOM      1  C   UNL     1     -11.478  -0.761  -0.119  1.00  0.00     0.183 C 
ENDROOT
BRANCH   1   2
ATOM      2  C   UNL     1     -11.898  -1.817   0.862  1.00  0.00     0.113 A 
ATOM      3  C   UNL     1     -11.877  -3.734   1.998  1.00  0.00     0.139 A 
ATOM      4  N   UNL     1     -11.174  -2.885   1.142  1.00  0.00    -0.234 NA
ATOM      5  C   UNL     1     -13.109  -3.253   2.396  1.00  0.00     0.101 A 
ATOM      6  S   UNL     1     -13.410  -1.727   1.671  1.00  0.00    -0.125 S 
BRANCH   3   7
ATOM      7  C   UNL     1     -11.311  -5.033   2.369  1.00  0.00     0.271 C 
ATOM      8  N   UNL     1     -10.071  -5.223   1.812  1.00  0.00    -0.341 N 
ATOM      9  O   UNL     1     -11.895  -5.856   3.063  1.00  0.00    -0.267 OA
ATOM     10  H   UNL     1      -9.704  -4.437   1.276  1.00  0.00     0.164 HD
BRANCH   8  11
ATOM     11  C   UNL     1      -9.344  -6.481   1.845  1.00  0.00     0.140 C 
BRANCH  11  12
ATOM     12  C   UNL     1      -9.071  -6.904   0.399  1.00  0.00     0.091 C 
ATOM     13  S   UNL     1      -7.517  -7.565  -0.054  1.00  0.00    -0.106 SA
ATOM     14  C   UNL     1      -8.186  -8.075  -1.652  1.00  0.00     0.113 C 
ATOM     15  N   UNL     1      -9.940  -6.724  -0.545  1.00  0.00    -0.267 NA
ATOM     16  C   UNL     1      -9.360  -7.132  -1.863  1.00  0.00     0.205 CG0
ATOM     17  G   UNL     1      -8.929  -5.901  -2.677  1.00  0.00     0.000 G0
ENDBRANCH  11  12
BRANCH  11  18
ATOM     18  C   UNL     1      -8.126  -6.480   2.804  1.00  0.00     0.015 C 
ATOM     19  C   UNL     1      -7.876  -5.068   3.350  1.00  0.00     0.010 C 
BRANCH  18  20
ATOM     20  C   UNL     1      -8.200  -7.519   3.942  1.00  0.00     0.002 C 
ATOM     21  C   UNL     1      -6.835  -8.079   4.327  1.00  0.00     0.004 C 
ENDBRANCH  18  20
ENDBRANCH  11  18
ENDBRANCH   8  11
ENDBRANCH   3   7
ENDBRANCH   1   2
BRANCH   1  22
ATOM     22  N   UNL     1     -11.674  -1.300  -1.446  1.00  0.00    -0.348 N 
ATOM     23  C   UNL     1     -11.757  -0.550  -2.588  1.00  0.00     0.249 C 
ATOM     24  O   UNL     1     -11.587   0.664  -2.609  1.00  0.00    -0.272 OA
ATOM     25  H   UNL     1     -11.849  -2.299  -1.542  1.00  0.00     0.163 HD
BRANCH  23  26
ATOM     26  C   UNL     1     -12.024  -1.399  -3.840  1.00  0.00     0.238 C 
ATOM     27  N   UNL     1     -10.731  -1.924  -4.362  1.00  0.00    -0.236 NA
ATOM     28  C   UNL     1     -12.864  -2.625  -3.527  1.00  0.00     0.206 C 
ATOM     29  C   UNL     1     -10.809  -3.199  -4.122  1.00  0.00     0.208 C 
ATOM     30  O   UNL     1     -11.926  -3.701  -3.540  1.00  0.00    -0.474 OA
ATOM     31  C   UNL     1     -13.925  -2.893  -4.587  1.00  0.00     0.056 C 
BRANCH  29  32
ATOM     32  C   UNL     1      -9.722  -4.237  -4.385  1.00  0.00     0.171 C 
BRANCH  32  33
ATOM     33  N   UNL     1      -9.916  -5.415  -3.554  1.00  0.00    -0.342 N 
ATOM     34  C   UNL     1      -8.945  -5.893  -2.707  1.00  0.00     0.246 CG0
ATOM     35  O   UNL     1      -7.834  -5.380  -2.605  1.00  0.00    -0.273 OA
ATOM     36  H   UNL     1     -10.775  -5.953  -3.600  1.00  0.00     0.164 HD
ATOM     37  G   UNL     1      -9.371  -7.113  -1.874  1.00  0.00     0.000 G0
ENDBRANCH  32  33
BRANCH  32  38
ATOM     38  C   UNL     1      -9.653  -4.580  -5.897  1.00  0.00     0.017 C 
ATOM     39  C   UNL     1     -11.015  -4.330  -6.556  1.00  0.00     0.010 C 
BRANCH  38  40
ATOM     40  C   UNL     1      -8.518  -3.833  -6.633  1.00  0.00     0.002 C 
ATOM     41  C   UNL     1      -7.127  -4.175  -6.115  1.00  0.00     0.004 C 
ENDBRANCH  38  40
ENDBRANCH  32  38
ENDBRANCH  29  32
ENDBRANCH  23  26
ENDBRANCH   1  22
TORSDOF 4
ENDMDL
MODEL 5
REMARK VINA RESULT:    -4.475      3.422      8.162
REMARK INTER + INTRA:          -9.050
REMARK INTER:                  -8.080
REMARK INTRA:                  -0.970
REMARK UNBOUND:                -1.436
REMARK SMILES CC[C@H](C)[C@@H]1NC(=O)[C@H]2CSC(=N2)[C@@H]([C@@H](C)CC)NC(=O)c2csc(n2)CNC(=O)[C@H]2N=C1O[C@@H]2C
REMARK SMILES IDX 27 1 25 2 22 3 26 4 23 5 24 6 20 7 19 8 21 9 14 11 12 12
REMARK SMILES IDX 11 13 10 14 13 15 9 16 15 18 16 19 17 20 18 21 28 22 29 23
REMARK SMILES IDX 30 24 31 26 32 27 35 28 33 29 34 30 36 31 5 32 6 33 7 34
REMARK SMILES IDX 8 35 3 38 4 39 2 40 1 41
REMARK H PARENT 19 10 28 25 6 36
REMARK Flexibility Score:   91.900
ROOT
ATOM      1  C   UNL     1      -5.970   0.705 -10.709  1.00  0.00     0.183 C 
ENDROOT
BRANCH   1   2
ATOM      2  C   UNL     1      -6.969   1.568  -9.993  1.00  0.00     0.113 A 
ATOM      3  C   UNL     1      -7.915   2.739  -8.350  1.00  0.00     0.139 A 
ATOM      4  N   UNL     1      -6.765   2.084  -8.796  1.00  0.00    -0.234 NA
ATOM      5  C   UNL     1      -8.955   2.751  -9.259  1.00  0.00     0.101 A 
ATOM      6  S   UNL     1      -8.503   1.910 -10.685  1.00  0.00    -0.125 S 
BRANCH   3   7
ATOM      7  C   UNL     1      -7.958   3.307  -7.001  1.00  0.00     0.271 C 
ATOM      8  N   UNL     1      -7.652   2.368  -6.046  1.00  0.00    -0.341 N 
ATOM      9  O   UNL     1      -8.265   4.468  -6.761  1.00  0.00    -0.267 OA
ATOM     10  H   UNL     1      -7.394   1.448  -6.401  1.00  0.00     0.164 HD
BRANCH   8  11
ATOM     11  C   UNL     1      -7.793   2.582  -4.615  1.00  0.00     0.140 C 
BRANCH  11  12
ATOM     12  C   UNL     1      -6.597   3.415  -4.144  1.00  0.00     0.091 C 
ATOM     13  S   UNL     1      -6.789   5.111  -3.770  1.00  0.00    -0.106 SA
ATOM     14  C   UNL     1      -5.149   5.144  -3.017  1.00  0.00     0.113 C 
ATOM     15  N   UNL     1      -5.400   2.921  -4.078  1.00  0.00    -0.267 NA
ATOM     16  C   UNL     1      -4.425   3.989  -3.692  1.00  0.00     0.205 CG0
ATOM     17  G   UNL     1      -3.639   4.482  -4.918  1.00  0.00     0.000 G0
ENDBRANCH  11  12
BRANCH  11  18
ATOM     18  C   UNL     1      -9.195   3.087  -4.189  1.00  0.00     0.015 C 
ATOM     19  C   UNL     1     -10.292   2.303  -4.921  1.00  0.00     0.010 C 
BRANCH  18  20
ATOM     20  C   UNL     1      -9.437   3.106  -2.666  1.00  0.00     0.002 C 
ATOM     21  C   UNL     1      -9.348   1.722  -2.031  1.00  0.00     0.004 C 
ENDBRANCH  18  20
ENDBRANCH  11  18
ENDBRANCH   8  11
ENDBRANCH   3   7
ENDBRANCH   1   2
BRANCH   1  22
ATOM     22  N   UNL     1      -4.742   0.742  -9.947  1.00  0.00    -0.348 N 
ATOM     23  C   UNL     1      -3.510   1.032 -10.467  1.00  0.00     0.249 C 
ATOM     24  O   UNL     1      -3.336   1.376 -11.631  1.00  0.00    -0.272 OA
ATOM     25  H   UNL     1      -4.769   0.451  -8.970  1.00  0.00     0.163 HD
BRANCH  23  26
ATOM     26  C   UNL     1      -2.386   0.939  -9.424  1.00  0.00     0.238 C 
ATOM     27  N   UNL     1      -1.985   2.312  -9.011  1.00  0.00    -0.236 NA
ATOM     28  C   UNL     1      -2.847   0.250  -8.151  1.00  0.00     0.206 C 
ATOM     29  C   UNL     1      -2.403   2.388  -7.783  1.00  0.00     0.208 C 
ATOM     30  O   UNL     1      -3.018   1.318  -7.221  1.00  0.00    -0.474 OA
ATOM     31  C   UNL     1      -1.806  -0.714  -7.599  1.00  0.00     0.056 C 
BRANCH  29  32
ATOM     32  C   UNL     1      -2.326   3.612  -6.874  1.00  0.00     0.171 C 
BRANCH  32  33
ATOM     33  N   UNL     1      -3.097   3.406  -5.658  1.00  0.00    -0.342 N 
ATOM     34  C   UNL     1      -3.602   4.446  -4.916  1.00  0.00     0.246 CG0
ATOM     35  O   UNL     1      -3.422   5.626  -5.206  1.00  0.00    -0.273 OA
ATOM     36  H   UNL     1      -3.258   2.474  -5.291  1.00  0.00     0.164 HD
ATOM     37  G   UNL     1      -4.437   4.014  -3.700  1.00  0.00     0.000 G0
ENDBRANCH  32  33
BRANCH  32  38
ATOM     38  C   UNL     1      -0.847   3.981  -6.586  1.00  0.00     0.017 C 
ATOM     39  C   UNL     1      -0.014   2.707  -6.395  1.00  0.00     0.010 C 
BRANCH  38  40
ATOM     40  C   UNL     1      -0.235   4.906  -7.663  1.00  0.00     0.002 C 
ATOM     41  C   UNL     1       0.715   4.189  -8.613  1.00  0.00     0.004 C 
ENDBRANCH  38  40
ENDBRANCH  32  38
ENDBRANCH  29  32
ENDBRANCH  23  26
ENDBRANCH   1  22
TORSDOF 4
ENDMDL
MODEL 6
REMARK VINA RESULT:    -4.100     21.220     24.941
REMARK INTER + INTRA:          -8.413
REMARK INTER:                  -7.627
REMARK INTRA:                  -0.786
REMARK UNBOUND:                -1.436
REMARK SMILES CC[C@H](C)[C@@H]1NC(=O)[C@H]2CSC(=N2)[C@@H]([C@@H](C)CC)NC(=O)c2csc(n2)CNC(=O)[C@H]2N=C1O[C@@H]2C
REMARK SMILES IDX 27 1 25 2 22 3 26 4 23 5 24 6 20 7 19 8 21 9 14 11 12 12
REMARK SMILES IDX 11 13 10 14 13 15 9 16 15 18 16 19 17 20 18 21 28 22 29 23
REMARK SMILES IDX 30 24 31 26 32 27 35 28 33 29 34 30 36 31 5 32 6 33 7 34
REMARK SMILES IDX 8 35 3 38 4 39 2 40 1 41
REMARK H PARENT 19 10 28 25 6 36
REMARK Flexibility Score:   91.900
ROOT
ATOM      1  C   UNL     1     -19.977  -2.318   8.656  1.00  0.00     0.183 C 
ENDROOT
BRANCH   1   2
ATOM      2  C   UNL     1     -20.565  -2.530  10.022  1.00  0.00     0.113 A 
ATOM      3  C   UNL     1     -20.681  -3.069  12.182  1.00  0.00     0.139 A 
ATOM      4  N   UNL     1     -19.845  -2.819  11.091  1.00  0.00    -0.234 NA
ATOM      5  C   UNL     1     -22.027  -2.903  11.921  1.00  0.00     0.101 A 
ATOM      6  S   UNL     1     -22.260  -2.452  10.281  1.00  0.00    -0.125 S 
BRANCH   3   7
ATOM      7  C   UNL     1     -20.110  -3.508  13.457  1.00  0.00     0.271 C 
ATOM      8  N   UNL     1     -19.800  -4.846  13.438  1.00  0.00    -0.341 N 
ATOM      9  O   UNL     1     -19.963  -2.774  14.426  1.00  0.00    -0.267 OA
ATOM     10  H   UNL     1     -19.956  -5.322  12.551  1.00  0.00     0.164 HD
BRANCH   8  11
ATOM     11  C   UNL     1     -19.394  -5.607  14.608  1.00  0.00     0.140 C 
BRANCH  11  12
ATOM     12  C   UNL     1     -18.037  -5.070  15.071  1.00  0.00     0.091 C 
ATOM     13  S   UNL     1     -17.875  -4.283  16.623  1.00  0.00    -0.106 SA
ATOM     14  C   UNL     1     -16.076  -4.345  16.482  1.00  0.00     0.113 C 
ATOM     15  N   UNL     1     -16.987  -5.110  14.311  1.00  0.00    -0.267 NA
ATOM     16  C   UNL     1     -15.841  -4.421  14.981  1.00  0.00     0.205 CG0
ATOM     17  G   UNL     1     -15.626  -3.016  14.393  1.00  0.00     0.000 G0
ENDBRANCH  11  12
BRANCH  11  18
ATOM     18  C   UNL     1     -20.494  -5.727  15.694  1.00  0.00     0.015 C 
ATOM     19  C   UNL     1     -21.870  -5.394  15.102  1.00  0.00     0.010 C 
BRANCH  18  20
ATOM     20  C   UNL     1     -20.514  -7.073  16.446  1.00  0.00     0.002 C 
ATOM     21  C   UNL     1     -20.747  -8.265  15.524  1.00  0.00     0.004 C 
ENDBRANCH  18  20
ENDBRANCH  11  18
ENDBRANCH   8  11
ENDBRANCH   3   7
ENDBRANCH   1   2
BRANCH   1  22
ATOM     22  N   UNL     1     -18.538  -2.351   8.795  1.00  0.00    -0.348 N 
ATOM     23  C   UNL     1     -17.732  -1.246   8.807  1.00  0.00     0.249 C 
ATOM     24  O   UNL     1     -18.163  -0.098   8.787  1.00  0.00    -0.272 OA
ATOM     25  H   UNL     1     -18.072  -3.257   8.798  1.00  0.00     0.163 HD
BRANCH  23  26
ATOM     26  C   UNL     1     -16.240  -1.599   8.911  1.00  0.00     0.238 C 
ATOM     27  N   UNL     1     -15.656  -0.920  10.101  1.00  0.00    -0.236 NA
ATOM     28  C   UNL     1     -16.022  -3.084   9.143  1.00  0.00     0.206 C 
ATOM     29  C   UNL     1     -15.407  -1.903  10.913  1.00  0.00     0.208 C 
ATOM     30  O   UNL     1     -15.684  -3.173  10.526  1.00  0.00    -0.474 OA
ATOM     31  C   UNL     1     -14.865  -3.640   8.323  1.00  0.00     0.056 C 
BRANCH  29  32
ATOM     32  C   UNL     1     -14.861  -1.788  12.333  1.00  0.00     0.171 C 
BRANCH  32  33
ATOM     33  N   UNL     1     -15.105  -3.009  13.084  1.00  0.00    -0.342 N 
ATOM     34  C   UNL     1     -15.613  -3.004  14.362  1.00  0.00     0.246 CG0
ATOM     35  O   UNL     1     -15.874  -1.973  14.975  1.00  0.00    -0.273 OA
ATOM     36  H   UNL     1     -14.871  -3.917  12.699  1.00  0.00     0.164 HD
ATOM     37  G   UNL     1     -15.852  -4.402  14.957  1.00  0.00     0.000 G0
ENDBRANCH  32  33
BRANCH  32  38
ATOM     38  C   UNL     1     -13.360  -1.395  12.308  1.00  0.00     0.017 C 
ATOM     39  C   UNL     1     -12.562  -2.416  11.487  1.00  0.00     0.010 C 
BRANCH  38  40
ATOM     40  C   UNL     1     -13.123   0.048  11.806  1.00  0.00     0.002 C 
ATOM     41  C   UNL     1     -11.676   0.331  11.427  1.00  0.00     0.004 C 
ENDBRANCH  38  40
ENDBRANCH  32  38
ENDBRANCH  29  32
ENDBRANCH  23  26
ENDBRANCH   1  22
TORSDOF 4
ENDMDL
MODEL 7
REMARK VINA RESULT:    -4.021      4.106      9.214
REMARK INTER + INTRA:          -8.279
REMARK INTER:                  -7.384
REMARK INTRA:                  -0.895
REMARK UNBOUND:                -1.436
REMARK SMILES CC[C@H](C)[C@@H]1NC(=O)[C@H]2CSC(=N2)[C@@H]([C@@H](C)CC)NC(=O)c2csc(n2)CNC(=O)[C@H]2N=C1O[C@@H]2C
REMARK SMILES IDX 27 1 25 2 22 3 26 4 23 5 24 6 20 7 19 8 21 9 14 11 12 12
REMARK SMILES IDX 11 13 10 14 13 15 9 16 15 18 16 19 17 20 18 21 28 22 29 23
REMARK SMILES IDX 30 24 31 26 32 27 35 28 33 29 34 30 36 31 5 32 6 33 7 34
REMARK SMILES IDX 8 35 3 38 4 39 2 40 1 41
REMARK H PARENT 19 10 28 25 6 36
REMARK Flexibility Score:   91.900
ROOT
ATOM      1  C   UNL     1      -4.515  -2.280  -7.556  1.00  0.00     0.183 C 
ENDROOT
BRANCH   1   2
ATOM      2  C   UNL     1      -5.722  -2.993  -7.018  1.00  0.00     0.113 A 
ATOM      3  C   UNL     1      -7.590  -3.344  -5.855  1.00  0.00     0.139 A 
ATOM      4  N   UNL     1      -6.664  -2.402  -6.307  1.00  0.00    -0.234 NA
ATOM      5  C   UNL     1      -7.355  -4.633  -6.291  1.00  0.00     0.101 A 
ATOM      6  S   UNL     1      -5.939  -4.679  -7.261  1.00  0.00    -0.125 S 
BRANCH   3   7
ATOM      7  C   UNL     1      -8.675  -2.934  -4.960  1.00  0.00     0.271 C 
ATOM      8  N   UNL     1      -8.310  -3.044  -3.641  1.00  0.00    -0.341 N 
ATOM      9  O   UNL     1      -9.778  -2.573  -5.349  1.00  0.00    -0.267 OA
ATOM     10  H   UNL     1      -7.349  -3.337  -3.472  1.00  0.00     0.164 HD
BRANCH   8  11
ATOM     11  C   UNL     1      -9.228  -2.890  -2.524  1.00  0.00     0.140 C 
BRANCH  11  12
ATOM     12  C   UNL     1      -9.757  -1.453  -2.545  1.00  0.00     0.091 C 
ATOM     13  S   UNL     1     -11.440  -1.131  -2.887  1.00  0.00    -0.106 SA
ATOM     14  C   UNL     1     -11.233   0.584  -2.362  1.00  0.00     0.113 C 
ATOM     15  N   UNL     1      -8.975  -0.431  -2.387  1.00  0.00    -0.267 NA
ATOM     16  C   UNL     1      -9.747   0.839  -2.563  1.00  0.00     0.205 CG0
ATOM     17  G   UNL     1      -9.483   1.454  -3.947  1.00  0.00     0.000 G0
ENDBRANCH  11  12
BRANCH  11  18
ATOM     18  C   UNL     1     -10.291  -4.014  -2.422  1.00  0.00     0.015 C 
ATOM     19  C   UNL     1      -9.815  -5.270  -3.162  1.00  0.00     0.010 C 
BRANCH  18  20
ATOM     20  C   UNL     1     -10.745  -4.344  -0.985  1.00  0.00     0.002 C 
ATOM     21  C   UNL     1     -10.935  -5.838  -0.750  1.00  0.00     0.004 C 
ENDBRANCH  18  20
ENDBRANCH  11  18
ENDBRANCH   8  11
ENDBRANCH   3   7
ENDBRANCH   1   2
BRANCH   1  22
ATOM     22  N   UNL     1      -4.518  -0.945  -7.002  1.00  0.00    -0.348 N 
ATOM     23  C   UNL     1      -4.994   0.165  -7.646  1.00  0.00     0.249 C 
ATOM     24  O   UNL     1      -5.548   0.123  -8.739  1.00  0.00    -0.272 OA
ATOM     25  H   UNL     1      -4.060  -0.792  -6.105  1.00  0.00     0.163 HD
BRANCH  23  26
ATOM     26  C   UNL     1      -4.812   1.452  -6.827  1.00  0.00     0.238 C 
ATOM     27  N   UNL     1      -6.050   2.274  -6.922  1.00  0.00    -0.236 NA
ATOM     28  C   UNL     1      -4.628   1.163  -5.347  1.00  0.00     0.206 C 
ATOM     29  C   UNL     1      -6.546   2.205  -5.723  1.00  0.00     0.208 C 
ATOM     30  O   UNL     1      -5.888   1.501  -4.769  1.00  0.00    -0.474 OA
ATOM     31  C   UNL     1      -3.552   2.033  -4.711  1.00  0.00     0.056 C 
BRANCH  29  32
ATOM     32  C   UNL     1      -7.867   2.809  -5.254  1.00  0.00     0.171 C 
BRANCH  32  33
ATOM     33  N   UNL     1      -8.320   2.175  -4.026  1.00  0.00    -0.342 N 
ATOM     34  C   UNL     1      -9.490   1.456  -3.951  1.00  0.00     0.246 CG0
ATOM     35  O   UNL     1     -10.252   1.315  -4.905  1.00  0.00    -0.273 OA
ATOM     36  H   UNL     1      -7.800   2.275  -3.161  1.00  0.00     0.164 HD
ATOM     37  G   UNL     1      -9.758   0.818  -2.579  1.00  0.00     0.000 G0
ENDBRANCH  32  33
BRANCH  32  38
ATOM     38  C   UNL     1      -7.741   4.349  -5.117  1.00  0.00     0.017 C 
ATOM     39  C   UNL     1      -8.851   4.889  -4.207  1.00  0.00     0.010 C 
BRANCH  38  40
ATOM     40  C   UNL     1      -6.342   4.799  -4.637  1.00  0.00     0.002 C 
ATOM     41  C   UNL     1      -6.244   4.977  -3.127  1.00  0.00     0.004 C 
ENDBRANCH  38  40
ENDBRANCH  32  38
ENDBRANCH  29  32
ENDBRANCH  23  26
ENDBRANCH   1  22
TORSDOF 4
ENDMDL
MODEL 8
REMARK VINA RESULT:    -3.914     17.267     20.364
REMARK INTER + INTRA:          -8.097
REMARK INTER:                  -6.526
REMARK INTRA:                  -1.570
REMARK UNBOUND:                -1.436
REMARK SMILES CC[C@H](C)[C@@H]1NC(=O)[C@H]2CSC(=N2)[C@@H]([C@@H](C)CC)NC(=O)c2csc(n2)CNC(=O)[C@H]2N=C1O[C@@H]2C
REMARK SMILES IDX 27 1 25 2 22 3 26 4 23 5 24 6 20 7 19 8 21 9 14 11 12 12
REMARK SMILES IDX 11 13 10 14 13 15 9 16 15 18 16 19 17 20 18 21 28 22 29 23
REMARK SMILES IDX 30 24 31 26 32 27 35 28 33 29 34 30 36 31 5 32 6 33 7 34
REMARK SMILES IDX 8 35 3 38 4 39 2 40 1 41
REMARK H PARENT 19 10 28 25 6 36
REMARK Flexibility Score:   91.900
ROOT
ATOM      1  C   UNL     1     -19.024  -3.056   7.041  1.00  0.00     0.183 C 
ENDROOT
BRANCH   1   2
ATOM      2  C   UNL     1     -18.522  -1.954   6.153  1.00  0.00     0.113 A 
ATOM      3  C   UNL     1     -18.180   0.108   5.379  1.00  0.00     0.139 A 
ATOM      4  N   UNL     1     -18.634  -0.671   6.445  1.00  0.00    -0.234 NA
ATOM      5  C   UNL     1     -17.676  -0.616   4.316  1.00  0.00     0.101 A 
ATOM      6  S   UNL     1     -17.791  -2.298   4.638  1.00  0.00    -0.125 S 
BRANCH   3   7
ATOM      7  C   UNL     1     -18.299   1.566   5.434  1.00  0.00     0.271 C 
ATOM      8  N   UNL     1     -17.085   2.165   5.665  1.00  0.00    -0.341 N 
ATOM      9  O   UNL     1     -19.360   2.167   5.322  1.00  0.00    -0.267 OA
ATOM     10  H   UNL     1     -16.285   1.535   5.713  1.00  0.00     0.164 HD
BRANCH   8  11
ATOM     11  C   UNL     1     -16.913   3.579   5.955  1.00  0.00     0.140 C 
BRANCH  11  12
ATOM     12  C   UNL     1     -16.434   3.706   7.404  1.00  0.00     0.091 C 
ATOM     13  S   UNL     1     -15.185   4.853   7.829  1.00  0.00    -0.106 SA
ATOM     14  C   UNL     1     -15.530   4.599   9.583  1.00  0.00     0.113 C 
ATOM     15  N   UNL     1     -16.875   2.931   8.344  1.00  0.00    -0.267 NA
ATOM     16  C   UNL     1     -16.154   3.213   9.625  1.00  0.00     0.205 CG0
ATOM     17  G   UNL     1     -15.084   2.143   9.900  1.00  0.00     0.000 G0
ENDBRANCH  11  12
BRANCH  11  18
ATOM     18  C   UNL     1     -16.090   4.346   4.888  1.00  0.00     0.015 C 
ATOM     19  C   UNL     1     -15.301   3.363   4.013  1.00  0.00     0.010 C 
BRANCH  18  20
ATOM     20  C   UNL     1     -16.908   5.332   4.030  1.00  0.00     0.002 C 
ATOM     21  C   UNL     1     -18.413   5.107   4.136  1.00  0.00     0.004 C 
ENDBRANCH  18  20
ENDBRANCH  11  18
ENDBRANCH   8  11
ENDBRANCH   3   7
ENDBRANCH   1   2
BRANCH   1  22
ATOM     22  N   UNL     1     -18.235  -3.029   8.253  1.00  0.00    -0.348 N 
ATOM     23  C   UNL     1     -17.022  -3.642   8.407  1.00  0.00     0.249 C 
ATOM     24  O   UNL     1     -16.436  -4.213   7.494  1.00  0.00    -0.272 OA
ATOM     25  H   UNL     1     -18.639  -2.598   9.084  1.00  0.00     0.163 HD
BRANCH  23  26
ATOM     26  C   UNL     1     -16.451  -3.484   9.825  1.00  0.00     0.238 C 
ATOM     27  N   UNL     1     -15.245  -2.612   9.774  1.00  0.00    -0.236 NA
ATOM     28  C   UNL     1     -17.424  -2.779  10.754  1.00  0.00     0.206 C 
ATOM     29  C   UNL     1     -15.635  -1.529  10.378  1.00  0.00     0.208 C 
ATOM     30  O   UNL     1     -16.895  -1.459  10.873  1.00  0.00    -0.474 OA
ATOM     31  C   UNL     1     -17.471  -3.411  12.139  1.00  0.00     0.056 C 
BRANCH  29  32
ATOM     32  C   UNL     1     -14.821  -0.250  10.557  1.00  0.00     0.171 C 
BRANCH  32  33
ATOM     33  N   UNL     1     -15.639   0.926  10.302  1.00  0.00    -0.342 N 
ATOM     34  C   UNL     1     -15.103   2.130   9.911  1.00  0.00     0.246 CG0
ATOM     35  O   UNL     1     -13.897   2.313   9.772  1.00  0.00    -0.273 OA
ATOM     36  H   UNL     1     -16.643   0.906  10.442  1.00  0.00     0.164 HD
ATOM     37  G   UNL     1     -16.142   3.229   9.636  1.00  0.00     0.000 G0
ENDBRANCH  32  33
BRANCH  32  38
ATOM     38  C   UNL     1     -14.159  -0.221  11.960  1.00  0.00     0.017 C 
ATOM     39  C   UNL     1     -15.220   0.025  13.039  1.00  0.00     0.010 C 
BRANCH  38  40
ATOM     40  C   UNL     1     -13.326  -1.489  12.259  1.00  0.00     0.002 C 
ATOM     41  C   UNL     1     -11.836  -1.216  12.419  1.00  0.00     0.004 C 
ENDBRANCH  38  40
ENDBRANCH  32  38
ENDBRANCH  29  32
ENDBRANCH  23  26
ENDBRANCH   1  22
TORSDOF 4
ENDMDL
MODEL 9
REMARK VINA RESULT:    -3.883     20.344     23.207
REMARK INTER + INTRA:          -8.043
REMARK INTER:                  -7.318
REMARK INTRA:                  -0.725
REMARK UNBOUND:                -1.436
REMARK SMILES CC[C@H](C)[C@@H]1NC(=O)[C@H]2CSC(=N2)[C@@H]([C@@H](C)CC)NC(=O)c2csc(n2)CNC(=O)[C@H]2N=C1O[C@@H]2C
REMARK SMILES IDX 27 1 25 2 22 3 26 4 23 5 24 6 20 7 19 8 21 9 14 11 12 12
REMARK SMILES IDX 11 13 10 14 13 15 9 16 15 18 16 19 17 20 18 21 28 22 29 23
REMARK SMILES IDX 30 24 31 26 32 27 35 28 33 29 34 30 36 31 5 32 6 33 7 34
REMARK SMILES IDX 8 35 3 38 4 39 2 40 1 41
REMARK H PARENT 19 10 28 25 6 36
REMARK Flexibility Score:   91.900
ROOT
ATOM      1  C   UNL     1     -20.717  -2.706  13.240  1.00  0.00     0.183 C 
ENDROOT
BRANCH   1   2
ATOM      2  C   UNL     1     -20.059  -2.165  12.004  1.00  0.00     0.113 A 
ATOM      3  C   UNL     1     -18.439  -1.524  10.614  1.00  0.00     0.139 A 
ATOM      4  N   UNL     1     -18.757  -2.204  11.791  1.00  0.00    -0.234 NA
ATOM      5  C   UNL     1     -19.531  -1.031   9.926  1.00  0.00     0.101 A 
ATOM      6  S   UNL     1     -20.978  -1.398  10.773  1.00  0.00    -0.125 S 
BRANCH   3   7
ATOM      7  C   UNL     1     -17.039  -1.349  10.223  1.00  0.00     0.271 C 
ATOM      8  N   UNL     1     -16.362  -0.547  11.109  1.00  0.00    -0.341 N 
ATOM      9  O   UNL     1     -16.549  -1.833   9.210  1.00  0.00    -0.267 OA
ATOM     10  H   UNL     1     -16.897  -0.237  11.919  1.00  0.00     0.164 HD
BRANCH   8  11
ATOM     11  C   UNL     1     -15.017  -0.043  10.891  1.00  0.00     0.140 C 
BRANCH  11  12
ATOM     12  C   UNL     1     -14.044  -1.215  11.046  1.00  0.00     0.091 C 
ATOM     13  S   UNL     1     -13.178  -1.839   9.662  1.00  0.00    -0.106 SA
ATOM     14  C   UNL     1     -12.116  -2.813  10.749  1.00  0.00     0.113 C 
ATOM     15  N   UNL     1     -13.884  -1.830  12.176  1.00  0.00    -0.267 NA
ATOM     16  C   UNL     1     -12.960  -2.994  12.001  1.00  0.00     0.205 CG0
ATOM     17  G   UNL     1     -13.746  -4.314  11.940  1.00  0.00     0.000 G0
ENDBRANCH  11  12
BRANCH  11  18
ATOM     18  C   UNL     1     -14.865   0.814   9.608  1.00  0.00     0.015 C 
ATOM     19  C   UNL     1     -16.120   1.666   9.381  1.00  0.00     0.010 C 
BRANCH  18  20
ATOM     20  C   UNL     1     -13.584   1.672   9.554  1.00  0.00     0.002 C 
ATOM     21  C   UNL     1     -13.784   2.994   8.820  1.00  0.00     0.004 C 
ENDBRANCH  18  20
ENDBRANCH  11  18
ENDBRANCH   8  11
ENDBRANCH   3   7
ENDBRANCH   1   2
BRANCH   1  22
ATOM     22  N   UNL     1     -19.726  -3.481  13.953  1.00  0.00    -0.348 N 
ATOM     23  C   UNL     1     -19.690  -4.848  13.999  1.00  0.00     0.249 C 
ATOM     24  O   UNL     1     -20.456  -5.562  13.361  1.00  0.00    -0.272 OA
ATOM     25  H   UNL     1     -19.052  -2.987  14.536  1.00  0.00     0.163 HD
BRANCH  23  26
ATOM     26  C   UNL     1     -18.554  -5.385  14.882  1.00  0.00     0.238 C 
ATOM     27  N   UNL     1     -17.629  -6.203  14.048  1.00  0.00    -0.236 NA
ATOM     28  C   UNL     1     -17.702  -4.266  15.456  1.00  0.00     0.206 C 
ATOM     29  C   UNL     1     -16.549  -5.481  14.007  1.00  0.00     0.208 C 
ATOM     30  O   UNL     1     -16.511  -4.299  14.671  1.00  0.00    -0.474 OA
ATOM     31  C   UNL     1     -17.331  -4.503  16.913  1.00  0.00     0.056 C 
BRANCH  29  32
ATOM     32  C   UNL     1     -15.279  -5.797  13.222  1.00  0.00     0.171 C 
BRANCH  32  33
ATOM     33  N   UNL     1     -14.440  -4.616  13.093  1.00  0.00    -0.342 N 
ATOM     34  C   UNL     1     -13.742  -4.325  11.945  1.00  0.00     0.246 CG0
ATOM     35  O   UNL     1     -13.751  -5.049  10.954  1.00  0.00    -0.273 OA
ATOM     36  H   UNL     1     -14.311  -3.977  13.870  1.00  0.00     0.164 HD
ATOM     37  G   UNL     1     -12.963  -3.000  11.992  1.00  0.00     0.000 G0
ENDBRANCH  32  33
BRANCH  32  38
ATOM     38  C   UNL     1     -14.527  -6.992  13.865  1.00  0.00     0.017 C 
ATOM     39  C   UNL     1     -13.138  -7.143  13.233  1.00  0.00     0.010 C 
BRANCH  38  40
ATOM     40  C   UNL     1     -14.443  -6.893  15.406  1.00  0.00     0.002 C 
ATOM     41  C   UNL     1     -14.875  -8.166  16.123  1.00  0.00     0.004 C 
ENDBRANCH  38  40
ENDBRANCH  32  38
ENDBRANCH  29  32
ENDBRANCH  23  26
ENDBRANCH   1  22
TORSDOF 4
ENDMDL
MODEL 10
REMARK VINA RESULT:    -3.811     20.445     23.996
REMARK INTER + INTRA:          -7.920
REMARK INTER:                  -7.558
REMARK INTRA:                  -0.362
REMARK UNBOUND:                -1.436
REMARK SMILES CC[C@H](C)[C@@H]1NC(=O)[C@H]2CSC(=N2)[C@@H]([C@@H](C)CC)NC(=O)c2csc(n2)CNC(=O)[C@H]2N=C1O[C@@H]2C
REMARK SMILES IDX 27 1 25 2 22 3 26 4 23 5 24 6 20 7 19 8 21 9 14 11 12 12
REMARK SMILES IDX 11 13 10 14 13 15 9 16 15 18 16 19 17 20 18 21 28 22 29 23
REMARK SMILES IDX 30 24 31 26 32 27 35 28 33 29 34 30 36 31 5 32 6 33 7 34
REMARK SMILES IDX 8 35 3 38 4 39 2 40 1 41
REMARK H PARENT 19 10 28 25 6 36
REMARK Flexibility Score:   91.900
ROOT
ATOM      1  C   UNL     1     -21.411  -1.499  10.825  1.00  0.00     0.183 C 
ENDROOT
BRANCH   1   2
ATOM      2  C   UNL     1     -20.908  -2.370  11.941  1.00  0.00     0.113 A 
ATOM      3  C   UNL     1     -19.502  -3.239  13.435  1.00  0.00     0.139 A 
ATOM      4  N   UNL     1     -19.731  -2.212  12.518  1.00  0.00    -0.234 NA
ATOM      5  C   UNL     1     -20.550  -4.127  13.573  1.00  0.00     0.101 A 
ATOM      6  S   UNL     1     -21.836  -3.691  12.523  1.00  0.00    -0.125 S 
BRANCH   3   7
ATOM      7  C   UNL     1     -18.214  -3.330  14.128  1.00  0.00     0.271 C 
ATOM      8  N   UNL     1     -17.749  -4.621  14.164  1.00  0.00    -0.341 N 
ATOM      9  O   UNL     1     -17.648  -2.372  14.639  1.00  0.00    -0.267 OA
ATOM     10  H   UNL     1     -18.319  -5.309  13.673  1.00  0.00     0.164 HD
BRANCH   8  11
ATOM     11  C   UNL     1     -16.597  -5.053  14.939  1.00  0.00     0.140 C 
BRANCH  11  12
ATOM     12  C   UNL     1     -15.386  -4.239  14.474  1.00  0.00     0.091 C 
ATOM     13  S   UNL     1     -14.439  -3.323  15.623  1.00  0.00    -0.106 SA
ATOM     14  C   UNL     1     -13.160  -3.058  14.376  1.00  0.00     0.113 C 
ATOM     15  N   UNL     1     -15.065  -4.139  13.223  1.00  0.00    -0.267 NA
ATOM     16  C   UNL     1     -13.911  -3.199  13.062  1.00  0.00     0.205 CG0
ATOM     17  G   UNL     1     -14.388  -1.827  12.557  1.00  0.00     0.000 G0
ENDBRANCH  11  12
BRANCH  11  18
ATOM     18  C   UNL     1     -16.849  -5.103  16.468  1.00  0.00     0.015 C 
ATOM     19  C   UNL     1     -18.282  -4.657  16.789  1.00  0.00     0.010 C 
BRANCH  18  20
ATOM     20  C   UNL     1     -16.517  -6.454  17.132  1.00  0.00     0.002 C 
ATOM     21  C   UNL     1     -17.314  -7.616  16.550  1.00  0.00     0.004 C 
ENDBRANCH  18  20
ENDBRANCH  11  18
ENDBRANCH   8  11
ENDBRANCH   3   7
ENDBRANCH   1   2
BRANCH   1  22
ATOM     22  N   UNL     1     -20.266  -1.100  10.037  1.00  0.00    -0.348 N 
ATOM     23  C   UNL     1     -19.686  -1.865   9.062  1.00  0.00     0.249 C 
ATOM     24  O   UNL     1     -20.139  -2.945   8.697  1.00  0.00    -0.272 OA
ATOM     25  H   UNL     1     -19.796  -0.227  10.273  1.00  0.00     0.163 HD
BRANCH  23  26
ATOM     26  C   UNL     1     -18.451  -1.199   8.438  1.00  0.00     0.238 C 
ATOM     27  N   UNL     1     -17.771  -0.365   9.467  1.00  0.00    -0.236 NA
ATOM     28  C   UNL     1     -17.418  -2.220   7.993  1.00  0.00     0.206 C 
ATOM     29  C   UNL     1     -16.662  -1.007   9.685  1.00  0.00     0.208 C 
ATOM     30  O   UNL     1     -16.403  -2.144   8.993  1.00  0.00    -0.474 OA
ATOM     31  C   UNL     1     -16.798  -1.875   6.645  1.00  0.00     0.056 C 
BRANCH  29  32
ATOM     32  C   UNL     1     -15.594  -0.644  10.712  1.00  0.00     0.171 C 
BRANCH  32  33
ATOM     33  N   UNL     1     -15.040  -1.838  11.330  1.00  0.00    -0.342 N 
ATOM     34  C   UNL     1     -14.377  -1.811  12.534  1.00  0.00     0.246 CG0
ATOM     35  O   UNL     1     -14.180  -0.776  13.167  1.00  0.00    -0.273 OA
ATOM     36  H   UNL     1     -15.092  -2.740  10.868  1.00  0.00     0.164 HD
ATOM     37  G   UNL     1     -13.921  -3.188  13.042  1.00  0.00     0.000 G0
ENDBRANCH  32  33
BRANCH  32  38
ATOM     38  C   UNL     1     -14.504   0.252  10.068  1.00  0.00     0.017 C 
ATOM     39  C   UNL     1     -13.584  -0.594   9.178  1.00  0.00     0.010 C 
BRANCH  38  40
ATOM     40  C   UNL     1     -15.092   1.456   9.296  1.00  0.00     0.002 C 
ATOM     41  C   UNL     1     -14.053   2.236   8.500  1.00  0.00     0.004 C 
ENDBRANCH  38  40
ENDBRANCH  32  38
ENDBRANCH  29  32
ENDBRANCH  23  26
ENDBRANCH   1  22
TORSDOF 4
ENDMDL
