MODEL 1
REMARK VINA RESULT:    -5.724      0.000      0.000
REMARK INTER + INTRA:         -11.120
REMARK INTER:                  -9.739
REMARK INTRA:                  -1.380
REMARK UNBOUND:                -1.380
REMARK SMILES CC[C@H](C)[C@@H]1NC(=O)[C@H]2CSC(=N2)[C@@H]([C@@H](C)CC)NC(=O)c2csc(n2)CNC(=O)[C@H]2N=C1O[C@@H]2C
REMARK SMILES IDX 27 1 25 2 22 3 26 4 23 5 24 6 20 7 19 8 21 9 14 11 12 12
REMARK SMILES IDX 11 13 10 14 13 15 9 16 15 18 16 19 17 20 18 21 28 22 29 23
REMARK SMILES IDX 30 24 31 26 32 27 35 28 33 29 34 30 36 31 5 32 6 33 7 34
REMARK SMILES IDX 8 35 3 38 4 39 2 40 1 41
REMARK H PARENT 19 10 28 25 6 36
REMARK Flexibility Score:   91.900
ROOT
ATOM      1  C   UNL     1     -15.936  -9.241   3.297  1.00  0.00     0.183 C 
ENDROOT
BRANCH   1   2
ATOM      2  C   UNL     1     -15.126  -9.553   4.522  1.00  0.00     0.113 A 
ATOM      3  C   UNL     1     -13.807 -10.684   5.918  1.00  0.00     0.139 A 
ATOM      4  N   UNL     1     -14.332 -10.603   4.627  1.00  0.00    -0.234 NA
ATOM      5  C   UNL     1     -14.176  -9.647   6.752  1.00  0.00     0.101 A 
ATOM      6  S   UNL     1     -15.216  -8.563   5.922  1.00  0.00    -0.125 S 
BRANCH   3   7
ATOM      7  C   UNL     1     -12.974 -11.827   6.300  1.00  0.00     0.271 C 
ATOM      8  N   UNL     1     -11.805 -11.864   5.581  1.00  0.00    -0.341 N 
ATOM      9  O   UNL     1     -13.303 -12.660   7.134  1.00  0.00    -0.267 OA
ATOM     10  H   UNL     1     -11.658 -11.087   4.937  1.00  0.00     0.164 HD
BRANCH   8  11
ATOM     11  C   UNL     1     -10.867 -12.974   5.602  1.00  0.00     0.140 C 
BRANCH  11  12
ATOM     12  C   UNL     1      -9.787 -12.697   4.552  1.00  0.00     0.091 C 
ATOM     13  S   UNL     1      -8.679 -11.359   4.749  1.00  0.00    -0.106 SA
ATOM     14  C   UNL     1      -7.656 -11.992   3.403  1.00  0.00     0.113 C 
ATOM     15  N   UNL     1      -9.700 -13.386   3.458  1.00  0.00    -0.267 NA
ATOM     16  C   UNL     1      -8.627 -12.824   2.580  1.00  0.00     0.205 CG0
ATOM     17  G   UNL     1      -9.232 -11.986   1.442  1.00  0.00     0.000 G0
ENDBRANCH  11  12
BRANCH  11  18
ATOM     18  C   UNL     1     -10.368 -13.350   7.021  1.00  0.00     0.015 C 
ATOM     19  C   UNL     1      -9.271 -14.420   6.937  1.00  0.00     0.010 C 
BRANCH  18  20
ATOM     20  C   UNL     1      -9.922 -12.153   7.886  1.00  0.00     0.002 C 
ATOM     21  C   UNL     1      -8.643 -12.428   8.669  1.00  0.00     0.004 C 
ENDBRANCH  18  20
ENDBRANCH  11  18
ENDBRANCH   8  11
ENDBRANCH   3   7
ENDBRANCH   1   2
BRANCH   1  22
ATOM     22  N   UNL     1     -15.498 -10.137   2.250  1.00  0.00    -0.348 N 
ATOM     23  C   UNL     1     -14.753  -9.764   1.165  1.00  0.00     0.249 C 
ATOM     24  O   UNL     1     -14.304  -8.633   1.015  1.00  0.00    -0.272 OA
ATOM     25  H   UNL     1     -15.834 -11.100   2.264  1.00  0.00     0.163 HD
BRANCH  23  26
ATOM     26  C   UNL     1     -14.490 -10.925   0.194  1.00  0.00     0.238 C 
ATOM     27  N   UNL     1     -13.199 -10.693  -0.511  1.00  0.00    -0.236 NA
ATOM     28  C   UNL     1     -14.325 -12.248   0.922  1.00  0.00     0.206 C 
ATOM     29  C   UNL     1     -12.425 -11.617  -0.025  1.00  0.00     0.208 C 
ATOM     30  O   UNL     1     -12.919 -12.488   0.889  1.00  0.00    -0.474 OA
ATOM     31  C   UNL     1     -15.031 -13.397   0.213  1.00  0.00     0.056 C 
BRANCH  29  32
ATOM     32  C   UNL     1     -10.944 -11.813  -0.338  1.00  0.00     0.171 C 
BRANCH  32  33
ATOM     33  N   UNL     1     -10.270 -12.503   0.751  1.00  0.00    -0.342 N 
ATOM     34  C   UNL     1      -9.196 -11.964   1.417  1.00  0.00     0.246 CG0
ATOM     35  O   UNL     1      -8.707 -10.874   1.130  1.00  0.00    -0.273 OA
ATOM     36  H   UNL     1     -10.551 -13.436   1.034  1.00  0.00     0.164 HD
ATOM     37  G   UNL     1      -8.665 -12.827   2.574  1.00  0.00     0.000 G0
ENDBRANCH  32  33
BRANCH  32  38
ATOM     38  C   UNL     1     -10.769 -12.536  -1.699  1.00  0.00     0.017 C 
ATOM     39  C   UNL     1      -9.498 -12.038  -2.400  1.00  0.00     0.010 C 
BRANCH  38  40
ATOM     40  C   UNL     1     -10.781 -14.076  -1.570  1.00  0.00     0.002 C 
ATOM     41  C   UNL     1      -9.997 -14.786  -2.666  1.00  0.00     0.004 C 
ENDBRANCH  38  40
ENDBRANCH  32  38
ENDBRANCH  29  32
ENDBRANCH  23  26
ENDBRANCH   1  22
TORSDOF 4
ENDMDL
MODEL 2
REMARK VINA RESULT:    -5.561      3.195      6.493
REMARK INTER + INTRA:         -10.843
REMARK INTER:                  -9.373
REMARK INTRA:                  -1.470
REMARK UNBOUND:                -1.380
REMARK SMILES CC[C@H](C)[C@@H]1NC(=O)[C@H]2CSC(=N2)[C@@H]([C@@H](C)CC)NC(=O)c2csc(n2)CNC(=O)[C@H]2N=C1O[C@@H]2C
REMARK SMILES IDX 27 1 25 2 22 3 26 4 23 5 24 6 20 7 19 8 21 9 14 11 12 12
REMARK SMILES IDX 11 13 10 14 13 15 9 16 15 18 16 19 17 20 18 21 28 22 29 23
REMARK SMILES IDX 30 24 31 26 32 27 35 28 33 29 34 30 36 31 5 32 6 33 7 34
REMARK SMILES IDX 8 35 3 38 4 39 2 40 1 41
REMARK H PARENT 19 10 28 25 6 36
REMARK Flexibility Score:   91.900
ROOT
ATOM      1  C   UNL     1     -16.843 -13.390   4.023  1.00  0.00     0.183 C 
ENDROOT
BRANCH   1   2
ATOM      2  C   UNL     1     -15.584 -13.787   3.306  1.00  0.00     0.113 A 
ATOM      3  C   UNL     1     -13.471 -13.706   2.603  1.00  0.00     0.139 A 
ATOM      4  N   UNL     1     -14.420 -13.193   3.490  1.00  0.00    -0.234 NA
ATOM      5  C   UNL     1     -13.935 -14.730   1.800  1.00  0.00     0.101 A 
ATOM      6  S   UNL     1     -15.588 -15.043   2.137  1.00  0.00    -0.125 S 
BRANCH   3   7
ATOM      7  C   UNL     1     -12.126 -13.129   2.554  1.00  0.00     0.271 C 
ATOM      8  N   UNL     1     -11.402 -13.436   3.679  1.00  0.00    -0.341 N 
ATOM      9  O   UNL     1     -11.718 -12.431   1.633  1.00  0.00    -0.267 OA
ATOM     10  H   UNL     1     -11.867 -14.047   4.349  1.00  0.00     0.164 HD
BRANCH   8  11
ATOM     11  C   UNL     1     -10.109 -12.856   4.003  1.00  0.00     0.140 C 
BRANCH  11  12
ATOM     12  C   UNL     1     -10.236 -12.153   5.357  1.00  0.00     0.091 C 
ATOM     13  S   UNL     1      -9.969 -13.034   6.843  1.00  0.00    -0.106 SA
ATOM     14  C   UNL     1      -9.946 -11.486   7.772  1.00  0.00     0.113 C 
ATOM     15  N   UNL     1     -10.612 -10.916   5.457  1.00  0.00    -0.267 NA
ATOM     16  C   UNL     1     -10.749 -10.535   6.898  1.00  0.00     0.205 CG0
ATOM     17  G   UNL     1     -12.226 -10.521   7.323  1.00  0.00     0.000 G0
ENDBRANCH  11  12
BRANCH  11  18
ATOM     18  C   UNL     1      -8.920 -13.838   3.845  1.00  0.00     0.015 C 
ATOM     19  C   UNL     1      -9.431 -15.276   3.690  1.00  0.00     0.010 C 
BRANCH  18  20
ATOM     20  C   UNL     1      -7.925 -13.470   2.725  1.00  0.00     0.002 C 
ATOM     21  C   UNL     1      -7.945 -11.986   2.375  1.00  0.00     0.004 C 
ENDBRANCH  18  20
ENDBRANCH  11  18
ENDBRANCH   8  11
ENDBRANCH   3   7
ENDBRANCH   1   2
BRANCH   1  22
ATOM     22  N   UNL     1     -16.751 -11.975   4.307  1.00  0.00    -0.348 N 
ATOM     23  C   UNL     1     -16.738 -10.989   3.357  1.00  0.00     0.249 C 
ATOM     24  O   UNL     1     -16.890 -11.206   2.160  1.00  0.00    -0.272 OA
ATOM     25  H   UNL     1     -16.599 -11.683   5.271  1.00  0.00     0.163 HD
BRANCH  23  26
ATOM     26  C   UNL     1     -16.576  -9.585   3.959  1.00  0.00     0.238 C 
ATOM     27  N   UNL     1     -16.396  -9.701   5.433  1.00  0.00    -0.236 NA
ATOM     28  C   UNL     1     -15.324  -8.890   3.451  1.00  0.00     0.206 C 
ATOM     29  C   UNL     1     -15.158  -9.348   5.611  1.00  0.00     0.208 C 
ATOM     30  O   UNL     1     -14.410  -8.980   4.542  1.00  0.00    -0.474 OA
ATOM     31  C   UNL     1     -15.560  -7.419   3.135  1.00  0.00     0.056 C 
BRANCH  29  32
ATOM     32  C   UNL     1     -14.399  -9.348   6.935  1.00  0.00     0.171 C 
BRANCH  32  33
ATOM     33  N   UNL     1     -12.970  -9.506   6.715  1.00  0.00    -0.342 N 
ATOM     34  C   UNL     1     -12.230 -10.488   7.329  1.00  0.00     0.246 CG0
ATOM     35  O   UNL     1     -12.709 -11.287   8.129  1.00  0.00    -0.273 OA
ATOM     36  H   UNL     1     -12.457  -8.865   6.119  1.00  0.00     0.164 HD
ATOM     37  G   UNL     1     -10.749 -10.521   6.916  1.00  0.00     0.000 G0
ENDBRANCH  32  33
BRANCH  32  38
ATOM     38  C   UNL     1     -14.737  -8.074   7.754  1.00  0.00     0.017 C 
ATOM     39  C   UNL     1     -14.637  -8.372   9.256  1.00  0.00     0.010 C 
BRANCH  38  40
ATOM     40  C   UNL     1     -13.873  -6.855   7.357  1.00  0.00     0.002 C 
ATOM     41  C   UNL     1     -13.344  -6.068   8.549  1.00  0.00     0.004 C 
ENDBRANCH  38  40
ENDBRANCH  32  38
ENDBRANCH  29  32
ENDBRANCH  23  26
ENDBRANCH   1  22
TORSDOF 4
ENDMDL
MODEL 3
REMARK VINA RESULT:    -5.520      2.563      6.111
REMARK INTER + INTRA:         -10.774
REMARK INTER:                  -9.093
REMARK INTRA:                  -1.680
REMARK UNBOUND:                -1.380
REMARK SMILES CC[C@H](C)[C@@H]1NC(=O)[C@H]2CSC(=N2)[C@@H]([C@@H](C)CC)NC(=O)c2csc(n2)CNC(=O)[C@H]2N=C1O[C@@H]2C
REMARK SMILES IDX 27 1 25 2 22 3 26 4 23 5 24 6 20 7 19 8 21 9 14 11 12 12
REMARK SMILES IDX 11 13 10 14 13 15 9 16 15 18 16 19 17 20 18 21 28 22 29 23
REMARK SMILES IDX 30 24 31 26 32 27 35 28 33 29 34 30 36 31 5 32 6 33 7 34
REMARK SMILES IDX 8 35 3 38 4 39 2 40 1 41
REMARK H PARENT 19 10 28 25 6 36
REMARK Flexibility Score:   91.900
ROOT
ATOM      1  C   UNL     1     -13.978  -9.788   8.029  1.00  0.00     0.183 C 
ENDROOT
BRANCH   1   2
ATOM      2  C   UNL     1     -14.341  -9.129   6.729  1.00  0.00     0.113 A 
ATOM      3  C   UNL     1     -14.599  -8.850   4.533  1.00  0.00     0.139 A 
ATOM      4  N   UNL     1     -14.326  -9.751   5.565  1.00  0.00    -0.234 NA
ATOM      5  C   UNL     1     -14.874  -7.564   4.955  1.00  0.00     0.101 A 
ATOM      6  S   UNL     1     -14.767  -7.467   6.665  1.00  0.00    -0.125 S 
BRANCH   3   7
ATOM      7  C   UNL     1     -14.538  -9.293   3.139  1.00  0.00     0.271 C 
ATOM      8  N   UNL     1     -14.614 -10.660   3.038  1.00  0.00    -0.341 N 
ATOM      9  O   UNL     1     -14.401  -8.533   2.189  1.00  0.00    -0.267 OA
ATOM     10  H   UNL     1     -14.751 -11.160   3.916  1.00  0.00     0.164 HD
BRANCH   8  11
ATOM     11  C   UNL     1     -14.395 -11.403   1.808  1.00  0.00     0.140 C 
BRANCH  11  12
ATOM     12  C   UNL     1     -13.764 -12.748   2.177  1.00  0.00     0.091 C 
ATOM     13  S   UNL     1     -14.327 -13.640   3.571  1.00  0.00    -0.106 SA
ATOM     14  C   UNL     1     -13.390 -15.089   3.039  1.00  0.00     0.113 C 
ATOM     15  N   UNL     1     -12.755 -13.235   1.526  1.00  0.00    -0.267 NA
ATOM     16  C   UNL     1     -12.286 -14.500   2.175  1.00  0.00     0.205 CG0
ATOM     17  G   UNL     1     -11.018 -14.251   3.008  1.00  0.00     0.000 G0
ENDBRANCH  11  12
BRANCH  11  18
ATOM     18  C   UNL     1     -15.632 -11.455   0.874  1.00  0.00     0.015 C 
ATOM     19  C   UNL     1     -15.407 -10.573  -0.362  1.00  0.00     0.010 C 
BRANCH  18  20
ATOM     20  C   UNL     1     -16.081 -12.876   0.478  1.00  0.00     0.002 C 
ATOM     21  C   UNL     1     -17.338 -13.329   1.213  1.00  0.00     0.004 C 
ENDBRANCH  18  20
ENDBRANCH  11  18
ENDBRANCH   8  11
ENDBRANCH   3   7
ENDBRANCH   1   2
BRANCH   1  22
ATOM     22  N   UNL     1     -12.694 -10.427   7.847  1.00  0.00    -0.348 N 
ATOM     23  C   UNL     1     -12.515 -11.762   7.606  1.00  0.00     0.249 C 
ATOM     24  O   UNL     1     -13.443 -12.545   7.435  1.00  0.00    -0.272 OA
ATOM     25  H   UNL     1     -11.852  -9.871   7.989  1.00  0.00     0.163 HD
BRANCH  23  26
ATOM     26  C   UNL     1     -11.033 -12.156   7.512  1.00  0.00     0.238 C 
ATOM     27  N   UNL     1     -10.817 -12.963   6.279  1.00  0.00    -0.236 NA
ATOM     28  C   UNL     1     -10.130 -10.944   7.369  1.00  0.00     0.206 C 
ATOM     29  C   UNL     1     -10.111 -12.173   5.527  1.00  0.00     0.208 C 
ATOM     30  O   UNL     1      -9.760 -10.949   5.991  1.00  0.00    -0.474 OA
ATOM     31  C   UNL     1      -8.866 -11.053   8.212  1.00  0.00     0.056 C 
BRANCH  29  32
ATOM     32  C   UNL     1      -9.655 -12.454   4.098  1.00  0.00     0.171 C 
BRANCH  32  33
ATOM     33  N   UNL     1     -10.765 -12.913   3.279  1.00  0.00    -0.342 N 
ATOM     34  C   UNL     1     -10.989 -14.243   3.011  1.00  0.00     0.246 CG0
ATOM     35  O   UNL     1     -10.257 -15.141   3.420  1.00  0.00    -0.273 OA
ATOM     36  H   UNL     1     -11.400 -12.255   2.840  1.00  0.00     0.164 HD
ATOM     37  G   UNL     1     -12.249 -14.521   2.176  1.00  0.00     0.000 G0
ENDBRANCH  32  33
BRANCH  32  38
ATOM     38  C   UNL     1      -8.949 -11.209   3.499  1.00  0.00     0.017 C 
ATOM     39  C   UNL     1      -7.426 -11.366   3.602  1.00  0.00     0.010 C 
BRANCH  38  40
ATOM     40  C   UNL     1      -9.393 -10.903   2.050  1.00  0.00     0.002 C 
ATOM     41  C   UNL     1      -8.483 -11.514   0.992  1.00  0.00     0.004 C 
ENDBRANCH  38  40
ENDBRANCH  32  38
ENDBRANCH  29  32
ENDBRANCH  23  26
ENDBRANCH   1  22
TORSDOF 4
ENDMDL
MODEL 4
REMARK VINA RESULT:    -5.490      2.256      2.780
REMARK INTER + INTRA:         -10.721
REMARK INTER:                  -9.020
REMARK INTRA:                  -1.701
REMARK UNBOUND:                -1.380
REMARK SMILES CC[C@H](C)[C@@H]1NC(=O)[C@H]2CSC(=N2)[C@@H]([C@@H](C)CC)NC(=O)c2csc(n2)CNC(=O)[C@H]2N=C1O[C@@H]2C
REMARK SMILES IDX 27 1 25 2 22 3 26 4 23 5 24 6 20 7 19 8 21 9 14 11 12 12
REMARK SMILES IDX 11 13 10 14 13 15 9 16 15 18 16 19 17 20 18 21 28 22 29 23
REMARK SMILES IDX 30 24 31 26 32 27 35 28 33 29 34 30 36 31 5 32 6 33 7 34
REMARK SMILES IDX 8 35 3 38 4 39 2 40 1 41
REMARK H PARENT 19 10 28 25 6 36
REMARK Flexibility Score:   91.900
ROOT
ATOM      1  C   UNL     1     -15.404  -9.665   5.145  1.00  0.00     0.183 C 
ENDROOT
BRANCH   1   2
ATOM      2  C   UNL     1     -14.687 -10.668   6.003  1.00  0.00     0.113 A 
ATOM      3  C   UNL     1     -13.866 -12.627   6.678  1.00  0.00     0.139 A 
ATOM      4  N   UNL     1     -14.442 -11.910   5.627  1.00  0.00    -0.234 NA
ATOM      5  C   UNL     1     -13.633 -11.883   7.818  1.00  0.00     0.101 A 
ATOM      6  S   UNL     1     -14.164 -10.267   7.588  1.00  0.00    -0.125 S 
BRANCH   3   7
ATOM      7  C   UNL     1     -13.597 -14.059   6.527  1.00  0.00     0.271 C 
ATOM      8  N   UNL     1     -12.294 -14.293   6.162  1.00  0.00    -0.341 N 
ATOM      9  O   UNL     1     -14.445 -14.930   6.676  1.00  0.00    -0.267 OA
ATOM     10  H   UNL     1     -11.699 -13.468   6.100  1.00  0.00     0.164 HD
BRANCH   8  11
ATOM     11  C   UNL     1     -11.779 -15.591   5.759  1.00  0.00     0.140 C 
BRANCH  11  12
ATOM     12  C   UNL     1     -10.878 -15.381   4.539  1.00  0.00     0.091 C 
ATOM     13  S   UNL     1      -9.142 -15.524   4.683  1.00  0.00    -0.106 SA
ATOM     14  C   UNL     1      -8.979 -15.509   2.885  1.00  0.00     0.113 C 
ATOM     15  N   UNL     1     -11.353 -15.022   3.388  1.00  0.00    -0.267 NA
ATOM     16  C   UNL     1     -10.235 -14.789   2.420  1.00  0.00     0.205 CG0
ATOM     17  G   UNL     1      -9.967 -13.286   2.244  1.00  0.00     0.000 G0
ENDBRANCH  11  12
BRANCH  11  18
ATOM     18  C   UNL     1     -11.180 -16.421   6.924  1.00  0.00     0.015 C 
ATOM     19  C   UNL     1     -11.024 -15.549   8.177  1.00  0.00     0.010 C 
BRANCH  18  20
ATOM     20  C   UNL     1     -11.934 -17.729   7.238  1.00  0.00     0.002 C 
ATOM     21  C   UNL     1     -12.880 -17.601   8.426  1.00  0.00     0.004 C 
ENDBRANCH  18  20
ENDBRANCH  11  18
ENDBRANCH   8  11
ENDBRANCH   3   7
ENDBRANCH   1   2
BRANCH   1  22
ATOM     22  N   UNL     1     -14.929  -9.837   3.790  1.00  0.00    -0.348 N 
ATOM     23  C   UNL     1     -14.520  -8.818   2.973  1.00  0.00     0.249 C 
ATOM     24  O   UNL     1     -14.435  -7.652   3.343  1.00  0.00    -0.272 OA
ATOM     25  H   UNL     1     -14.978 -10.765   3.373  1.00  0.00     0.163 HD
BRANCH  23  26
ATOM     26  C   UNL     1     -14.124  -9.302   1.571  1.00  0.00     0.238 C 
ATOM     27  N   UNL     1     -12.639  -9.305   1.453  1.00  0.00    -0.236 NA
ATOM     28  C   UNL     1     -14.554 -10.738   1.322  1.00  0.00     0.206 C 
ATOM     29  C   UNL     1     -12.347 -10.570   1.400  1.00  0.00     0.208 C 
ATOM     30  O   UNL     1     -13.345 -11.487   1.439  1.00  0.00    -0.474 OA
ATOM     31  C   UNL     1     -15.121 -10.945  -0.076  1.00  0.00     0.056 C 
BRANCH  29  32
ATOM     32  C   UNL     1     -10.946 -11.173   1.348  1.00  0.00     0.171 C 
BRANCH  32  33
ATOM     33  N   UNL     1     -10.987 -12.604   1.606  1.00  0.00    -0.342 N 
ATOM     34  C   UNL     1      -9.954 -13.278   2.213  1.00  0.00     0.246 CG0
ATOM     35  O   UNL     1      -8.910 -12.731   2.561  1.00  0.00    -0.273 OA
ATOM     36  H   UNL     1     -11.775 -13.168   1.308  1.00  0.00     0.164 HD
ATOM     37  G   UNL     1     -10.219 -14.774   2.447  1.00  0.00     0.000 G0
ENDBRANCH  32  33
BRANCH  32  38
ATOM     38  C   UNL     1     -10.257 -10.831   0.001  1.00  0.00     0.017 C 
ATOM     39  C   UNL     1      -8.904 -10.157   0.257  1.00  0.00     0.010 C 
BRANCH  38  40
ATOM     40  C   UNL     1     -10.115 -12.056  -0.932  1.00  0.00     0.002 C 
ATOM     41  C   UNL     1      -9.551 -11.715  -2.305  1.00  0.00     0.004 C 
ENDBRANCH  38  40
ENDBRANCH  32  38
ENDBRANCH  29  32
ENDBRANCH  23  26
ENDBRANCH   1  22
TORSDOF 4
ENDMDL
MODEL 5
REMARK VINA RESULT:    -5.269      2.135      3.103
REMARK INTER + INTRA:         -10.346
REMARK INTER:                  -9.056
REMARK INTRA:                  -1.290
REMARK UNBOUND:                -1.380
REMARK SMILES CC[C@H](C)[C@@H]1NC(=O)[C@H]2CSC(=N2)[C@@H]([C@@H](C)CC)NC(=O)c2csc(n2)CNC(=O)[C@H]2N=C1O[C@@H]2C
REMARK SMILES IDX 27 1 25 2 22 3 26 4 23 5 24 6 20 7 19 8 21 9 14 11 12 12
REMARK SMILES IDX 11 13 10 14 13 15 9 16 15 18 16 19 17 20 18 21 28 22 29 23
REMARK SMILES IDX 30 24 31 26 32 27 35 28 33 29 34 30 36 31 5 32 6 33 7 34
REMARK SMILES IDX 8 35 3 38 4 39 2 40 1 41
REMARK H PARENT 19 10 28 25 6 36
REMARK Flexibility Score:   91.900
ROOT
ATOM      1  C   UNL     1     -15.220  -8.584   2.103  1.00  0.00     0.183 C 
ENDROOT
BRANCH   1   2
ATOM      2  C   UNL     1     -14.880  -8.824   3.546  1.00  0.00     0.113 A 
ATOM      3  C   UNL     1     -13.969  -9.777   5.343  1.00  0.00     0.139 A 
ATOM      4  N   UNL     1     -13.978  -9.701   3.948  1.00  0.00    -0.234 NA
ATOM      5  C   UNL     1     -14.834  -8.902   5.969  1.00  0.00     0.101 A 
ATOM      6  S   UNL     1     -15.694  -7.984   4.802  1.00  0.00    -0.125 S 
BRANCH   3   7
ATOM      7  C   UNL     1     -13.116 -10.759   6.017  1.00  0.00     0.271 C 
ATOM      8  N   UNL     1     -11.866 -10.817   5.451  1.00  0.00    -0.341 N 
ATOM      9  O   UNL     1     -13.491 -11.460   6.948  1.00  0.00    -0.267 OA
ATOM     10  H   UNL     1     -11.693 -10.154   4.696  1.00  0.00     0.164 HD
BRANCH   8  11
ATOM     11  C   UNL     1     -10.867 -11.821   5.779  1.00  0.00     0.140 C 
BRANCH  11  12
ATOM     12  C   UNL     1     -10.228 -12.293   4.470  1.00  0.00     0.091 C 
ATOM     13  S   UNL     1     -10.003 -11.181   3.140  1.00  0.00    -0.106 SA
ATOM     14  C   UNL     1      -8.953 -12.383   2.296  1.00  0.00     0.113 C 
ATOM     15  N   UNL     1      -9.902 -13.532   4.272  1.00  0.00    -0.267 NA
ATOM     16  C   UNL     1      -9.404 -13.716   2.873  1.00  0.00     0.205 CG0
ATOM     17  G   UNL     1     -10.484 -14.355   1.986  1.00  0.00     0.000 G0
ENDBRANCH  11  12
BRANCH  11  18
ATOM     18  C   UNL     1      -9.892 -11.394   6.907  1.00  0.00     0.015 C 
ATOM     19  C   UNL     1     -10.302 -10.031   7.480  1.00  0.00     0.010 C 
BRANCH  18  20
ATOM     20  C   UNL     1      -9.700 -12.440   8.023  1.00  0.00     0.002 C 
ATOM     21  C   UNL     1      -8.482 -12.162   8.896  1.00  0.00     0.004 C 
ENDBRANCH  18  20
ENDBRANCH  11  18
ENDBRANCH   8  11
ENDBRANCH   3   7
ENDBRANCH   1   2
BRANCH   1  22
ATOM     22  N   UNL     1     -15.189  -9.865   1.432  1.00  0.00    -0.348 N 
ATOM     23  C   UNL     1     -14.119 -10.353   0.734  1.00  0.00     0.249 C 
ATOM     24  O   UNL     1     -13.035  -9.782   0.677  1.00  0.00    -0.272 OA
ATOM     25  H   UNL     1     -16.047 -10.415   1.398  1.00  0.00     0.163 HD
BRANCH  23  26
ATOM     26  C   UNL     1     -14.403 -11.715   0.084  1.00  0.00     0.238 C 
ATOM     27  N   UNL     1     -13.250 -12.626   0.327  1.00  0.00    -0.236 NA
ATOM     28  C   UNL     1     -15.604 -12.405   0.710  1.00  0.00     0.206 C 
ATOM     29  C   UNL     1     -13.734 -13.507   1.150  1.00  0.00     0.208 C 
ATOM     30  O   UNL     1     -15.030 -13.416   1.536  1.00  0.00    -0.474 OA
ATOM     31  C   UNL     1     -16.500 -13.072  -0.325  1.00  0.00     0.056 C 
BRANCH  29  32
ATOM     32  C   UNL     1     -12.966 -14.654   1.802  1.00  0.00     0.171 C 
BRANCH  32  33
ATOM     33  N   UNL     1     -11.780 -14.162   2.485  1.00  0.00    -0.342 N 
ATOM     34  C   UNL     1     -10.509 -14.370   2.004  1.00  0.00     0.246 CG0
ATOM     35  O   UNL     1     -10.276 -15.006   0.979  1.00  0.00    -0.273 OA
ATOM     36  H   UNL     1     -11.849 -13.674   3.371  1.00  0.00     0.164 HD
ATOM     37  G   UNL     1      -9.396 -13.719   2.842  1.00  0.00     0.000 G0
ENDBRANCH  32  33
BRANCH  32  38
ATOM     38  C   UNL     1     -13.898 -15.467   2.739  1.00  0.00     0.017 C 
ATOM     39  C   UNL     1     -13.671 -16.970   2.532  1.00  0.00     0.010 C 
BRANCH  38  40
ATOM     40  C   UNL     1     -13.753 -15.069   4.226  1.00  0.00     0.002 C 
ATOM     41  C   UNL     1     -14.097 -16.193   5.194  1.00  0.00     0.004 C 
ENDBRANCH  38  40
ENDBRANCH  32  38
ENDBRANCH  29  32
ENDBRANCH  23  26
ENDBRANCH   1  22
TORSDOF 4
ENDMDL
MODEL 6
REMARK VINA RESULT:    -5.193      2.905      6.507
REMARK INTER + INTRA:         -10.217
REMARK INTER:                  -8.674
REMARK INTRA:                  -1.543
REMARK UNBOUND:                -1.380
REMARK SMILES CC[C@H](C)[C@@H]1NC(=O)[C@H]2CSC(=N2)[C@@H]([C@@H](C)CC)NC(=O)c2csc(n2)CNC(=O)[C@H]2N=C1O[C@@H]2C
REMARK SMILES IDX 27 1 25 2 22 3 26 4 23 5 24 6 20 7 19 8 21 9 14 11 12 12
REMARK SMILES IDX 11 13 10 14 13 15 9 16 15 18 16 19 17 20 18 21 28 22 29 23
REMARK SMILES IDX 30 24 31 26 32 27 35 28 33 29 34 30 36 31 5 32 6 33 7 34
REMARK SMILES IDX 8 35 3 38 4 39 2 40 1 41
REMARK H PARENT 19 10 28 25 6 36
REMARK Flexibility Score:   91.900
ROOT
ATOM      1  C   UNL     1     -14.494  -8.860   6.289  1.00  0.00     0.183 C 
ENDROOT
BRANCH   1   2
ATOM      2  C   UNL     1     -14.865  -8.907   4.835  1.00  0.00     0.113 A 
ATOM      3  C   UNL     1     -15.051  -9.685   2.755  1.00  0.00     0.139 A 
ATOM      4  N   UNL     1     -14.734  -9.984   4.082  1.00  0.00    -0.234 NA
ATOM      5  C   UNL     1     -15.475  -8.388   2.546  1.00  0.00     0.101 A 
ATOM      6  S   UNL     1     -15.456  -7.514   4.023  1.00  0.00    -0.125 S 
BRANCH   3   7
ATOM      7  C   UNL     1     -14.883 -10.703   1.715  1.00  0.00     0.271 C 
ATOM      8  N   UNL     1     -15.622 -11.828   1.983  1.00  0.00    -0.341 N 
ATOM      9  O   UNL     1     -14.145 -10.570   0.746  1.00  0.00    -0.267 OA
ATOM     10  H   UNL     1     -16.208 -11.782   2.816  1.00  0.00     0.164 HD
BRANCH   8  11
ATOM     11  C   UNL     1     -15.518 -13.072   1.238  1.00  0.00     0.140 C 
BRANCH  11  12
ATOM     12  C   UNL     1     -15.122 -14.177   2.220  1.00  0.00     0.091 C 
ATOM     13  S   UNL     1     -15.686 -14.138   3.875  1.00  0.00    -0.106 SA
ATOM     14  C   UNL     1     -15.114 -15.832   4.123  1.00  0.00     0.113 C 
ATOM     15  N   UNL     1     -14.306 -15.129   1.891  1.00  0.00    -0.267 NA
ATOM     16  C   UNL     1     -14.021 -15.995   3.078  1.00  0.00     0.205 CG0
ATOM     17  G   UNL     1     -12.643 -15.668   3.677  1.00  0.00     0.000 G0
ENDBRANCH  11  12
BRANCH  11  18
ATOM     18  C   UNL     1     -16.738 -13.364   0.327  1.00  0.00     0.015 C 
ATOM     19  C   UNL     1     -16.330 -14.278  -0.837  1.00  0.00     0.010 C 
BRANCH  18  20
ATOM     20  C   UNL     1     -17.977 -13.910   1.065  1.00  0.00     0.002 C 
ATOM     21  C   UNL     1     -18.954 -14.626   0.138  1.00  0.00     0.004 C 
ENDBRANCH  18  20
ENDBRANCH  11  18
ENDBRANCH   8  11
ENDBRANCH   3   7
ENDBRANCH   1   2
BRANCH   1  22
ATOM     22  N   UNL     1     -13.382  -9.763   6.482  1.00  0.00    -0.348 N 
ATOM     23  C   UNL     1     -13.482 -11.022   7.009  1.00  0.00     0.249 C 
ATOM     24  O   UNL     1     -14.552 -11.547   7.295  1.00  0.00    -0.272 OA
ATOM     25  H   UNL     1     -12.441  -9.419   6.297  1.00  0.00     0.163 HD
BRANCH  23  26
ATOM     26  C   UNL     1     -12.122 -11.721   7.143  1.00  0.00     0.238 C 
ATOM     27  N   UNL     1     -12.165 -13.023   6.420  1.00  0.00    -0.236 NA
ATOM     28  C   UNL     1     -11.007 -10.927   6.484  1.00  0.00     0.206 C 
ATOM     29  C   UNL     1     -11.374 -12.827   5.407  1.00  0.00     0.208 C 
ATOM     30  O   UNL     1     -10.750 -11.632   5.270  1.00  0.00    -0.474 OA
ATOM     31  C   UNL     1      -9.731 -10.911   7.316  1.00  0.00     0.056 C 
BRANCH  29  32
ATOM     32  C   UNL     1     -11.093 -13.812   4.276  1.00  0.00     0.171 C 
BRANCH  32  33
ATOM     33  N   UNL     1     -12.332 -14.326   3.714  1.00  0.00    -0.342 N 
ATOM     34  C   UNL     1     -12.619 -15.669   3.657  1.00  0.00     0.246 CG0
ATOM     35  O   UNL     1     -11.844 -16.537   4.050  1.00  0.00    -0.273 OA
ATOM     36  H   UNL     1     -13.020 -13.703   3.306  1.00  0.00     0.164 HD
ATOM     37  G   UNL     1     -14.005 -16.000   3.081  1.00  0.00     0.000 G0
ENDBRANCH  32  33
BRANCH  32  38
ATOM     38  C   UNL     1     -10.179 -13.161   3.205  1.00  0.00     0.017 C 
ATOM     39  C   UNL     1      -9.089 -14.150   2.771  1.00  0.00     0.010 C 
BRANCH  38  40
ATOM     40  C   UNL     1     -10.967 -12.615   1.992  1.00  0.00     0.002 C 
ATOM     41  C   UNL     1     -10.368 -11.347   1.397  1.00  0.00     0.004 C 
ENDBRANCH  38  40
ENDBRANCH  32  38
ENDBRANCH  29  32
ENDBRANCH  23  26
ENDBRANCH   1  22
TORSDOF 4
ENDMDL
MODEL 7
REMARK VINA RESULT:    -5.105      2.587      4.605
REMARK INTER + INTRA:         -10.067
REMARK INTER:                  -9.188
REMARK INTRA:                  -0.879
REMARK UNBOUND:                -1.380
REMARK SMILES CC[C@H](C)[C@@H]1NC(=O)[C@H]2CSC(=N2)[C@@H]([C@@H](C)CC)NC(=O)c2csc(n2)CNC(=O)[C@H]2N=C1O[C@@H]2C
REMARK SMILES IDX 27 1 25 2 22 3 26 4 23 5 24 6 20 7 19 8 21 9 14 11 12 12
REMARK SMILES IDX 11 13 10 14 13 15 9 16 15 18 16 19 17 20 18 21 28 22 29 23
REMARK SMILES IDX 30 24 31 26 32 27 35 28 33 29 34 30 36 31 5 32 6 33 7 34
REMARK SMILES IDX 8 35 3 38 4 39 2 40 1 41
REMARK H PARENT 19 10 28 25 6 36
REMARK Flexibility Score:   91.900
ROOT
ATOM      1  C   UNL     1     -14.958  -9.490   6.586  1.00  0.00     0.183 C 
ENDROOT
BRANCH   1   2
ATOM      2  C   UNL     1     -13.510  -9.861   6.729  1.00  0.00     0.113 A 
ATOM      3  C   UNL     1     -11.547 -10.815   6.276  1.00  0.00     0.139 A 
ATOM      4  N   UNL     1     -12.829 -10.519   5.808  1.00  0.00    -0.234 NA
ATOM      5  C   UNL     1     -11.268 -10.316   7.533  1.00  0.00     0.101 A 
ATOM      6  S   UNL     1     -12.634  -9.484   8.156  1.00  0.00    -0.125 S 
BRANCH   3   7
ATOM      7  C   UNL     1     -10.641 -11.630   5.464  1.00  0.00     0.271 C 
ATOM      8  N   UNL     1     -11.122 -11.805   4.190  1.00  0.00    -0.341 N 
ATOM      9  O   UNL     1      -9.601 -12.119   5.888  1.00  0.00    -0.267 OA
ATOM     10  H   UNL     1     -11.991 -11.316   3.976  1.00  0.00     0.164 HD
BRANCH   8  11
ATOM     11  C   UNL     1     -10.542 -12.713   3.215  1.00  0.00     0.140 C 
BRANCH  11  12
ATOM     12  C   UNL     1     -11.145 -12.382   1.847  1.00  0.00     0.091 C 
ATOM     13  S   UNL     1     -10.891 -10.812   1.122  1.00  0.00    -0.106 SA
ATOM     14  C   UNL     1     -11.551 -11.415  -0.447  1.00  0.00     0.113 C 
ATOM     15  N   UNL     1     -11.916 -13.212   1.217  1.00  0.00    -0.267 NA
ATOM     16  C   UNL     1     -12.440 -12.578  -0.034  1.00  0.00     0.205 CG0
ATOM     17  G   UNL     1     -13.893 -12.113   0.154  1.00  0.00     0.000 G0
ENDBRANCH  11  12
BRANCH  11  18
ATOM     18  C   UNL     1      -8.996 -12.807   3.282  1.00  0.00     0.015 C 
ATOM     19  C   UNL     1      -8.528 -14.218   2.904  1.00  0.00     0.010 C 
BRANCH  18  20
ATOM     20  C   UNL     1      -8.249 -11.729   2.469  1.00  0.00     0.002 C 
ATOM     21  C   UNL     1      -7.769 -10.563   3.327  1.00  0.00     0.004 C 
ENDBRANCH  18  20
ENDBRANCH  11  18
ENDBRANCH   8  11
ENDBRANCH   3   7
ENDBRANCH   1   2
BRANCH   1  22
ATOM     22  N   UNL     1     -15.621 -10.584   5.913  1.00  0.00    -0.348 N 
ATOM     23  C   UNL     1     -16.323 -10.470   4.744  1.00  0.00     0.249 C 
ATOM     24  O   UNL     1     -16.389  -9.430   4.098  1.00  0.00    -0.272 OA
ATOM     25  H   UNL     1     -15.647 -11.492   6.375  1.00  0.00     0.163 HD
BRANCH  23  26
ATOM     26  C   UNL     1     -16.963 -11.795   4.302  1.00  0.00     0.238 C 
ATOM     27  N   UNL     1     -17.239 -11.743   2.840  1.00  0.00    -0.236 NA
ATOM     28  C   UNL     1     -16.024 -12.973   4.497  1.00  0.00     0.206 C 
ATOM     29  C   UNL     1     -16.390 -12.595   2.346  1.00  0.00     0.208 C 
ATOM     30  O   UNL     1     -15.561 -13.270   3.180  1.00  0.00    -0.474 OA
ATOM     31  C   UNL     1     -16.734 -14.201   5.051  1.00  0.00     0.056 C 
BRANCH  29  32
ATOM     32  C   UNL     1     -16.173 -12.902   0.867  1.00  0.00     0.171 C 
BRANCH  32  33
ATOM     33  N   UNL     1     -14.765 -13.134   0.586  1.00  0.00    -0.342 N 
ATOM     34  C   UNL     1     -13.921 -12.138   0.155  1.00  0.00     0.246 CG0
ATOM     35  O   UNL     1     -14.295 -10.986  -0.051  1.00  0.00    -0.273 OA
ATOM     36  H   UNL     1     -14.360 -14.061   0.665  1.00  0.00     0.164 HD
ATOM     37  G   UNL     1     -12.459 -12.576  -0.028  1.00  0.00     0.000 G0
ENDBRANCH  32  33
BRANCH  32  38
ATOM     38  C   UNL     1     -17.071 -14.086   0.420  1.00  0.00     0.017 C 
ATOM     39  C   UNL     1     -17.386 -13.973  -1.077  1.00  0.00     0.010 C 
BRANCH  38  40
ATOM     40  C   UNL     1     -16.469 -15.465   0.773  1.00  0.00     0.002 C 
ATOM     41  C   UNL     1     -16.920 -16.583  -0.158  1.00  0.00     0.004 C 
ENDBRANCH  38  40
ENDBRANCH  32  38
ENDBRANCH  29  32
ENDBRANCH  23  26
ENDBRANCH   1  22
TORSDOF 4
ENDMDL
MODEL 8
REMARK VINA RESULT:    -5.021      3.007      5.909
REMARK INTER + INTRA:          -9.924
REMARK INTER:                  -8.321
REMARK INTRA:                  -1.603
REMARK UNBOUND:                -1.380
REMARK SMILES CC[C@H](C)[C@@H]1NC(=O)[C@H]2CSC(=N2)[C@@H]([C@@H](C)CC)NC(=O)c2csc(n2)CNC(=O)[C@H]2N=C1O[C@@H]2C
REMARK SMILES IDX 27 1 25 2 22 3 26 4 23 5 24 6 20 7 19 8 21 9 14 11 12 12
REMARK SMILES IDX 11 13 10 14 13 15 9 16 15 18 16 19 17 20 18 21 28 22 29 23
REMARK SMILES IDX 30 24 31 26 32 27 35 28 33 29 34 30 36 31 5 32 6 33 7 34
REMARK SMILES IDX 8 35 3 38 4 39 2 40 1 41
REMARK H PARENT 19 10 28 25 6 36
REMARK Flexibility Score:   91.900
ROOT
ATOM      1  C   UNL     1     -10.651 -10.749   0.562  1.00  0.00     0.183 C 
ENDROOT
BRANCH   1   2
ATOM      2  C   UNL     1      -9.831 -11.055   1.782  1.00  0.00     0.113 A 
ATOM      3  C   UNL     1      -9.341 -11.728   3.849  1.00  0.00     0.139 A 
ATOM      4  N   UNL     1     -10.301 -11.698   2.836  1.00  0.00    -0.234 NA
ATOM      5  C   UNL     1      -8.133 -11.151   3.511  1.00  0.00     0.101 A 
ATOM      6  S   UNL     1      -8.200 -10.536   1.909  1.00  0.00    -0.125 S 
BRANCH   3   7
ATOM      7  C   UNL     1      -9.671 -12.304   5.155  1.00  0.00     0.271 C 
ATOM      8  N   UNL     1     -10.106 -13.601   5.041  1.00  0.00    -0.341 N 
ATOM      9  O   UNL     1      -9.599 -11.685   6.209  1.00  0.00    -0.267 OA
ATOM     10  H   UNL     1     -10.089 -13.990   4.098  1.00  0.00     0.164 HD
BRANCH   8  11
ATOM     11  C   UNL     1     -10.679 -14.371   6.133  1.00  0.00     0.140 C 
BRANCH  11  12
ATOM     12  C   UNL     1     -12.140 -14.668   5.782  1.00  0.00     0.091 C 
ATOM     13  S   UNL     1     -12.564 -15.301   4.209  1.00  0.00    -0.106 SA
ATOM     14  C   UNL     1     -14.234 -15.662   4.790  1.00  0.00     0.113 C 
ATOM     15  N   UNL     1     -13.111 -14.396   6.596  1.00  0.00    -0.267 NA
ATOM     16  C   UNL     1     -14.426 -14.692   5.946  1.00  0.00     0.205 CG0
ATOM     17  G   UNL     1     -15.102 -13.399   5.463  1.00  0.00     0.000 G0
ENDBRANCH  11  12
BRANCH  11  18
ATOM     18  C   UNL     1      -9.816 -15.581   6.572  1.00  0.00     0.015 C 
ATOM     19  C   UNL     1      -9.126 -16.215   5.357  1.00  0.00     0.010 C 
BRANCH  18  20
ATOM     20  C   UNL     1      -8.807 -15.278   7.699  1.00  0.00     0.002 C 
ATOM     21  C   UNL     1      -8.510 -16.491   8.573  1.00  0.00     0.004 C 
ENDBRANCH  18  20
ENDBRANCH  11  18
ENDBRANCH   8  11
ENDBRANCH   3   7
ENDBRANCH   1   2
BRANCH   1  22
ATOM     22  N   UNL     1     -12.037 -10.708   0.970  1.00  0.00    -0.348 N 
ATOM     23  C   UNL     1     -12.963 -11.675   0.683  1.00  0.00     0.249 C 
ATOM     24  O   UNL     1     -12.684 -12.725   0.116  1.00  0.00    -0.272 OA
ATOM     25  H   UNL     1     -12.382  -9.867   1.431  1.00  0.00     0.163 HD
BRANCH  23  26
ATOM     26  C   UNL     1     -14.366 -11.327   1.202  1.00  0.00     0.238 C 
ATOM     27  N   UNL     1     -14.570 -11.966   2.532  1.00  0.00    -0.236 NA
ATOM     28  C   UNL     1     -14.533  -9.836   1.437  1.00  0.00     0.206 C 
ATOM     29  C   UNL     1     -14.591 -10.954   3.347  1.00  0.00     0.208 C 
ATOM     30  O   UNL     1     -14.458  -9.698   2.855  1.00  0.00    -0.474 OA
ATOM     31  C   UNL     1     -15.886  -9.318   0.968  1.00  0.00     0.056 C 
BRANCH  29  32
ATOM     32  C   UNL     1     -14.702 -11.020   4.868  1.00  0.00     0.171 C 
BRANCH  32  33
ATOM     33  N   UNL     1     -14.272 -12.318   5.364  1.00  0.00    -0.342 N 
ATOM     34  C   UNL     1     -15.121 -13.396   5.451  1.00  0.00     0.246 CG0
ATOM     35  O   UNL     1     -16.309 -13.341   5.143  1.00  0.00    -0.273 OA
ATOM     36  H   UNL     1     -13.327 -12.464   5.702  1.00  0.00     0.164 HD
ATOM     37  G   UNL     1     -14.456 -14.692   5.945  1.00  0.00     0.000 G0
ENDBRANCH  32  33
BRANCH  32  38
ATOM     38  C   UNL     1     -13.924  -9.847   5.520  1.00  0.00     0.017 C 
ATOM     39  C   UNL     1     -14.901  -8.756   5.976  1.00  0.00     0.010 C 
BRANCH  38  40
ATOM     40  C   UNL     1     -13.002 -10.303   6.674  1.00  0.00     0.002 C 
ATOM     41  C   UNL     1     -13.598 -10.077   8.057  1.00  0.00     0.004 C 
ENDBRANCH  38  40
ENDBRANCH  32  38
ENDBRANCH  29  32
ENDBRANCH  23  26
ENDBRANCH   1  22
TORSDOF 4
ENDMDL
MODEL 9
REMARK VINA RESULT:    -5.011      2.655      3.833
REMARK INTER + INTRA:          -9.907
REMARK INTER:                  -8.752
REMARK INTRA:                  -1.155
REMARK UNBOUND:                -1.380
REMARK SMILES CC[C@H](C)[C@@H]1NC(=O)[C@H]2CSC(=N2)[C@@H]([C@@H](C)CC)NC(=O)c2csc(n2)CNC(=O)[C@H]2N=C1O[C@@H]2C
REMARK SMILES IDX 27 1 25 2 22 3 26 4 23 5 24 6 20 7 19 8 21 9 14 11 12 12
REMARK SMILES IDX 11 13 10 14 13 15 9 16 15 18 16 19 17 20 18 21 28 22 29 23
REMARK SMILES IDX 30 24 31 26 32 27 35 28 33 29 34 30 36 31 5 32 6 33 7 34
REMARK SMILES IDX 8 35 3 38 4 39 2 40 1 41
REMARK H PARENT 19 10 28 25 6 36
REMARK Flexibility Score:   91.900
ROOT
ATOM      1  C   UNL     1     -15.273 -14.437   0.884  1.00  0.00     0.183 C 
ENDROOT
BRANCH   1   2
ATOM      2  C   UNL     1     -15.031 -15.001   2.254  1.00  0.00     0.113 A 
ATOM      3  C   UNL     1     -14.452 -15.078   4.405  1.00  0.00     0.139 A 
ATOM      4  N   UNL     1     -14.729 -14.262   3.306  1.00  0.00    -0.234 NA
ATOM      5  C   UNL     1     -14.609 -16.429   4.168  1.00  0.00     0.101 A 
ATOM      6  S   UNL     1     -15.087 -16.692   2.541  1.00  0.00    -0.125 S 
BRANCH   3   7
ATOM      7  C   UNL     1     -13.995 -14.483   5.663  1.00  0.00     0.271 C 
ATOM      8  N   UNL     1     -13.774 -13.133   5.534  1.00  0.00    -0.341 N 
ATOM      9  O   UNL     1     -13.803 -15.123   6.689  1.00  0.00    -0.267 OA
ATOM     10  H   UNL     1     -14.001 -12.735   4.623  1.00  0.00     0.164 HD
BRANCH   8  11
ATOM     11  C   UNL     1     -13.143 -12.308   6.550  1.00  0.00     0.140 C 
BRANCH  11  12
ATOM     12  C   UNL     1     -11.685 -12.088   6.138  1.00  0.00     0.091 C 
ATOM     13  S   UNL     1     -10.731 -10.829   6.887  1.00  0.00    -0.106 SA
ATOM     14  C   UNL     1      -9.231 -11.508   6.148  1.00  0.00     0.113 C 
ATOM     15  N   UNL     1     -11.132 -12.766   5.182  1.00  0.00    -0.267 NA
ATOM     16  C   UNL     1      -9.744 -12.263   4.932  1.00  0.00     0.205 CG0
ATOM     17  G   UNL     1      -9.701 -11.372   3.680  1.00  0.00     0.000 G0
ENDBRANCH  11  12
BRANCH  11  18
ATOM     18  C   UNL     1     -13.953 -11.039   6.923  1.00  0.00     0.015 C 
ATOM     19  C   UNL     1     -15.390 -11.147   6.397  1.00  0.00     0.010 C 
BRANCH  18  20
ATOM     20  C   UNL     1     -13.927 -10.675   8.422  1.00  0.00     0.002 C 
ATOM     21  C   UNL     1     -13.861  -9.172   8.669  1.00  0.00     0.004 C 
ENDBRANCH  18  20
ENDBRANCH  11  18
ENDBRANCH   8  11
ENDBRANCH   3   7
ENDBRANCH   1   2
BRANCH   1  22
ATOM     22  N   UNL     1     -14.755 -13.087   0.874  1.00  0.00    -0.348 N 
ATOM     23  C   UNL     1     -15.388 -12.004   1.421  1.00  0.00     0.249 C 
ATOM     24  O   UNL     1     -16.433 -12.088   2.057  1.00  0.00    -0.272 OA
ATOM     25  H   UNL     1     -13.899 -12.900   0.351  1.00  0.00     0.163 HD
BRANCH  23  26
ATOM     26  C   UNL     1     -14.620 -10.692   1.205  1.00  0.00     0.238 C 
ATOM     27  N   UNL     1     -13.410 -10.683   2.073  1.00  0.00    -0.236 NA
ATOM     28  C   UNL     1     -14.100 -10.565  -0.217  1.00  0.00     0.206 C 
ATOM     29  C   UNL     1     -12.432 -10.783   1.223  1.00  0.00     0.208 C 
ATOM     30  O   UNL     1     -12.706 -10.846  -0.103  1.00  0.00    -0.474 OA
ATOM     31  C   UNL     1     -14.269  -9.159  -0.777  1.00  0.00     0.056 C 
BRANCH  29  32
ATOM     32  C   UNL     1     -10.948 -10.896   1.561  1.00  0.00     0.171 C 
BRANCH  32  33
ATOM     33  N   UNL     1     -10.750 -11.653   2.786  1.00  0.00    -0.342 N 
ATOM     34  C   UNL     1      -9.716 -11.399   3.656  1.00  0.00     0.246 CG0
ATOM     35  O   UNL     1      -8.869 -10.533   3.454  1.00  0.00    -0.273 OA
ATOM     36  H   UNL     1     -11.356 -12.431   3.026  1.00  0.00     0.164 HD
ATOM     37  G   UNL     1      -9.719 -12.272   4.921  1.00  0.00     0.000 G0
ENDBRANCH  32  33
BRANCH  32  38
ATOM     38  C   UNL     1     -10.162 -11.489   0.362  1.00  0.00     0.017 C 
ATOM     39  C   UNL     1      -8.955 -10.602   0.032  1.00  0.00     0.010 C 
BRANCH  38  40
ATOM     40  C   UNL     1      -9.743 -12.960   0.584  1.00  0.00     0.002 C 
ATOM     41  C   UNL     1     -10.734 -13.968   0.017  1.00  0.00     0.004 C 
ENDBRANCH  38  40
ENDBRANCH  32  38
ENDBRANCH  29  32
ENDBRANCH  23  26
ENDBRANCH   1  22
TORSDOF 4
ENDMDL
MODEL 10
REMARK VINA RESULT:    -4.333     20.491     23.179
REMARK INTER + INTRA:          -8.754
REMARK INTER:                  -6.843
REMARK INTRA:                  -1.911
REMARK UNBOUND:                -1.380
REMARK SMILES CC[C@H](C)[C@@H]1NC(=O)[C@H]2CSC(=N2)[C@@H]([C@@H](C)CC)NC(=O)c2csc(n2)CNC(=O)[C@H]2N=C1O[C@@H]2C
REMARK SMILES IDX 27 1 25 2 22 3 26 4 23 5 24 6 20 7 19 8 21 9 14 11 12 12
REMARK SMILES IDX 11 13 10 14 13 15 9 16 15 18 16 19 17 20 18 21 28 22 29 23
REMARK SMILES IDX 30 24 31 26 32 27 35 28 33 29 34 30 36 31 5 32 6 33 7 34
REMARK SMILES IDX 8 35 3 38 4 39 2 40 1 41
REMARK H PARENT 19 10 28 25 6 36
REMARK Flexibility Score:   91.900
ROOT
ATOM      1  C   UNL     1       4.679  -0.763   6.298  1.00  0.00     0.183 C 
ENDROOT
BRANCH   1   2
ATOM      2  C   UNL     1       5.226  -1.279   7.598  1.00  0.00     0.113 A 
ATOM      3  C   UNL     1       5.640  -1.400   9.784  1.00  0.00     0.139 A 
ATOM      4  N   UNL     1       4.883  -0.797   8.778  1.00  0.00    -0.234 NA
ATOM      5  C   UNL     1       6.507  -2.378   9.339  1.00  0.00     0.101 A 
ATOM      6  S   UNL     1       6.397  -2.533   7.633  1.00  0.00    -0.125 S 
BRANCH   3   7
ATOM      7  C   UNL     1       5.505  -0.952  11.172  1.00  0.00     0.271 C 
ATOM      8  N   UNL     1       4.326  -0.276  11.373  1.00  0.00    -0.341 N 
ATOM      9  O   UNL     1       6.358  -1.133  12.032  1.00  0.00    -0.267 OA
ATOM     10  H   UNL     1       3.704  -0.226  10.567  1.00  0.00     0.164 HD
BRANCH   8  11
ATOM     11  C   UNL     1       3.996   0.445  12.591  1.00  0.00     0.140 C 
BRANCH  11  12
ATOM     12  C   UNL     1       3.617   1.877  12.201  1.00  0.00     0.091 C 
ATOM     13  S   UNL     1       2.456   2.173  10.928  1.00  0.00    -0.106 SA
ATOM     14  C   UNL     1       2.366   3.914  11.397  1.00  0.00     0.113 C 
ATOM     15  N   UNL     1       4.189   2.909  12.738  1.00  0.00    -0.267 NA
ATOM     16  C   UNL     1       3.698   4.165  12.088  1.00  0.00     0.205 CG0
ATOM     17  G   UNL     1       4.734   4.707  11.090  1.00  0.00     0.000 G0
ENDBRANCH  11  12
BRANCH  11  18
ATOM     18  C   UNL     1       3.001  -0.303  13.516  1.00  0.00     0.015 C 
ATOM     19  C   UNL     1       2.149  -1.285  12.702  1.00  0.00     0.010 C 
BRANCH  18  20
ATOM     20  C   UNL     1       3.648  -0.993  14.734  1.00  0.00     0.002 C 
ATOM     21  C   UNL     1       3.949  -2.468  14.492  1.00  0.00     0.004 C 
ENDBRANCH  18  20
ENDBRANCH  11  18
ENDBRANCH   8  11
ENDBRANCH   3   7
ENDBRANCH   1   2
BRANCH   1  22
ATOM     22  N   UNL     1       4.920   0.663   6.263  1.00  0.00    -0.348 N 
ATOM     23  C   UNL     1       3.958   1.611   6.044  1.00  0.00     0.249 C 
ATOM     24  O   UNL     1       2.766   1.346   5.938  1.00  0.00    -0.272 OA
ATOM     25  H   UNL     1       5.883   0.993   6.319  1.00  0.00     0.163 HD
BRANCH  23  26
ATOM     26  C   UNL     1       4.526   3.038   6.008  1.00  0.00     0.238 C 
ATOM     27  N   UNL     1       4.411   3.646   7.362  1.00  0.00    -0.236 NA
ATOM     28  C   UNL     1       6.009   3.052   5.680  1.00  0.00     0.206 C 
ATOM     29  C   UNL     1       5.646   3.728   7.757  1.00  0.00     0.208 C 
ATOM     30  O   UNL     1       6.638   3.309   6.934  1.00  0.00    -0.474 OA
ATOM     31  C   UNL     1       6.383   4.165   4.711  1.00  0.00     0.056 C 
BRANCH  29  32
ATOM     32  C   UNL     1       6.130   4.216   9.120  1.00  0.00     0.171 C 
BRANCH  32  33
ATOM     33  N   UNL     1       5.193   3.841  10.168  1.00  0.00    -0.342 N 
ATOM     34  C   UNL     1       4.736   4.734  11.107  1.00  0.00     0.246 CG0
ATOM     35  O   UNL     1       5.100   5.907  11.150  1.00  0.00    -0.273 OA
ATOM     36  H   UNL     1       4.869   2.885  10.265  1.00  0.00     0.164 HD
ATOM     37  G   UNL     1       3.706   4.154  12.090  1.00  0.00     0.000 G0
ENDBRANCH  32  33
BRANCH  32  38
ATOM     38  C   UNL     1       7.569   3.707   9.400  1.00  0.00     0.017 C 
ATOM     39  C   UNL     1       8.333   4.730  10.249  1.00  0.00     0.010 C 
BRANCH  38  40
ATOM     40  C   UNL     1       7.597   2.300  10.041  1.00  0.00     0.002 C 
ATOM     41  C   UNL     1       7.913   2.316  11.531  1.00  0.00     0.004 C 
ENDBRANCH  38  40
ENDBRANCH  32  38
ENDBRANCH  29  32
ENDBRANCH  23  26
ENDBRANCH   1  22
TORSDOF 4
ENDMDL
