MODEL 1
REMARK VINA RESULT:    -6.348      0.000      0.000
REMARK INTER + INTRA:         -25.754
REMARK INTER:                 -18.964
REMARK INTRA:                  -6.790
REMARK UNBOUND:                -6.790
REMARK SMILES C=C1C(=O)N[C@H](C)C(=O)N[C@@H](CC(C)C)C(=O)N[C@@H](C(=O)O)[C@H](C)C(=O)N[C@@H](CCCN=C(N)N)C(=O)N[C@@H](/C=C/C(C)=C/[C@H](C)[C@H](Cc2ccccc2)OC)[C@H](C)C(=O)N[C@@H](C(=O)O)CCC(=O)N1C
REMARK SMILES IDX 39 1 38 2 37 3 36 4 28 6 27 7 25 8 26 9 23 11 24 12 19 13
REMARK SMILES IDX 18 14 16 15 17 16 11 18 10 19 8 20 9 21 12 24 13 25 14 26
REMARK SMILES IDX 15 27 20 28 21 29 22 30 29 32 30 33 31 34 32 35 33 36 34 37
REMARK SMILES IDX 35 38 57 43 58 44 59 45 60 46 61 47 62 49 66 50 67 51 68 52
REMARK SMILES IDX 69 53 70 54 71 55 2 56 1 57 3 58 4 59 5 60 6 62 7 63 63 65
REMARK SMILES IDX 64 66 65 67 40 69 41 70 42 71 44 72 43 73 45 74 46 75 47 76
REMARK SMILES IDX 55 77 56 78 48 79 49 80 50 81 54 82 51 83 53 84 52 85
REMARK H PARENT 38 5 27 10 18 17 10 22 22 31 34 39 34 40 35 41 35 42 61 48
REMARK H PARENT 5 61 65 68
REMARK Flexibility Score:  369.900
ROOT
ATOM      1  C   UNL     1      -0.542  -2.408  -9.867  1.00  0.00     0.117 C 
ENDROOT
BRANCH   1   2
ATOM      2  N   UNL     1      -1.942  -2.056 -10.107  1.00  0.00    -0.347 N 
ATOM      3  O   UNL     1      -2.638  -4.084 -10.927  1.00  0.00    -0.273 OA
ATOM      4  C   UNL     1      -2.902  -2.953 -10.534  1.00  0.00     0.243 C 
ATOM      5  H   UNL     1      -2.258  -1.119  -9.909  1.00  0.00     0.164 HD
BRANCH   4   6
ATOM      6  C   UNL     1      -4.325  -2.345 -10.628  1.00  0.00     0.171 C 
BRANCH   6   7
ATOM      7  N   UNL     1      -4.906  -2.186  -9.285  1.00  0.00    -0.344 N 
ATOM      8  C   UNL     1      -5.511  -3.249  -8.650  1.00  0.00     0.226 C 
ATOM      9  O   UNL     1      -5.616  -4.354  -9.169  1.00  0.00    -0.275 OA
ATOM     10  H   UNL     1      -4.898  -1.271  -8.852  1.00  0.00     0.164 HD
BRANCH   8  11
ATOM     11  C   UNL     1      -6.011  -2.940  -7.250  1.00  0.00     0.109 C 
ATOM     12  C   UNL     1      -5.165  -1.832  -6.622  1.00  0.00     0.021 C 
BRANCH  11  13
ATOM     13  C   UNL     1      -7.526  -2.656  -7.288  1.00  0.00     0.204 C 
BRANCH  13  14
ATOM     14  N   UNL     1      -8.005  -2.051  -6.042  1.00  0.00    -0.340 N 
ATOM     15  C   UNL     1      -8.885  -2.686  -5.192  1.00  0.00     0.243 C 
ATOM     16  O   UNL     1      -9.283  -3.832  -5.389  1.00  0.00    -0.273 OA
ATOM     17  H   UNL     1      -7.835  -1.052  -5.897  1.00  0.00     0.164 HD
BRANCH  15  18
ATOM     18  C   UNL     1      -9.409  -1.777  -4.053  1.00  0.00     0.171 C 
BRANCH  18  19
ATOM     19  N   UNL     1     -10.528  -2.485  -3.434  1.00  0.00    -0.343 N 
ATOM     20  C   UNL     1     -11.690  -1.833  -3.068  1.00  0.00     0.242 CG0
ATOM     21  O   UNL     1     -11.786  -0.609  -3.122  1.00  0.00    -0.273 OA
ATOM     22  H   UNL     1     -10.452  -3.481  -3.262  1.00  0.00     0.164 HD
ATOM     23  G   UNL     1     -12.788  -2.758  -2.503  1.00  0.00     0.000 G0
ENDBRANCH  18  19
BRANCH  18  24
ATOM     24  C   UNL     1      -8.298  -1.485  -3.038  1.00  0.00     0.038 C 
BRANCH  24  25
ATOM     25  C   UNL     1      -7.443  -2.709  -2.649  1.00  0.00    -0.015 C 
ATOM     26  C   UNL     1      -7.602  -3.091  -1.177  1.00  0.00     0.007 C 
ATOM     27  C   UNL     1      -5.969  -2.424  -2.950  1.00  0.00     0.007 C 
ENDBRANCH  24  25
ENDBRANCH  18  24
ENDBRANCH  15  18
ENDBRANCH  13  14
BRANCH  13  28
ATOM     28  C   UNL     1      -7.937  -1.725  -8.433  1.00  0.00     0.327 C 
ATOM     29  O   UNL     1      -7.730  -0.522  -8.495  1.00  0.00    -0.250 OA
BRANCH  28  30
ATOM     30  O   UNL     1      -8.685  -2.339  -9.372  1.00  0.00    -0.480 OA
ATOM     31  H   UNL     1      -9.580  -1.958  -9.253  1.00  0.00     0.296 HD
ENDBRANCH  28  30
ENDBRANCH  13  28
ENDBRANCH  11  13
ENDBRANCH   8  11
ENDBRANCH   6   7
BRANCH   6  32
ATOM     32  C   UNL     1      -4.250  -0.998 -11.355  1.00  0.00     0.037 C 
BRANCH  32  33
ATOM     33  C   UNL     1      -5.611  -0.288 -11.401  1.00  0.00     0.026 C 
BRANCH  33  34
ATOM     34  C   UNL     1      -5.583   1.076 -10.711  1.00  0.00     0.146 C 
BRANCH  34  35
ATOM     35  N   UNL     1      -4.528   1.073  -9.707  1.00  0.00    -0.254 NA
ATOM     36  C   UNL     1      -4.813   1.447  -8.515  1.00  0.00     0.185 C 
ATOM     37  N   UNL     1      -3.849   1.443  -7.581  1.00  0.00    -0.370 N 
ATOM     38  N   UNL     1      -5.991   1.866  -8.020  1.00  0.00    -0.370 N 
ATOM     39  H   UNL     1      -2.933   1.130  -7.875  1.00  0.00     0.159 HD
ATOM     40  H   UNL     1      -4.027   1.553  -6.598  1.00  0.00     0.159 HD
ATOM     41  H   UNL     1      -6.055   2.266  -7.098  1.00  0.00     0.159 HD
ATOM     42  H   UNL     1      -6.802   1.934  -8.615  1.00  0.00     0.159 HD
ENDBRANCH  34  35
ENDBRANCH  33  34
ENDBRANCH  32  33
ENDBRANCH   6  32
ENDBRANCH   4   6
ENDBRANCH   1   2
BRANCH   1  43
ATOM     43  C   UNL     1      -0.323  -2.546  -8.332  1.00  0.00     0.102 C 
ATOM     44  C   UNL     1       0.955  -1.854  -7.831  1.00  0.00     0.020 C 
BRANCH  43  45
ATOM     45  C   UNL     1      -0.454  -4.006  -7.888  1.00  0.00     0.225 C 
ATOM     46  O   UNL     1      -0.490  -4.348  -6.709  1.00  0.00    -0.275 OA
ATOM     47  N   UNL     1      -0.435  -4.938  -8.901  1.00  0.00    -0.342 N 
ATOM     48  H   UNL     1      -0.558  -4.639  -9.858  1.00  0.00     0.164 HD
BRANCH  47  49
ATOM     49  C   UNL     1      -0.587  -6.370  -8.628  1.00  0.00     0.192 C 
BRANCH  49  50
ATOM     50  C   UNL     1       0.357  -7.169  -9.530  1.00  0.00     0.047 C 
BRANCH  50  51
ATOM     51  C   UNL     1       1.074  -8.294  -8.772  1.00  0.00     0.103 C 
BRANCH  51  52
ATOM     52  C   UNL     1       1.024  -9.619  -9.531  1.00  0.00     0.226 C 
ATOM     53  O   UNL     1      -0.025 -10.264  -9.564  1.00  0.00    -0.275 OA
BRANCH  52  54
ATOM     54  N   UNL     1       2.192  -9.988 -10.224  1.00  0.00    -0.311 N 
ATOM     55  C   UNL     1       2.138 -10.931 -11.350  1.00  0.00     0.153 C 
BRANCH  54  56
ATOM     56  C   UNL     1       3.449  -9.468  -9.871  1.00  0.00     0.102 C 
ATOM     57  C   UNL     1       4.008  -8.375 -10.415  1.00  0.00     0.043 C 
BRANCH  56  58
ATOM     58  C   UNL     1       4.272 -10.106  -8.776  1.00  0.00     0.268 C 
ATOM     59  O   UNL     1       4.103 -11.257  -8.396  1.00  0.00    -0.268 OA
ATOM     60  N   UNL     1       5.267  -9.285  -8.301  1.00  0.00    -0.339 N 
ATOM     61  H   UNL     1       5.333  -8.341  -8.661  1.00  0.00     0.164 HD
BRANCH  60  62
ATOM     62  C   UNL     1       6.219  -9.725  -7.283  1.00  0.00     0.168 CG0
ATOM     63  C   UNL     1       6.312  -8.714  -6.147  1.00  0.00     0.041 C 
ATOM     64  G   UNL     1       7.602  -9.948  -7.930  1.00  0.00     0.000 G0
ENDBRANCH  60  62
ENDBRANCH  56  58
ENDBRANCH  54  56
ENDBRANCH  52  54
ENDBRANCH  51  52
ENDBRANCH  50  51
ENDBRANCH  49  50
BRANCH  49  65
ATOM     65  C   UNL     1      -2.031  -6.841  -8.857  1.00  0.00     0.326 C 
ATOM     66  O   UNL     1      -3.036  -6.275  -8.452  1.00  0.00    -0.250 OA
BRANCH  65  67
ATOM     67  O   UNL     1      -2.144  -8.012  -9.522  1.00  0.00    -0.480 OA
ATOM     68  H   UNL     1      -2.278  -7.737 -10.454  1.00  0.00     0.296 HD
ENDBRANCH  65  67
ENDBRANCH  49  65
ENDBRANCH  47  49
ENDBRANCH  43  45
ENDBRANCH   1  43
BRANCH   1  69
ATOM     69  C   UNL     1       0.287  -1.397 -10.637  1.00  0.00    -0.001 C 
ATOM     70  C   UNL     1       0.321  -1.213 -11.969  1.00  0.00     0.001 C 
BRANCH  70  71
ATOM     71  C   UNL     1       1.110  -0.219 -12.700  1.00  0.00    -0.055 C 
ATOM     72  C   UNL     1       2.289   0.162 -12.166  1.00  0.00    -0.018 C 
ATOM     73  C   UNL     1       0.554   0.300 -14.000  1.00  0.00     0.044 C 
BRANCH  72  74
ATOM     74  C   UNL     1       3.308   1.160 -12.696  1.00  0.00     0.038 C 
ATOM     75  C   UNL     1       4.427   0.353 -13.365  1.00  0.00     0.015 C 
BRANCH  74  76
ATOM     76  C   UNL     1       3.774   2.072 -11.522  1.00  0.00     0.128 C 
BRANCH  76  77
ATOM     77  O   UNL     1       4.755   3.013 -11.991  1.00  0.00    -0.381 OA
ATOM     78  C   UNL     1       5.901   3.106 -11.155  1.00  0.00     0.195 C 
ENDBRANCH  76  77
BRANCH  76  79
ATOM     79  C   UNL     1       2.612   2.751 -10.753  1.00  0.00     0.068 C 
BRANCH  79  80
ATOM     80  C   UNL     1       2.601   2.640  -9.248  1.00  0.00    -0.045 A 
ATOM     81  C   UNL     1       1.842   1.656  -8.602  1.00  0.00     0.004 A 
ATOM     82  C   UNL     1       3.334   3.547  -8.467  1.00  0.00     0.004 A 
ATOM     83  C   UNL     1       1.826   1.570  -7.208  1.00  0.00     0.000 A 
ATOM     84  C   UNL     1       3.317   3.460  -7.073  1.00  0.00     0.000 A 
ATOM     85  C   UNL     1       2.564   2.471  -6.444  1.00  0.00     0.000 A 
ENDBRANCH  79  80
ENDBRANCH  76  79
ENDBRANCH  74  76
ENDBRANCH  72  74
ENDBRANCH  70  71
ENDBRANCH   1  69
TORSDOF 17
ENDMDL
MODEL 2
REMARK VINA RESULT:    -6.311      2.458      3.395
REMARK INTER + INTRA:         -25.644
REMARK INTER:                 -18.577
REMARK INTRA:                  -7.067
REMARK UNBOUND:                -6.790
REMARK SMILES C=C1C(=O)N[C@H](C)C(=O)N[C@@H](CC(C)C)C(=O)N[C@@H](C(=O)O)[C@H](C)C(=O)N[C@@H](CCCN=C(N)N)C(=O)N[C@@H](/C=C/C(C)=C/[C@H](C)[C@H](Cc2ccccc2)OC)[C@H](C)C(=O)N[C@@H](C(=O)O)CCC(=O)N1C
REMARK SMILES IDX 39 1 38 2 37 3 36 4 28 6 27 7 25 8 26 9 23 11 24 12 19 13
REMARK SMILES IDX 18 14 16 15 17 16 11 18 10 19 8 20 9 21 12 24 13 25 14 26
REMARK SMILES IDX 15 27 20 28 21 29 22 30 29 32 30 33 31 34 32 35 33 36 34 37
REMARK SMILES IDX 35 38 57 43 58 44 59 45 60 46 61 47 62 49 66 50 67 51 68 52
REMARK SMILES IDX 69 53 70 54 71 55 2 56 1 57 3 58 4 59 5 60 6 62 7 63 63 65
REMARK SMILES IDX 64 66 65 67 40 69 41 70 42 71 44 72 43 73 45 74 46 75 47 76
REMARK SMILES IDX 55 77 56 78 48 79 49 80 50 81 54 82 51 83 53 84 52 85
REMARK H PARENT 38 5 27 10 18 17 10 22 22 31 34 39 34 40 35 41 35 42 61 48
REMARK H PARENT 5 61 65 68
REMARK Flexibility Score:  369.900
ROOT
ATOM      1  C   UNL     1      -1.439  -2.531  -9.919  1.00  0.00     0.117 C 
ENDROOT
BRANCH   1   2
ATOM      2  N   UNL     1      -2.786  -2.101 -10.296  1.00  0.00    -0.347 N 
ATOM      3  O   UNL     1      -3.752  -4.179 -10.428  1.00  0.00    -0.273 OA
ATOM      4  C   UNL     1      -3.861  -2.958 -10.431  1.00  0.00     0.243 C 
ATOM      5  H   UNL     1      -2.974  -1.118 -10.421  1.00  0.00     0.164 HD
BRANCH   4   6
ATOM      6  C   UNL     1      -5.195  -2.237 -10.753  1.00  0.00     0.171 C 
BRANCH   6   7
ATOM      7  N   UNL     1      -5.815  -1.728  -9.520  1.00  0.00    -0.344 N 
ATOM      8  C   UNL     1      -7.056  -2.175  -9.120  1.00  0.00     0.226 C 
ATOM      9  O   UNL     1      -7.706  -2.986  -9.769  1.00  0.00    -0.275 OA
ATOM     10  H   UNL     1      -5.339  -1.007  -8.992  1.00  0.00     0.164 HD
BRANCH   8  11
ATOM     11  C   UNL     1      -7.535  -1.596  -7.800  1.00  0.00     0.109 C 
ATOM     12  C   UNL     1      -7.719  -2.713  -6.773  1.00  0.00     0.021 C 
BRANCH  11  13
ATOM     13  C   UNL     1      -6.594  -0.458  -7.358  1.00  0.00     0.204 C 
BRANCH  13  14
ATOM     14  N   UNL     1      -7.317   0.627  -6.687  1.00  0.00    -0.340 N 
ATOM     15  C   UNL     1      -7.526   1.858  -7.268  1.00  0.00     0.243 C 
ATOM     16  O   UNL     1      -7.173   2.115  -8.418  1.00  0.00    -0.273 OA
ATOM     17  H   UNL     1      -7.501   0.532  -5.684  1.00  0.00     0.164 HD
BRANCH  15  18
ATOM     18  C   UNL     1      -8.126   2.906  -6.298  1.00  0.00     0.171 C 
BRANCH  18  19
ATOM     19  N   UNL     1      -7.159   3.075  -5.215  1.00  0.00    -0.343 N 
ATOM     20  C   UNL     1      -7.556   3.324  -3.915  1.00  0.00     0.242 CG0
ATOM     21  O   UNL     1      -8.731   3.547  -3.633  1.00  0.00    -0.273 OA
ATOM     22  H   UNL     1      -6.168   3.015  -5.419  1.00  0.00     0.164 HD
ATOM     23  G   UNL     1      -6.399   3.394  -2.898  1.00  0.00     0.000 G0
ENDBRANCH  18  19
BRANCH  18  24
ATOM     24  C   UNL     1      -8.391   4.229  -7.026  1.00  0.00     0.038 C 
BRANCH  24  25
ATOM     25  C   UNL     1      -9.882   4.539  -7.278  1.00  0.00    -0.015 C 
ATOM     26  C   UNL     1     -10.195   4.740  -8.761  1.00  0.00     0.007 C 
ATOM     27  C   UNL     1     -10.289   5.787  -6.491  1.00  0.00     0.007 C 
ENDBRANCH  24  25
ENDBRANCH  18  24
ENDBRANCH  15  18
ENDBRANCH  13  14
BRANCH  13  28
ATOM     28  C   UNL     1      -5.488  -0.924  -6.406  1.00  0.00     0.327 C 
ATOM     29  O   UNL     1      -4.529  -1.622  -6.698  1.00  0.00    -0.250 OA
BRANCH  28  30
ATOM     30  O   UNL     1      -5.719  -0.584  -5.122  1.00  0.00    -0.480 OA
ATOM     31  H   UNL     1      -6.675  -0.373  -5.096  1.00  0.00     0.296 HD
ENDBRANCH  28  30
ENDBRANCH  13  28
ENDBRANCH  11  13
ENDBRANCH   8  11
ENDBRANCH   6   7
BRANCH   6  32
ATOM     32  C   UNL     1      -4.926  -1.097 -11.742  1.00  0.00     0.037 C 
BRANCH  32  33
ATOM     33  C   UNL     1      -5.545   0.229 -11.279  1.00  0.00     0.026 C 
BRANCH  33  34
ATOM     34  C   UNL     1      -4.488   1.265 -10.892  1.00  0.00     0.146 C 
BRANCH  34  35
ATOM     35  N   UNL     1      -3.637   0.702  -9.853  1.00  0.00    -0.254 NA
ATOM     36  C   UNL     1      -3.559   1.308  -8.727  1.00  0.00     0.185 C 
ATOM     37  N   UNL     1      -2.782   0.795  -7.761  1.00  0.00    -0.370 N 
ATOM     38  N   UNL     1      -4.167   2.441  -8.334  1.00  0.00    -0.370 N 
ATOM     39  H   UNL     1      -2.297  -0.066  -7.977  1.00  0.00     0.159 HD
ATOM     40  H   UNL     1      -2.802   1.109  -6.806  1.00  0.00     0.159 HD
ATOM     41  H   UNL     1      -3.916   2.895  -7.471  1.00  0.00     0.159 HD
ATOM     42  H   UNL     1      -4.770   2.945  -8.966  1.00  0.00     0.159 HD
ENDBRANCH  34  35
ENDBRANCH  33  34
ENDBRANCH  32  33
ENDBRANCH   6  32
ENDBRANCH   4   6
ENDBRANCH   1   2
BRANCH   1  43
ATOM     43  C   UNL     1      -1.378  -2.667  -8.370  1.00  0.00     0.102 C 
ATOM     44  C   UNL     1      -0.315  -1.766  -7.718  1.00  0.00     0.020 C 
BRANCH  43  45
ATOM     45  C   UNL     1      -1.289  -4.137  -7.950  1.00  0.00     0.225 C 
ATOM     46  O   UNL     1      -1.287  -4.501  -6.778  1.00  0.00    -0.275 OA
ATOM     47  N   UNL     1      -1.113  -5.037  -8.977  1.00  0.00    -0.342 N 
ATOM     48  H   UNL     1      -1.268  -4.743  -9.931  1.00  0.00     0.164 HD
BRANCH  47  49
ATOM     49  C   UNL     1      -1.047  -6.480  -8.728  1.00  0.00     0.192 C 
BRANCH  49  50
ATOM     50  C   UNL     1       0.042  -7.104  -9.604  1.00  0.00     0.047 C 
BRANCH  50  51
ATOM     51  C   UNL     1       0.864  -8.157  -8.850  1.00  0.00     0.103 C 
BRANCH  51  52
ATOM     52  C   UNL     1       0.828  -9.518  -9.543  1.00  0.00     0.226 C 
ATOM     53  O   UNL     1      -0.195 -10.203  -9.490  1.00  0.00    -0.275 OA
BRANCH  52  54
ATOM     54  N   UNL     1       1.972  -9.876 -10.280  1.00  0.00    -0.311 N 
ATOM     55  C   UNL     1       1.855 -10.578 -11.565  1.00  0.00     0.153 C 
BRANCH  54  56
ATOM     56  C   UNL     1       3.264  -9.571  -9.821  1.00  0.00     0.102 C 
ATOM     57  C   UNL     1       3.825  -8.351  -9.856  1.00  0.00     0.043 C 
BRANCH  56  58
ATOM     58  C   UNL     1       4.132 -10.633  -9.187  1.00  0.00     0.268 C 
ATOM     59  O   UNL     1       3.703 -11.465  -8.398  1.00  0.00    -0.268 OA
ATOM     60  N   UNL     1       5.430 -10.610  -9.636  1.00  0.00    -0.339 N 
ATOM     61  H   UNL     1       5.709  -9.881 -10.283  1.00  0.00     0.164 HD
BRANCH  60  62
ATOM     62  C   UNL     1       6.424 -11.590  -9.199  1.00  0.00     0.168 CG0
ATOM     63  C   UNL     1       7.426 -10.962  -8.238  1.00  0.00     0.041 C 
ATOM     64  G   UNL     1       7.143 -12.180 -10.429  1.00  0.00     0.000 G0
ENDBRANCH  60  62
ENDBRANCH  56  58
ENDBRANCH  54  56
ENDBRANCH  52  54
ENDBRANCH  51  52
ENDBRANCH  50  51
ENDBRANCH  49  50
BRANCH  49  65
ATOM     65  C   UNL     1      -2.390  -7.167  -9.019  1.00  0.00     0.326 C 
ATOM     66  O   UNL     1      -3.465  -6.869  -8.518  1.00  0.00    -0.250 OA
BRANCH  65  67
ATOM     67  O   UNL     1      -2.314  -8.219  -9.865  1.00  0.00    -0.480 OA
ATOM     68  H   UNL     1      -1.357  -8.277 -10.076  1.00  0.00     0.296 HD
ENDBRANCH  65  67
ENDBRANCH  49  65
ENDBRANCH  47  49
ENDBRANCH  43  45
ENDBRANCH   1  43
BRANCH   1  69
ATOM     69  C   UNL     1      -0.481  -1.577 -10.610  1.00  0.00    -0.001 C 
ATOM     70  C   UNL     1      -0.411  -1.299 -11.923  1.00  0.00     0.001 C 
BRANCH  70  71
ATOM     71  C   UNL     1       0.504  -0.360 -12.576  1.00  0.00    -0.055 C 
ATOM     72  C   UNL     1       1.520   0.139 -11.841  1.00  0.00    -0.018 C 
ATOM     73  C   UNL     1       0.252  -0.024 -14.023  1.00  0.00     0.044 C 
BRANCH  72  74
ATOM     74  C   UNL     1       2.613   1.117 -12.248  1.00  0.00     0.038 C 
ATOM     75  C   UNL     1       3.816   0.286 -12.711  1.00  0.00     0.015 C 
BRANCH  74  76
ATOM     76  C   UNL     1       2.901   2.072 -11.052  1.00  0.00     0.128 C 
BRANCH  76  77
ATOM     77  O   UNL     1       1.761   2.913 -10.809  1.00  0.00    -0.381 OA
ATOM     78  C   UNL     1       1.867   4.203 -11.396  1.00  0.00     0.195 C 
ENDBRANCH  76  77
BRANCH  76  79
ATOM     79  C   UNL     1       3.396   1.349  -9.774  1.00  0.00     0.068 C 
BRANCH  79  80
ATOM     80  C   UNL     1       3.086   1.981  -8.439  1.00  0.00    -0.045 A 
ATOM     81  C   UNL     1       2.253   1.340  -7.513  1.00  0.00     0.004 A 
ATOM     82  C   UNL     1       3.609   3.242  -8.115  1.00  0.00     0.004 A 
ATOM     83  C   UNL     1       1.959   1.938  -6.286  1.00  0.00     0.000 A 
ATOM     84  C   UNL     1       3.314   3.840  -6.888  1.00  0.00     0.000 A 
ATOM     85  C   UNL     1       2.491   3.187  -5.973  1.00  0.00     0.000 A 
ENDBRANCH  79  80
ENDBRANCH  76  79
ENDBRANCH  74  76
ENDBRANCH  72  74
ENDBRANCH  70  71
ENDBRANCH   1  69
TORSDOF 17
ENDMDL
MODEL 3
REMARK VINA RESULT:    -6.043      7.020     12.251
REMARK INTER + INTRA:         -24.845
REMARK INTER:                 -18.982
REMARK INTRA:                  -5.863
REMARK UNBOUND:                -6.790
REMARK SMILES C=C1C(=O)N[C@H](C)C(=O)N[C@@H](CC(C)C)C(=O)N[C@@H](C(=O)O)[C@H](C)C(=O)N[C@@H](CCCN=C(N)N)C(=O)N[C@@H](/C=C/C(C)=C/[C@H](C)[C@H](Cc2ccccc2)OC)[C@H](C)C(=O)N[C@@H](C(=O)O)CCC(=O)N1C
REMARK SMILES IDX 39 1 38 2 37 3 36 4 28 6 27 7 25 8 26 9 23 11 24 12 19 13
REMARK SMILES IDX 18 14 16 15 17 16 11 18 10 19 8 20 9 21 12 24 13 25 14 26
REMARK SMILES IDX 15 27 20 28 21 29 22 30 29 32 30 33 31 34 32 35 33 36 34 37
REMARK SMILES IDX 35 38 57 43 58 44 59 45 60 46 61 47 62 49 66 50 67 51 68 52
REMARK SMILES IDX 69 53 70 54 71 55 2 56 1 57 3 58 4 59 5 60 6 62 7 63 63 65
REMARK SMILES IDX 64 66 65 67 40 69 41 70 42 71 44 72 43 73 45 74 46 75 47 76
REMARK SMILES IDX 55 77 56 78 48 79 49 80 50 81 54 82 51 83 53 84 52 85
REMARK H PARENT 38 5 27 10 18 17 10 22 22 31 34 39 34 40 35 41 35 42 61 48
REMARK H PARENT 5 61 65 68
REMARK Flexibility Score:  369.900
ROOT
ATOM      1  C   UNL     1      -5.024  -3.233  -0.401  1.00  0.00     0.117 C 
ENDROOT
BRANCH   1   2
ATOM      2  N   UNL     1      -5.553  -2.761   0.879  1.00  0.00    -0.347 N 
ATOM      3  O   UNL     1      -4.297  -4.104   2.252  1.00  0.00    -0.273 OA
ATOM      4  C   UNL     1      -5.080  -3.171   2.111  1.00  0.00     0.243 C 
ATOM      5  H   UNL     1      -6.275  -2.056   0.886  1.00  0.00     0.164 HD
BRANCH   4   6
ATOM      6  C   UNL     1      -5.753  -2.454   3.308  1.00  0.00     0.171 C 
BRANCH   6   7
ATOM      7  N   UNL     1      -6.719  -3.348   3.966  1.00  0.00    -0.344 N 
ATOM      8  C   UNL     1      -8.008  -3.462   3.492  1.00  0.00     0.226 C 
ATOM      9  O   UNL     1      -8.417  -2.821   2.531  1.00  0.00    -0.275 OA
ATOM     10  H   UNL     1      -6.438  -3.843   4.803  1.00  0.00     0.164 HD
BRANCH   8  11
ATOM     11  C   UNL     1      -8.865  -4.464   4.245  1.00  0.00     0.109 C 
ATOM     12  C   UNL     1     -10.023  -4.933   3.363  1.00  0.00     0.021 C 
BRANCH  11  13
ATOM     13  C   UNL     1      -7.977  -5.594   4.803  1.00  0.00     0.204 C 
BRANCH  13  14
ATOM     14  N   UNL     1      -8.016  -5.654   6.267  1.00  0.00    -0.340 N 
ATOM     15  C   UNL     1      -6.989  -5.193   7.062  1.00  0.00     0.243 C 
ATOM     16  O   UNL     1      -5.991  -4.642   6.599  1.00  0.00    -0.273 OA
ATOM     17  H   UNL     1      -8.739  -6.230   6.706  1.00  0.00     0.164 HD
BRANCH  15  18
ATOM     18  C   UNL     1      -7.159  -5.548   8.560  1.00  0.00     0.171 C 
BRANCH  18  19
ATOM     19  N   UNL     1      -6.274  -6.681   8.824  1.00  0.00    -0.343 N 
ATOM     20  C   UNL     1      -6.655  -7.982   8.555  1.00  0.00     0.242 CG0
ATOM     21  O   UNL     1      -7.801  -8.257   8.207  1.00  0.00    -0.273 OA
ATOM     22  H   UNL     1      -5.357  -6.514   9.222  1.00  0.00     0.164 HD
ATOM     23  G   UNL     1      -5.561  -9.035   8.825  1.00  0.00     0.000 G0
ENDBRANCH  18  19
BRANCH  18  24
ATOM     24  C   UNL     1      -6.810  -4.345   9.445  1.00  0.00     0.038 C 
BRANCH  24  25
ATOM     25  C   UNL     1      -7.772  -3.145   9.310  1.00  0.00    -0.015 C 
ATOM     26  C   UNL     1      -7.128  -1.956   8.596  1.00  0.00     0.007 C 
ATOM     27  C   UNL     1      -8.255  -2.714  10.697  1.00  0.00     0.007 C 
ENDBRANCH  24  25
ENDBRANCH  18  24
ENDBRANCH  15  18
ENDBRANCH  13  14
BRANCH  13  28
ATOM     28  C   UNL     1      -8.367  -6.981   4.282  1.00  0.00     0.327 C 
ATOM     29  O   UNL     1      -8.915  -7.866   4.922  1.00  0.00    -0.250 OA
BRANCH  28  30
ATOM     30  O   UNL     1      -7.937  -7.214   3.025  1.00  0.00    -0.480 OA
ATOM     31  H   UNL     1      -7.964  -6.334   2.594  1.00  0.00     0.296 HD
ENDBRANCH  28  30
ENDBRANCH  13  28
ENDBRANCH  11  13
ENDBRANCH   8  11
ENDBRANCH   6   7
BRANCH   6  32
ATOM     32  C   UNL     1      -4.672  -1.995   4.293  1.00  0.00     0.037 C 
BRANCH  32  33
ATOM     33  C   UNL     1      -4.560  -0.466   4.359  1.00  0.00     0.026 C 
BRANCH  33  34
ATOM     34  C   UNL     1      -5.397   0.134   5.489  1.00  0.00     0.146 C 
BRANCH  34  35
ATOM     35  N   UNL     1      -4.836   1.429   5.853  1.00  0.00    -0.254 NA
ATOM     36  C   UNL     1      -4.937   1.823   7.067  1.00  0.00     0.185 C 
ATOM     37  N   UNL     1      -4.419   3.011   7.414  1.00  0.00    -0.370 N 
ATOM     38  N   UNL     1      -5.510   1.200   8.113  1.00  0.00    -0.370 N 
ATOM     39  H   UNL     1      -3.960   3.538   6.682  1.00  0.00     0.159 HD
ATOM     40  H   UNL     1      -4.303   3.311   8.367  1.00  0.00     0.159 HD
ATOM     41  H   UNL     1      -5.648   1.675   8.990  1.00  0.00     0.159 HD
ATOM     42  H   UNL     1      -5.954   0.303   7.994  1.00  0.00     0.159 HD
ENDBRANCH  34  35
ENDBRANCH  33  34
ENDBRANCH  32  33
ENDBRANCH   6  32
ENDBRANCH   4   6
ENDBRANCH   1   2
BRANCH   1  43
ATOM     43  C   UNL     1      -3.730  -2.433  -0.727  1.00  0.00     0.102 C 
ATOM     44  C   UNL     1      -3.943  -1.322  -1.769  1.00  0.00     0.020 C 
BRANCH  43  45
ATOM     45  C   UNL     1      -2.568  -3.376  -1.053  1.00  0.00     0.225 C 
ATOM     46  O   UNL     1      -1.560  -3.464  -0.357  1.00  0.00    -0.275 OA
ATOM     47  N   UNL     1      -2.678  -4.063  -2.240  1.00  0.00    -0.342 N 
ATOM     48  H   UNL     1      -3.567  -4.097  -2.718  1.00  0.00     0.164 HD
BRANCH  47  49
ATOM     49  C   UNL     1      -1.658  -5.027  -2.664  1.00  0.00     0.192 C 
BRANCH  49  50
ATOM     50  C   UNL     1      -2.065  -5.651  -4.001  1.00  0.00     0.047 C 
BRANCH  50  51
ATOM     51  C   UNL     1      -1.387  -4.964  -5.194  1.00  0.00     0.103 C 
BRANCH  51  52
ATOM     52  C   UNL     1      -2.324  -3.989  -5.904  1.00  0.00     0.226 C 
ATOM     53  O   UNL     1      -2.783  -3.026  -5.287  1.00  0.00    -0.275 OA
BRANCH  52  54
ATOM     54  N   UNL     1      -2.549  -4.220  -7.274  1.00  0.00    -0.311 N 
ATOM     55  C   UNL     1      -2.168  -5.494  -7.898  1.00  0.00     0.153 C 
BRANCH  54  56
ATOM     56  C   UNL     1      -3.147  -3.247  -8.092  1.00  0.00     0.102 C 
ATOM     57  C   UNL     1      -4.454  -3.198  -8.397  1.00  0.00     0.043 C 
BRANCH  56  58
ATOM     58  C   UNL     1      -2.333  -2.114  -8.672  1.00  0.00     0.268 C 
ATOM     59  O   UNL     1      -1.722  -1.308  -7.984  1.00  0.00    -0.268 OA
ATOM     60  N   UNL     1      -2.296  -2.124 -10.046  1.00  0.00    -0.339 N 
ATOM     61  H   UNL     1      -2.838  -2.821 -10.543  1.00  0.00     0.164 HD
BRANCH  60  62
ATOM     62  C   UNL     1      -1.514  -1.154 -10.811  1.00  0.00     0.168 CG0
ATOM     63  C   UNL     1      -0.435  -1.847 -11.633  1.00  0.00     0.041 C 
ATOM     64  G   UNL     1      -0.890  -0.120  -9.850  1.00  0.00     0.000 G0
ENDBRANCH  60  62
ENDBRANCH  56  58
ENDBRANCH  54  56
ENDBRANCH  52  54
ENDBRANCH  51  52
ENDBRANCH  50  51
ENDBRANCH  49  50
BRANCH  49  65
ATOM     65  C   UNL     1      -1.462  -6.140  -1.622  1.00  0.00     0.326 C 
ATOM     66  O   UNL     1      -0.435  -6.780  -1.451  1.00  0.00    -0.250 OA
BRANCH  65  67
ATOM     67  O   UNL     1      -2.564  -6.435  -0.898  1.00  0.00    -0.480 OA
ATOM     68  H   UNL     1      -2.201  -6.751  -0.043  1.00  0.00     0.296 HD
ENDBRANCH  65  67
ENDBRANCH  49  65
ENDBRANCH  47  49
ENDBRANCH  43  45
ENDBRANCH   1  43
BRANCH   1  69
ATOM     69  C   UNL     1      -6.182  -3.186  -1.381  1.00  0.00    -0.001 C 
ATOM     70  C   UNL     1      -7.490  -3.060  -1.096  1.00  0.00     0.001 C 
BRANCH  70  71
ATOM     71  C   UNL     1      -8.597  -2.995  -2.052  1.00  0.00    -0.055 C 
ATOM     72  C   UNL     1      -8.301  -2.691  -3.334  1.00  0.00    -0.018 C 
ATOM     73  C   UNL     1      -9.985  -3.279  -1.540  1.00  0.00     0.044 C 
BRANCH  72  74
ATOM     74  C   UNL     1      -9.232  -2.557  -4.531  1.00  0.00     0.038 C 
ATOM     75  C   UNL     1      -9.094  -3.842  -5.357  1.00  0.00     0.015 C 
BRANCH  74  76
ATOM     76  C   UNL     1      -8.879  -1.248  -5.295  1.00  0.00     0.128 C 
BRANCH  76  77
ATOM     77  O   UNL     1      -9.063  -0.112  -4.434  1.00  0.00    -0.381 OA
ATOM     78  C   UNL     1      -8.014   0.843  -4.516  1.00  0.00     0.195 C 
ENDBRANCH  76  77
BRANCH  76  79
ATOM     79  C   UNL     1      -7.484  -1.269  -5.970  1.00  0.00     0.068 C 
BRANCH  79  80
ATOM     80  C   UNL     1      -7.423  -1.132  -7.472  1.00  0.00    -0.045 A 
ATOM     81  C   UNL     1      -8.009  -2.091  -8.309  1.00  0.00     0.004 A 
ATOM     82  C   UNL     1      -6.748  -0.050  -8.056  1.00  0.00     0.004 A 
ATOM     83  C   UNL     1      -7.936  -1.965  -9.698  1.00  0.00     0.000 A 
ATOM     84  C   UNL     1      -6.675   0.076  -9.446  1.00  0.00     0.000 A 
ATOM     85  C   UNL     1      -7.270  -0.881 -10.265  1.00  0.00     0.000 A 
ENDBRANCH  79  80
ENDBRANCH  76  79
ENDBRANCH  74  76
ENDBRANCH  72  74
ENDBRANCH  70  71
ENDBRANCH   1  69
TORSDOF 17
ENDMDL
MODEL 4
REMARK VINA RESULT:    -6.034      2.468      3.474
REMARK INTER + INTRA:         -24.817
REMARK INTER:                 -17.758
REMARK INTRA:                  -7.060
REMARK UNBOUND:                -6.790
REMARK SMILES C=C1C(=O)N[C@H](C)C(=O)N[C@@H](CC(C)C)C(=O)N[C@@H](C(=O)O)[C@H](C)C(=O)N[C@@H](CCCN=C(N)N)C(=O)N[C@@H](/C=C/C(C)=C/[C@H](C)[C@H](Cc2ccccc2)OC)[C@H](C)C(=O)N[C@@H](C(=O)O)CCC(=O)N1C
REMARK SMILES IDX 39 1 38 2 37 3 36 4 28 6 27 7 25 8 26 9 23 11 24 12 19 13
REMARK SMILES IDX 18 14 16 15 17 16 11 18 10 19 8 20 9 21 12 24 13 25 14 26
REMARK SMILES IDX 15 27 20 28 21 29 22 30 29 32 30 33 31 34 32 35 33 36 34 37
REMARK SMILES IDX 35 38 57 43 58 44 59 45 60 46 61 47 62 49 66 50 67 51 68 52
REMARK SMILES IDX 69 53 70 54 71 55 2 56 1 57 3 58 4 59 5 60 6 62 7 63 63 65
REMARK SMILES IDX 64 66 65 67 40 69 41 70 42 71 44 72 43 73 45 74 46 75 47 76
REMARK SMILES IDX 55 77 56 78 48 79 49 80 50 81 54 82 51 83 53 84 52 85
REMARK H PARENT 38 5 27 10 18 17 10 22 22 31 34 39 34 40 35 41 35 42 61 48
REMARK H PARENT 5 61 65 68
REMARK Flexibility Score:  369.900
ROOT
ATOM      1  C   UNL     1      -1.085  -2.486 -10.014  1.00  0.00     0.117 C 
ENDROOT
BRANCH   1   2
ATOM      2  N   UNL     1      -2.417  -2.043 -10.426  1.00  0.00    -0.347 N 
ATOM      3  O   UNL     1      -3.434  -4.101 -10.464  1.00  0.00    -0.273 OA
ATOM      4  C   UNL     1      -3.513  -2.879 -10.530  1.00  0.00     0.243 C 
ATOM      5  H   UNL     1      -2.580  -1.063 -10.603  1.00  0.00     0.164 HD
BRANCH   4   6
ATOM      6  C   UNL     1      -4.825  -2.143 -10.902  1.00  0.00     0.171 C 
BRANCH   6   7
ATOM      7  N   UNL     1      -5.507  -1.662  -9.690  1.00  0.00    -0.344 N 
ATOM      8  C   UNL     1      -6.683  -2.243  -9.269  1.00  0.00     0.226 C 
ATOM      9  O   UNL     1      -7.225  -3.156  -9.880  1.00  0.00    -0.275 OA
ATOM     10  H   UNL     1      -5.125  -0.866  -9.195  1.00  0.00     0.164 HD
BRANCH   8  11
ATOM     11  C   UNL     1      -7.233  -1.673  -7.973  1.00  0.00     0.109 C 
ATOM     12  C   UNL     1      -7.592  -2.805  -7.010  1.00  0.00     0.021 C 
BRANCH  11  13
ATOM     13  C   UNL     1      -6.254  -0.626  -7.406  1.00  0.00     0.204 C 
BRANCH  13  14
ATOM     14  N   UNL     1      -6.952   0.511  -6.799  1.00  0.00    -0.340 N 
ATOM     15  C   UNL     1      -7.119   1.718  -7.444  1.00  0.00     0.243 C 
ATOM     16  O   UNL     1      -6.747   1.905  -8.601  1.00  0.00    -0.273 OA
ATOM     17  H   UNL     1      -7.149   0.474  -5.796  1.00  0.00     0.164 HD
BRANCH  15  18
ATOM     18  C   UNL     1      -7.697   2.830  -6.536  1.00  0.00     0.171 C 
BRANCH  18  19
ATOM     19  N   UNL     1      -8.691   3.547  -7.332  1.00  0.00    -0.343 N 
ATOM     20  C   UNL     1      -8.467   4.829  -7.795  1.00  0.00     0.242 CG0
ATOM     21  O   UNL     1      -7.481   5.475  -7.448  1.00  0.00    -0.273 OA
ATOM     22  H   UNL     1      -9.574   3.097  -7.549  1.00  0.00     0.164 HD
ATOM     23  G   UNL     1      -9.596   5.392  -8.684  1.00  0.00     0.000 G0
ENDBRANCH  18  19
BRANCH  18  24
ATOM     24  C   UNL     1      -8.320   2.227  -5.271  1.00  0.00     0.038 C 
BRANCH  24  25
ATOM     25  C   UNL     1      -7.673   2.692  -3.949  1.00  0.00    -0.015 C 
ATOM     26  C   UNL     1      -8.477   2.264  -2.721  1.00  0.00     0.007 C 
ATOM     27  C   UNL     1      -7.520   4.215  -3.959  1.00  0.00     0.007 C 
ENDBRANCH  24  25
ENDBRANCH  18  24
ENDBRANCH  15  18
ENDBRANCH  13  14
BRANCH  13  28
ATOM     28  C   UNL     1      -5.308  -1.197  -6.345  1.00  0.00     0.327 C 
ATOM     29  O   UNL     1      -5.418  -1.071  -5.135  1.00  0.00    -0.250 OA
BRANCH  28  30
ATOM     30  O   UNL     1      -4.217  -1.789  -6.873  1.00  0.00    -0.480 OA
ATOM     31  H   UNL     1      -3.497  -1.140  -6.729  1.00  0.00     0.296 HD
ENDBRANCH  28  30
ENDBRANCH  13  28
ENDBRANCH  11  13
ENDBRANCH   8  11
ENDBRANCH   6   7
BRANCH   6  32
ATOM     32  C   UNL     1      -4.499  -0.979 -11.845  1.00  0.00     0.037 C 
BRANCH  32  33
ATOM     33  C   UNL     1      -5.119   0.343 -11.369  1.00  0.00     0.026 C 
BRANCH  33  34
ATOM     34  C   UNL     1      -4.071   1.324 -10.842  1.00  0.00     0.146 C 
BRANCH  34  35
ATOM     35  N   UNL     1      -3.355   0.699  -9.738  1.00  0.00    -0.254 NA
ATOM     36  C   UNL     1      -3.249   1.338  -8.633  1.00  0.00     0.185 C 
ATOM     37  N   UNL     1      -2.596   0.769  -7.609  1.00  0.00    -0.370 N 
ATOM     38  N   UNL     1      -3.716   2.559  -8.316  1.00  0.00    -0.370 N 
ATOM     39  H   UNL     1      -2.223  -0.158  -7.766  1.00  0.00     0.159 HD
ATOM     40  H   UNL     1      -2.619   1.125  -6.668  1.00  0.00     0.159 HD
ATOM     41  H   UNL     1      -3.448   3.012  -7.458  1.00  0.00     0.159 HD
ATOM     42  H   UNL     1      -4.214   3.110  -8.997  1.00  0.00     0.159 HD
ENDBRANCH  34  35
ENDBRANCH  33  34
ENDBRANCH  32  33
ENDBRANCH   6  32
ENDBRANCH   4   6
ENDBRANCH   1   2
BRANCH   1  43
ATOM     43  C   UNL     1      -1.043  -2.546  -8.459  1.00  0.00     0.102 C 
ATOM     44  C   UNL     1       0.069  -1.680  -7.844  1.00  0.00     0.020 C 
BRANCH  43  45
ATOM     45  C   UNL     1      -1.048  -3.996  -7.964  1.00  0.00     0.225 C 
ATOM     46  O   UNL     1      -1.182  -4.301  -6.783  1.00  0.00    -0.275 OA
ATOM     47  N   UNL     1      -0.795  -4.950  -8.923  1.00  0.00    -0.342 N 
ATOM     48  H   UNL     1      -0.838  -4.700  -9.901  1.00  0.00     0.164 HD
BRANCH  47  49
ATOM     49  C   UNL     1      -0.803  -6.380  -8.602  1.00  0.00     0.192 C 
BRANCH  49  50
ATOM     50  C   UNL     1       0.174  -7.120  -9.519  1.00  0.00     0.047 C 
BRANCH  50  51
ATOM     51  C   UNL     1       0.928  -8.238  -8.786  1.00  0.00     0.103 C 
BRANCH  51  52
ATOM     52  C   UNL     1       0.880  -9.559  -9.552  1.00  0.00     0.226 C 
ATOM     53  O   UNL     1      -0.162 -10.217  -9.570  1.00  0.00    -0.275 OA
BRANCH  52  54
ATOM     54  N   UNL     1       2.039  -9.910 -10.269  1.00  0.00    -0.311 N 
ATOM     55  C   UNL     1       1.958 -10.744 -11.475  1.00  0.00     0.153 C 
BRANCH  54  56
ATOM     56  C   UNL     1       3.311  -9.473  -9.864  1.00  0.00     0.102 C 
ATOM     57  C   UNL     1       3.902  -8.340 -10.277  1.00  0.00     0.043 C 
BRANCH  56  58
ATOM     58  C   UNL     1       4.117 -10.260  -8.858  1.00  0.00     0.268 C 
ATOM     59  O   UNL     1       3.756 -11.340  -8.409  1.00  0.00    -0.268 OA
ATOM     60  N   UNL     1       5.321  -9.672  -8.550  1.00  0.00    -0.339 N 
ATOM     61  H   UNL     1       5.540  -8.771  -8.957  1.00  0.00     0.164 HD
BRANCH  60  62
ATOM     62  C   UNL     1       6.284 -10.297  -7.645  1.00  0.00     0.168 CG0
ATOM     63  C   UNL     1       7.407 -10.973  -8.422  1.00  0.00     0.041 C 
ATOM     64  G   UNL     1       5.558 -11.313  -6.739  1.00  0.00     0.000 G0
ENDBRANCH  60  62
ENDBRANCH  56  58
ENDBRANCH  54  56
ENDBRANCH  52  54
ENDBRANCH  51  52
ENDBRANCH  50  51
ENDBRANCH  49  50
BRANCH  49  65
ATOM     65  C   UNL     1      -2.206  -6.988  -8.757  1.00  0.00     0.326 C 
ATOM     66  O   UNL     1      -2.623  -7.568  -9.749  1.00  0.00    -0.250 OA
BRANCH  65  67
ATOM     67  O   UNL     1      -3.027  -6.788  -7.703  1.00  0.00    -0.480 OA
ATOM     68  H   UNL     1      -2.531  -7.171  -6.947  1.00  0.00     0.296 HD
ENDBRANCH  65  67
ENDBRANCH  49  65
ENDBRANCH  47  49
ENDBRANCH  43  45
ENDBRANCH   1  43
BRANCH   1  69
ATOM     69  C   UNL     1      -0.097  -1.593 -10.740  1.00  0.00    -0.001 C 
ATOM     70  C   UNL     1      -0.262  -0.993 -11.933  1.00  0.00     0.001 C 
BRANCH  70  71
ATOM     71  C   UNL     1       0.692  -0.115 -12.614  1.00  0.00    -0.055 C 
ATOM     72  C   UNL     1       1.812   0.234 -11.947  1.00  0.00    -0.018 C 
ATOM     73  C   UNL     1       0.359   0.330 -14.015  1.00  0.00     0.044 C 
BRANCH  72  74
ATOM     74  C   UNL     1       2.965   1.119 -12.398  1.00  0.00     0.038 C 
ATOM     75  C   UNL     1       3.833   0.283 -13.346  1.00  0.00     0.015 C 
BRANCH  74  76
ATOM     76  C   UNL     1       3.706   1.657 -11.138  1.00  0.00     0.128 C 
BRANCH  76  77
ATOM     77  O   UNL     1       3.564   0.727 -10.051  1.00  0.00    -0.381 OA
ATOM     78  C   UNL     1       2.977   1.294  -8.887  1.00  0.00     0.195 C 
ENDBRANCH  76  77
BRANCH  76  79
ATOM     79  C   UNL     1       5.181   2.055 -11.398  1.00  0.00     0.068 C 
BRANCH  79  80
ATOM     80  C   UNL     1       5.684   3.341 -10.788  1.00  0.00    -0.045 A 
ATOM     81  C   UNL     1       4.833   4.167 -10.042  1.00  0.00     0.004 A 
ATOM     82  C   UNL     1       7.013   3.744 -10.984  1.00  0.00     0.004 A 
ATOM     83  C   UNL     1       5.302   5.362  -9.493  1.00  0.00     0.000 A 
ATOM     84  C   UNL     1       7.481   4.940 -10.435  1.00  0.00     0.000 A 
ATOM     85  C   UNL     1       6.626   5.748  -9.688  1.00  0.00     0.000 A 
ENDBRANCH  79  80
ENDBRANCH  76  79
ENDBRANCH  74  76
ENDBRANCH  72  74
ENDBRANCH  70  71
ENDBRANCH   1  69
TORSDOF 17
ENDMDL
MODEL 5
REMARK VINA RESULT:    -6.019      5.341      9.741
REMARK INTER + INTRA:         -24.773
REMARK INTER:                 -17.188
REMARK INTRA:                  -7.585
REMARK UNBOUND:                -6.790
REMARK SMILES C=C1C(=O)N[C@H](C)C(=O)N[C@@H](CC(C)C)C(=O)N[C@@H](C(=O)O)[C@H](C)C(=O)N[C@@H](CCCN=C(N)N)C(=O)N[C@@H](/C=C/C(C)=C/[C@H](C)[C@H](Cc2ccccc2)OC)[C@H](C)C(=O)N[C@@H](C(=O)O)CCC(=O)N1C
REMARK SMILES IDX 39 1 38 2 37 3 36 4 28 6 27 7 25 8 26 9 23 11 24 12 19 13
REMARK SMILES IDX 18 14 16 15 17 16 11 18 10 19 8 20 9 21 12 24 13 25 14 26
REMARK SMILES IDX 15 27 20 28 21 29 22 30 29 32 30 33 31 34 32 35 33 36 34 37
REMARK SMILES IDX 35 38 57 43 58 44 59 45 60 46 61 47 62 49 66 50 67 51 68 52
REMARK SMILES IDX 69 53 70 54 71 55 2 56 1 57 3 58 4 59 5 60 6 62 7 63 63 65
REMARK SMILES IDX 64 66 65 67 40 69 41 70 42 71 44 72 43 73 45 74 46 75 47 76
REMARK SMILES IDX 55 77 56 78 48 79 49 80 50 81 54 82 51 83 53 84 52 85
REMARK H PARENT 38 5 27 10 18 17 10 22 22 31 34 39 34 40 35 41 35 42 61 48
REMARK H PARENT 5 61 65 68
REMARK Flexibility Score:  369.900
ROOT
ATOM      1  C   UNL     1      -3.608  -0.701  -5.026  1.00  0.00     0.117 C 
ENDROOT
BRANCH   1   2
ATOM      2  N   UNL     1      -3.236  -1.596  -3.929  1.00  0.00    -0.347 N 
ATOM      3  O   UNL     1      -3.774  -0.198  -2.190  1.00  0.00    -0.273 OA
ATOM      4  C   UNL     1      -3.436  -1.305  -2.593  1.00  0.00     0.243 C 
ATOM      5  H   UNL     1      -2.855  -2.505  -4.140  1.00  0.00     0.164 HD
BRANCH   4   6
ATOM      6  C   UNL     1      -3.034  -2.458  -1.638  1.00  0.00     0.171 C 
BRANCH   6   7
ATOM      7  N   UNL     1      -4.094  -2.697  -0.646  1.00  0.00    -0.344 N 
ATOM      8  C   UNL     1      -3.799  -2.750   0.699  1.00  0.00     0.226 C 
ATOM      9  O   UNL     1      -2.659  -2.625   1.130  1.00  0.00    -0.275 OA
ATOM     10  H   UNL     1      -5.038  -2.872  -0.969  1.00  0.00     0.164 HD
BRANCH   8  11
ATOM     11  C   UNL     1      -5.007  -2.949   1.597  1.00  0.00     0.109 C 
ATOM     12  C   UNL     1      -6.285  -2.557   0.854  1.00  0.00     0.021 C 
BRANCH  11  13
ATOM     13  C   UNL     1      -5.002  -4.381   2.168  1.00  0.00     0.204 C 
BRANCH  13  14
ATOM     14  N   UNL     1      -5.801  -4.490   3.392  1.00  0.00    -0.340 N 
ATOM     15  C   UNL     1      -5.249  -4.434   4.653  1.00  0.00     0.243 C 
ATOM     16  O   UNL     1      -4.052  -4.227   4.841  1.00  0.00    -0.273 OA
ATOM     17  H   UNL     1      -6.769  -4.812   3.307  1.00  0.00     0.164 HD
BRANCH  15  18
ATOM     18  C   UNL     1      -6.251  -4.779   5.783  1.00  0.00     0.171 C 
BRANCH  18  19
ATOM     19  N   UNL     1      -5.704  -5.938   6.487  1.00  0.00    -0.343 N 
ATOM     20  C   UNL     1      -6.192  -7.214   6.278  1.00  0.00     0.242 CG0
ATOM     21  O   UNL     1      -7.193  -7.416   5.595  1.00  0.00    -0.273 OA
ATOM     22  H   UNL     1      -4.950  -5.806   7.151  1.00  0.00     0.164 HD
ATOM     23  G   UNL     1      -5.439  -8.317   7.049  1.00  0.00     0.000 G0
ENDBRANCH  18  19
BRANCH  18  24
ATOM     24  C   UNL     1      -6.436  -3.585   6.727  1.00  0.00     0.038 C 
BRANCH  24  25
ATOM     25  C   UNL     1      -7.657  -3.687   7.664  1.00  0.00    -0.015 C 
ATOM     26  C   UNL     1      -8.619  -2.510   7.504  1.00  0.00     0.007 C 
ATOM     27  C   UNL     1      -7.184  -3.772   9.118  1.00  0.00     0.007 C 
ENDBRANCH  24  25
ENDBRANCH  18  24
ENDBRANCH  15  18
ENDBRANCH  13  14
BRANCH  13  28
ATOM     28  C   UNL     1      -5.537  -5.425   1.182  1.00  0.00     0.327 C 
ATOM     29  O   UNL     1      -6.594  -6.030   1.273  1.00  0.00    -0.250 OA
BRANCH  28  30
ATOM     30  O   UNL     1      -4.657  -5.732   0.208  1.00  0.00    -0.480 OA
ATOM     31  H   UNL     1      -4.994  -6.573  -0.166  1.00  0.00     0.296 HD
ENDBRANCH  28  30
ENDBRANCH  13  28
ENDBRANCH  11  13
ENDBRANCH   8  11
ENDBRANCH   6   7
BRANCH   6  32
ATOM     32  C   UNL     1      -2.759  -3.721  -2.462  1.00  0.00     0.037 C 
BRANCH  32  33
ATOM     33  C   UNL     1      -1.919  -4.746  -1.687  1.00  0.00     0.026 C 
BRANCH  33  34
ATOM     34  C   UNL     1      -1.547  -5.961  -2.538  1.00  0.00     0.146 C 
BRANCH  34  35
ATOM     35  N   UNL     1      -1.601  -5.584  -3.944  1.00  0.00    -0.254 NA
ATOM     36  C   UNL     1      -0.535  -5.679  -4.647  1.00  0.00     0.185 C 
ATOM     37  N   UNL     1      -0.575  -5.338  -5.945  1.00  0.00    -0.370 N 
ATOM     38  N   UNL     1       0.690  -6.089  -4.273  1.00  0.00    -0.370 N 
ATOM     39  H   UNL     1      -1.468  -5.028  -6.306  1.00  0.00     0.159 HD
ATOM     40  H   UNL     1       0.161  -5.547  -6.597  1.00  0.00     0.159 HD
ATOM     41  H   UNL     1       1.483  -5.987  -4.885  1.00  0.00     0.159 HD
ATOM     42  H   UNL     1       0.870  -6.361  -3.319  1.00  0.00     0.159 HD
ENDBRANCH  34  35
ENDBRANCH  33  34
ENDBRANCH  32  33
ENDBRANCH   6  32
ENDBRANCH   4   6
ENDBRANCH   1   2
BRANCH   1  43
ATOM     43  C   UNL     1      -4.616  -1.444  -5.950  1.00  0.00     0.102 C 
ATOM     44  C   UNL     1      -5.843  -1.992  -5.202  1.00  0.00     0.020 C 
BRANCH  43  45
ATOM     45  C   UNL     1      -3.903  -2.483  -6.820  1.00  0.00     0.225 C 
ATOM     46  O   UNL     1      -3.148  -3.336  -6.362  1.00  0.00    -0.275 OA
ATOM     47  N   UNL     1      -4.087  -2.347  -8.177  1.00  0.00    -0.342 N 
ATOM     48  H   UNL     1      -4.821  -1.746  -8.524  1.00  0.00     0.164 HD
BRANCH  47  49
ATOM     49  C   UNL     1      -3.494  -3.291  -9.129  1.00  0.00     0.192 C 
BRANCH  49  50
ATOM     50  C   UNL     1      -2.790  -2.519 -10.248  1.00  0.00     0.047 C 
BRANCH  50  51
ATOM     51  C   UNL     1      -3.145  -1.026 -10.238  1.00  0.00     0.103 C 
BRANCH  51  52
ATOM     52  C   UNL     1      -4.353  -0.717 -11.120  1.00  0.00     0.226 C 
ATOM     53  O   UNL     1      -4.330  -1.020 -12.314  1.00  0.00    -0.275 OA
BRANCH  52  54
ATOM     54  N   UNL     1      -5.473  -0.160 -10.475  1.00  0.00    -0.311 N 
ATOM     55  C   UNL     1      -6.779  -0.833 -10.512  1.00  0.00     0.153 C 
BRANCH  54  56
ATOM     56  C   UNL     1      -5.385   1.052  -9.771  1.00  0.00     0.102 C 
ATOM     57  C   UNL     1      -5.470   1.173  -8.436  1.00  0.00     0.043 C 
BRANCH  56  58
ATOM     58  C   UNL     1      -5.133   2.353 -10.496  1.00  0.00     0.268 C 
ATOM     59  O   UNL     1      -6.022   3.008 -11.023  1.00  0.00    -0.268 OA
ATOM     60  N   UNL     1      -3.820   2.755 -10.443  1.00  0.00    -0.339 N 
ATOM     61  H   UNL     1      -3.143   2.149  -9.996  1.00  0.00     0.164 HD
BRANCH  60  62
ATOM     62  C   UNL     1      -3.368   4.017 -11.027  1.00  0.00     0.168 CG0
ATOM     63  C   UNL     1      -2.731   4.911  -9.970  1.00  0.00     0.041 C 
ATOM     64  G   UNL     1      -4.558   4.731 -11.700  1.00  0.00     0.000 G0
ENDBRANCH  60  62
ENDBRANCH  56  58
ENDBRANCH  54  56
ENDBRANCH  52  54
ENDBRANCH  51  52
ENDBRANCH  50  51
ENDBRANCH  49  50
BRANCH  49  65
ATOM     65  C   UNL     1      -4.554  -4.220  -9.740  1.00  0.00     0.326 C 
ATOM     66  O   UNL     1      -5.015  -5.220  -9.208  1.00  0.00    -0.250 OA
BRANCH  65  67
ATOM     67  O   UNL     1      -4.936  -3.892 -10.994  1.00  0.00    -0.480 OA
ATOM     68  H   UNL     1      -5.422  -3.048 -10.874  1.00  0.00     0.296 HD
ENDBRANCH  65  67
ENDBRANCH  49  65
ENDBRANCH  47  49
ENDBRANCH  43  45
ENDBRANCH   1  43
BRANCH   1  69
ATOM     69  C   UNL     1      -2.307  -0.194  -5.619  1.00  0.00    -0.001 C 
ATOM     70  C   UNL     1      -2.127   0.388  -6.818  1.00  0.00     0.001 C 
BRANCH  70  71
ATOM     71  C   UNL     1      -0.869   0.894  -7.371  1.00  0.00    -0.055 C 
ATOM     72  C   UNL     1       0.219   0.099  -7.284  1.00  0.00    -0.018 C 
ATOM     73  C   UNL     1      -0.879   2.261  -8.004  1.00  0.00     0.044 C 
BRANCH  72  74
ATOM     74  C   UNL     1       1.639   0.355  -7.767  1.00  0.00     0.038 C 
ATOM     75  C   UNL     1       2.190   1.531  -6.951  1.00  0.00     0.015 C 
BRANCH  74  76
ATOM     76  C   UNL     1       1.611   0.585  -9.307  1.00  0.00     0.128 C 
BRANCH  76  77
ATOM     77  O   UNL     1       2.923   0.938  -9.775  1.00  0.00    -0.381 OA
ATOM     78  C   UNL     1       2.953   2.129 -10.550  1.00  0.00     0.195 C 
ENDBRANCH  76  77
BRANCH  76  79
ATOM     79  C   UNL     1       0.983  -0.584 -10.107  1.00  0.00     0.068 C 
BRANCH  79  80
ATOM     80  C   UNL     1       0.233  -0.251 -11.374  1.00  0.00    -0.045 A 
ATOM     81  C   UNL     1      -0.527   0.922 -11.477  1.00  0.00     0.004 A 
ATOM     82  C   UNL     1       0.263  -1.132 -12.466  1.00  0.00     0.004 A 
ATOM     83  C   UNL     1      -1.229   1.215 -12.647  1.00  0.00     0.000 A 
ATOM     84  C   UNL     1      -0.441  -0.838 -13.636  1.00  0.00     0.000 A 
ATOM     85  C   UNL     1      -1.185   0.336 -13.727  1.00  0.00     0.000 A 
ENDBRANCH  79  80
ENDBRANCH  76  79
ENDBRANCH  74  76
ENDBRANCH  72  74
ENDBRANCH  70  71
ENDBRANCH   1  69
TORSDOF 17
ENDMDL
MODEL 6
REMARK VINA RESULT:    -5.980      5.071     10.461
REMARK INTER + INTRA:         -24.657
REMARK INTER:                 -16.550
REMARK INTRA:                  -8.107
REMARK UNBOUND:                -6.790
REMARK SMILES C=C1C(=O)N[C@H](C)C(=O)N[C@@H](CC(C)C)C(=O)N[C@@H](C(=O)O)[C@H](C)C(=O)N[C@@H](CCCN=C(N)N)C(=O)N[C@@H](/C=C/C(C)=C/[C@H](C)[C@H](Cc2ccccc2)OC)[C@H](C)C(=O)N[C@@H](C(=O)O)CCC(=O)N1C
REMARK SMILES IDX 39 1 38 2 37 3 36 4 28 6 27 7 25 8 26 9 23 11 24 12 19 13
REMARK SMILES IDX 18 14 16 15 17 16 11 18 10 19 8 20 9 21 12 24 13 25 14 26
REMARK SMILES IDX 15 27 20 28 21 29 22 30 29 32 30 33 31 34 32 35 33 36 34 37
REMARK SMILES IDX 35 38 57 43 58 44 59 45 60 46 61 47 62 49 66 50 67 51 68 52
REMARK SMILES IDX 69 53 70 54 71 55 2 56 1 57 3 58 4 59 5 60 6 62 7 63 63 65
REMARK SMILES IDX 64 66 65 67 40 69 41 70 42 71 44 72 43 73 45 74 46 75 47 76
REMARK SMILES IDX 55 77 56 78 48 79 49 80 50 81 54 82 51 83 53 84 52 85
REMARK H PARENT 38 5 27 10 18 17 10 22 22 31 34 39 34 40 35 41 35 42 61 48
REMARK H PARENT 5 61 65 68
REMARK Flexibility Score:  369.900
ROOT
ATOM      1  C   UNL     1       2.565   0.746  -7.711  1.00  0.00     0.117 C 
ENDROOT
BRANCH   1   2
ATOM      2  N   UNL     1       1.198   0.262  -7.902  1.00  0.00    -0.347 N 
ATOM      3  O   UNL     1       1.617  -1.979  -7.628  1.00  0.00    -0.273 OA
ATOM      4  C   UNL     1       0.817  -1.058  -7.754  1.00  0.00     0.243 C 
ATOM      5  H   UNL     1       0.463   0.922  -8.107  1.00  0.00     0.164 HD
BRANCH   4   6
ATOM      6  C   UNL     1      -0.706  -1.290  -7.928  1.00  0.00     0.171 C 
BRANCH   6   7
ATOM      7  N   UNL     1      -1.049  -2.692  -7.640  1.00  0.00    -0.344 N 
ATOM      8  C   UNL     1      -1.152  -3.614  -8.659  1.00  0.00     0.226 C 
ATOM      9  O   UNL     1      -0.989  -3.317  -9.837  1.00  0.00    -0.275 OA
ATOM     10  H   UNL     1      -1.256  -2.961  -6.686  1.00  0.00     0.164 HD
BRANCH   8  11
ATOM     11  C   UNL     1      -1.457  -5.028  -8.195  1.00  0.00     0.109 C 
ATOM     12  C   UNL     1      -0.810  -5.286  -6.835  1.00  0.00     0.021 C 
BRANCH  11  13
ATOM     13  C   UNL     1      -2.978  -5.276  -8.248  1.00  0.00     0.204 C 
BRANCH  13  14
ATOM     14  N   UNL     1      -3.667  -4.301  -9.099  1.00  0.00    -0.340 N 
ATOM     15  C   UNL     1      -4.326  -3.201  -8.593  1.00  0.00     0.243 C 
ATOM     16  O   UNL     1      -4.330  -2.927  -7.394  1.00  0.00    -0.273 OA
ATOM     17  H   UNL     1      -3.830  -4.548 -10.078  1.00  0.00     0.164 HD
BRANCH  15  18
ATOM     18  C   UNL     1      -5.151  -2.433  -9.654  1.00  0.00     0.171 C 
BRANCH  18  19
ATOM     19  N   UNL     1      -6.559  -2.687  -9.354  1.00  0.00    -0.343 N 
ATOM     20  C   UNL     1      -7.125  -3.936  -9.522  1.00  0.00     0.242 CG0
ATOM     21  O   UNL     1      -6.509  -4.856 -10.056  1.00  0.00    -0.273 OA
ATOM     22  H   UNL     1      -7.141  -1.928  -9.019  1.00  0.00     0.164 HD
ATOM     23  G   UNL     1      -8.600  -4.031  -9.080  1.00  0.00     0.000 G0
ENDBRANCH  18  19
BRANCH  18  24
ATOM     24  C   UNL     1      -4.829  -0.934  -9.610  1.00  0.00     0.038 C 
BRANCH  24  25
ATOM     25  C   UNL     1      -5.152  -0.167 -10.909  1.00  0.00    -0.015 C 
ATOM     26  C   UNL     1      -4.560  -0.839 -12.148  1.00  0.00     0.007 C 
ATOM     27  C   UNL     1      -4.629   1.269 -10.803  1.00  0.00     0.007 C 
ENDBRANCH  24  25
ENDBRANCH  18  24
ENDBRANCH  15  18
ENDBRANCH  13  14
BRANCH  13  28
ATOM     28  C   UNL     1      -3.344  -6.670  -8.768  1.00  0.00     0.327 C 
ATOM     29  O   UNL     1      -4.423  -7.228  -8.641  1.00  0.00    -0.250 OA
BRANCH  28  30
ATOM     30  O   UNL     1      -2.296  -7.324  -9.310  1.00  0.00    -0.480 OA
ATOM     31  H   UNL     1      -1.727  -6.612  -9.668  1.00  0.00     0.296 HD
ENDBRANCH  28  30
ENDBRANCH  13  28
ENDBRANCH  11  13
ENDBRANCH   8  11
ENDBRANCH   6   7
BRANCH   6  32
ATOM     32  C   UNL     1      -1.469  -0.339  -7.000  1.00  0.00     0.037 C 
BRANCH  32  33
ATOM     33  C   UNL     1      -2.427   0.579  -7.772  1.00  0.00     0.026 C 
BRANCH  33  34
ATOM     34  C   UNL     1      -1.735   1.838  -8.297  1.00  0.00     0.146 C 
BRANCH  34  35
ATOM     35  N   UNL     1      -1.125   1.537  -9.584  1.00  0.00    -0.254 NA
ATOM     36  C   UNL     1      -0.536   2.479 -10.221  1.00  0.00     0.185 C 
ATOM     37  N   UNL     1       0.034   2.212 -11.406  1.00  0.00    -0.370 N 
ATOM     38  N   UNL     1      -0.386   3.769  -9.871  1.00  0.00    -0.370 N 
ATOM     39  H   UNL     1      -0.027   1.256 -11.734  1.00  0.00     0.159 HD
ATOM     40  H   UNL     1       0.658   2.843 -11.878  1.00  0.00     0.159 HD
ATOM     41  H   UNL     1      -0.022   4.446 -10.522  1.00  0.00     0.159 HD
ATOM     42  H   UNL     1      -0.778   4.116  -9.010  1.00  0.00     0.159 HD
ENDBRANCH  34  35
ENDBRANCH  33  34
ENDBRANCH  32  33
ENDBRANCH   6  32
ENDBRANCH   4   6
ENDBRANCH   1   2
BRANCH   1  43
ATOM     43  C   UNL     1       2.564   1.787  -6.554  1.00  0.00     0.102 C 
ATOM     44  C   UNL     1       1.608   1.424  -5.405  1.00  0.00     0.020 C 
BRANCH  43  45
ATOM     45  C   UNL     1       2.377   3.208  -7.093  1.00  0.00     0.225 C 
ATOM     46  O   UNL     1       1.296   3.640  -7.484  1.00  0.00    -0.275 OA
ATOM     47  N   UNL     1       3.527   3.956  -7.204  1.00  0.00    -0.342 N 
ATOM     48  H   UNL     1       4.371   3.647  -6.743  1.00  0.00     0.164 HD
BRANCH  47  49
ATOM     49  C   UNL     1       3.495   5.345  -7.671  1.00  0.00     0.192 C 
BRANCH  49  50
ATOM     50  C   UNL     1       4.756   5.642  -8.487  1.00  0.00     0.047 C 
BRANCH  50  51
ATOM     51  C   UNL     1       4.558   6.815  -9.457  1.00  0.00     0.103 C 
BRANCH  51  52
ATOM     52  C   UNL     1       5.754   7.766  -9.459  1.00  0.00     0.226 C 
ATOM     53  O   UNL     1       6.399   7.932 -10.496  1.00  0.00    -0.275 OA
BRANCH  52  54
ATOM     54  N   UNL     1       6.001   8.465  -8.263  1.00  0.00    -0.311 N 
ATOM     55  C   UNL     1       4.997   9.378  -7.700  1.00  0.00     0.153 C 
BRANCH  54  56
ATOM     56  C   UNL     1       7.208   8.313  -7.562  1.00  0.00     0.102 C 
ATOM     57  C   UNL     1       7.505   7.279  -6.758  1.00  0.00     0.043 C 
BRANCH  56  58
ATOM     58  C   UNL     1       8.321   9.325  -7.706  1.00  0.00     0.268 C 
ATOM     59  O   UNL     1       9.009   9.701  -6.767  1.00  0.00    -0.268 OA
ATOM     60  N   UNL     1       8.521   9.726  -9.005  1.00  0.00    -0.339 N 
ATOM     61  H   UNL     1       7.900   9.375  -9.724  1.00  0.00     0.164 HD
BRANCH  60  62
ATOM     62  C   UNL     1       9.588  10.654  -9.378  1.00  0.00     0.168 CG0
ATOM     63  C   UNL     1      10.139  10.326 -10.760  1.00  0.00     0.041 C 
ATOM     64  G   UNL     1      10.708  10.606  -8.319  1.00  0.00     0.000 G0
ENDBRANCH  60  62
ENDBRANCH  56  58
ENDBRANCH  54  56
ENDBRANCH  52  54
ENDBRANCH  51  52
ENDBRANCH  50  51
ENDBRANCH  49  50
BRANCH  49  65
ATOM     65  C   UNL     1       3.402   6.335  -6.499  1.00  0.00     0.326 C 
ATOM     66  O   UNL     1       2.545   7.196  -6.363  1.00  0.00    -0.250 OA
BRANCH  65  67
ATOM     67  O   UNL     1       4.406   6.240  -5.600  1.00  0.00    -0.480 OA
ATOM     68  H   UNL     1       4.812   7.133  -5.612  1.00  0.00     0.296 HD
ENDBRANCH  65  67
ENDBRANCH  49  65
ENDBRANCH  47  49
ENDBRANCH  43  45
ENDBRANCH   1  43
BRANCH   1  69
ATOM     69  C   UNL     1       3.060   1.172  -9.081  1.00  0.00    -0.001 C 
ATOM     70  C   UNL     1       3.092   0.433 -10.204  1.00  0.00     0.001 C 
BRANCH  70  71
ATOM     71  C   UNL     1       3.552   0.862 -11.526  1.00  0.00    -0.055 C 
ATOM     72  C   UNL     1       4.574   1.742 -11.580  1.00  0.00    -0.018 C 
ATOM     73  C   UNL     1       2.858   0.286 -12.733  1.00  0.00     0.044 C 
BRANCH  72  74
ATOM     74  C   UNL     1       5.255   2.355 -12.796  1.00  0.00     0.038 C 
ATOM     75  C   UNL     1       6.315   1.354 -13.273  1.00  0.00     0.015 C 
BRANCH  74  76
ATOM     76  C   UNL     1       5.808   3.757 -12.407  1.00  0.00     0.128 C 
BRANCH  76  77
ATOM     77  O   UNL     1       4.735   4.712 -12.358  1.00  0.00    -0.381 OA
ATOM     78  C   UNL     1       4.788   5.684 -13.393  1.00  0.00     0.195 C 
ENDBRANCH  76  77
BRANCH  76  79
ATOM     79  C   UNL     1       6.671   3.758 -11.119  1.00  0.00     0.068 C 
BRANCH  79  80
ATOM     80  C   UNL     1       7.772   4.785 -11.007  1.00  0.00    -0.045 A 
ATOM     81  C   UNL     1       8.310   5.394 -12.148  1.00  0.00     0.004 A 
ATOM     82  C   UNL     1       8.295   5.126  -9.751  1.00  0.00     0.004 A 
ATOM     83  C   UNL     1       9.339   6.332 -12.037  1.00  0.00     0.000 A 
ATOM     84  C   UNL     1       9.324   6.063  -9.640  1.00  0.00     0.000 A 
ATOM     85  C   UNL     1       9.844   6.667 -10.783  1.00  0.00     0.000 A 
ENDBRANCH  79  80
ENDBRANCH  76  79
ENDBRANCH  74  76
ENDBRANCH  72  74
ENDBRANCH  70  71
ENDBRANCH   1  69
TORSDOF 17
ENDMDL
MODEL 7
REMARK VINA RESULT:    -5.964      2.877      4.335
REMARK INTER + INTRA:         -24.608
REMARK INTER:                 -18.443
REMARK INTRA:                  -6.165
REMARK UNBOUND:                -6.790
REMARK SMILES C=C1C(=O)N[C@H](C)C(=O)N[C@@H](CC(C)C)C(=O)N[C@@H](C(=O)O)[C@H](C)C(=O)N[C@@H](CCCN=C(N)N)C(=O)N[C@@H](/C=C/C(C)=C/[C@H](C)[C@H](Cc2ccccc2)OC)[C@H](C)C(=O)N[C@@H](C(=O)O)CCC(=O)N1C
REMARK SMILES IDX 39 1 38 2 37 3 36 4 28 6 27 7 25 8 26 9 23 11 24 12 19 13
REMARK SMILES IDX 18 14 16 15 17 16 11 18 10 19 8 20 9 21 12 24 13 25 14 26
REMARK SMILES IDX 15 27 20 28 21 29 22 30 29 32 30 33 31 34 32 35 33 36 34 37
REMARK SMILES IDX 35 38 57 43 58 44 59 45 60 46 61 47 62 49 66 50 67 51 68 52
REMARK SMILES IDX 69 53 70 54 71 55 2 56 1 57 3 58 4 59 5 60 6 62 7 63 63 65
REMARK SMILES IDX 64 66 65 67 40 69 41 70 42 71 44 72 43 73 45 74 46 75 47 76
REMARK SMILES IDX 55 77 56 78 48 79 49 80 50 81 54 82 51 83 53 84 52 85
REMARK H PARENT 38 5 27 10 18 17 10 22 22 31 34 39 34 40 35 41 35 42 61 48
REMARK H PARENT 5 61 65 68
REMARK Flexibility Score:  369.900
ROOT
ATOM      1  C   UNL     1      -1.209  -2.130  -9.116  1.00  0.00     0.117 C 
ENDROOT
BRANCH   1   2
ATOM      2  N   UNL     1      -2.441  -1.414  -8.781  1.00  0.00    -0.347 N 
ATOM      3  O   UNL     1      -3.766  -3.243  -8.376  1.00  0.00    -0.273 OA
ATOM      4  C   UNL     1      -3.599  -2.029  -8.348  1.00  0.00     0.243 C 
ATOM      5  H   UNL     1      -2.451  -0.405  -8.815  1.00  0.00     0.164 HD
BRANCH   4   6
ATOM      6  C   UNL     1      -4.731  -1.036  -7.977  1.00  0.00     0.171 C 
BRANCH   6   7
ATOM      7  N   UNL     1      -5.266  -0.392  -9.187  1.00  0.00    -0.344 N 
ATOM      8  C   UNL     1      -4.776   0.825  -9.611  1.00  0.00     0.226 C 
ATOM      9  O   UNL     1      -3.903   1.433  -9.003  1.00  0.00    -0.275 OA
ATOM     10  H   UNL     1      -6.035  -0.831  -9.678  1.00  0.00     0.164 HD
BRANCH   8  11
ATOM     11  C   UNL     1      -5.392   1.331 -10.903  1.00  0.00     0.109 C 
ATOM     12  C   UNL     1      -6.119   0.194 -11.620  1.00  0.00     0.021 C 
BRANCH  11  13
ATOM     13  C   UNL     1      -6.258   2.574 -10.616  1.00  0.00     0.204 C 
BRANCH  13  14
ATOM     14  N   UNL     1      -6.613   2.684  -9.198  1.00  0.00    -0.340 N 
ATOM     15  C   UNL     1      -7.658   3.460  -8.746  1.00  0.00     0.243 C 
ATOM     16  O   UNL     1      -8.406   4.069  -9.509  1.00  0.00    -0.273 OA
ATOM     17  H   UNL     1      -5.947   2.329  -8.507  1.00  0.00     0.164 HD
BRANCH  15  18
ATOM     18  C   UNL     1      -7.714   3.586  -7.204  1.00  0.00     0.171 C 
BRANCH  18  19
ATOM     19  N   UNL     1      -9.123   3.740  -6.847  1.00  0.00    -0.343 N 
ATOM     20  C   UNL     1      -9.629   4.936  -6.377  1.00  0.00     0.242 CG0
ATOM     21  O   UNL     1      -8.896   5.886  -6.113  1.00  0.00    -0.273 OA
ATOM     22  H   UNL     1      -9.748   2.947  -6.938  1.00  0.00     0.164 HD
ATOM     23  G   UNL     1     -11.152   4.929  -6.129  1.00  0.00     0.000 G0
ENDBRANCH  18  19
BRANCH  18  24
ATOM     24  C   UNL     1      -7.096   2.351  -6.537  1.00  0.00     0.038 C 
BRANCH  24  25
ATOM     25  C   UNL     1      -6.079   2.663  -5.419  1.00  0.00    -0.015 C 
ATOM     26  C   UNL     1      -4.737   1.962  -5.636  1.00  0.00     0.007 C 
ATOM     27  C   UNL     1      -6.661   2.254  -4.064  1.00  0.00     0.007 C 
ENDBRANCH  24  25
ENDBRANCH  18  24
ENDBRANCH  15  18
ENDBRANCH  13  14
BRANCH  13  28
ATOM     28  C   UNL     1      -5.579   3.888 -11.017  1.00  0.00     0.327 C 
ATOM     29  O   UNL     1      -6.032   4.735 -11.771  1.00  0.00    -0.250 OA
BRANCH  28  30
ATOM     30  O   UNL     1      -4.323   4.001 -10.539  1.00  0.00    -0.480 OA
ATOM     31  H   UNL     1      -3.929   3.116 -10.684  1.00  0.00     0.296 HD
ENDBRANCH  28  30
ENDBRANCH  13  28
ENDBRANCH  11  13
ENDBRANCH   8  11
ENDBRANCH   6   7
BRANCH   6  32
ATOM     32  C   UNL     1      -5.833  -1.788  -7.224  1.00  0.00     0.037 C 
BRANCH  32  33
ATOM     33  C   UNL     1      -7.237  -1.350  -7.662  1.00  0.00     0.026 C 
BRANCH  33  34
ATOM     34  C   UNL     1      -7.948  -2.413  -8.500  1.00  0.00     0.146 C 
BRANCH  34  35
ATOM     35  N   UNL     1      -7.036  -2.882  -9.535  1.00  0.00    -0.254 NA
ATOM     36  C   UNL     1      -6.749  -4.130  -9.582  1.00  0.00     0.185 C 
ATOM     37  N   UNL     1      -5.914  -4.573 -10.534  1.00  0.00    -0.370 N 
ATOM     38  N   UNL     1      -7.175  -5.125  -8.784  1.00  0.00    -0.370 N 
ATOM     39  H   UNL     1      -5.558  -3.883 -11.183  1.00  0.00     0.159 HD
ATOM     40  H   UNL     1      -5.778  -5.547 -10.745  1.00  0.00     0.159 HD
ATOM     41  H   UNL     1      -6.768  -6.044  -8.836  1.00  0.00     0.159 HD
ATOM     42  H   UNL     1      -7.797  -4.934  -8.013  1.00  0.00     0.159 HD
ENDBRANCH  34  35
ENDBRANCH  33  34
ENDBRANCH  32  33
ENDBRANCH   6  32
ENDBRANCH   4   6
ENDBRANCH   1   2
BRANCH   1  43
ATOM     43  C   UNL     1      -0.474  -2.495  -7.794  1.00  0.00     0.102 C 
ATOM     44  C   UNL     1       0.911  -1.839  -7.663  1.00  0.00     0.020 C 
BRANCH  43  45
ATOM     45  C   UNL     1      -0.467  -4.010  -7.570  1.00  0.00     0.225 C 
ATOM     46  O   UNL     1      -0.132  -4.529  -6.509  1.00  0.00    -0.275 OA
ATOM     47  N   UNL     1      -0.774  -4.774  -8.672  1.00  0.00    -0.342 N 
ATOM     48  H   UNL     1      -1.191  -4.338  -9.483  1.00  0.00     0.164 HD
BRANCH  47  49
ATOM     49  C   UNL     1      -0.842  -6.237  -8.597  1.00  0.00     0.192 C 
BRANCH  49  50
ATOM     50  C   UNL     1       0.194  -6.849  -9.543  1.00  0.00     0.047 C 
BRANCH  50  51
ATOM     51  C   UNL     1       1.024  -7.948  -8.866  1.00  0.00     0.103 C 
BRANCH  51  52
ATOM     52  C   UNL     1       1.046  -9.237  -9.685  1.00  0.00     0.226 C 
ATOM     53  O   UNL     1       0.001  -9.865  -9.863  1.00  0.00    -0.275 OA
BRANCH  52  54
ATOM     54  N   UNL     1       2.280  -9.592 -10.262  1.00  0.00    -0.311 N 
ATOM     55  C   UNL     1       2.338 -10.416 -11.476  1.00  0.00     0.153 C 
BRANCH  54  56
ATOM     56  C   UNL     1       3.498  -9.169  -9.703  1.00  0.00     0.102 C 
ATOM     57  C   UNL     1       4.053  -7.962  -9.895  1.00  0.00     0.043 C 
BRANCH  56  58
ATOM     58  C   UNL     1       4.277 -10.068  -8.772  1.00  0.00     0.268 C 
ATOM     59  O   UNL     1       3.871 -11.162  -8.403  1.00  0.00    -0.268 OA
ATOM     60  N   UNL     1       5.510  -9.561  -8.437  1.00  0.00    -0.339 N 
ATOM     61  H   UNL     1       5.766  -8.642  -8.776  1.00  0.00     0.164 HD
BRANCH  60  62
ATOM     62  C   UNL     1       6.452 -10.297  -7.596  1.00  0.00     0.168 CG0
ATOM     63  C   UNL     1       7.417 -11.116  -8.444  1.00  0.00     0.041 C 
ATOM     64  G   UNL     1       5.675 -11.206  -6.622  1.00  0.00     0.000 G0
ENDBRANCH  60  62
ENDBRANCH  56  58
ENDBRANCH  54  56
ENDBRANCH  52  54
ENDBRANCH  51  52
ENDBRANCH  50  51
ENDBRANCH  49  50
BRANCH  49  65
ATOM     65  C   UNL     1      -2.239  -6.759  -8.964  1.00  0.00     0.326 C 
ATOM     66  O   UNL     1      -3.294  -6.183  -8.743  1.00  0.00    -0.250 OA
BRANCH  65  67
ATOM     67  O   UNL     1      -2.252  -7.988  -9.526  1.00  0.00    -0.480 OA
ATOM     68  H   UNL     1      -1.348  -8.081  -9.898  1.00  0.00     0.296 HD
ENDBRANCH  65  67
ENDBRANCH  49  65
ENDBRANCH  47  49
ENDBRANCH  43  45
ENDBRANCH   1  43
BRANCH   1  69
ATOM     69  C   UNL     1      -0.489  -1.277 -10.144  1.00  0.00    -0.001 C 
ATOM     70  C   UNL     1      -0.269  -1.568 -11.439  1.00  0.00     0.001 C 
BRANCH  70  71
ATOM     71  C   UNL     1       0.409  -0.727 -12.427  1.00  0.00    -0.055 C 
ATOM     72  C   UNL     1       1.384   0.096 -11.987  1.00  0.00    -0.018 C 
ATOM     73  C   UNL     1      -0.024  -0.846 -13.865  1.00  0.00     0.044 C 
BRANCH  72  74
ATOM     74  C   UNL     1       2.251   1.069 -12.774  1.00  0.00     0.038 C 
ATOM     75  C   UNL     1       3.469   0.285 -13.276  1.00  0.00     0.015 C 
BRANCH  74  76
ATOM     76  C   UNL     1       2.588   2.288 -11.866  1.00  0.00     0.128 C 
BRANCH  76  77
ATOM     77  O   UNL     1       1.385   2.804 -11.270  1.00  0.00    -0.381 OA
ATOM     78  C   UNL     1       1.235   4.210 -11.414  1.00  0.00     0.195 C 
ENDBRANCH  76  77
BRANCH  76  79
ATOM     79  C   UNL     1       3.700   2.008 -10.824  1.00  0.00     0.068 C 
BRANCH  79  80
ATOM     80  C   UNL     1       4.861   2.969 -10.754  1.00  0.00    -0.045 A 
ATOM     81  C   UNL     1       4.821   4.089  -9.913  1.00  0.00     0.004 A 
ATOM     82  C   UNL     1       5.995   2.769 -11.556  1.00  0.00     0.004 A 
ATOM     83  C   UNL     1       5.894   4.982  -9.865  1.00  0.00     0.000 A 
ATOM     84  C   UNL     1       7.067   3.662 -11.507  1.00  0.00     0.000 A 
ATOM     85  C   UNL     1       7.017   4.767 -10.661  1.00  0.00     0.000 A 
ENDBRANCH  79  80
ENDBRANCH  76  79
ENDBRANCH  74  76
ENDBRANCH  72  74
ENDBRANCH  70  71
ENDBRANCH   1  69
TORSDOF 17
ENDMDL
MODEL 8
REMARK VINA RESULT:    -5.962      6.783     12.172
REMARK INTER + INTRA:         -24.601
REMARK INTER:                 -18.799
REMARK INTRA:                  -5.802
REMARK UNBOUND:                -6.790
REMARK SMILES C=C1C(=O)N[C@H](C)C(=O)N[C@@H](CC(C)C)C(=O)N[C@@H](C(=O)O)[C@H](C)C(=O)N[C@@H](CCCN=C(N)N)C(=O)N[C@@H](/C=C/C(C)=C/[C@H](C)[C@H](Cc2ccccc2)OC)[C@H](C)C(=O)N[C@@H](C(=O)O)CCC(=O)N1C
REMARK SMILES IDX 39 1 38 2 37 3 36 4 28 6 27 7 25 8 26 9 23 11 24 12 19 13
REMARK SMILES IDX 18 14 16 15 17 16 11 18 10 19 8 20 9 21 12 24 13 25 14 26
REMARK SMILES IDX 15 27 20 28 21 29 22 30 29 32 30 33 31 34 32 35 33 36 34 37
REMARK SMILES IDX 35 38 57 43 58 44 59 45 60 46 61 47 62 49 66 50 67 51 68 52
REMARK SMILES IDX 69 53 70 54 71 55 2 56 1 57 3 58 4 59 5 60 6 62 7 63 63 65
REMARK SMILES IDX 64 66 65 67 40 69 41 70 42 71 44 72 43 73 45 74 46 75 47 76
REMARK SMILES IDX 55 77 56 78 48 79 49 80 50 81 54 82 51 83 53 84 52 85
REMARK H PARENT 38 5 27 10 18 17 10 22 22 31 34 39 34 40 35 41 35 42 61 48
REMARK H PARENT 5 61 65 68
REMARK Flexibility Score:  369.900
ROOT
ATOM      1  C   UNL     1      -5.062  -3.169  -0.094  1.00  0.00     0.117 C 
ENDROOT
BRANCH   1   2
ATOM      2  N   UNL     1      -5.642  -2.786   1.194  1.00  0.00    -0.347 N 
ATOM      3  O   UNL     1      -4.382  -4.165   2.528  1.00  0.00    -0.273 OA
ATOM      4  C   UNL     1      -5.190  -3.249   2.414  1.00  0.00     0.243 C 
ATOM      5  H   UNL     1      -6.385  -2.104   1.218  1.00  0.00     0.164 HD
BRANCH   4   6
ATOM      6  C   UNL     1      -5.919  -2.621   3.629  1.00  0.00     0.171 C 
BRANCH   6   7
ATOM      7  N   UNL     1      -6.892  -3.570   4.193  1.00  0.00    -0.344 N 
ATOM      8  C   UNL     1      -8.172  -3.649   3.688  1.00  0.00     0.226 C 
ATOM      9  O   UNL     1      -8.567  -2.931   2.777  1.00  0.00    -0.275 OA
ATOM     10  H   UNL     1      -6.623  -4.132   4.991  1.00  0.00     0.164 HD
BRANCH   8  11
ATOM     11  C   UNL     1      -9.037  -4.713   4.339  1.00  0.00     0.109 C 
ATOM     12  C   UNL     1     -10.204  -5.077   3.421  1.00  0.00     0.021 C 
BRANCH  11  13
ATOM     13  C   UNL     1      -8.159  -5.904   4.774  1.00  0.00     0.204 C 
BRANCH  13  14
ATOM     14  N   UNL     1      -8.297  -6.197   6.204  1.00  0.00    -0.340 N 
ATOM     15  C   UNL     1      -7.389  -5.768   7.147  1.00  0.00     0.243 C 
ATOM     16  O   UNL     1      -6.428  -5.054   6.862  1.00  0.00    -0.273 OA
ATOM     17  H   UNL     1      -8.981  -6.905   6.486  1.00  0.00     0.164 HD
BRANCH  15  18
ATOM     18  C   UNL     1      -7.625  -6.370   8.554  1.00  0.00     0.171 C 
BRANCH  18  19
ATOM     19  N   UNL     1      -8.855  -5.768   9.065  1.00  0.00    -0.343 N 
ATOM     20  C   UNL     1      -8.873  -4.500   9.614  1.00  0.00     0.242 CG0
ATOM     21  O   UNL     1      -7.836  -3.873   9.818  1.00  0.00    -0.273 OA
ATOM     22  H   UNL     1      -9.721  -6.295   9.024  1.00  0.00     0.164 HD
ATOM     23  G   UNL     1     -10.274  -4.005  10.026  1.00  0.00     0.000 G0
ENDBRANCH  18  19
BRANCH  18  24
ATOM     24  C   UNL     1      -7.737  -7.898   8.477  1.00  0.00     0.038 C 
BRANCH  24  25
ATOM     25  C   UNL     1      -6.396  -8.631   8.259  1.00  0.00    -0.015 C 
ATOM     26  C   UNL     1      -6.391  -9.474   6.983  1.00  0.00     0.007 C 
ATOM     27  C   UNL     1      -6.095  -9.522   9.467  1.00  0.00     0.007 C 
ENDBRANCH  24  25
ENDBRANCH  18  24
ENDBRANCH  15  18
ENDBRANCH  13  14
BRANCH  13  28
ATOM     28  C   UNL     1      -8.474  -7.196   4.014  1.00  0.00     0.327 C 
ATOM     29  O   UNL     1      -9.038  -8.181   4.465  1.00  0.00    -0.250 OA
BRANCH  28  30
ATOM     30  O   UNL     1      -7.957  -7.216   2.769  1.00  0.00    -0.480 OA
ATOM     31  H   UNL     1      -7.981  -6.279   2.483  1.00  0.00     0.296 HD
ENDBRANCH  28  30
ENDBRANCH  13  28
ENDBRANCH  11  13
ENDBRANCH   8  11
ENDBRANCH   6   7
BRANCH   6  32
ATOM     32  C   UNL     1      -4.883  -2.209   4.680  1.00  0.00     0.037 C 
BRANCH  32  33
ATOM     33  C   UNL     1      -4.830  -0.687   4.876  1.00  0.00     0.026 C 
BRANCH  33  34
ATOM     34  C   UNL     1      -6.179  -0.104   5.297  1.00  0.00     0.146 C 
BRANCH  34  35
ATOM     35  N   UNL     1      -6.438  -0.470   6.683  1.00  0.00    -0.254 NA
ATOM     36  C   UNL     1      -7.580  -0.966   6.984  1.00  0.00     0.185 C 
ATOM     37  N   UNL     1      -7.827  -1.312   8.257  1.00  0.00    -0.370 N 
ATOM     38  N   UNL     1      -8.632  -1.211   6.184  1.00  0.00    -0.370 N 
ATOM     39  H   UNL     1      -7.077  -1.167   8.921  1.00  0.00     0.159 HD
ATOM     40  H   UNL     1      -8.621  -1.860   8.540  1.00  0.00     0.159 HD
ATOM     41  H   UNL     1      -9.526  -1.474   6.565  1.00  0.00     0.159 HD
ATOM     42  H   UNL     1      -8.593  -0.985   5.202  1.00  0.00     0.159 HD
ENDBRANCH  34  35
ENDBRANCH  33  34
ENDBRANCH  32  33
ENDBRANCH   6  32
ENDBRANCH   4   6
ENDBRANCH   1   2
BRANCH   1  43
ATOM     43  C   UNL     1      -3.740  -2.376  -0.298  1.00  0.00     0.102 C 
ATOM     44  C   UNL     1      -3.912  -1.110  -1.154  1.00  0.00     0.020 C 
BRANCH  43  45
ATOM     45  C   UNL     1      -2.612  -3.298  -0.771  1.00  0.00     0.225 C 
ATOM     46  O   UNL     1      -1.560  -3.442  -0.156  1.00  0.00    -0.275 OA
ATOM     47  N   UNL     1      -2.810  -3.895  -1.995  1.00  0.00    -0.342 N 
ATOM     48  H   UNL     1      -3.731  -3.889  -2.412  1.00  0.00     0.164 HD
BRANCH  47  49
ATOM     49  C   UNL     1      -1.832  -4.830  -2.559  1.00  0.00     0.192 C 
BRANCH  49  50
ATOM     50  C   UNL     1      -2.328  -5.339  -3.914  1.00  0.00     0.047 C 
BRANCH  50  51
ATOM     51  C   UNL     1      -1.301  -5.114  -5.032  1.00  0.00     0.103 C 
BRANCH  51  52
ATOM     52  C   UNL     1      -1.822  -4.160  -6.105  1.00  0.00     0.226 C 
ATOM     53  O   UNL     1      -2.436  -3.144  -5.773  1.00  0.00    -0.275 OA
BRANCH  52  54
ATOM     54  N   UNL     1      -1.491  -4.474  -7.437  1.00  0.00    -0.311 N 
ATOM     55  C   UNL     1      -0.868  -5.759  -7.778  1.00  0.00     0.153 C 
BRANCH  54  56
ATOM     56  C   UNL     1      -1.748  -3.576  -8.486  1.00  0.00     0.102 C 
ATOM     57  C   UNL     1      -2.904  -3.498  -9.165  1.00  0.00     0.043 C 
BRANCH  56  58
ATOM     58  C   UNL     1      -0.711  -2.562  -8.911  1.00  0.00     0.268 C 
ATOM     59  O   UNL     1       0.288  -2.311  -8.251  1.00  0.00    -0.268 OA
ATOM     60  N   UNL     1      -0.973  -2.004 -10.139  1.00  0.00    -0.339 N 
ATOM     61  H   UNL     1      -1.829  -2.258 -10.617  1.00  0.00     0.164 HD
BRANCH  60  62
ATOM     62  C   UNL     1      -0.065  -1.045 -10.768  1.00  0.00     0.168 CG0
ATOM     63  C   UNL     1      -0.063  -1.207 -12.283  1.00  0.00     0.041 C 
ATOM     64  G   UNL     1       1.356  -1.228 -10.197  1.00  0.00     0.000 G0
ENDBRANCH  60  62
ENDBRANCH  56  58
ENDBRANCH  54  56
ENDBRANCH  52  54
ENDBRANCH  51  52
ENDBRANCH  50  51
ENDBRANCH  49  50
BRANCH  49  65
ATOM     65  C   UNL     1      -1.589  -6.026  -1.624  1.00  0.00     0.326 C 
ATOM     66  O   UNL     1      -0.547  -6.661  -1.540  1.00  0.00    -0.250 OA
BRANCH  65  67
ATOM     67  O   UNL     1      -2.664  -6.402  -0.897  1.00  0.00    -0.480 OA
ATOM     68  H   UNL     1      -2.906  -7.274  -1.275  1.00  0.00     0.296 HD
ENDBRANCH  65  67
ENDBRANCH  49  65
ENDBRANCH  47  49
ENDBRANCH  43  45
ENDBRANCH   1  43
BRANCH   1  69
ATOM     69  C   UNL     1      -6.172  -3.022  -1.119  1.00  0.00    -0.001 C 
ATOM     70  C   UNL     1      -7.406  -2.525  -0.921  1.00  0.00     0.001 C 
BRANCH  70  71
ATOM     71  C   UNL     1      -8.461  -2.368  -1.924  1.00  0.00    -0.055 C 
ATOM     72  C   UNL     1      -8.090  -2.292  -3.220  1.00  0.00    -0.018 C 
ATOM     73  C   UNL     1      -9.887  -2.309  -1.440  1.00  0.00     0.044 C 
BRANCH  72  74
ATOM     74  C   UNL     1      -8.956  -2.134  -4.462  1.00  0.00     0.038 C 
ATOM     75  C   UNL     1      -9.200  -3.538  -5.026  1.00  0.00     0.015 C 
BRANCH  74  76
ATOM     76  C   UNL     1      -8.250  -1.150  -5.441  1.00  0.00     0.128 C 
BRANCH  76  77
ATOM     77  O   UNL     1      -8.018   0.110  -4.788  1.00  0.00    -0.381 OA
ATOM     78  C   UNL     1      -7.934   1.210  -5.684  1.00  0.00     0.195 C 
ENDBRANCH  76  77
BRANCH  76  79
ATOM     79  C   UNL     1      -6.973  -1.727  -6.102  1.00  0.00     0.068 C 
BRANCH  79  80
ATOM     80  C   UNL     1      -7.044  -2.109  -7.561  1.00  0.00    -0.045 A 
ATOM     81  C   UNL     1      -7.580  -1.230  -8.512  1.00  0.00     0.004 A 
ATOM     82  C   UNL     1      -6.596  -3.369  -7.984  1.00  0.00     0.004 A 
ATOM     83  C   UNL     1      -7.654  -1.597  -9.858  1.00  0.00     0.000 A 
ATOM     84  C   UNL     1      -6.671  -3.735  -9.330  1.00  0.00     0.000 A 
ATOM     85  C   UNL     1      -7.198  -2.848 -10.266  1.00  0.00     0.000 A 
ENDBRANCH  79  80
ENDBRANCH  76  79
ENDBRANCH  74  76
ENDBRANCH  72  74
ENDBRANCH  70  71
ENDBRANCH   1  69
TORSDOF 17
ENDMDL
MODEL 9
REMARK VINA RESULT:    -5.826      4.492      9.172
REMARK INTER + INTRA:         -24.195
REMARK INTER:                 -15.840
REMARK INTRA:                  -8.354
REMARK UNBOUND:                -6.790
REMARK SMILES C=C1C(=O)N[C@H](C)C(=O)N[C@@H](CC(C)C)C(=O)N[C@@H](C(=O)O)[C@H](C)C(=O)N[C@@H](CCCN=C(N)N)C(=O)N[C@@H](/C=C/C(C)=C/[C@H](C)[C@H](Cc2ccccc2)OC)[C@H](C)C(=O)N[C@@H](C(=O)O)CCC(=O)N1C
REMARK SMILES IDX 39 1 38 2 37 3 36 4 28 6 27 7 25 8 26 9 23 11 24 12 19 13
REMARK SMILES IDX 18 14 16 15 17 16 11 18 10 19 8 20 9 21 12 24 13 25 14 26
REMARK SMILES IDX 15 27 20 28 21 29 22 30 29 32 30 33 31 34 32 35 33 36 34 37
REMARK SMILES IDX 35 38 57 43 58 44 59 45 60 46 61 47 62 49 66 50 67 51 68 52
REMARK SMILES IDX 69 53 70 54 71 55 2 56 1 57 3 58 4 59 5 60 6 62 7 63 63 65
REMARK SMILES IDX 64 66 65 67 40 69 41 70 42 71 44 72 43 73 45 74 46 75 47 76
REMARK SMILES IDX 55 77 56 78 48 79 49 80 50 81 54 82 51 83 53 84 52 85
REMARK H PARENT 38 5 27 10 18 17 10 22 22 31 34 39 34 40 35 41 35 42 61 48
REMARK H PARENT 5 61 65 68
REMARK Flexibility Score:  369.900
ROOT
ATOM      1  C   UNL     1      -6.906  -1.131  -6.091  1.00  0.00     0.117 C 
ENDROOT
BRANCH   1   2
ATOM      2  N   UNL     1      -7.619  -0.187  -5.231  1.00  0.00    -0.347 N 
ATOM      3  O   UNL     1      -7.307   1.696  -6.506  1.00  0.00    -0.273 OA
ATOM      4  C   UNL     1      -7.841   1.138  -5.554  1.00  0.00     0.243 C 
ATOM      5  H   UNL     1      -8.023  -0.514  -4.366  1.00  0.00     0.164 HD
BRANCH   4   6
ATOM      6  C   UNL     1      -8.697   1.899  -4.509  1.00  0.00     0.171 C 
BRANCH   6   7
ATOM      7  N   UNL     1      -9.283   0.959  -3.541  1.00  0.00    -0.344 N 
ATOM      8  C   UNL     1     -10.552   1.162  -3.043  1.00  0.00     0.226 C 
ATOM      9  O   UNL     1     -11.236   2.129  -3.356  1.00  0.00    -0.275 OA
ATOM     10  H   UNL     1      -8.722   0.185  -3.207  1.00  0.00     0.164 HD
BRANCH   8  11
ATOM     11  C   UNL     1     -11.035   0.077  -2.098  1.00  0.00     0.109 C 
ATOM     12  C   UNL     1     -12.562   0.016  -2.103  1.00  0.00     0.021 C 
BRANCH  11  13
ATOM     13  C   UNL     1     -10.332  -1.255  -2.430  1.00  0.00     0.204 C 
BRANCH  13  14
ATOM     14  N   UNL     1     -10.104  -2.071  -1.234  1.00  0.00    -0.340 N 
ATOM     15  C   UNL     1      -8.848  -2.322  -0.726  1.00  0.00     0.243 C 
ATOM     16  O   UNL     1      -7.830  -1.826  -1.207  1.00  0.00    -0.273 OA
ATOM     17  H   UNL     1     -10.884  -2.632  -0.879  1.00  0.00     0.164 HD
BRANCH  15  18
ATOM     18  C   UNL     1      -8.838  -3.373   0.410  1.00  0.00     0.171 C 
BRANCH  18  19
ATOM     19  N   UNL     1     -10.221  -3.811   0.588  1.00  0.00    -0.343 N 
ATOM     20  C   UNL     1     -10.796  -3.922   1.839  1.00  0.00     0.242 CG0
ATOM     21  O   UNL     1     -10.134  -3.787   2.865  1.00  0.00    -0.273 OA
ATOM     22  H   UNL     1     -10.776  -4.047  -0.227  1.00  0.00     0.164 HD
ATOM     23  G   UNL     1     -12.285  -4.322   1.822  1.00  0.00     0.000 G0
ENDBRANCH  18  19
BRANCH  18  24
ATOM     24  C   UNL     1      -7.918  -4.548   0.054  1.00  0.00     0.038 C 
BRANCH  24  25
ATOM     25  C   UNL     1      -6.821  -4.846   1.097  1.00  0.00    -0.015 C 
ATOM     26  C   UNL     1      -7.067  -6.156   1.848  1.00  0.00     0.007 C 
ATOM     27  C   UNL     1      -6.731  -3.689   2.096  1.00  0.00     0.007 C 
ENDBRANCH  24  25
ENDBRANCH  18  24
ENDBRANCH  15  18
ENDBRANCH  13  14
BRANCH  13  28
ATOM     28  C   UNL     1     -11.111  -2.117  -3.427  1.00  0.00     0.327 C 
ATOM     29  O   UNL     1     -11.756  -3.121  -3.165  1.00  0.00    -0.250 OA
BRANCH  28  30
ATOM     30  O   UNL     1     -10.936  -1.734  -4.708  1.00  0.00    -0.480 OA
ATOM     31  H   UNL     1     -10.131  -2.213  -4.994  1.00  0.00     0.296 HD
ENDBRANCH  28  30
ENDBRANCH  13  28
ENDBRANCH  11  13
ENDBRANCH   8  11
ENDBRANCH   6   7
BRANCH   6  32
ATOM     32  C   UNL     1      -7.820   2.938  -3.801  1.00  0.00     0.037 C 
BRANCH  32  33
ATOM     33  C   UNL     1      -6.735   2.285  -2.933  1.00  0.00     0.026 C 
BRANCH  33  34
ATOM     34  C   UNL     1      -6.722   2.831  -1.505  1.00  0.00     0.146 C 
BRANCH  34  35
ATOM     35  N   UNL     1      -7.957   2.439  -0.840  1.00  0.00    -0.254 NA
ATOM     36  C   UNL     1      -7.930   1.453  -0.023  1.00  0.00     0.185 C 
ATOM     37  N   UNL     1      -9.061   1.087   0.598  1.00  0.00    -0.370 N 
ATOM     38  N   UNL     1      -6.888   0.681   0.334  1.00  0.00    -0.370 N 
ATOM     39  H   UNL     1      -9.890   1.628   0.389  1.00  0.00     0.159 HD
ATOM     40  H   UNL     1      -9.088   0.447   1.373  1.00  0.00     0.159 HD
ATOM     41  H   UNL     1      -7.022  -0.154   0.881  1.00  0.00     0.159 HD
ATOM     42  H   UNL     1      -5.976   0.833  -0.068  1.00  0.00     0.159 HD
ENDBRANCH  34  35
ENDBRANCH  33  34
ENDBRANCH  32  33
ENDBRANCH   6  32
ENDBRANCH   4   6
ENDBRANCH   1   2
BRANCH   1  43
ATOM     43  C   UNL     1      -7.950  -2.053  -6.785  1.00  0.00     0.102 C 
ATOM     44  C   UNL     1      -8.025  -3.462  -6.173  1.00  0.00     0.020 C 
BRANCH  43  45
ATOM     45  C   UNL     1      -7.766  -2.046  -8.306  1.00  0.00     0.225 C 
ATOM     46  O   UNL     1      -8.684  -2.251  -9.094  1.00  0.00    -0.275 OA
ATOM     47  N   UNL     1      -6.471  -1.885  -8.745  1.00  0.00    -0.342 N 
ATOM     48  H   UNL     1      -5.760  -1.568  -8.101  1.00  0.00     0.164 HD
BRANCH  47  49
ATOM     49  C   UNL     1      -6.150  -1.822 -10.174  1.00  0.00     0.192 C 
BRANCH  49  50
ATOM     50  C   UNL     1      -4.884  -2.637 -10.453  1.00  0.00     0.047 C 
BRANCH  50  51
ATOM     51  C   UNL     1      -3.734  -2.268  -9.505  1.00  0.00     0.103 C 
BRANCH  51  52
ATOM     52  C   UNL     1      -2.417  -2.069 -10.252  1.00  0.00     0.226 C 
ATOM     53  O   UNL     1      -1.769  -3.052 -10.619  1.00  0.00    -0.275 OA
BRANCH  52  54
ATOM     54  N   UNL     1      -2.058  -0.741 -10.546  1.00  0.00    -0.311 N 
ATOM     55  C   UNL     1      -2.390   0.354  -9.625  1.00  0.00     0.153 C 
BRANCH  54  56
ATOM     56  C   UNL     1      -1.365  -0.413 -11.724  1.00  0.00     0.102 C 
ATOM     57  C   UNL     1      -1.945  -0.107 -12.896  1.00  0.00     0.043 C 
BRANCH  56  58
ATOM     58  C   UNL     1       0.143  -0.335 -11.740  1.00  0.00     0.268 C 
ATOM     59  O   UNL     1       0.842  -0.694 -10.802  1.00  0.00    -0.268 OA
ATOM     60  N   UNL     1       0.648   0.117 -12.936  1.00  0.00    -0.339 N 
ATOM     61  H   UNL     1       0.001   0.405 -13.660  1.00  0.00     0.164 HD
BRANCH  60  62
ATOM     62  C   UNL     1       2.085   0.210 -13.190  1.00  0.00     0.168 CG0
ATOM     63  C   UNL     1       2.566   1.652 -13.084  1.00  0.00     0.041 C 
ATOM     64  G   UNL     1       2.403  -0.370 -14.583  1.00  0.00     0.000 G0
ENDBRANCH  60  62
ENDBRANCH  56  58
ENDBRANCH  54  56
ENDBRANCH  52  54
ENDBRANCH  51  52
ENDBRANCH  50  51
ENDBRANCH  49  50
BRANCH  49  65
ATOM     65  C   UNL     1      -5.936  -0.374 -10.643  1.00  0.00     0.326 C 
ATOM     66  O   UNL     1      -6.318   0.627 -10.055  1.00  0.00    -0.250 OA
BRANCH  65  67
ATOM     67  O   UNL     1      -5.318  -0.254 -11.839  1.00  0.00    -0.480 OA
ATOM     68  H   UNL     1      -5.737  -0.952 -12.387  1.00  0.00     0.296 HD
ENDBRANCH  65  67
ENDBRANCH  49  65
ENDBRANCH  47  49
ENDBRANCH  43  45
ENDBRANCH   1  43
BRANCH   1  69
ATOM     69  C   UNL     1      -5.829  -1.763  -5.228  1.00  0.00    -0.001 C 
ATOM     70  C   UNL     1      -5.453  -1.393  -3.991  1.00  0.00     0.001 C 
BRANCH  70  71
ATOM     71  C   UNL     1      -4.426  -2.024  -3.159  1.00  0.00    -0.055 C 
ATOM     72  C   UNL     1      -4.769  -3.134  -2.473  1.00  0.00    -0.018 C 
ATOM     73  C   UNL     1      -3.058  -1.393  -3.133  1.00  0.00     0.044 C 
BRANCH  72  74
ATOM     74  C   UNL     1      -3.923  -3.992  -1.544  1.00  0.00     0.038 C 
ATOM     75  C   UNL     1      -3.804  -3.238  -0.214  1.00  0.00     0.015 C 
BRANCH  74  76
ATOM     76  C   UNL     1      -2.566  -4.300  -2.243  1.00  0.00     0.128 C 
BRANCH  76  77
ATOM     77  O   UNL     1      -1.603  -4.744  -1.273  1.00  0.00    -0.381 OA
ATOM     78  C   UNL     1      -1.191  -6.093  -1.454  1.00  0.00     0.195 C 
ENDBRANCH  76  77
BRANCH  76  79
ATOM     79  C   UNL     1      -2.685  -5.260  -3.454  1.00  0.00     0.068 C 
BRANCH  79  80
ATOM     80  C   UNL     1      -1.991  -4.870  -4.736  1.00  0.00    -0.045 A 
ATOM     81  C   UNL     1      -0.705  -5.340  -5.033  1.00  0.00     0.004 A 
ATOM     82  C   UNL     1      -2.618  -4.003  -5.644  1.00  0.00     0.004 A 
ATOM     83  C   UNL     1      -0.064  -4.963  -6.215  1.00  0.00     0.000 A 
ATOM     84  C   UNL     1      -1.976  -3.626  -6.826  1.00  0.00     0.000 A 
ATOM     85  C   UNL     1      -0.701  -4.107  -7.112  1.00  0.00     0.000 A 
ENDBRANCH  79  80
ENDBRANCH  76  79
ENDBRANCH  74  76
ENDBRANCH  72  74
ENDBRANCH  70  71
ENDBRANCH   1  69
TORSDOF 17
ENDMDL
MODEL 10
REMARK VINA RESULT:    -5.801      6.798     14.170
REMARK INTER + INTRA:         -24.121
REMARK INTER:                 -15.577
REMARK INTRA:                  -8.544
REMARK UNBOUND:                -6.790
REMARK SMILES C=C1C(=O)N[C@H](C)C(=O)N[C@@H](CC(C)C)C(=O)N[C@@H](C(=O)O)[C@H](C)C(=O)N[C@@H](CCCN=C(N)N)C(=O)N[C@@H](/C=C/C(C)=C/[C@H](C)[C@H](Cc2ccccc2)OC)[C@H](C)C(=O)N[C@@H](C(=O)O)CCC(=O)N1C
REMARK SMILES IDX 39 1 38 2 37 3 36 4 28 6 27 7 25 8 26 9 23 11 24 12 19 13
REMARK SMILES IDX 18 14 16 15 17 16 11 18 10 19 8 20 9 21 12 24 13 25 14 26
REMARK SMILES IDX 15 27 20 28 21 29 22 30 29 32 30 33 31 34 32 35 33 36 34 37
REMARK SMILES IDX 35 38 57 43 58 44 59 45 60 46 61 47 62 49 66 50 67 51 68 52
REMARK SMILES IDX 69 53 70 54 71 55 2 56 1 57 3 58 4 59 5 60 6 62 7 63 63 65
REMARK SMILES IDX 64 66 65 67 40 69 41 70 42 71 44 72 43 73 45 74 46 75 47 76
REMARK SMILES IDX 55 77 56 78 48 79 49 80 50 81 54 82 51 83 53 84 52 85
REMARK H PARENT 38 5 27 10 18 17 10 22 22 31 34 39 34 40 35 41 35 42 61 48
REMARK H PARENT 5 61 65 68
REMARK Flexibility Score:  369.900
ROOT
ATOM      1  C   UNL     1      -8.632  -2.446  -0.360  1.00  0.00     0.117 C 
ENDROOT
BRANCH   1   2
ATOM      2  N   UNL     1      -7.335  -2.953   0.089  1.00  0.00    -0.347 N 
ATOM      3  O   UNL     1      -6.422  -3.352  -1.979  1.00  0.00    -0.273 OA
ATOM      4  C   UNL     1      -6.296  -3.281  -0.761  1.00  0.00     0.243 C 
ATOM      5  H   UNL     1      -7.149  -3.030   1.078  1.00  0.00     0.164 HD
BRANCH   4   6
ATOM      6  C   UNL     1      -5.001  -3.711  -0.026  1.00  0.00     0.171 C 
BRANCH   6   7
ATOM      7  N   UNL     1      -5.273  -3.943   1.402  1.00  0.00    -0.344 N 
ATOM      8  C   UNL     1      -4.349  -3.587   2.360  1.00  0.00     0.226 C 
ATOM      9  O   UNL     1      -3.266  -3.089   2.080  1.00  0.00    -0.275 OA
ATOM     10  H   UNL     1      -6.129  -4.414   1.668  1.00  0.00     0.164 HD
BRANCH   8  11
ATOM     11  C   UNL     1      -4.800  -3.840   3.788  1.00  0.00     0.109 C 
ATOM     12  C   UNL     1      -3.594  -3.846   4.727  1.00  0.00     0.021 C 
BRANCH  11  13
ATOM     13  C   UNL     1      -5.913  -2.843   4.169  1.00  0.00     0.204 C 
BRANCH  13  14
ATOM     14  N   UNL     1      -5.935  -2.564   5.608  1.00  0.00    -0.340 N 
ATOM     15  C   UNL     1      -6.936  -1.836   6.214  1.00  0.00     0.243 C 
ATOM     16  O   UNL     1      -7.915  -1.420   5.598  1.00  0.00    -0.273 OA
ATOM     17  H   UNL     1      -5.083  -2.747   6.146  1.00  0.00     0.164 HD
BRANCH  15  18
ATOM     18  C   UNL     1      -6.641  -1.492   7.695  1.00  0.00     0.171 C 
BRANCH  18  19
ATOM     19  N   UNL     1      -6.810  -2.730   8.453  1.00  0.00    -0.343 N 
ATOM     20  C   UNL     1      -7.326  -2.736   9.735  1.00  0.00     0.242 CG0
ATOM     21  O   UNL     1      -7.543  -1.691  10.345  1.00  0.00    -0.273 OA
ATOM     22  H   UNL     1      -6.536  -3.612   8.034  1.00  0.00     0.164 HD
ATOM     23  G   UNL     1      -7.504  -4.142  10.344  1.00  0.00     0.000 G0
ENDBRANCH  18  19
BRANCH  18  24
ATOM     24  C   UNL     1      -5.224  -0.928   7.848  1.00  0.00     0.038 C 
BRANCH  24  25
ATOM     25  C   UNL     1      -5.147   0.612   7.913  1.00  0.00    -0.015 C 
ATOM     26  C   UNL     1      -5.309   1.264   6.540  1.00  0.00     0.007 C 
ATOM     27  C   UNL     1      -3.811   1.035   8.529  1.00  0.00     0.007 C 
ENDBRANCH  24  25
ENDBRANCH  18  24
ENDBRANCH  15  18
ENDBRANCH  13  14
BRANCH  13  28
ATOM     28  C   UNL     1      -5.790  -1.498   3.447  1.00  0.00     0.327 C 
ATOM     29  O   UNL     1      -4.949  -0.637   3.660  1.00  0.00    -0.250 OA
BRANCH  28  30
ATOM     30  O   UNL     1      -6.802  -1.265   2.586  1.00  0.00    -0.480 OA
ATOM     31  H   UNL     1      -6.768  -0.299   2.429  1.00  0.00     0.296 HD
ENDBRANCH  28  30
ENDBRANCH  13  28
ENDBRANCH  11  13
ENDBRANCH   8  11
ENDBRANCH   6   7
BRANCH   6  32
ATOM     32  C   UNL     1      -4.442  -4.975  -0.689  1.00  0.00     0.037 C 
BRANCH  32  33
ATOM     33  C   UNL     1      -3.041  -4.750  -1.274  1.00  0.00     0.026 C 
BRANCH  33  34
ATOM     34  C   UNL     1      -2.751  -3.273  -1.547  1.00  0.00     0.146 C 
BRANCH  34  35
ATOM     35  N   UNL     1      -2.775  -3.047  -2.985  1.00  0.00    -0.254 NA
ATOM     36  C   UNL     1      -3.497  -2.094  -3.445  1.00  0.00     0.185 C 
ATOM     37  N   UNL     1      -3.523  -1.873  -4.769  1.00  0.00    -0.370 N 
ATOM     38  N   UNL     1      -4.279  -1.228  -2.776  1.00  0.00    -0.370 N 
ATOM     39  H   UNL     1      -2.951  -2.480  -5.341  1.00  0.00     0.159 HD
ATOM     40  H   UNL     1      -3.920  -1.050  -5.187  1.00  0.00     0.159 HD
ATOM     41  H   UNL     1      -4.908  -0.610  -3.263  1.00  0.00     0.159 HD
ATOM     42  H   UNL     1      -4.368  -1.286  -1.774  1.00  0.00     0.159 HD
ENDBRANCH  34  35
ENDBRANCH  33  34
ENDBRANCH  32  33
ENDBRANCH   6  32
ENDBRANCH   4   6
ENDBRANCH   1   2
BRANCH   1  43
ATOM     43  C   UNL     1      -8.496  -0.923  -0.646  1.00  0.00     0.102 C 
ATOM     44  C   UNL     1      -9.270  -0.041   0.348  1.00  0.00     0.020 C 
BRANCH  43  45
ATOM     45  C   UNL     1      -8.794  -0.611  -2.116  1.00  0.00     0.225 C 
ATOM     46  O   UNL     1      -9.806  -0.023  -2.485  1.00  0.00    -0.275 OA
ATOM     47  N   UNL     1      -7.891  -1.116  -3.024  1.00  0.00    -0.342 N 
ATOM     48  H   UNL     1      -6.997  -1.459  -2.702  1.00  0.00     0.164 HD
BRANCH  47  49
ATOM     49  C   UNL     1      -8.029  -0.866  -4.462  1.00  0.00     0.192 C 
BRANCH  49  50
ATOM     50  C   UNL     1      -7.734  -2.152  -5.238  1.00  0.00     0.047 C 
BRANCH  50  51
ATOM     51  C   UNL     1      -7.961  -1.986  -6.747  1.00  0.00     0.103 C 
BRANCH  51  52
ATOM     52  C   UNL     1      -6.739  -2.406  -7.561  1.00  0.00     0.226 C 
ATOM     53  O   UNL     1      -5.617  -2.339  -7.055  1.00  0.00    -0.275 OA
BRANCH  52  54
ATOM     54  N   UNL     1      -6.989  -2.928  -8.844  1.00  0.00    -0.311 N 
ATOM     55  C   UNL     1      -7.934  -2.270  -9.756  1.00  0.00     0.153 C 
BRANCH  54  56
ATOM     56  C   UNL     1      -6.343  -4.088  -9.301  1.00  0.00     0.102 C 
ATOM     57  C   UNL     1      -6.809  -5.338  -9.148  1.00  0.00     0.043 C 
BRANCH  56  58
ATOM     58  C   UNL     1      -5.046  -4.001 -10.070  1.00  0.00     0.268 C 
ATOM     59  O   UNL     1      -4.881  -3.251 -11.023  1.00  0.00    -0.268 OA
ATOM     60  N   UNL     1      -4.055  -4.799  -9.550  1.00  0.00    -0.339 N 
ATOM     61  H   UNL     1      -4.275  -5.400  -8.765  1.00  0.00     0.164 HD
BRANCH  60  62
ATOM     62  C   UNL     1      -2.701  -4.820 -10.103  1.00  0.00     0.168 CG0
ATOM     63  C   UNL     1      -1.731  -5.505  -9.148  1.00  0.00     0.041 C 
ATOM     64  G   UNL     1      -2.244  -3.379 -10.406  1.00  0.00     0.000 G0
ENDBRANCH  60  62
ENDBRANCH  56  58
ENDBRANCH  54  56
ENDBRANCH  52  54
ENDBRANCH  51  52
ENDBRANCH  50  51
ENDBRANCH  49  50
BRANCH  49  65
ATOM     65  C   UNL     1      -7.080   0.245  -4.937  1.00  0.00     0.326 C 
ATOM     66  O   UNL     1      -5.860   0.216  -4.868  1.00  0.00    -0.250 OA
BRANCH  65  67
ATOM     67  O   UNL     1      -7.698   1.349  -5.413  1.00  0.00    -0.480 OA
ATOM     68  H   UNL     1      -7.765   1.179  -6.377  1.00  0.00     0.296 HD
ENDBRANCH  65  67
ENDBRANCH  49  65
ENDBRANCH  47  49
ENDBRANCH  43  45
ENDBRANCH   1  43
BRANCH   1  69
ATOM     69  C   UNL     1      -9.648  -2.911   0.667  1.00  0.00    -0.001 C 
ATOM     70  C   UNL     1      -9.409  -3.588   1.804  1.00  0.00     0.001 C 
BRANCH  70  71
ATOM     71  C   UNL     1     -10.396  -4.013   2.799  1.00  0.00    -0.055 C 
ATOM     72  C   UNL     1      -9.972  -4.191   4.068  1.00  0.00    -0.018 C 
ATOM     73  C   UNL     1     -11.816  -4.214   2.338  1.00  0.00     0.044 C 
BRANCH  72  74
ATOM     74  C   UNL     1     -10.761  -4.620   5.296  1.00  0.00     0.038 C 
ATOM     75  C   UNL     1     -10.482  -3.589   6.397  1.00  0.00     0.015 C 
BRANCH  74  76
ATOM     76  C   UNL     1     -10.370  -6.083   5.658  1.00  0.00     0.128 C 
BRANCH  76  77
ATOM     77  O   UNL     1     -11.306  -7.001   5.068  1.00  0.00    -0.381 OA
ATOM     78  C   UNL     1     -10.777  -7.727   3.966  1.00  0.00     0.195 C 
ENDBRANCH  76  77
BRANCH  76  79
ATOM     79  C   UNL     1      -8.897  -6.439   5.335  1.00  0.00     0.068 C 
BRANCH  79  80
ATOM     80  C   UNL     1      -7.901  -6.422   6.470  1.00  0.00    -0.045 A 
ATOM     81  C   UNL     1      -6.525  -6.339   6.221  1.00  0.00     0.004 A 
ATOM     82  C   UNL     1      -8.341  -6.519   7.798  1.00  0.00     0.004 A 
ATOM     83  C   UNL     1      -5.609  -6.339   7.275  1.00  0.00     0.000 A 
ATOM     84  C   UNL     1      -7.425  -6.520   8.852  1.00  0.00     0.000 A 
ATOM     85  C   UNL     1      -6.060  -6.428   8.591  1.00  0.00     0.000 A 
ENDBRANCH  79  80
ENDBRANCH  76  79
ENDBRANCH  74  76
ENDBRANCH  72  74
ENDBRANCH  70  71
ENDBRANCH   1  69
TORSDOF 17
ENDMDL
