MODEL 1
REMARK VINA RESULT:    -7.133      0.000      0.000
REMARK INTER + INTRA:         -28.181
REMARK INTER:                 -21.312
REMARK INTRA:                  -6.869
REMARK UNBOUND:                -6.869
REMARK SMILES C=C1C(=O)N[C@H](C)C(=O)N[C@@H](CC(C)C)C(=O)N[C@@H](C(=O)O)[C@H](C)C(=O)N[C@@H](CCCN=C(N)N)C(=O)N[C@@H](/C=C/C(C)=C/[C@H](C)[C@H](Cc2ccccc2)OC)[C@H](C)C(=O)N[C@@H](C(=O)O)CCC(=O)N1C
REMARK SMILES IDX 39 1 38 2 37 3 36 4 28 6 27 7 25 8 26 9 23 11 24 12 19 13
REMARK SMILES IDX 18 14 16 15 17 16 11 18 10 19 8 20 9 21 12 24 13 25 14 26
REMARK SMILES IDX 15 27 20 28 21 29 22 30 29 32 30 33 31 34 32 35 33 36 34 37
REMARK SMILES IDX 35 38 57 43 58 44 59 45 60 46 61 47 62 49 66 50 67 51 68 52
REMARK SMILES IDX 69 53 70 54 71 55 2 56 1 57 3 58 4 59 5 60 6 62 7 63 63 65
REMARK SMILES IDX 64 66 65 67 40 69 41 70 42 71 44 72 43 73 45 74 46 75 47 76
REMARK SMILES IDX 55 77 56 78 48 79 49 80 50 81 54 82 51 83 53 84 52 85
REMARK H PARENT 38 5 27 10 18 17 10 22 22 31 34 39 34 40 35 41 35 42 61 48
REMARK H PARENT 5 61 65 68
REMARK Flexibility Score:  369.900
ROOT
ATOM      1  C   UNL     1      -4.898  -2.786  -8.104  1.00  0.00     0.117 C 
ENDROOT
BRANCH   1   2
ATOM      2  N   UNL     1      -6.078  -2.713  -7.242  1.00  0.00    -0.347 N 
ATOM      3  O   UNL     1      -5.286  -1.151  -5.758  1.00  0.00    -0.273 OA
ATOM      4  C   UNL     1      -6.212  -1.830  -6.187  1.00  0.00     0.243 C 
ATOM      5  H   UNL     1      -6.874  -3.299  -7.443  1.00  0.00     0.164 HD
BRANCH   4   6
ATOM      6  C   UNL     1      -7.595  -1.898  -5.490  1.00  0.00     0.171 C 
BRANCH   6   7
ATOM      7  N   UNL     1      -7.658  -0.934  -4.380  1.00  0.00    -0.344 N 
ATOM      8  C   UNL     1      -8.619  -1.055  -3.399  1.00  0.00     0.226 C 
ATOM      9  O   UNL     1      -9.468  -1.938  -3.411  1.00  0.00    -0.275 OA
ATOM     10  H   UNL     1      -7.016  -0.152  -4.371  1.00  0.00     0.164 HD
BRANCH   8  11
ATOM     11  C   UNL     1      -8.519  -0.017  -2.294  1.00  0.00     0.109 C 
ATOM     12  C   UNL     1      -9.881   0.636  -2.061  1.00  0.00     0.021 C 
BRANCH  11  13
ATOM     13  C   UNL     1      -7.880  -0.649  -1.042  1.00  0.00     0.204 C 
BRANCH  13  14
ATOM     14  N   UNL     1      -7.992  -2.111  -1.043  1.00  0.00    -0.340 N 
ATOM     15  C   UNL     1      -8.780  -2.802  -0.148  1.00  0.00     0.243 C 
ATOM     16  O   UNL     1      -9.494  -2.236   0.678  1.00  0.00    -0.273 OA
ATOM     17  H   UNL     1      -7.316  -2.644  -1.597  1.00  0.00     0.164 HD
BRANCH  15  18
ATOM     18  C   UNL     1      -8.580  -4.337  -0.204  1.00  0.00     0.171 C 
BRANCH  18  19
ATOM     19  N   UNL     1      -8.473  -4.795   1.180  1.00  0.00    -0.343 N 
ATOM     20  C   UNL     1      -7.454  -5.630   1.594  1.00  0.00     0.242 CG0
ATOM     21  O   UNL     1      -6.668  -6.132   0.794  1.00  0.00    -0.273 OA
ATOM     22  H   UNL     1      -9.168  -4.500   1.856  1.00  0.00     0.164 HD
ATOM     23  G   UNL     1      -7.461  -5.943   3.105  1.00  0.00     0.000 G0
ENDBRANCH  18  19
BRANCH  18  24
ATOM     24  C   UNL     1      -9.751  -5.009  -0.931  1.00  0.00     0.038 C 
BRANCH  24  25
ATOM     25  C   UNL     1      -9.394  -6.333  -1.640  1.00  0.00    -0.015 C 
ATOM     26  C   UNL     1      -9.929  -6.393  -3.071  1.00  0.00     0.007 C 
ATOM     27  C   UNL     1      -9.944  -7.513  -0.835  1.00  0.00     0.007 C 
ENDBRANCH  24  25
ENDBRANCH  18  24
ENDBRANCH  15  18
ENDBRANCH  13  14
BRANCH  13  28
ATOM     28  C   UNL     1      -6.394  -0.308  -0.885  1.00  0.00     0.327 C 
ATOM     29  O   UNL     1      -5.914   0.472  -0.077  1.00  0.00    -0.250 OA
BRANCH  28  30
ATOM     30  O   UNL     1      -5.618  -0.878  -1.829  1.00  0.00    -0.480 OA
ATOM     31  H   UNL     1      -4.704  -0.668  -1.548  1.00  0.00     0.296 HD
ENDBRANCH  28  30
ENDBRANCH  13  28
ENDBRANCH  11  13
ENDBRANCH   8  11
ENDBRANCH   6   7
BRANCH   6  32
ATOM     32  C   UNL     1      -8.693  -1.617  -6.522  1.00  0.00     0.037 C 
BRANCH  32  33
ATOM     33  C   UNL     1      -9.649  -2.807  -6.688  1.00  0.00     0.026 C 
BRANCH  33  34
ATOM     34  C   UNL     1      -9.145  -3.823  -7.714  1.00  0.00     0.146 C 
BRANCH  34  35
ATOM     35  N   UNL     1      -9.094  -3.185  -9.022  1.00  0.00    -0.254 NA
ATOM     36  C   UNL     1      -8.574  -3.829 -10.000  1.00  0.00     0.185 C 
ATOM     37  N   UNL     1      -8.527  -3.253 -11.211  1.00  0.00    -0.370 N 
ATOM     38  N   UNL     1      -8.037  -5.062 -10.009  1.00  0.00    -0.370 N 
ATOM     39  H   UNL     1      -8.923  -2.325 -11.288  1.00  0.00     0.159 HD
ATOM     40  H   UNL     1      -8.299  -3.750 -12.055  1.00  0.00     0.159 HD
ATOM     41  H   UNL     1      -7.533  -5.404 -10.811  1.00  0.00     0.159 HD
ATOM     42  H   UNL     1      -7.990  -5.607  -9.162  1.00  0.00     0.159 HD
ENDBRANCH  34  35
ENDBRANCH  33  34
ENDBRANCH  32  33
ENDBRANCH   6  32
ENDBRANCH   4   6
ENDBRANCH   1   2
BRANCH   1  43
ATOM     43  C   UNL     1      -5.051  -1.737  -9.243  1.00  0.00     0.102 C 
ATOM     44  C   UNL     1      -5.156  -2.364 -10.643  1.00  0.00     0.020 C 
BRANCH  43  45
ATOM     45  C   UNL     1      -3.984  -0.643  -9.130  1.00  0.00     0.225 C 
ATOM     46  O   UNL     1      -3.791   0.198 -10.003  1.00  0.00    -0.275 OA
ATOM     47  N   UNL     1      -3.177  -0.715  -8.018  1.00  0.00    -0.342 N 
ATOM     48  H   UNL     1      -3.443  -1.310  -7.245  1.00  0.00     0.164 HD
BRANCH  47  49
ATOM     49  C   UNL     1      -2.137   0.285  -7.760  1.00  0.00     0.192 C 
BRANCH  49  50
ATOM     50  C   UNL     1      -0.800  -0.207  -8.320  1.00  0.00     0.047 C 
BRANCH  50  51
ATOM     51  C   UNL     1      -0.282   0.685  -9.457  1.00  0.00     0.103 C 
BRANCH  51  52
ATOM     52  C   UNL     1       0.787   1.664  -8.975  1.00  0.00     0.226 C 
ATOM     53  O   UNL     1       0.511   2.485  -8.098  1.00  0.00    -0.275 OA
BRANCH  52  54
ATOM     54  N   UNL     1       2.073   1.510  -9.526  1.00  0.00    -0.311 N 
ATOM     55  C   UNL     1       2.768   0.217  -9.476  1.00  0.00     0.153 C 
BRANCH  54  56
ATOM     56  C   UNL     1       2.735   2.581 -10.149  1.00  0.00     0.102 C 
ATOM     57  C   UNL     1       3.435   3.530  -9.506  1.00  0.00     0.043 C 
BRANCH  56  58
ATOM     58  C   UNL     1       2.742   2.719 -11.654  1.00  0.00     0.268 C 
ATOM     59  O   UNL     1       1.721   2.798 -12.323  1.00  0.00    -0.268 OA
ATOM     60  N   UNL     1       4.007   2.813 -12.182  1.00  0.00    -0.339 N 
ATOM     61  H   UNL     1       4.802   2.728 -11.560  1.00  0.00     0.164 HD
BRANCH  60  62
ATOM     62  C   UNL     1       4.242   3.014 -13.611  1.00  0.00     0.168 CG0
ATOM     63  C   UNL     1       5.720   3.251 -13.895  1.00  0.00     0.041 C 
ATOM     64  G   UNL     1       3.392   4.200 -14.113  1.00  0.00     0.000 G0
ENDBRANCH  60  62
ENDBRANCH  56  58
ENDBRANCH  54  56
ENDBRANCH  52  54
ENDBRANCH  51  52
ENDBRANCH  50  51
ENDBRANCH  49  50
BRANCH  49  65
ATOM     65  C   UNL     1      -1.985   0.571  -6.258  1.00  0.00     0.326 C 
ATOM     66  O   UNL     1      -2.377  -0.153  -5.354  1.00  0.00    -0.250 OA
BRANCH  65  67
ATOM     67  O   UNL     1      -1.413   1.759  -5.965  1.00  0.00    -0.480 OA
ATOM     68  H   UNL     1      -2.057   2.417  -6.306  1.00  0.00     0.296 HD
ENDBRANCH  65  67
ENDBRANCH  49  65
ENDBRANCH  47  49
ENDBRANCH  43  45
ENDBRANCH   1  43
BRANCH   1  69
ATOM     69  C   UNL     1      -4.732  -4.249  -8.472  1.00  0.00    -0.001 C 
ATOM     70  C   UNL     1      -3.619  -4.997  -8.365  1.00  0.00     0.001 C 
BRANCH  70  71
ATOM     71  C   UNL     1      -3.477  -6.414  -8.704  1.00  0.00    -0.055 C 
ATOM     72  C   UNL     1      -4.574  -7.195  -8.611  1.00  0.00    -0.018 C 
ATOM     73  C   UNL     1      -2.118  -6.899  -9.139  1.00  0.00     0.044 C 
BRANCH  72  74
ATOM     74  C   UNL     1      -4.724  -8.682  -8.898  1.00  0.00     0.038 C 
ATOM     75  C   UNL     1      -5.102  -8.822 -10.377  1.00  0.00     0.015 C 
BRANCH  74  76
ATOM     76  C   UNL     1      -5.758  -9.283  -7.900  1.00  0.00     0.128 C 
BRANCH  76  77
ATOM     77  O   UNL     1      -6.441 -10.391  -8.509  1.00  0.00    -0.381 OA
ATOM     78  C   UNL     1      -6.557 -11.526  -7.661  1.00  0.00     0.195 C 
ENDBRANCH  76  77
BRANCH  76  79
ATOM     79  C   UNL     1      -5.164  -9.634  -6.513  1.00  0.00     0.068 C 
BRANCH  79  80
ATOM     80  C   UNL     1      -5.537  -8.758  -5.341  1.00  0.00    -0.045 A 
ATOM     81  C   UNL     1      -5.489  -7.361  -5.440  1.00  0.00     0.004 A 
ATOM     82  C   UNL     1      -5.915  -9.334  -4.119  1.00  0.00     0.004 A 
ATOM     83  C   UNL     1      -5.822  -6.558  -4.347  1.00  0.00     0.000 A 
ATOM     84  C   UNL     1      -6.247  -8.530  -3.027  1.00  0.00     0.000 A 
ATOM     85  C   UNL     1      -6.203  -7.143  -3.141  1.00  0.00     0.000 A 
ENDBRANCH  79  80
ENDBRANCH  76  79
ENDBRANCH  74  76
ENDBRANCH  72  74
ENDBRANCH  70  71
ENDBRANCH   1  69
TORSDOF 17
ENDMDL
MODEL 2
REMARK VINA RESULT:    -6.875      4.718      9.965
REMARK INTER + INTRA:         -27.409
REMARK INTER:                 -19.686
REMARK INTRA:                  -7.723
REMARK UNBOUND:                -6.869
REMARK SMILES C=C1C(=O)N[C@H](C)C(=O)N[C@@H](CC(C)C)C(=O)N[C@@H](C(=O)O)[C@H](C)C(=O)N[C@@H](CCCN=C(N)N)C(=O)N[C@@H](/C=C/C(C)=C/[C@H](C)[C@H](Cc2ccccc2)OC)[C@H](C)C(=O)N[C@@H](C(=O)O)CCC(=O)N1C
REMARK SMILES IDX 39 1 38 2 37 3 36 4 28 6 27 7 25 8 26 9 23 11 24 12 19 13
REMARK SMILES IDX 18 14 16 15 17 16 11 18 10 19 8 20 9 21 12 24 13 25 14 26
REMARK SMILES IDX 15 27 20 28 21 29 22 30 29 32 30 33 31 34 32 35 33 36 34 37
REMARK SMILES IDX 35 38 57 43 58 44 59 45 60 46 61 47 62 49 66 50 67 51 68 52
REMARK SMILES IDX 69 53 70 54 71 55 2 56 1 57 3 58 4 59 5 60 6 62 7 63 63 65
REMARK SMILES IDX 64 66 65 67 40 69 41 70 42 71 44 72 43 73 45 74 46 75 47 76
REMARK SMILES IDX 55 77 56 78 48 79 49 80 50 81 54 82 51 83 53 84 52 85
REMARK H PARENT 38 5 27 10 18 17 10 22 22 31 34 39 34 40 35 41 35 42 61 48
REMARK H PARENT 5 61 65 68
REMARK Flexibility Score:  369.900
ROOT
ATOM      1  C   UNL     1      -1.536  -0.897  -8.583  1.00  0.00     0.117 C 
ENDROOT
BRANCH   1   2
ATOM      2  N   UNL     1      -2.950  -0.785  -8.942  1.00  0.00    -0.347 N 
ATOM      3  O   UNL     1      -3.360  -3.016  -9.297  1.00  0.00    -0.273 OA
ATOM      4  C   UNL     1      -3.775  -1.867  -9.183  1.00  0.00     0.243 C 
ATOM      5  H   UNL     1      -3.382   0.126  -8.975  1.00  0.00     0.164 HD
BRANCH   4   6
ATOM      6  C   UNL     1      -5.249  -1.478  -9.458  1.00  0.00     0.171 C 
BRANCH   6   7
ATOM      7  N   UNL     1      -6.163  -2.450  -8.837  1.00  0.00    -0.344 N 
ATOM      8  C   UNL     1      -6.881  -3.335  -9.613  1.00  0.00     0.226 C 
ATOM      9  O   UNL     1      -6.816  -3.343 -10.836  1.00  0.00    -0.275 OA
ATOM     10  H   UNL     1      -6.295  -2.428  -7.834  1.00  0.00     0.164 HD
BRANCH   8  11
ATOM     11  C   UNL     1      -7.736  -4.309  -8.822  1.00  0.00     0.109 C 
ATOM     12  C   UNL     1      -9.146  -3.745  -8.642  1.00  0.00     0.021 C 
BRANCH  11  13
ATOM     13  C   UNL     1      -7.674  -5.705  -9.472  1.00  0.00     0.204 C 
BRANCH  13  14
ATOM     14  N   UNL     1      -7.316  -6.748  -8.507  1.00  0.00    -0.340 N 
ATOM     15  C   UNL     1      -6.013  -7.112  -8.246  1.00  0.00     0.243 C 
ATOM     16  O   UNL     1      -5.053  -6.543  -8.762  1.00  0.00    -0.273 OA
ATOM     17  H   UNL     1      -8.062  -7.358  -8.160  1.00  0.00     0.164 HD
BRANCH  15  18
ATOM     18  C   UNL     1      -5.888  -8.370  -7.352  1.00  0.00     0.171 C 
BRANCH  18  19
ATOM     19  N   UNL     1      -5.404  -9.448  -8.212  1.00  0.00    -0.343 N 
ATOM     20  C   UNL     1      -6.083 -10.645  -8.334  1.00  0.00     0.242 CG0
ATOM     21  O   UNL     1      -7.052 -10.910  -7.626  1.00  0.00    -0.273 OA
ATOM     22  H   UNL     1      -4.542  -9.321  -8.731  1.00  0.00     0.164 HD
ATOM     23  G   UNL     1      -5.462 -11.629  -9.347  1.00  0.00     0.000 G0
ENDBRANCH  18  19
BRANCH  18  24
ATOM     24  C   UNL     1      -4.931  -8.111  -6.182  1.00  0.00     0.038 C 
BRANCH  24  25
ATOM     25  C   UNL     1      -5.625  -7.802  -4.839  1.00  0.00    -0.015 C 
ATOM     26  C   UNL     1      -4.792  -6.879  -3.949  1.00  0.00     0.007 C 
ATOM     27  C   UNL     1      -5.916  -9.109  -4.096  1.00  0.00     0.007 C 
ENDBRANCH  24  25
ENDBRANCH  18  24
ENDBRANCH  15  18
ENDBRANCH  13  14
BRANCH  13  28
ATOM     28  C   UNL     1      -8.994  -6.125 -10.127  1.00  0.00     0.327 C 
ATOM     29  O   UNL     1      -9.828  -6.880  -9.651  1.00  0.00    -0.250 OA
BRANCH  28  30
ATOM     30  O   UNL     1      -9.129  -5.666 -11.387  1.00  0.00    -0.480 OA
ATOM     31  H   UNL     1      -8.875  -6.427 -11.950  1.00  0.00     0.296 HD
ENDBRANCH  28  30
ENDBRANCH  13  28
ENDBRANCH  11  13
ENDBRANCH   8  11
ENDBRANCH   6   7
BRANCH   6  32
ATOM     32  C   UNL     1      -5.506  -0.065  -8.921  1.00  0.00     0.037 C 
BRANCH  32  33
ATOM     33  C   UNL     1      -6.056   0.874 -10.003  1.00  0.00     0.026 C 
BRANCH  33  34
ATOM     34  C   UNL     1      -6.286   0.161 -11.336  1.00  0.00     0.146 C 
BRANCH  34  35
ATOM     35  N   UNL     1      -5.618   0.911 -12.391  1.00  0.00    -0.254 NA
ATOM     36  C   UNL     1      -4.515   0.461 -12.860  1.00  0.00     0.185 C 
ATOM     37  N   UNL     1      -3.893   1.140 -13.836  1.00  0.00    -0.370 N 
ATOM     38  N   UNL     1      -3.839  -0.649 -12.513  1.00  0.00    -0.370 N 
ATOM     39  H   UNL     1      -4.346   1.985 -14.161  1.00  0.00     0.159 HD
ATOM     40  H   UNL     1      -3.127   0.770 -14.372  1.00  0.00     0.159 HD
ATOM     41  H   UNL     1      -2.910  -0.823 -12.859  1.00  0.00     0.159 HD
ATOM     42  H   UNL     1      -4.182  -1.250 -11.780  1.00  0.00     0.159 HD
ENDBRANCH  34  35
ENDBRANCH  33  34
ENDBRANCH  32  33
ENDBRANCH   6  32
ENDBRANCH   4   6
ENDBRANCH   1   2
BRANCH   1  43
ATOM     43  C   UNL     1      -1.391  -0.629  -7.057  1.00  0.00     0.102 C 
ATOM     44  C   UNL     1      -1.894  -1.789  -6.181  1.00  0.00     0.020 C 
BRANCH  43  45
ATOM     45  C   UNL     1      -1.978   0.734  -6.680  1.00  0.00     0.225 C 
ATOM     46  O   UNL     1      -3.136   0.885  -6.302  1.00  0.00    -0.275 OA
ATOM     47  N   UNL     1      -1.147   1.813  -6.879  1.00  0.00    -0.342 N 
ATOM     48  H   UNL     1      -0.161   1.662  -7.042  1.00  0.00     0.164 HD
BRANCH  47  49
ATOM     49  C   UNL     1      -1.561   3.175  -6.529  1.00  0.00     0.192 C 
BRANCH  49  50
ATOM     50  C   UNL     1      -2.122   3.877  -7.769  1.00  0.00     0.047 C 
BRANCH  50  51
ATOM     51  C   UNL     1      -2.757   5.233  -7.432  1.00  0.00     0.103 C 
BRANCH  51  52
ATOM     52  C   UNL     1      -3.896   5.098  -6.424  1.00  0.00     0.226 C 
ATOM     53  O   UNL     1      -3.740   5.498  -5.269  1.00  0.00    -0.275 OA
BRANCH  52  54
ATOM     54  N   UNL     1      -5.109   4.579  -6.915  1.00  0.00    -0.311 N 
ATOM     55  C   UNL     1      -5.583   3.250  -6.505  1.00  0.00     0.153 C 
BRANCH  54  56
ATOM     56  C   UNL     1      -5.912   5.311  -7.805  1.00  0.00     0.102 C 
ATOM     57  C   UNL     1      -6.460   4.818  -8.928  1.00  0.00     0.043 C 
BRANCH  56  58
ATOM     58  C   UNL     1      -6.264   6.753  -7.525  1.00  0.00     0.268 C 
ATOM     59  O   UNL     1      -6.787   7.124  -6.483  1.00  0.00    -0.268 OA
ATOM     60  N   UNL     1      -5.879   7.608  -8.530  1.00  0.00    -0.339 N 
ATOM     61  H   UNL     1      -5.461   7.219  -9.367  1.00  0.00     0.164 HD
BRANCH  60  62
ATOM     62  C   UNL     1      -6.068   9.055  -8.436  1.00  0.00     0.168 CG0
ATOM     63  C   UNL     1      -4.787   9.746  -7.984  1.00  0.00     0.041 C 
ATOM     64  G   UNL     1      -7.226   9.363  -7.465  1.00  0.00     0.000 G0
ENDBRANCH  60  62
ENDBRANCH  56  58
ENDBRANCH  54  56
ENDBRANCH  52  54
ENDBRANCH  51  52
ENDBRANCH  50  51
ENDBRANCH  49  50
BRANCH  49  65
ATOM     65  C   UNL     1      -0.391   3.996  -5.965  1.00  0.00     0.326 C 
ATOM     66  O   UNL     1       0.586   4.368  -6.597  1.00  0.00    -0.250 OA
BRANCH  65  67
ATOM     67  O   UNL     1      -0.471   4.255  -4.641  1.00  0.00    -0.480 OA
ATOM     68  H   UNL     1       0.257   3.721  -4.256  1.00  0.00     0.296 HD
ENDBRANCH  65  67
ENDBRANCH  49  65
ENDBRANCH  47  49
ENDBRANCH  43  45
ENDBRANCH   1  43
BRANCH   1  69
ATOM     69  C   UNL     1      -0.780  -0.014  -9.558  1.00  0.00    -0.001 C 
ATOM     70  C   UNL     1      -1.295   0.885 -10.415  1.00  0.00     0.001 C 
BRANCH  70  71
ATOM     71  C   UNL     1      -0.553   1.747 -11.337  1.00  0.00    -0.055 C 
ATOM     72  C   UNL     1       0.754   1.475 -11.537  1.00  0.00    -0.018 C 
ATOM     73  C   UNL     1      -1.301   2.873 -12.003  1.00  0.00     0.044 C 
BRANCH  72  74
ATOM     74  C   UNL     1       1.761   2.187 -12.428  1.00  0.00     0.038 C 
ATOM     75  C   UNL     1       1.879   1.371 -13.721  1.00  0.00     0.015 C 
BRANCH  74  76
ATOM     76  C   UNL     1       3.093   2.359 -11.641  1.00  0.00     0.128 C 
BRANCH  76  77
ATOM     77  O   UNL     1       4.212   2.088 -12.503  1.00  0.00    -0.381 OA
ATOM     78  C   UNL     1       4.949   3.248 -12.863  1.00  0.00     0.195 C 
ENDBRANCH  76  77
BRANCH  76  79
ATOM     79  C   UNL     1       3.219   3.717 -10.905  1.00  0.00     0.068 C 
BRANCH  79  80
ATOM     80  C   UNL     1       2.062   4.682 -10.999  1.00  0.00    -0.045 A 
ATOM     81  C   UNL     1       1.879   5.480 -12.136  1.00  0.00     0.004 A 
ATOM     82  C   UNL     1       1.163   4.814  -9.930  1.00  0.00     0.004 A 
ATOM     83  C   UNL     1       0.814   6.381 -12.209  1.00  0.00     0.000 A 
ATOM     84  C   UNL     1       0.099   5.716 -10.004  1.00  0.00     0.000 A 
ATOM     85  C   UNL     1      -0.076   6.497 -11.144  1.00  0.00     0.000 A 
ENDBRANCH  79  80
ENDBRANCH  76  79
ENDBRANCH  74  76
ENDBRANCH  72  74
ENDBRANCH  70  71
ENDBRANCH   1  69
TORSDOF 17
ENDMDL
MODEL 3
REMARK VINA RESULT:    -6.789      3.784      9.246
REMARK INTER + INTRA:         -27.152
REMARK INTER:                 -18.220
REMARK INTRA:                  -8.932
REMARK UNBOUND:                -6.869
REMARK SMILES C=C1C(=O)N[C@H](C)C(=O)N[C@@H](CC(C)C)C(=O)N[C@@H](C(=O)O)[C@H](C)C(=O)N[C@@H](CCCN=C(N)N)C(=O)N[C@@H](/C=C/C(C)=C/[C@H](C)[C@H](Cc2ccccc2)OC)[C@H](C)C(=O)N[C@@H](C(=O)O)CCC(=O)N1C
REMARK SMILES IDX 39 1 38 2 37 3 36 4 28 6 27 7 25 8 26 9 23 11 24 12 19 13
REMARK SMILES IDX 18 14 16 15 17 16 11 18 10 19 8 20 9 21 12 24 13 25 14 26
REMARK SMILES IDX 15 27 20 28 21 29 22 30 29 32 30 33 31 34 32 35 33 36 34 37
REMARK SMILES IDX 35 38 57 43 58 44 59 45 60 46 61 47 62 49 66 50 67 51 68 52
REMARK SMILES IDX 69 53 70 54 71 55 2 56 1 57 3 58 4 59 5 60 6 62 7 63 63 65
REMARK SMILES IDX 64 66 65 67 40 69 41 70 42 71 44 72 43 73 45 74 46 75 47 76
REMARK SMILES IDX 55 77 56 78 48 79 49 80 50 81 54 82 51 83 53 84 52 85
REMARK H PARENT 38 5 27 10 18 17 10 22 22 31 34 39 34 40 35 41 35 42 61 48
REMARK H PARENT 5 61 65 68
REMARK Flexibility Score:  369.900
ROOT
ATOM      1  C   UNL     1      -0.428   0.094  -8.379  1.00  0.00     0.117 C 
ENDROOT
BRANCH   1   2
ATOM      2  N   UNL     1      -1.500  -0.518  -9.165  1.00  0.00    -0.347 N 
ATOM      3  O   UNL     1      -1.871  -2.342  -7.823  1.00  0.00    -0.273 OA
ATOM      4  C   UNL     1      -2.200  -1.643  -8.774  1.00  0.00     0.243 C 
ATOM      5  H   UNL     1      -1.795  -0.079 -10.025  1.00  0.00     0.164 HD
BRANCH   4   6
ATOM      6  C   UNL     1      -3.343  -2.034  -9.746  1.00  0.00     0.171 C 
BRANCH   6   7
ATOM      7  N   UNL     1      -4.640  -1.571  -9.227  1.00  0.00    -0.344 N 
ATOM      8  C   UNL     1      -5.689  -2.451  -9.072  1.00  0.00     0.226 C 
ATOM      9  O   UNL     1      -5.607  -3.636  -9.372  1.00  0.00    -0.275 OA
ATOM     10  H   UNL     1      -4.767  -0.586  -9.032  1.00  0.00     0.164 HD
BRANCH   8  11
ATOM     11  C   UNL     1      -6.941  -1.832  -8.476  1.00  0.00     0.109 C 
ATOM     12  C   UNL     1      -8.171  -2.258  -9.277  1.00  0.00     0.021 C 
BRANCH  11  13
ATOM     13  C   UNL     1      -7.010  -2.145  -6.968  1.00  0.00     0.204 C 
BRANCH  13  14
ATOM     14  N   UNL     1      -6.334  -3.402  -6.633  1.00  0.00    -0.340 N 
ATOM     15  C   UNL     1      -7.015  -4.542  -6.263  1.00  0.00     0.243 C 
ATOM     16  O   UNL     1      -8.243  -4.601  -6.245  1.00  0.00    -0.273 OA
ATOM     17  H   UNL     1      -5.322  -3.378  -6.482  1.00  0.00     0.164 HD
BRANCH  15  18
ATOM     18  C   UNL     1      -6.090  -5.677  -5.757  1.00  0.00     0.171 C 
BRANCH  18  19
ATOM     19  N   UNL     1      -6.887  -6.487  -4.837  1.00  0.00    -0.343 N 
ATOM     20  C   UNL     1      -6.927  -6.223  -3.482  1.00  0.00     0.242 CG0
ATOM     21  O   UNL     1      -6.194  -5.382  -2.968  1.00  0.00    -0.273 OA
ATOM     22  H   UNL     1      -7.422  -7.268  -5.199  1.00  0.00     0.164 HD
ATOM     23  G   UNL     1      -7.883  -7.134  -2.684  1.00  0.00     0.000 G0
ENDBRANCH  18  19
BRANCH  18  24
ATOM     24  C   UNL     1      -5.566  -6.512  -6.931  1.00  0.00     0.038 C 
BRANCH  24  25
ATOM     25  C   UNL     1      -4.038  -6.726  -6.938  1.00  0.00    -0.015 C 
ATOM     26  C   UNL     1      -3.289  -5.582  -7.623  1.00  0.00     0.007 C 
ATOM     27  C   UNL     1      -3.706  -8.049  -7.635  1.00  0.00     0.007 C 
ENDBRANCH  24  25
ENDBRANCH  18  24
ENDBRANCH  15  18
ENDBRANCH  13  14
BRANCH  13  28
ATOM     28  C   UNL     1      -6.389  -1.049  -6.095  1.00  0.00     0.327 C 
ATOM     29  O   UNL     1      -6.491  -0.947  -4.882  1.00  0.00    -0.250 OA
BRANCH  28  30
ATOM     30  O   UNL     1      -5.778  -0.085  -6.813  1.00  0.00    -0.480 OA
ATOM     31  H   UNL     1      -5.133   0.308  -6.188  1.00  0.00     0.296 HD
ENDBRANCH  28  30
ENDBRANCH  13  28
ENDBRANCH  11  13
ENDBRANCH   8  11
ENDBRANCH   6   7
BRANCH   6  32
ATOM     32  C   UNL     1      -3.058  -1.432 -11.126  1.00  0.00     0.037 C 
BRANCH  32  33
ATOM     33  C   UNL     1      -4.284  -1.493 -12.048  1.00  0.00     0.026 C 
BRANCH  33  34
ATOM     34  C   UNL     1      -4.737  -0.107 -12.511  1.00  0.00     0.146 C 
BRANCH  34  35
ATOM     35  N   UNL     1      -5.257   0.624 -11.364  1.00  0.00    -0.254 NA
ATOM     36  C   UNL     1      -6.527   0.729 -11.226  1.00  0.00     0.185 C 
ATOM     37  N   UNL     1      -7.017   1.397 -10.170  1.00  0.00    -0.370 N 
ATOM     38  N   UNL     1      -7.504   0.249 -12.015  1.00  0.00    -0.370 N 
ATOM     39  H   UNL     1      -6.341   1.781  -9.522  1.00  0.00     0.159 HD
ATOM     40  H   UNL     1      -7.985   1.375  -9.899  1.00  0.00     0.159 HD
ATOM     41  H   UNL     1      -8.465   0.517 -11.875  1.00  0.00     0.159 HD
ATOM     42  H   UNL     1      -7.281  -0.262 -12.855  1.00  0.00     0.159 HD
ENDBRANCH  34  35
ENDBRANCH  33  34
ENDBRANCH  32  33
ENDBRANCH   6  32
ENDBRANCH   4   6
ENDBRANCH   1   2
BRANCH   1  43
ATOM     43  C   UNL     1      -0.999   1.349  -7.657  1.00  0.00     0.102 C 
ATOM     44  C   UNL     1      -1.884   1.009  -6.446  1.00  0.00     0.020 C 
BRANCH  43  45
ATOM     45  C   UNL     1      -1.654   2.308  -8.655  1.00  0.00     0.225 C 
ATOM     46  O   UNL     1      -2.718   2.067  -9.217  1.00  0.00    -0.275 OA
ATOM     47  N   UNL     1      -0.923   3.433  -8.963  1.00  0.00    -0.342 N 
ATOM     48  H   UNL     1      -0.134   3.690  -8.387  1.00  0.00     0.164 HD
BRANCH  47  49
ATOM     49  C   UNL     1      -1.441   4.457  -9.876  1.00  0.00     0.192 C 
BRANCH  49  50
ATOM     50  C   UNL     1      -0.476   4.634 -11.051  1.00  0.00     0.047 C 
BRANCH  50  51
ATOM     51  C   UNL     1      -0.969   3.926 -12.320  1.00  0.00     0.103 C 
BRANCH  51  52
ATOM     52  C   UNL     1      -0.577   4.682 -13.588  1.00  0.00     0.226 C 
ATOM     53  O   UNL     1       0.209   4.169 -14.386  1.00  0.00    -0.275 OA
BRANCH  52  54
ATOM     54  N   UNL     1      -1.214   5.919 -13.803  1.00  0.00    -0.311 N 
ATOM     55  C   UNL     1      -2.677   6.008 -13.899  1.00  0.00     0.153 C 
BRANCH  54  56
ATOM     56  C   UNL     1      -0.480   7.110 -13.927  1.00  0.00     0.102 C 
ATOM     57  C   UNL     1       0.452   7.343 -14.865  1.00  0.00     0.043 C 
BRANCH  56  58
ATOM     58  C   UNL     1      -0.732   8.276 -13.001  1.00  0.00     0.268 C 
ATOM     59  O   UNL     1      -0.982   8.143 -11.810  1.00  0.00    -0.268 OA
ATOM     60  N   UNL     1      -0.587   9.496 -13.616  1.00  0.00    -0.339 N 
ATOM     61  H   UNL     1      -0.389   9.520 -14.610  1.00  0.00     0.164 HD
BRANCH  60  62
ATOM     62  C   UNL     1      -0.725  10.757 -12.889  1.00  0.00     0.168 CG0
ATOM     63  C   UNL     1      -0.285  11.935 -13.749  1.00  0.00     0.041 C 
ATOM     64  G   UNL     1       0.098  10.695 -11.586  1.00  0.00     0.000 G0
ENDBRANCH  60  62
ENDBRANCH  56  58
ENDBRANCH  54  56
ENDBRANCH  52  54
ENDBRANCH  51  52
ENDBRANCH  50  51
ENDBRANCH  49  50
BRANCH  49  65
ATOM     65  C   UNL     1      -1.630   5.806  -9.165  1.00  0.00     0.326 C 
ATOM     66  O   UNL     1      -2.531   6.079  -8.386  1.00  0.00    -0.250 OA
BRANCH  65  67
ATOM     67  O   UNL     1      -0.730   6.754  -9.507  1.00  0.00    -0.480 OA
ATOM     68  H   UNL     1      -0.654   7.304  -8.697  1.00  0.00     0.296 HD
ENDBRANCH  65  67
ENDBRANCH  49  65
ENDBRANCH  47  49
ENDBRANCH  43  45
ENDBRANCH   1  43
BRANCH   1  69
ATOM     69  C   UNL     1       0.747   0.263  -9.324  1.00  0.00    -0.001 C 
ATOM     70  C   UNL     1       0.722   0.730 -10.585  1.00  0.00     0.001 C 
BRANCH  70  71
ATOM     71  C   UNL     1       1.867   0.909 -11.480  1.00  0.00    -0.055 C 
ATOM     72  C   UNL     1       1.625   1.383 -12.721  1.00  0.00    -0.018 C 
ATOM     73  C   UNL     1       3.233   0.559 -10.951  1.00  0.00     0.044 C 
BRANCH  72  74
ATOM     74  C   UNL     1       2.605   1.668 -13.850  1.00  0.00     0.038 C 
ATOM     75  C   UNL     1       3.086   0.314 -14.385  1.00  0.00     0.015 C 
BRANCH  74  76
ATOM     76  C   UNL     1       3.734   2.596 -13.311  1.00  0.00     0.128 C 
BRANCH  76  77
ATOM     77  O   UNL     1       4.987   2.253 -13.928  1.00  0.00    -0.381 OA
ATOM     78  C   UNL     1       5.989   3.250 -13.776  1.00  0.00     0.195 C 
ENDBRANCH  76  77
BRANCH  76  79
ATOM     79  C   UNL     1       3.409   4.107 -13.412  1.00  0.00     0.068 C 
BRANCH  79  80
ATOM     80  C   UNL     1       3.143   4.861 -12.132  1.00  0.00    -0.045 A 
ATOM     81  C   UNL     1       2.737   6.202 -12.154  1.00  0.00     0.004 A 
ATOM     82  C   UNL     1       3.326   4.233 -10.891  1.00  0.00     0.004 A 
ATOM     83  C   UNL     1       2.507   6.896 -10.965  1.00  0.00     0.000 A 
ATOM     84  C   UNL     1       3.096   4.928  -9.701  1.00  0.00     0.000 A 
ATOM     85  C   UNL     1       2.685   6.259  -9.739  1.00  0.00     0.000 A 
ENDBRANCH  79  80
ENDBRANCH  76  79
ENDBRANCH  74  76
ENDBRANCH  72  74
ENDBRANCH  70  71
ENDBRANCH   1  69
TORSDOF 17
ENDMDL
MODEL 4
REMARK VINA RESULT:    -6.685      5.704     13.902
REMARK INTER + INTRA:         -26.840
REMARK INTER:                 -18.620
REMARK INTRA:                  -8.220
REMARK UNBOUND:                -6.869
REMARK SMILES C=C1C(=O)N[C@H](C)C(=O)N[C@@H](CC(C)C)C(=O)N[C@@H](C(=O)O)[C@H](C)C(=O)N[C@@H](CCCN=C(N)N)C(=O)N[C@@H](/C=C/C(C)=C/[C@H](C)[C@H](Cc2ccccc2)OC)[C@H](C)C(=O)N[C@@H](C(=O)O)CCC(=O)N1C
REMARK SMILES IDX 39 1 38 2 37 3 36 4 28 6 27 7 25 8 26 9 23 11 24 12 19 13
REMARK SMILES IDX 18 14 16 15 17 16 11 18 10 19 8 20 9 21 12 24 13 25 14 26
REMARK SMILES IDX 15 27 20 28 21 29 22 30 29 32 30 33 31 34 32 35 33 36 34 37
REMARK SMILES IDX 35 38 57 43 58 44 59 45 60 46 61 47 62 49 66 50 67 51 68 52
REMARK SMILES IDX 69 53 70 54 71 55 2 56 1 57 3 58 4 59 5 60 6 62 7 63 63 65
REMARK SMILES IDX 64 66 65 67 40 69 41 70 42 71 44 72 43 73 45 74 46 75 47 76
REMARK SMILES IDX 55 77 56 78 48 79 49 80 50 81 54 82 51 83 53 84 52 85
REMARK H PARENT 38 5 27 10 18 17 10 22 22 31 34 39 34 40 35 41 35 42 61 48
REMARK H PARENT 5 61 65 68
REMARK Flexibility Score:  369.900
ROOT
ATOM      1  C   UNL     1     -10.850  -5.096  -0.234  1.00  0.00     0.117 C 
ENDROOT
BRANCH   1   2
ATOM      2  N   UNL     1     -10.038  -4.378  -1.218  1.00  0.00    -0.347 N 
ATOM      3  O   UNL     1     -10.412  -5.768  -3.006  1.00  0.00    -0.273 OA
ATOM      4  C   UNL     1      -9.958  -4.723  -2.553  1.00  0.00     0.243 C 
ATOM      5  H   UNL     1      -9.537  -3.550  -0.935  1.00  0.00     0.164 HD
BRANCH   4   6
ATOM      6  C   UNL     1      -9.098  -3.748  -3.398  1.00  0.00     0.171 C 
BRANCH   6   7
ATOM      7  N   UNL     1      -9.545  -3.751  -4.800  1.00  0.00    -0.344 N 
ATOM      8  C   UNL     1      -8.632  -3.852  -5.828  1.00  0.00     0.226 C 
ATOM      9  O   UNL     1      -7.424  -3.921  -5.634  1.00  0.00    -0.275 OA
ATOM     10  H   UNL     1     -10.529  -3.628  -5.002  1.00  0.00     0.164 HD
BRANCH   8  11
ATOM     11  C   UNL     1      -9.253  -3.896  -7.213  1.00  0.00     0.109 C 
ATOM     12  C   UNL     1     -10.255  -2.754  -7.377  1.00  0.00     0.021 C 
BRANCH  11  13
ATOM     13  C   UNL     1      -8.142  -3.942  -8.281  1.00  0.00     0.204 C 
BRANCH  13  14
ATOM     14  N   UNL     1      -7.306  -5.141  -8.157  1.00  0.00    -0.340 N 
ATOM     15  C   UNL     1      -5.970  -5.160  -8.495  1.00  0.00     0.243 C 
ATOM     16  O   UNL     1      -5.369  -4.154  -8.868  1.00  0.00    -0.273 OA
ATOM     17  H   UNL     1      -7.774  -6.038  -8.001  1.00  0.00     0.164 HD
BRANCH  15  18
ATOM     18  C   UNL     1      -5.349  -6.578  -8.480  1.00  0.00     0.171 C 
BRANCH  18  19
ATOM     19  N   UNL     1      -4.210  -6.526  -7.565  1.00  0.00    -0.343 N 
ATOM     20  C   UNL     1      -2.911  -6.681  -8.009  1.00  0.00     0.242 CG0
ATOM     21  O   UNL     1      -2.661  -7.001  -9.169  1.00  0.00    -0.273 OA
ATOM     22  H   UNL     1      -4.373  -6.379  -6.576  1.00  0.00     0.164 HD
ATOM     23  G   UNL     1      -1.839  -6.517  -6.912  1.00  0.00     0.000 G0
ENDBRANCH  18  19
BRANCH  18  24
ATOM     24  C   UNL     1      -6.383  -7.618  -8.031  1.00  0.00     0.038 C 
BRANCH  24  25
ATOM     25  C   UNL     1      -6.140  -9.043  -8.571  1.00  0.00    -0.015 C 
ATOM     26  C   UNL     1      -5.317  -9.901  -7.609  1.00  0.00     0.007 C 
ATOM     27  C   UNL     1      -5.433  -8.966  -9.927  1.00  0.00     0.007 C 
ENDBRANCH  24  25
ENDBRANCH  18  24
ENDBRANCH  15  18
ENDBRANCH  13  14
BRANCH  13  28
ATOM     28  C   UNL     1      -8.681  -3.911  -9.714  1.00  0.00     0.327 C 
ATOM     29  O   UNL     1      -8.465  -3.045 -10.549  1.00  0.00    -0.250 OA
BRANCH  28  30
ATOM     30  O   UNL     1      -9.553  -4.907  -9.973  1.00  0.00    -0.480 OA
ATOM     31  H   UNL     1     -10.013  -4.618 -10.788  1.00  0.00     0.296 HD
ENDBRANCH  28  30
ENDBRANCH  13  28
ENDBRANCH  11  13
ENDBRANCH   8  11
ENDBRANCH   6   7
BRANCH   6  32
ATOM     32  C   UNL     1      -9.194  -2.342  -2.796  1.00  0.00     0.037 C 
BRANCH  32  33
ATOM     33  C   UNL     1     -10.411  -1.568  -3.321  1.00  0.00     0.026 C 
BRANCH  33  34
ATOM     34  C   UNL     1     -10.026  -0.234  -3.961  1.00  0.00     0.146 C 
BRANCH  34  35
ATOM     35  N   UNL     1      -9.050  -0.483  -5.014  1.00  0.00    -0.254 NA
ATOM     36  C   UNL     1      -8.222   0.446  -5.315  1.00  0.00     0.185 C 
ATOM     37  N   UNL     1      -7.315   0.226  -6.280  1.00  0.00    -0.370 N 
ATOM     38  N   UNL     1      -8.106   1.679  -4.790  1.00  0.00    -0.370 N 
ATOM     39  H   UNL     1      -7.331  -0.686  -6.719  1.00  0.00     0.159 HD
ATOM     40  H   UNL     1      -6.530   0.830  -6.453  1.00  0.00     0.159 HD
ATOM     41  H   UNL     1      -7.505   2.369  -5.208  1.00  0.00     0.159 HD
ATOM     42  H   UNL     1      -8.735   1.988  -4.065  1.00  0.00     0.159 HD
ENDBRANCH  34  35
ENDBRANCH  33  34
ENDBRANCH  32  33
ENDBRANCH   6  32
ENDBRANCH   4   6
ENDBRANCH   1   2
BRANCH   1  43
ATOM     43  C   UNL     1     -11.391  -4.071   0.804  1.00  0.00     0.102 C 
ATOM     44  C   UNL     1     -12.097  -2.865   0.161  1.00  0.00     0.020 C 
BRANCH  43  45
ATOM     45  C   UNL     1     -10.308  -3.690   1.817  1.00  0.00     0.225 C 
ATOM     46  O   UNL     1      -9.289  -3.077   1.511  1.00  0.00    -0.275 OA
ATOM     47  N   UNL     1     -10.500  -4.161   3.095  1.00  0.00    -0.342 N 
ATOM     48  H   UNL     1     -11.404  -4.526   3.363  1.00  0.00     0.164 HD
BRANCH  47  49
ATOM     49  C   UNL     1      -9.564  -3.845   4.178  1.00  0.00     0.192 C 
BRANCH  49  50
ATOM     50  C   UNL     1      -9.338  -5.088   5.042  1.00  0.00     0.047 C 
BRANCH  50  51
ATOM     51  C   UNL     1     -10.232  -6.261   4.620  1.00  0.00     0.103 C 
BRANCH  51  52
ATOM     52  C   UNL     1     -11.345  -6.526   5.631  1.00  0.00     0.226 C 
ATOM     53  O   UNL     1     -11.414  -5.844   6.656  1.00  0.00    -0.275 OA
BRANCH  52  54
ATOM     54  N   UNL     1     -12.289  -7.510   5.281  1.00  0.00    -0.311 N 
ATOM     55  C   UNL     1     -13.035  -7.426   4.018  1.00  0.00     0.153 C 
BRANCH  54  56
ATOM     56  C   UNL     1     -12.549  -8.607   6.119  1.00  0.00     0.102 C 
ATOM     57  C   UNL     1     -12.127  -9.862   5.896  1.00  0.00     0.043 C 
BRANCH  56  58
ATOM     58  C   UNL     1     -13.318  -8.432   7.408  1.00  0.00     0.268 C 
ATOM     59  O   UNL     1     -13.136  -9.131   8.396  1.00  0.00    -0.268 OA
ATOM     60  N   UNL     1     -14.190  -7.371   7.378  1.00  0.00    -0.339 N 
ATOM     61  H   UNL     1     -14.290  -6.847   6.516  1.00  0.00     0.164 HD
BRANCH  60  62
ATOM     62  C   UNL     1     -14.988  -6.985   8.540  1.00  0.00     0.168 CG0
ATOM     63  C   UNL     1     -16.372  -7.621   8.489  1.00  0.00     0.041 C 
ATOM     64  G   UNL     1     -15.096  -5.448   8.606  1.00  0.00     0.000 G0
ENDBRANCH  60  62
ENDBRANCH  56  58
ENDBRANCH  54  56
ENDBRANCH  52  54
ENDBRANCH  51  52
ENDBRANCH  50  51
ENDBRANCH  49  50
BRANCH  49  65
ATOM     65  C   UNL     1     -10.084  -2.699   5.060  1.00  0.00     0.326 C 
ATOM     66  O   UNL     1      -9.612  -1.572   5.113  1.00  0.00    -0.250 OA
BRANCH  65  67
ATOM     67  O   UNL     1     -11.115  -3.032   5.867  1.00  0.00    -0.480 OA
ATOM     68  H   UNL     1     -11.265  -3.982   5.671  1.00  0.00     0.296 HD
ENDBRANCH  65  67
ENDBRANCH  49  65
ENDBRANCH  47  49
ENDBRANCH  43  45
ENDBRANCH   1  43
BRANCH   1  69
ATOM     69  C   UNL     1      -9.999  -6.254   0.254  1.00  0.00    -0.001 C 
ATOM     70  C   UNL     1     -10.397  -7.307   0.989  1.00  0.00     0.001 C 
BRANCH  70  71
ATOM     71  C   UNL     1      -9.570  -8.430   1.436  1.00  0.00    -0.055 C 
ATOM     72  C   UNL     1      -8.357  -8.583   0.865  1.00  0.00    -0.018 C 
ATOM     73  C   UNL     1     -10.129  -9.331   2.507  1.00  0.00     0.044 C 
BRANCH  72  74
ATOM     74  C   UNL     1      -7.295  -9.641   1.129  1.00  0.00     0.038 C 
ATOM     75  C   UNL     1      -6.345  -9.075   2.192  1.00  0.00     0.015 C 
BRANCH  74  76
ATOM     76  C   UNL     1      -6.615 -10.015  -0.221  1.00  0.00     0.128 C 
BRANCH  76  77
ATOM     77  O   UNL     1      -6.249 -11.405  -0.218  1.00  0.00    -0.381 OA
ATOM     78  C   UNL     1      -5.025 -11.675  -0.888  1.00  0.00     0.195 C 
ENDBRANCH  76  77
BRANCH  76  79
ATOM     79  C   UNL     1      -7.437  -9.614  -1.472  1.00  0.00     0.068 C 
BRANCH  79  80
ATOM     80  C   UNL     1      -6.838  -8.599  -2.416  1.00  0.00    -0.045 A 
ATOM     81  C   UNL     1      -7.047  -7.227  -2.226  1.00  0.00     0.004 A 
ATOM     82  C   UNL     1      -6.082  -9.020  -3.520  1.00  0.00     0.004 A 
ATOM     83  C   UNL     1      -6.502  -6.294  -3.112  1.00  0.00     0.000 A 
ATOM     84  C   UNL     1      -5.538  -8.086  -4.405  1.00  0.00     0.000 A 
ATOM     85  C   UNL     1      -5.747  -6.725  -4.200  1.00  0.00     0.000 A 
ENDBRANCH  79  80
ENDBRANCH  76  79
ENDBRANCH  74  76
ENDBRANCH  72  74
ENDBRANCH  70  71
ENDBRANCH   1  69
TORSDOF 17
ENDMDL
MODEL 5
REMARK VINA RESULT:    -6.677      4.277     13.488
REMARK INTER + INTRA:         -26.818
REMARK INTER:                 -20.928
REMARK INTRA:                  -5.890
REMARK UNBOUND:                -6.869
REMARK SMILES C=C1C(=O)N[C@H](C)C(=O)N[C@@H](CC(C)C)C(=O)N[C@@H](C(=O)O)[C@H](C)C(=O)N[C@@H](CCCN=C(N)N)C(=O)N[C@@H](/C=C/C(C)=C/[C@H](C)[C@H](Cc2ccccc2)OC)[C@H](C)C(=O)N[C@@H](C(=O)O)CCC(=O)N1C
REMARK SMILES IDX 39 1 38 2 37 3 36 4 28 6 27 7 25 8 26 9 23 11 24 12 19 13
REMARK SMILES IDX 18 14 16 15 17 16 11 18 10 19 8 20 9 21 12 24 13 25 14 26
REMARK SMILES IDX 15 27 20 28 21 29 22 30 29 32 30 33 31 34 32 35 33 36 34 37
REMARK SMILES IDX 35 38 57 43 58 44 59 45 60 46 61 47 62 49 66 50 67 51 68 52
REMARK SMILES IDX 69 53 70 54 71 55 2 56 1 57 3 58 4 59 5 60 6 62 7 63 63 65
REMARK SMILES IDX 64 66 65 67 40 69 41 70 42 71 44 72 43 73 45 74 46 75 47 76
REMARK SMILES IDX 55 77 56 78 48 79 49 80 50 81 54 82 51 83 53 84 52 85
REMARK H PARENT 38 5 27 10 18 17 10 22 22 31 34 39 34 40 35 41 35 42 61 48
REMARK H PARENT 5 61 65 68
REMARK Flexibility Score:  369.900
ROOT
ATOM      1  C   UNL     1      -8.040  -6.751  -3.115  1.00  0.00     0.117 C 
ENDROOT
BRANCH   1   2
ATOM      2  N   UNL     1      -8.399  -5.406  -2.662  1.00  0.00    -0.347 N 
ATOM      3  O   UNL     1      -6.321  -4.756  -1.936  1.00  0.00    -0.273 OA
ATOM      4  C   UNL     1      -7.488  -4.480  -2.191  1.00  0.00     0.243 C 
ATOM      5  H   UNL     1      -9.357  -5.099  -2.735  1.00  0.00     0.164 HD
BRANCH   4   6
ATOM      6  C   UNL     1      -8.116  -3.103  -1.858  1.00  0.00     0.171 C 
BRANCH   6   7
ATOM      7  N   UNL     1      -8.838  -2.571  -3.024  1.00  0.00    -0.344 N 
ATOM      8  C   UNL     1      -8.202  -1.754  -3.933  1.00  0.00     0.226 C 
ATOM      9  O   UNL     1      -7.031  -1.414  -3.809  1.00  0.00    -0.275 OA
ATOM     10  H   UNL     1      -9.825  -2.774  -3.125  1.00  0.00     0.164 HD
BRANCH   8  11
ATOM     11  C   UNL     1      -9.066  -1.333  -5.108  1.00  0.00     0.109 C 
ATOM     12  C   UNL     1      -8.945   0.174  -5.337  1.00  0.00     0.021 C 
BRANCH  11  13
ATOM     13  C   UNL     1      -8.736  -2.204  -6.337  1.00  0.00     0.204 C 
BRANCH  13  14
ATOM     14  N   UNL     1      -7.293  -2.414  -6.492  1.00  0.00    -0.340 N 
ATOM     15  C   UNL     1      -6.540  -1.762  -7.445  1.00  0.00     0.243 C 
ATOM     16  O   UNL     1      -7.016  -0.911  -8.193  1.00  0.00    -0.273 OA
ATOM     17  H   UNL     1      -6.869  -3.211  -6.010  1.00  0.00     0.164 HD
BRANCH  15  18
ATOM     18  C   UNL     1      -5.091  -2.295  -7.559  1.00  0.00     0.171 C 
BRANCH  18  19
ATOM     19  N   UNL     1      -4.651  -2.023  -8.925  1.00  0.00    -0.343 N 
ATOM     20  C   UNL     1      -3.839  -2.900  -9.618  1.00  0.00     0.242 CG0
ATOM     21  O   UNL     1      -3.341  -3.883  -9.074  1.00  0.00    -0.273 OA
ATOM     22  H   UNL     1      -4.942  -1.164  -9.380  1.00  0.00     0.164 HD
ATOM     23  G   UNL     1      -3.544  -2.480 -11.073  1.00  0.00     0.000 G0
ENDBRANCH  18  19
BRANCH  18  24
ATOM     24  C   UNL     1      -4.181  -1.615  -6.529  1.00  0.00     0.038 C 
BRANCH  24  25
ATOM     25  C   UNL     1      -2.980  -0.856  -7.132  1.00  0.00    -0.015 C 
ATOM     26  C   UNL     1      -1.645  -1.540  -6.832  1.00  0.00     0.007 C 
ATOM     27  C   UNL     1      -2.955   0.578  -6.596  1.00  0.00     0.007 C 
ENDBRANCH  24  25
ENDBRANCH  18  24
ENDBRANCH  15  18
ENDBRANCH  13  14
BRANCH  13  28
ATOM     28  C   UNL     1      -9.394  -3.586  -6.291  1.00  0.00     0.327 C 
ATOM     29  O   UNL     1      -9.583  -4.264  -5.292  1.00  0.00    -0.250 OA
BRANCH  28  30
ATOM     30  O   UNL     1      -9.665  -4.084  -7.515  1.00  0.00    -0.480 OA
ATOM     31  H   UNL     1      -8.990  -3.676  -8.096  1.00  0.00     0.296 HD
ENDBRANCH  28  30
ENDBRANCH  13  28
ENDBRANCH  11  13
ENDBRANCH   8  11
ENDBRANCH   6   7
BRANCH   6  32
ATOM     32  C   UNL     1      -9.054  -3.255  -0.655  1.00  0.00     0.037 C 
BRANCH  32  33
ATOM     33  C   UNL     1      -9.742  -1.933  -0.287  1.00  0.00     0.026 C 
BRANCH  33  34
ATOM     34  C   UNL     1     -10.918  -2.133   0.671  1.00  0.00     0.146 C 
BRANCH  34  35
ATOM     35  N   UNL     1     -11.880  -3.033   0.051  1.00  0.00    -0.254 NA
ATOM     36  C   UNL     1     -12.520  -3.856   0.796  1.00  0.00     0.185 C 
ATOM     37  N   UNL     1     -13.413  -4.686   0.237  1.00  0.00    -0.370 N 
ATOM     38  N   UNL     1     -12.436  -4.031   2.127  1.00  0.00    -0.370 N 
ATOM     39  H   UNL     1     -13.541  -4.608  -0.764  1.00  0.00     0.159 HD
ATOM     40  H   UNL     1     -14.072  -5.232   0.765  1.00  0.00     0.159 HD
ATOM     41  H   UNL     1     -12.890  -4.807   2.580  1.00  0.00     0.159 HD
ATOM     42  H   UNL     1     -11.791  -3.484   2.677  1.00  0.00     0.159 HD
ENDBRANCH  34  35
ENDBRANCH  33  34
ENDBRANCH  32  33
ENDBRANCH   6  32
ENDBRANCH   4   6
ENDBRANCH   1   2
BRANCH   1  43
ATOM     43  C   UNL     1      -7.480  -7.549  -1.903  1.00  0.00     0.102 C 
ATOM     44  C   UNL     1      -6.859  -8.900  -2.295  1.00  0.00     0.020 C 
BRANCH  43  45
ATOM     45  C   UNL     1      -8.518  -7.645  -0.781  1.00  0.00     0.225 C 
ATOM     46  O   UNL     1      -9.728  -7.677  -0.987  1.00  0.00    -0.275 OA
ATOM     47  N   UNL     1      -8.013  -7.598   0.499  1.00  0.00    -0.342 N 
ATOM     48  H   UNL     1      -7.022  -7.725   0.650  1.00  0.00     0.164 HD
BRANCH  47  49
ATOM     49  C   UNL     1      -8.885  -7.715   1.671  1.00  0.00     0.192 C 
BRANCH  49  50
ATOM     50  C   UNL     1      -9.628  -9.053   1.629  1.00  0.00     0.047 C 
BRANCH  50  51
ATOM     51  C   UNL     1      -9.720  -9.712   3.012  1.00  0.00     0.103 C 
BRANCH  51  52
ATOM     52  C   UNL     1     -11.050  -9.415   3.701  1.00  0.00     0.226 C 
ATOM     53  O   UNL     1     -12.107  -9.629   3.104  1.00  0.00    -0.275 OA
BRANCH  52  54
ATOM     54  N   UNL     1     -10.981  -8.975   5.036  1.00  0.00    -0.311 N 
ATOM     55  C   UNL     1      -9.975  -7.991   5.456  1.00  0.00     0.153 C 
BRANCH  54  56
ATOM     56  C   UNL     1     -11.870  -9.454   6.012  1.00  0.00     0.102 C 
ATOM     57  C   UNL     1     -11.814 -10.675   6.570  1.00  0.00     0.043 C 
BRANCH  56  58
ATOM     58  C   UNL     1     -12.971  -8.574   6.556  1.00  0.00     0.268 C 
ATOM     59  O   UNL     1     -13.383  -7.580   5.974  1.00  0.00    -0.268 OA
ATOM     60  N   UNL     1     -13.503  -9.042   7.734  1.00  0.00    -0.339 N 
ATOM     61  H   UNL     1     -13.098  -9.868   8.158  1.00  0.00     0.164 HD
BRANCH  60  62
ATOM     62  C   UNL     1     -14.621  -8.376   8.402  1.00  0.00     0.168 CG0
ATOM     63  C   UNL     1     -14.123  -7.339   9.400  1.00  0.00     0.041 C 
ATOM     64  G   UNL     1     -15.505  -9.429   9.103  1.00  0.00     0.000 G0
ENDBRANCH  60  62
ENDBRANCH  56  58
ENDBRANCH  54  56
ENDBRANCH  52  54
ENDBRANCH  51  52
ENDBRANCH  50  51
ENDBRANCH  49  50
BRANCH  49  65
ATOM     65  C   UNL     1      -9.906  -6.569   1.735  1.00  0.00     0.326 C 
ATOM     66  O   UNL     1      -9.665  -5.421   2.080  1.00  0.00    -0.250 OA
BRANCH  65  67
ATOM     67  O   UNL     1     -11.173  -6.924   1.426  1.00  0.00    -0.480 OA
ATOM     68  H   UNL     1     -11.508  -7.330   2.255  1.00  0.00     0.296 HD
ENDBRANCH  65  67
ENDBRANCH  49  65
ENDBRANCH  47  49
ENDBRANCH  43  45
ENDBRANCH   1  43
BRANCH   1  69
ATOM     69  C   UNL     1      -7.163  -6.565  -4.340  1.00  0.00    -0.001 C 
ATOM     70  C   UNL     1      -6.084  -7.287  -4.689  1.00  0.00     0.001 C 
BRANCH  70  71
ATOM     71  C   UNL     1      -5.257  -7.112  -5.884  1.00  0.00    -0.055 C 
ATOM     72  C   UNL     1      -5.159  -8.153  -6.738  1.00  0.00    -0.018 C 
ATOM     73  C   UNL     1      -4.581  -5.781  -6.082  1.00  0.00     0.044 C 
BRANCH  72  74
ATOM     74  C   UNL     1      -4.385  -8.258  -8.044  1.00  0.00     0.038 C 
ATOM     75  C   UNL     1      -3.203  -7.286  -7.950  1.00  0.00     0.015 C 
BRANCH  74  76
ATOM     76  C   UNL     1      -5.360  -7.988  -9.228  1.00  0.00     0.128 C 
BRANCH  76  77
ATOM     77  O   UNL     1      -5.382  -9.119 -10.114  1.00  0.00    -0.381 OA
ATOM     78  C   UNL     1      -4.301  -9.142 -11.037  1.00  0.00     0.195 C 
ENDBRANCH  76  77
BRANCH  76  79
ATOM     79  C   UNL     1      -6.778  -7.545  -8.786  1.00  0.00     0.068 C 
BRANCH  79  80
ATOM     80  C   UNL     1      -7.417  -6.388  -9.516  1.00  0.00    -0.045 A 
ATOM     81  C   UNL     1      -8.698  -6.504 -10.071  1.00  0.00     0.004 A 
ATOM     82  C   UNL     1      -6.720  -5.181  -9.675  1.00  0.00     0.004 A 
ATOM     83  C   UNL     1      -9.276  -5.434 -10.757  1.00  0.00     0.000 A 
ATOM     84  C   UNL     1      -7.299  -4.112 -10.362  1.00  0.00     0.000 A 
ATOM     85  C   UNL     1      -8.577  -4.237 -10.901  1.00  0.00     0.000 A 
ENDBRANCH  79  80
ENDBRANCH  76  79
ENDBRANCH  74  76
ENDBRANCH  72  74
ENDBRANCH  70  71
ENDBRANCH   1  69
TORSDOF 17
ENDMDL
MODEL 6
REMARK VINA RESULT:    -6.670      5.306     12.470
REMARK INTER + INTRA:         -26.797
REMARK INTER:                 -20.945
REMARK INTRA:                  -5.852
REMARK UNBOUND:                -6.869
REMARK SMILES C=C1C(=O)N[C@H](C)C(=O)N[C@@H](CC(C)C)C(=O)N[C@@H](C(=O)O)[C@H](C)C(=O)N[C@@H](CCCN=C(N)N)C(=O)N[C@@H](/C=C/C(C)=C/[C@H](C)[C@H](Cc2ccccc2)OC)[C@H](C)C(=O)N[C@@H](C(=O)O)CCC(=O)N1C
REMARK SMILES IDX 39 1 38 2 37 3 36 4 28 6 27 7 25 8 26 9 23 11 24 12 19 13
REMARK SMILES IDX 18 14 16 15 17 16 11 18 10 19 8 20 9 21 12 24 13 25 14 26
REMARK SMILES IDX 15 27 20 28 21 29 22 30 29 32 30 33 31 34 32 35 33 36 34 37
REMARK SMILES IDX 35 38 57 43 58 44 59 45 60 46 61 47 62 49 66 50 67 51 68 52
REMARK SMILES IDX 69 53 70 54 71 55 2 56 1 57 3 58 4 59 5 60 6 62 7 63 63 65
REMARK SMILES IDX 64 66 65 67 40 69 41 70 42 71 44 72 43 73 45 74 46 75 47 76
REMARK SMILES IDX 55 77 56 78 48 79 49 80 50 81 54 82 51 83 53 84 52 85
REMARK H PARENT 38 5 27 10 18 17 10 22 22 31 34 39 34 40 35 41 35 42 61 48
REMARK H PARENT 5 61 65 68
REMARK Flexibility Score:  369.900
ROOT
ATOM      1  C   UNL     1      -8.490  -2.149  -2.406  1.00  0.00     0.117 C 
ENDROOT
BRANCH   1   2
ATOM      2  N   UNL     1      -7.797  -2.303  -3.686  1.00  0.00    -0.347 N 
ATOM      3  O   UNL     1      -9.161  -0.951  -4.945  1.00  0.00    -0.273 OA
ATOM      4  C   UNL     1      -8.136  -1.617  -4.837  1.00  0.00     0.243 C 
ATOM      5  H   UNL     1      -6.990  -2.905  -3.742  1.00  0.00     0.164 HD
BRANCH   4   6
ATOM      6  C   UNL     1      -7.190  -1.897  -6.031  1.00  0.00     0.171 C 
BRANCH   6   7
ATOM      7  N   UNL     1      -7.947  -2.436  -7.172  1.00  0.00    -0.344 N 
ATOM      8  C   UNL     1      -8.492  -3.701  -7.119  1.00  0.00     0.226 C 
ATOM      9  O   UNL     1      -8.358  -4.437  -6.149  1.00  0.00    -0.275 OA
ATOM     10  H   UNL     1      -8.022  -1.884  -8.017  1.00  0.00     0.164 HD
BRANCH   8  11
ATOM     11  C   UNL     1      -9.289  -4.091  -8.351  1.00  0.00     0.109 C 
ATOM     12  C   UNL     1      -9.782  -2.839  -9.077  1.00  0.00     0.021 C 
BRANCH  11  13
ATOM     13  C   UNL     1      -8.465  -5.062  -9.220  1.00  0.00     0.204 C 
BRANCH  13  14
ATOM     14  N   UNL     1      -7.671  -5.989  -8.409  1.00  0.00    -0.340 N 
ATOM     15  C   UNL     1      -6.458  -6.495  -8.823  1.00  0.00     0.243 C 
ATOM     16  O   UNL     1      -5.927  -6.156  -9.879  1.00  0.00    -0.273 OA
ATOM     17  H   UNL     1      -8.120  -6.425  -7.599  1.00  0.00     0.164 HD
BRANCH  15  18
ATOM     18  C   UNL     1      -5.905  -7.610  -7.901  1.00  0.00     0.171 C 
BRANCH  18  19
ATOM     19  N   UNL     1      -5.745  -8.801  -8.733  1.00  0.00    -0.343 N 
ATOM     20  C   UNL     1      -6.036 -10.066  -8.259  1.00  0.00     0.242 CG0
ATOM     21  O   UNL     1      -6.314 -10.262  -7.078  1.00  0.00    -0.273 OA
ATOM     22  H   UNL     1      -5.406  -8.702  -9.683  1.00  0.00     0.164 HD
ATOM     23  G   UNL     1      -5.881 -11.189  -9.305  1.00  0.00     0.000 G0
ENDBRANCH  18  19
BRANCH  18  24
ATOM     24  C   UNL     1      -4.574  -7.181  -7.271  1.00  0.00     0.038 C 
BRANCH  24  25
ATOM     25  C   UNL     1      -3.704  -6.269  -8.162  1.00  0.00    -0.015 C 
ATOM     26  C   UNL     1      -2.460  -6.983  -8.692  1.00  0.00     0.007 C 
ATOM     27  C   UNL     1      -3.287  -5.025  -7.373  1.00  0.00     0.007 C 
ENDBRANCH  24  25
ENDBRANCH  18  24
ENDBRANCH  15  18
ENDBRANCH  13  14
BRANCH  13  28
ATOM     28  C   UNL     1      -9.327  -5.908 -10.163  1.00  0.00     0.327 C 
ATOM     29  O   UNL     1      -9.478  -5.726 -11.361  1.00  0.00    -0.250 OA
BRANCH  28  30
ATOM     30  O   UNL     1     -10.038  -6.857  -9.521  1.00  0.00    -0.480 OA
ATOM     31  H   UNL     1      -9.493  -7.078  -8.737  1.00  0.00     0.296 HD
ENDBRANCH  28  30
ENDBRANCH  13  28
ENDBRANCH  11  13
ENDBRANCH   8  11
ENDBRANCH   6   7
BRANCH   6  32
ATOM     32  C   UNL     1      -6.469  -0.601  -6.417  1.00  0.00     0.037 C 
BRANCH  32  33
ATOM     33  C   UNL     1      -6.384  -0.415  -7.939  1.00  0.00     0.026 C 
BRANCH  33  34
ATOM     34  C   UNL     1      -5.213  -1.180  -8.557  1.00  0.00     0.146 C 
BRANCH  34  35
ATOM     35  N   UNL     1      -5.733  -2.338  -9.271  1.00  0.00    -0.254 NA
ATOM     36  C   UNL     1      -5.843  -2.276 -10.546  1.00  0.00     0.185 C 
ATOM     37  N   UNL     1      -6.316  -3.339 -11.214  1.00  0.00    -0.370 N 
ATOM     38  N   UNL     1      -5.541  -1.257 -11.371  1.00  0.00    -0.370 N 
ATOM     39  H   UNL     1      -6.556  -4.152 -10.662  1.00  0.00     0.159 HD
ATOM     40  H   UNL     1      -6.269  -3.433 -12.214  1.00  0.00     0.159 HD
ATOM     41  H   UNL     1      -5.803  -1.279 -12.343  1.00  0.00     0.159 HD
ATOM     42  H   UNL     1      -5.190  -0.387 -11.003  1.00  0.00     0.159 HD
ENDBRANCH  34  35
ENDBRANCH  33  34
ENDBRANCH  32  33
ENDBRANCH   6  32
ENDBRANCH   4   6
ENDBRANCH   1   2
BRANCH   1  43
ATOM     43  C   UNL     1      -8.118  -0.762  -1.806  1.00  0.00     0.102 C 
ATOM     44  C   UNL     1      -6.661  -0.675  -1.322  1.00  0.00     0.020 C 
BRANCH  43  45
ATOM     45  C   UNL     1      -9.147  -0.321  -0.761  1.00  0.00     0.225 C 
ATOM     46  O   UNL     1     -10.311  -0.046  -1.040  1.00  0.00    -0.275 OA
ATOM     47  N   UNL     1      -8.662  -0.159   0.516  1.00  0.00    -0.342 N 
ATOM     48  H   UNL     1      -7.754  -0.530   0.757  1.00  0.00     0.164 HD
BRANCH  47  49
ATOM     49  C   UNL     1      -9.539   0.225   1.626  1.00  0.00     0.192 C 
BRANCH  49  50
ATOM     50  C   UNL     1      -8.770   1.116   2.605  1.00  0.00     0.047 C 
BRANCH  50  51
ATOM     51  C   UNL     1      -9.676   2.155   3.280  1.00  0.00     0.103 C 
BRANCH  51  52
ATOM     52  C   UNL     1      -9.843   1.886   4.774  1.00  0.00     0.226 C 
ATOM     53  O   UNL     1      -9.268   0.925   5.290  1.00  0.00    -0.275 OA
BRANCH  52  54
ATOM     54  N   UNL     1     -10.605   2.822   5.498  1.00  0.00    -0.311 N 
ATOM     55  C   UNL     1     -10.427   4.265   5.290  1.00  0.00     0.153 C 
BRANCH  54  56
ATOM     56  C   UNL     1     -11.564   2.414   6.440  1.00  0.00     0.102 C 
ATOM     57  C   UNL     1     -11.303   2.115   7.723  1.00  0.00     0.043 C 
BRANCH  56  58
ATOM     58  C   UNL     1     -13.026   2.325   6.069  1.00  0.00     0.268 C 
ATOM     59  O   UNL     1     -13.494   1.406   5.410  1.00  0.00    -0.268 OA
ATOM     60  N   UNL     1     -13.781   3.342   6.600  1.00  0.00    -0.339 N 
ATOM     61  H   UNL     1     -13.315   4.072   7.126  1.00  0.00     0.164 HD
BRANCH  60  62
ATOM     62  C   UNL     1     -15.230   3.414   6.417  1.00  0.00     0.168 CG0
ATOM     63  C   UNL     1     -15.935   3.704   7.736  1.00  0.00     0.041 C 
ATOM     64  G   UNL     1     -15.740   2.093   5.804  1.00  0.00     0.000 G0
ENDBRANCH  60  62
ENDBRANCH  56  58
ENDBRANCH  54  56
ENDBRANCH  52  54
ENDBRANCH  51  52
ENDBRANCH  50  51
ENDBRANCH  49  50
BRANCH  49  65
ATOM     65  C   UNL     1     -10.079  -1.005   2.373  1.00  0.00     0.326 C 
ATOM     66  O   UNL     1      -9.667  -2.149   2.249  1.00  0.00    -0.250 OA
BRANCH  65  67
ATOM     67  O   UNL     1     -11.132  -0.756   3.182  1.00  0.00    -0.480 OA
ATOM     68  H   UNL     1     -11.037   0.196   3.400  1.00  0.00     0.296 HD
ENDBRANCH  65  67
ENDBRANCH  49  65
ENDBRANCH  47  49
ENDBRANCH  43  45
ENDBRANCH   1  43
BRANCH   1  69
ATOM     69  C   UNL     1      -8.183  -3.401  -1.605  1.00  0.00    -0.001 C 
ATOM     70  C   UNL     1      -8.879  -3.897  -0.567  1.00  0.00     0.001 C 
BRANCH  70  71
ATOM     71  C   UNL     1      -8.585  -5.119   0.185  1.00  0.00    -0.055 C 
ATOM     72  C   UNL     1      -9.614  -5.946   0.465  1.00  0.00    -0.018 C 
ATOM     73  C   UNL     1      -7.155  -5.369   0.586  1.00  0.00     0.044 C 
BRANCH  72  74
ATOM     74  C   UNL     1      -9.609  -7.269   1.218  1.00  0.00     0.038 C 
ATOM     75  C   UNL     1      -9.208  -6.964   2.666  1.00  0.00     0.015 C 
BRANCH  74  76
ATOM     76  C   UNL     1      -8.668  -8.264   0.475  1.00  0.00     0.128 C 
BRANCH  76  77
ATOM     77  O   UNL     1      -8.601  -9.506   1.196  1.00  0.00    -0.381 OA
ATOM     78  C   UNL     1      -7.277  -9.992   1.373  1.00  0.00     0.195 C 
ENDBRANCH  76  77
BRANCH  76  79
ATOM     79  C   UNL     1      -9.014  -8.458  -1.022  1.00  0.00     0.068 C 
BRANCH  79  80
ATOM     80  C   UNL     1      -7.908  -8.273  -2.033  1.00  0.00    -0.045 A 
ATOM     81  C   UNL     1      -7.802  -7.092  -2.779  1.00  0.00     0.004 A 
ATOM     82  C   UNL     1      -6.980  -9.301  -2.262  1.00  0.00     0.004 A 
ATOM     83  C   UNL     1      -6.784  -6.934  -3.722  1.00  0.00     0.000 A 
ATOM     84  C   UNL     1      -5.963  -9.142  -3.206  1.00  0.00     0.000 A 
ATOM     85  C   UNL     1      -5.864  -7.959  -3.934  1.00  0.00     0.000 A 
ENDBRANCH  79  80
ENDBRANCH  76  79
ENDBRANCH  74  76
ENDBRANCH  72  74
ENDBRANCH  70  71
ENDBRANCH   1  69
TORSDOF 17
ENDMDL
MODEL 7
REMARK VINA RESULT:    -6.641      5.914     16.104
REMARK INTER + INTRA:         -26.709
REMARK INTER:                 -18.460
REMARK INTRA:                  -8.249
REMARK UNBOUND:                -6.869
REMARK SMILES C=C1C(=O)N[C@H](C)C(=O)N[C@@H](CC(C)C)C(=O)N[C@@H](C(=O)O)[C@H](C)C(=O)N[C@@H](CCCN=C(N)N)C(=O)N[C@@H](/C=C/C(C)=C/[C@H](C)[C@H](Cc2ccccc2)OC)[C@H](C)C(=O)N[C@@H](C(=O)O)CCC(=O)N1C
REMARK SMILES IDX 39 1 38 2 37 3 36 4 28 6 27 7 25 8 26 9 23 11 24 12 19 13
REMARK SMILES IDX 18 14 16 15 17 16 11 18 10 19 8 20 9 21 12 24 13 25 14 26
REMARK SMILES IDX 15 27 20 28 21 29 22 30 29 32 30 33 31 34 32 35 33 36 34 37
REMARK SMILES IDX 35 38 57 43 58 44 59 45 60 46 61 47 62 49 66 50 67 51 68 52
REMARK SMILES IDX 69 53 70 54 71 55 2 56 1 57 3 58 4 59 5 60 6 62 7 63 63 65
REMARK SMILES IDX 64 66 65 67 40 69 41 70 42 71 44 72 43 73 45 74 46 75 47 76
REMARK SMILES IDX 55 77 56 78 48 79 49 80 50 81 54 82 51 83 53 84 52 85
REMARK H PARENT 38 5 27 10 18 17 10 22 22 31 34 39 34 40 35 41 35 42 61 48
REMARK H PARENT 5 61 65 68
REMARK Flexibility Score:  369.900
ROOT
ATOM      1  C   UNL     1      -7.931  -8.313   2.624  1.00  0.00     0.117 C 
ENDROOT
BRANCH   1   2
ATOM      2  N   UNL     1      -8.365  -7.855   1.303  1.00  0.00    -0.347 N 
ATOM      3  O   UNL     1      -6.655  -6.374   0.909  1.00  0.00    -0.273 OA
ATOM      4  C   UNL     1      -7.640  -6.987   0.510  1.00  0.00     0.243 C 
ATOM      5  H   UNL     1      -9.218  -8.221   0.908  1.00  0.00     0.164 HD
BRANCH   4   6
ATOM      6  C   UNL     1      -8.279  -6.730  -0.879  1.00  0.00     0.171 C 
BRANCH   6   7
ATOM      7  N   UNL     1      -7.416  -7.258  -1.948  1.00  0.00    -0.344 N 
ATOM      8  C   UNL     1      -6.614  -6.413  -2.684  1.00  0.00     0.226 C 
ATOM      9  O   UNL     1      -6.594  -5.201  -2.508  1.00  0.00    -0.275 OA
ATOM     10  H   UNL     1      -7.455  -8.245  -2.168  1.00  0.00     0.164 HD
BRANCH   8  11
ATOM     11  C   UNL     1      -5.743  -7.115  -3.711  1.00  0.00     0.109 C 
ATOM     12  C   UNL     1      -5.538  -8.578  -3.316  1.00  0.00     0.021 C 
BRANCH  11  13
ATOM     13  C   UNL     1      -6.326  -6.901  -5.123  1.00  0.00     0.204 C 
BRANCH  13  14
ATOM     14  N   UNL     1      -6.384  -5.482  -5.486  1.00  0.00    -0.340 N 
ATOM     15  C   UNL     1      -7.098  -5.016  -6.568  1.00  0.00     0.243 C 
ATOM     16  O   UNL     1      -7.787  -5.752  -7.272  1.00  0.00    -0.273 OA
ATOM     17  H   UNL     1      -5.720  -4.844  -5.040  1.00  0.00     0.164 HD
BRANCH  15  18
ATOM     18  C   UNL     1      -6.846  -3.520  -6.878  1.00  0.00     0.171 C 
BRANCH  18  19
ATOM     19  N   UNL     1      -6.528  -3.435  -8.302  1.00  0.00    -0.343 N 
ATOM     20  C   UNL     1      -5.229  -3.523  -8.765  1.00  0.00     0.242 CG0
ATOM     21  O   UNL     1      -4.271  -3.543  -7.996  1.00  0.00    -0.273 OA
ATOM     22  H   UNL     1      -7.277  -3.301  -8.972  1.00  0.00     0.164 HD
ATOM     23  G   UNL     1      -5.098  -3.492 -10.302  1.00  0.00     0.000 G0
ENDBRANCH  18  19
BRANCH  18  24
ATOM     24  C   UNL     1      -8.078  -2.678  -6.526  1.00  0.00     0.038 C 
BRANCH  24  25
ATOM     25  C   UNL     1      -9.428  -3.324  -6.903  1.00  0.00    -0.015 C 
ATOM     26  C   UNL     1     -10.008  -2.753  -8.198  1.00  0.00     0.007 C 
ATOM     27  C   UNL     1     -10.429  -3.130  -5.761  1.00  0.00     0.007 C 
ENDBRANCH  24  25
ENDBRANCH  18  24
ENDBRANCH  15  18
ENDBRANCH  13  14
BRANCH  13  28
ATOM     28  C   UNL     1      -5.531  -7.618  -6.219  1.00  0.00     0.327 C 
ATOM     29  O   UNL     1      -4.359  -7.425  -6.505  1.00  0.00    -0.250 OA
BRANCH  28  30
ATOM     30  O   UNL     1      -6.288  -8.446  -6.966  1.00  0.00    -0.480 OA
ATOM     31  H   UNL     1      -6.141  -8.143  -7.886  1.00  0.00     0.296 HD
ENDBRANCH  28  30
ENDBRANCH  13  28
ENDBRANCH  11  13
ENDBRANCH   8  11
ENDBRANCH   6   7
BRANCH   6  32
ATOM     32  C   UNL     1      -9.665  -7.383  -0.923  1.00  0.00     0.037 C 
BRANCH  32  33
ATOM     33  C   UNL     1     -10.771  -6.372  -1.257  1.00  0.00     0.026 C 
BRANCH  33  34
ATOM     34  C   UNL     1     -10.568  -5.029  -0.553  1.00  0.00     0.146 C 
BRANCH  34  35
ATOM     35  N   UNL     1     -10.411  -3.990  -1.561  1.00  0.00    -0.254 NA
ATOM     36  C   UNL     1      -9.377  -3.235  -1.508  1.00  0.00     0.185 C 
ATOM     37  N   UNL     1      -9.220  -2.277  -2.435  1.00  0.00    -0.370 N 
ATOM     38  N   UNL     1      -8.365  -3.249  -0.623  1.00  0.00    -0.370 N 
ATOM     39  H   UNL     1      -9.938  -2.209  -3.145  1.00  0.00     0.159 HD
ATOM     40  H   UNL     1      -8.364  -1.765  -2.566  1.00  0.00     0.159 HD
ATOM     41  H   UNL     1      -7.679  -2.512  -0.605  1.00  0.00     0.159 HD
ATOM     42  H   UNL     1      -8.360  -3.908   0.140  1.00  0.00     0.159 HD
ENDBRANCH  34  35
ENDBRANCH  33  34
ENDBRANCH  32  33
ENDBRANCH   6  32
ENDBRANCH   4   6
ENDBRANCH   1   2
BRANCH   1  43
ATOM     43  C   UNL     1      -8.671  -9.641   2.955  1.00  0.00     0.102 C 
ATOM     44  C   UNL     1      -8.677 -10.645   1.789  1.00  0.00     0.020 C 
BRANCH  43  45
ATOM     45  C   UNL     1     -10.058  -9.366   3.545  1.00  0.00     0.225 C 
ATOM     46  O   UNL     1     -10.985  -8.900   2.890  1.00  0.00    -0.275 OA
ATOM     47  N   UNL     1     -10.180  -9.588   4.898  1.00  0.00    -0.342 N 
ATOM     48  H   UNL     1      -9.465 -10.109   5.386  1.00  0.00     0.164 HD
BRANCH  47  49
ATOM     49  C   UNL     1     -11.457  -9.402   5.592  1.00  0.00     0.192 C 
BRANCH  49  50
ATOM     50  C   UNL     1     -11.371  -8.179   6.510  1.00  0.00     0.047 C 
BRANCH  50  51
ATOM     51  C   UNL     1     -12.755  -7.625   6.873  1.00  0.00     0.103 C 
BRANCH  51  52
ATOM     52  C   UNL     1     -13.294  -8.233   8.167  1.00  0.00     0.226 C 
ATOM     53  O   UNL     1     -14.159  -9.110   8.114  1.00  0.00    -0.275 OA
BRANCH  52  54
ATOM     54  N   UNL     1     -12.698  -7.793   9.363  1.00  0.00    -0.311 N 
ATOM     55  C   UNL     1     -12.929  -6.434   9.868  1.00  0.00     0.153 C 
BRANCH  54  56
ATOM     56  C   UNL     1     -11.866  -8.636  10.119  1.00  0.00     0.102 C 
ATOM     57  C   UNL     1     -12.299  -9.571  10.981  1.00  0.00     0.043 C 
BRANCH  56  58
ATOM     58  C   UNL     1     -10.364  -8.575   9.975  1.00  0.00     0.268 C 
ATOM     59  O   UNL     1      -9.692  -7.629  10.364  1.00  0.00    -0.268 OA
ATOM     60  N   UNL     1      -9.827  -9.715   9.426  1.00  0.00    -0.339 N 
ATOM     61  H   UNL     1     -10.454 -10.450   9.120  1.00  0.00     0.164 HD
BRANCH  60  62
ATOM     62  C   UNL     1      -8.386  -9.892   9.254  1.00  0.00     0.168 CG0
ATOM     63  C   UNL     1      -7.973  -9.642   7.809  1.00  0.00     0.041 C 
ATOM     64  G   UNL     1      -7.984 -11.314   9.698  1.00  0.00     0.000 G0
ENDBRANCH  60  62
ENDBRANCH  56  58
ENDBRANCH  54  56
ENDBRANCH  52  54
ENDBRANCH  51  52
ENDBRANCH  50  51
ENDBRANCH  49  50
BRANCH  49  65
ATOM     65  C   UNL     1     -11.835 -10.637   6.425  1.00  0.00     0.326 C 
ATOM     66  O   UNL     1     -11.128 -11.169   7.267  1.00  0.00    -0.250 OA
BRANCH  65  67
ATOM     67  O   UNL     1     -13.038 -11.174   6.122  1.00  0.00    -0.480 OA
ATOM     68  H   UNL     1     -12.879 -12.141   6.174  1.00  0.00     0.296 HD
ENDBRANCH  65  67
ENDBRANCH  49  65
ENDBRANCH  47  49
ENDBRANCH  43  45
ENDBRANCH   1  43
BRANCH   1  69
ATOM     69  C   UNL     1      -8.097  -7.128   3.559  1.00  0.00    -0.001 C 
ATOM     70  C   UNL     1      -7.559  -6.971   4.781  1.00  0.00     0.001 C 
BRANCH  70  71
ATOM     71  C   UNL     1      -7.709  -5.813   5.665  1.00  0.00    -0.055 C 
ATOM     72  C   UNL     1      -8.961  -5.390   5.938  1.00  0.00    -0.018 C 
ATOM     73  C   UNL     1      -6.456  -5.182   6.214  1.00  0.00     0.044 C 
BRANCH  72  74
ATOM     74  C   UNL     1      -9.417  -4.232   6.814  1.00  0.00     0.038 C 
ATOM     75  C   UNL     1     -10.159  -4.835   8.013  1.00  0.00     0.015 C 
BRANCH  74  76
ATOM     76  C   UNL     1     -10.263  -3.252   5.949  1.00  0.00     0.128 C 
BRANCH  76  77
ATOM     77  O   UNL     1      -9.439  -2.168   5.488  1.00  0.00    -0.381 OA
ATOM     78  C   UNL     1     -10.048  -1.378   4.476  1.00  0.00     0.195 C 
ENDBRANCH  76  77
BRANCH  76  79
ATOM     79  C   UNL     1     -11.045  -3.940   4.802  1.00  0.00     0.068 C 
BRANCH  79  80
ATOM     80  C   UNL     1     -12.483  -4.325   5.059  1.00  0.00    -0.045 A 
ATOM     81  C   UNL     1     -13.205  -5.080   4.125  1.00  0.00     0.004 A 
ATOM     82  C   UNL     1     -13.129  -3.905   6.231  1.00  0.00     0.004 A 
ATOM     83  C   UNL     1     -14.539  -5.419   4.364  1.00  0.00     0.000 A 
ATOM     84  C   UNL     1     -14.462  -4.245   6.468  1.00  0.00     0.000 A 
ATOM     85  C   UNL     1     -15.166  -5.003   5.536  1.00  0.00     0.000 A 
ENDBRANCH  79  80
ENDBRANCH  76  79
ENDBRANCH  74  76
ENDBRANCH  72  74
ENDBRANCH  70  71
ENDBRANCH   1  69
TORSDOF 17
ENDMDL
MODEL 8
REMARK VINA RESULT:    -6.633      3.895     12.679
REMARK INTER + INTRA:         -26.686
REMARK INTER:                 -18.996
REMARK INTRA:                  -7.690
REMARK UNBOUND:                -6.869
REMARK SMILES C=C1C(=O)N[C@H](C)C(=O)N[C@@H](CC(C)C)C(=O)N[C@@H](C(=O)O)[C@H](C)C(=O)N[C@@H](CCCN=C(N)N)C(=O)N[C@@H](/C=C/C(C)=C/[C@H](C)[C@H](Cc2ccccc2)OC)[C@H](C)C(=O)N[C@@H](C(=O)O)CCC(=O)N1C
REMARK SMILES IDX 39 1 38 2 37 3 36 4 28 6 27 7 25 8 26 9 23 11 24 12 19 13
REMARK SMILES IDX 18 14 16 15 17 16 11 18 10 19 8 20 9 21 12 24 13 25 14 26
REMARK SMILES IDX 15 27 20 28 21 29 22 30 29 32 30 33 31 34 32 35 33 36 34 37
REMARK SMILES IDX 35 38 57 43 58 44 59 45 60 46 61 47 62 49 66 50 67 51 68 52
REMARK SMILES IDX 69 53 70 54 71 55 2 56 1 57 3 58 4 59 5 60 6 62 7 63 63 65
REMARK SMILES IDX 64 66 65 67 40 69 41 70 42 71 44 72 43 73 45 74 46 75 47 76
REMARK SMILES IDX 55 77 56 78 48 79 49 80 50 81 54 82 51 83 53 84 52 85
REMARK H PARENT 38 5 27 10 18 17 10 22 22 31 34 39 34 40 35 41 35 42 61 48
REMARK H PARENT 5 61 65 68
REMARK Flexibility Score:  369.900
ROOT
ATOM      1  C   UNL     1      -7.160  -8.725  -2.769  1.00  0.00     0.117 C 
ENDROOT
BRANCH   1   2
ATOM      2  N   UNL     1      -7.308  -7.272  -2.860  1.00  0.00    -0.347 N 
ATOM      3  O   UNL     1      -9.509  -7.222  -3.511  1.00  0.00    -0.273 OA
ATOM      4  C   UNL     1      -8.501  -6.632  -3.136  1.00  0.00     0.243 C 
ATOM      5  H   UNL     1      -6.514  -6.681  -2.665  1.00  0.00     0.164 HD
BRANCH   4   6
ATOM      6  C   UNL     1      -8.404  -5.086  -3.089  1.00  0.00     0.171 C 
BRANCH   6   7
ATOM      7  N   UNL     1      -8.254  -4.538  -4.446  1.00  0.00    -0.344 N 
ATOM      8  C   UNL     1      -7.061  -4.662  -5.126  1.00  0.00     0.226 C 
ATOM      9  O   UNL     1      -6.076  -5.203  -4.638  1.00  0.00    -0.275 OA
ATOM     10  H   UNL     1      -9.024  -4.025  -4.856  1.00  0.00     0.164 HD
BRANCH   8  11
ATOM     11  C   UNL     1      -7.082  -4.094  -6.534  1.00  0.00     0.109 C 
ATOM     12  C   UNL     1      -8.521  -3.995  -7.040  1.00  0.00     0.021 C 
BRANCH  11  13
ATOM     13  C   UNL     1      -6.288  -2.773  -6.576  1.00  0.00     0.204 C 
BRANCH  13  14
ATOM     14  N   UNL     1      -5.646  -2.556  -7.876  1.00  0.00    -0.340 N 
ATOM     15  C   UNL     1      -4.440  -3.127  -8.220  1.00  0.00     0.243 C 
ATOM     16  O   UNL     1      -3.845  -3.909  -7.481  1.00  0.00    -0.273 OA
ATOM     17  H   UNL     1      -6.007  -1.805  -8.470  1.00  0.00     0.164 HD
BRANCH  15  18
ATOM     18  C   UNL     1      -3.860  -2.591  -9.552  1.00  0.00     0.171 C 
BRANCH  18  19
ATOM     19  N   UNL     1      -4.789  -1.570 -10.033  1.00  0.00    -0.343 N 
ATOM     20  C   UNL     1      -5.051  -1.399 -11.379  1.00  0.00     0.242 CG0
ATOM     21  O   UNL     1      -4.418  -2.005 -12.240  1.00  0.00    -0.273 OA
ATOM     22  H   UNL     1      -5.251  -0.964  -9.365  1.00  0.00     0.164 HD
ATOM     23  G   UNL     1      -6.117  -0.327 -11.688  1.00  0.00     0.000 G0
ENDBRANCH  18  19
BRANCH  18  24
ATOM     24  C   UNL     1      -2.454  -2.017  -9.339  1.00  0.00     0.038 C 
BRANCH  24  25
ATOM     25  C   UNL     1      -2.344  -0.994  -8.188  1.00  0.00    -0.015 C 
ATOM     26  C   UNL     1      -2.133   0.434  -8.692  1.00  0.00     0.007 C 
ATOM     27  C   UNL     1      -1.193  -1.388  -7.258  1.00  0.00     0.007 C 
ENDBRANCH  24  25
ENDBRANCH  18  24
ENDBRANCH  15  18
ENDBRANCH  13  14
BRANCH  13  28
ATOM     28  C   UNL     1      -7.150  -1.541  -6.283  1.00  0.00     0.327 C 
ATOM     29  O   UNL     1      -7.731  -1.298  -5.237  1.00  0.00    -0.250 OA
BRANCH  28  30
ATOM     30  O   UNL     1      -7.325  -0.751  -7.361  1.00  0.00    -0.480 OA
ATOM     31  H   UNL     1      -8.250  -0.436  -7.282  1.00  0.00     0.296 HD
ENDBRANCH  28  30
ENDBRANCH  13  28
ENDBRANCH  11  13
ENDBRANCH   8  11
ENDBRANCH   6   7
BRANCH   6  32
ATOM     32  C   UNL     1      -9.657  -4.524  -2.407  1.00  0.00     0.037 C 
BRANCH  32  33
ATOM     33  C   UNL     1      -9.454  -4.319  -0.900  1.00  0.00     0.026 C 
BRANCH  33  34
ATOM     34  C   UNL     1      -8.165  -3.560  -0.581  1.00  0.00     0.146 C 
BRANCH  34  35
ATOM     35  N   UNL     1      -8.462  -2.136  -0.516  1.00  0.00    -0.254 NA
ATOM     36  C   UNL     1      -7.916  -1.355  -1.371  1.00  0.00     0.185 C 
ATOM     37  N   UNL     1      -8.187  -0.041  -1.324  1.00  0.00    -0.370 N 
ATOM     38  N   UNL     1      -7.066  -1.656  -2.369  1.00  0.00    -0.370 N 
ATOM     39  H   UNL     1      -8.829   0.264  -0.604  1.00  0.00     0.159 HD
ATOM     40  H   UNL     1      -7.942   0.604  -2.055  1.00  0.00     0.159 HD
ATOM     41  H   UNL     1      -6.596  -0.934  -2.889  1.00  0.00     0.159 HD
ATOM     42  H   UNL     1      -6.762  -2.606  -2.513  1.00  0.00     0.159 HD
ENDBRANCH  34  35
ENDBRANCH  33  34
ENDBRANCH  32  33
ENDBRANCH   6  32
ENDBRANCH   4   6
ENDBRANCH   1   2
BRANCH   1  43
ATOM     43  C   UNL     1      -6.423  -9.065  -1.442  1.00  0.00     0.102 C 
ATOM     44  C   UNL     1      -5.735 -10.441  -1.459  1.00  0.00     0.020 C 
BRANCH  43  45
ATOM     45  C   UNL     1      -7.336  -8.843  -0.233  1.00  0.00     0.225 C 
ATOM     46  O   UNL     1      -8.289  -8.069  -0.246  1.00  0.00    -0.275 OA
ATOM     47  N   UNL     1      -6.967  -9.500   0.918  1.00  0.00    -0.342 N 
ATOM     48  H   UNL     1      -6.281 -10.241   0.873  1.00  0.00     0.164 HD
BRANCH  47  49
ATOM     49  C   UNL     1      -7.767  -9.409   2.143  1.00  0.00     0.192 C 
BRANCH  49  50
ATOM     50  C   UNL     1      -6.866  -9.620   3.363  1.00  0.00     0.047 C 
BRANCH  50  51
ATOM     51  C   UNL     1      -7.266  -8.726   4.544  1.00  0.00     0.103 C 
BRANCH  51  52
ATOM     52  C   UNL     1      -6.835  -7.276   4.338  1.00  0.00     0.226 C 
ATOM     53  O   UNL     1      -5.638  -6.986   4.364  1.00  0.00    -0.275 OA
BRANCH  52  54
ATOM     54  N   UNL     1      -7.858  -6.353   4.049  1.00  0.00    -0.311 N 
ATOM     55  C   UNL     1      -8.086  -5.881   2.677  1.00  0.00     0.153 C 
BRANCH  54  56
ATOM     56  C   UNL     1      -8.700  -5.854   5.057  1.00  0.00     0.102 C 
ATOM     57  C   UNL     1      -8.376  -4.871   5.913  1.00  0.00     0.043 C 
BRANCH  56  58
ATOM     58  C   UNL     1     -10.105  -6.383   5.225  1.00  0.00     0.268 C 
ATOM     59  O   UNL     1     -10.515  -7.388   4.659  1.00  0.00    -0.268 OA
ATOM     60  N   UNL     1     -10.851  -5.660   6.125  1.00  0.00    -0.339 N 
ATOM     61  H   UNL     1     -10.441  -4.833   6.544  1.00  0.00     0.164 HD
BRANCH  60  62
ATOM     62  C   UNL     1     -12.217  -6.035   6.484  1.00  0.00     0.168 CG0
ATOM     63  C   UNL     1     -13.062  -4.804   6.787  1.00  0.00     0.041 C 
ATOM     64  G   UNL     1     -12.190  -6.989   7.697  1.00  0.00     0.000 G0
ENDBRANCH  60  62
ENDBRANCH  56  58
ENDBRANCH  54  56
ENDBRANCH  52  54
ENDBRANCH  51  52
ENDBRANCH  50  51
ENDBRANCH  49  50
BRANCH  49  65
ATOM     65  C   UNL     1      -8.898 -10.449   2.160  1.00  0.00     0.326 C 
ATOM     66  O   UNL     1     -10.037 -10.253   2.559  1.00  0.00    -0.250 OA
BRANCH  65  67
ATOM     67  O   UNL     1      -8.537 -11.681   1.739  1.00  0.00    -0.480 OA
ATOM     68  H   UNL     1      -9.213 -11.902   1.062  1.00  0.00     0.296 HD
ENDBRANCH  65  67
ENDBRANCH  49  65
ENDBRANCH  47  49
ENDBRANCH  43  45
ENDBRANCH   1  43
BRANCH   1  69
ATOM     69  C   UNL     1      -6.547  -9.172  -4.084  1.00  0.00    -0.001 C 
ATOM     70  C   UNL     1      -5.825  -8.430  -4.942  1.00  0.00     0.001 C 
BRANCH  70  71
ATOM     71  C   UNL     1      -5.220  -8.878  -6.198  1.00  0.00    -0.055 C 
ATOM     72  C   UNL     1      -4.734  -7.934  -7.033  1.00  0.00    -0.018 C 
ATOM     73  C   UNL     1      -5.174 -10.359  -6.467  1.00  0.00     0.044 C 
BRANCH  72  74
ATOM     74  C   UNL     1      -4.057  -8.101  -8.386  1.00  0.00     0.038 C 
ATOM     75  C   UNL     1      -2.812  -7.206  -8.383  1.00  0.00     0.015 C 
BRANCH  74  76
ATOM     76  C   UNL     1      -5.090  -7.779  -9.505  1.00  0.00     0.128 C 
BRANCH  76  77
ATOM     77  O   UNL     1      -5.088  -8.825 -10.492  1.00  0.00    -0.381 OA
ATOM     78  C   UNL     1      -4.441 -10.015 -10.060  1.00  0.00     0.195 C 
ENDBRANCH  76  77
BRANCH  76  79
ATOM     79  C   UNL     1      -6.511  -7.457  -8.977  1.00  0.00     0.068 C 
BRANCH  79  80
ATOM     80  C   UNL     1      -7.289  -6.361  -9.665  1.00  0.00    -0.045 A 
ATOM     81  C   UNL     1      -6.662  -5.174 -10.068  1.00  0.00     0.004 A 
ATOM     82  C   UNL     1      -8.667  -6.504  -9.886  1.00  0.00     0.004 A 
ATOM     83  C   UNL     1      -7.392  -4.159 -10.690  1.00  0.00     0.000 A 
ATOM     84  C   UNL     1      -9.396  -5.488 -10.508  1.00  0.00     0.000 A 
ATOM     85  C   UNL     1      -8.758  -4.317 -10.911  1.00  0.00     0.000 A 
ENDBRANCH  79  80
ENDBRANCH  76  79
ENDBRANCH  74  76
ENDBRANCH  72  74
ENDBRANCH  70  71
ENDBRANCH   1  69
TORSDOF 17
ENDMDL
MODEL 9
REMARK VINA RESULT:    -6.617      6.272     11.343
REMARK INTER + INTRA:         -26.637
REMARK INTER:                 -18.124
REMARK INTRA:                  -8.513
REMARK UNBOUND:                -6.869
REMARK SMILES C=C1C(=O)N[C@H](C)C(=O)N[C@@H](CC(C)C)C(=O)N[C@@H](C(=O)O)[C@H](C)C(=O)N[C@@H](CCCN=C(N)N)C(=O)N[C@@H](/C=C/C(C)=C/[C@H](C)[C@H](Cc2ccccc2)OC)[C@H](C)C(=O)N[C@@H](C(=O)O)CCC(=O)N1C
REMARK SMILES IDX 39 1 38 2 37 3 36 4 28 6 27 7 25 8 26 9 23 11 24 12 19 13
REMARK SMILES IDX 18 14 16 15 17 16 11 18 10 19 8 20 9 21 12 24 13 25 14 26
REMARK SMILES IDX 15 27 20 28 21 29 22 30 29 32 30 33 31 34 32 35 33 36 34 37
REMARK SMILES IDX 35 38 57 43 58 44 59 45 60 46 61 47 62 49 66 50 67 51 68 52
REMARK SMILES IDX 69 53 70 54 71 55 2 56 1 57 3 58 4 59 5 60 6 62 7 63 63 65
REMARK SMILES IDX 64 66 65 67 40 69 41 70 42 71 44 72 43 73 45 74 46 75 47 76
REMARK SMILES IDX 55 77 56 78 48 79 49 80 50 81 54 82 51 83 53 84 52 85
REMARK H PARENT 38 5 27 10 18 17 10 22 22 31 34 39 34 40 35 41 35 42 61 48
REMARK H PARENT 5 61 65 68
REMARK Flexibility Score:  369.900
ROOT
ATOM      1  C   UNL     1      -7.483  -6.898   1.015  1.00  0.00     0.117 C 
ENDROOT
BRANCH   1   2
ATOM      2  N   UNL     1      -8.821  -6.322   1.155  1.00  0.00    -0.347 N 
ATOM      3  O   UNL     1      -8.234  -4.113   0.941  1.00  0.00    -0.273 OA
ATOM      4  C   UNL     1      -9.102  -4.976   1.015  1.00  0.00     0.243 C 
ATOM      5  H   UNL     1      -9.608  -6.932   1.314  1.00  0.00     0.164 HD
BRANCH   4   6
ATOM      6  C   UNL     1     -10.611  -4.640   1.125  1.00  0.00     0.171 C 
BRANCH   6   7
ATOM      7  N   UNL     1     -10.853  -3.723   2.250  1.00  0.00    -0.344 N 
ATOM      8  C   UNL     1     -11.955  -3.882   3.062  1.00  0.00     0.226 C 
ATOM      9  O   UNL     1     -12.787  -4.763   2.880  1.00  0.00    -0.275 OA
ATOM     10  H   UNL     1     -10.224  -2.942   2.391  1.00  0.00     0.164 HD
BRANCH   8  11
ATOM     11  C   UNL     1     -12.034  -2.891   4.210  1.00  0.00     0.109 C 
ATOM     12  C   UNL     1     -13.421  -2.250   4.257  1.00  0.00     0.021 C 
BRANCH  11  13
ATOM     13  C   UNL     1     -11.591  -3.573   5.519  1.00  0.00     0.204 C 
BRANCH  13  14
ATOM     14  N   UNL     1     -12.078  -4.953   5.615  1.00  0.00    -0.340 N 
ATOM     15  C   UNL     1     -12.886  -5.392   6.642  1.00  0.00     0.243 C 
ATOM     16  O   UNL     1     -13.305  -4.640   7.520  1.00  0.00    -0.273 OA
ATOM     17  H   UNL     1     -11.648  -5.657   5.009  1.00  0.00     0.164 HD
BRANCH  15  18
ATOM     18  C   UNL     1     -13.101  -6.925   6.647  1.00  0.00     0.171 C 
BRANCH  18  19
ATOM     19  N   UNL     1     -14.406  -7.163   7.261  1.00  0.00    -0.343 N 
ATOM     20  C   UNL     1     -14.624  -8.222   8.122  1.00  0.00     0.242 CG0
ATOM     21  O   UNL     1     -13.772  -9.087   8.306  1.00  0.00    -0.273 OA
ATOM     22  H   UNL     1     -15.176  -6.540   7.049  1.00  0.00     0.164 HD
ATOM     23  G   UNL     1     -16.040  -8.264   8.732  1.00  0.00     0.000 G0
ENDBRANCH  18  19
BRANCH  18  24
ATOM     24  C   UNL     1     -13.041  -7.486   5.221  1.00  0.00     0.038 C 
BRANCH  24  25
ATOM     25  C   UNL     1     -11.814  -8.375   4.928  1.00  0.00    -0.015 C 
ATOM     26  C   UNL     1     -10.971  -7.845   3.768  1.00  0.00     0.007 C 
ATOM     27  C   UNL     1     -12.273  -9.802   4.622  1.00  0.00     0.007 C 
ENDBRANCH  24  25
ENDBRANCH  18  24
ENDBRANCH  15  18
ENDBRANCH  13  14
BRANCH  13  28
ATOM     28  C   UNL     1     -10.070  -3.616   5.693  1.00  0.00     0.327 C 
ATOM     29  O   UNL     1      -9.264  -4.076   4.897  1.00  0.00    -0.250 OA
BRANCH  28  30
ATOM     30  O   UNL     1      -9.663  -3.188   6.905  1.00  0.00    -0.480 OA
ATOM     31  H   UNL     1      -8.790  -3.614   7.031  1.00  0.00     0.296 HD
ENDBRANCH  28  30
ENDBRANCH  13  28
ENDBRANCH  11  13
ENDBRANCH   8  11
ENDBRANCH   6   7
BRANCH   6  32
ATOM     32  C   UNL     1     -11.087  -4.024  -0.195  1.00  0.00     0.037 C 
BRANCH  32  33
ATOM     33  C   UNL     1     -10.037  -4.155  -1.307  1.00  0.00     0.026 C 
BRANCH  33  34
ATOM     34  C   UNL     1      -9.770  -2.828  -2.019  1.00  0.00     0.146 C 
BRANCH  34  35
ATOM     35  N   UNL     1      -8.530  -2.941  -2.774  1.00  0.00    -0.254 NA
ATOM     36  C   UNL     1      -8.549  -2.684  -4.029  1.00  0.00     0.185 C 
ATOM     37  N   UNL     1      -7.411  -2.780  -4.734  1.00  0.00    -0.370 N 
ATOM     38  N   UNL     1      -9.587  -2.310  -4.799  1.00  0.00    -0.370 N 
ATOM     39  H   UNL     1      -6.581  -3.047  -4.221  1.00  0.00     0.159 HD
ATOM     40  H   UNL     1      -7.306  -2.431  -5.671  1.00  0.00     0.159 HD
ATOM     41  H   UNL     1      -9.504  -2.273  -5.802  1.00  0.00     0.159 HD
ATOM     42  H   UNL     1     -10.509  -2.213  -4.405  1.00  0.00     0.159 HD
ENDBRANCH  34  35
ENDBRANCH  33  34
ENDBRANCH  32  33
ENDBRANCH   6  32
ENDBRANCH   4   6
ENDBRANCH   1   2
BRANCH   1  43
ATOM     43  C   UNL     1      -7.624  -8.351   0.475  1.00  0.00     0.102 C 
ATOM     44  C   UNL     1      -6.494  -9.287   0.937  1.00  0.00     0.020 C 
BRANCH  43  45
ATOM     45  C   UNL     1      -7.854  -8.355  -1.039  1.00  0.00     0.225 C 
ATOM     46  O   UNL     1      -8.854  -8.838  -1.564  1.00  0.00    -0.275 OA
ATOM     47  N   UNL     1      -6.817  -7.862  -1.798  1.00  0.00    -0.342 N 
ATOM     48  H   UNL     1      -6.078  -7.336  -1.353  1.00  0.00     0.164 HD
BRANCH  47  49
ATOM     49  C   UNL     1      -6.912  -7.772  -3.258  1.00  0.00     0.192 C 
BRANCH  49  50
ATOM     50  C   UNL     1      -5.532  -8.007  -3.878  1.00  0.00     0.047 C 
BRANCH  50  51
ATOM     51  C   UNL     1      -5.602  -8.190  -5.400  1.00  0.00     0.103 C 
BRANCH  51  52
ATOM     52  C   UNL     1      -4.771  -7.145  -6.142  1.00  0.00     0.226 C 
ATOM     53  O   UNL     1      -4.286  -6.198  -5.521  1.00  0.00    -0.275 OA
BRANCH  52  54
ATOM     54  N   UNL     1      -4.544  -7.381  -7.511  1.00  0.00    -0.311 N 
ATOM     55  C   UNL     1      -3.211  -7.752  -8.004  1.00  0.00     0.153 C 
BRANCH  54  56
ATOM     56  C   UNL     1      -5.581  -7.277  -8.453  1.00  0.00     0.102 C 
ATOM     57  C   UNL     1      -6.195  -8.319  -9.038  1.00  0.00     0.043 C 
BRANCH  56  58
ATOM     58  C   UNL     1      -6.129  -5.929  -8.857  1.00  0.00     0.268 C 
ATOM     59  O   UNL     1      -5.423  -4.946  -9.038  1.00  0.00    -0.268 OA
ATOM     60  N   UNL     1      -7.488  -5.937  -9.063  1.00  0.00    -0.339 N 
ATOM     61  H   UNL     1      -8.003  -6.790  -8.881  1.00  0.00     0.164 HD
BRANCH  60  62
ATOM     62  C   UNL     1      -8.214  -4.753  -9.519  1.00  0.00     0.168 CG0
ATOM     63  C   UNL     1      -9.160  -4.242  -8.440  1.00  0.00     0.041 C 
ATOM     64  G   UNL     1      -8.989  -5.087 -10.810  1.00  0.00     0.000 G0
ENDBRANCH  60  62
ENDBRANCH  56  58
ENDBRANCH  54  56
ENDBRANCH  52  54
ENDBRANCH  51  52
ENDBRANCH  50  51
ENDBRANCH  49  50
BRANCH  49  65
ATOM     65  C   UNL     1      -7.445  -6.402  -3.708  1.00  0.00     0.326 C 
ATOM     66  O   UNL     1      -8.524  -6.201  -4.245  1.00  0.00    -0.250 OA
BRANCH  65  67
ATOM     67  O   UNL     1      -6.588  -5.375  -3.521  1.00  0.00    -0.480 OA
ATOM     68  H   UNL     1      -7.092  -4.593  -3.833  1.00  0.00     0.296 HD
ENDBRANCH  65  67
ENDBRANCH  49  65
ENDBRANCH  47  49
ENDBRANCH  43  45
ENDBRANCH   1  43
BRANCH   1  69
ATOM     69  C   UNL     1      -6.784  -6.674   2.343  1.00  0.00    -0.001 C 
ATOM     70  C   UNL     1      -7.321  -6.755   3.573  1.00  0.00     0.001 C 
BRANCH  70  71
ATOM     71  C   UNL     1      -6.630  -6.558   4.849  1.00  0.00    -0.055 C 
ATOM     72  C   UNL     1      -7.334  -6.765   5.982  1.00  0.00    -0.018 C 
ATOM     73  C   UNL     1      -5.182  -6.145   4.807  1.00  0.00     0.044 C 
BRANCH  72  74
ATOM     74  C   UNL     1      -6.885  -6.640   7.431  1.00  0.00     0.038 C 
ATOM     75  C   UNL     1      -6.076  -7.900   7.764  1.00  0.00     0.015 C 
BRANCH  74  76
ATOM     76  C   UNL     1      -8.139  -6.414   8.326  1.00  0.00     0.128 C 
BRANCH  76  77
ATOM     77  O   UNL     1      -8.248  -5.023   8.675  1.00  0.00    -0.381 OA
ATOM     78  C   UNL     1      -6.994  -4.380   8.859  1.00  0.00     0.195 C 
ENDBRANCH  76  77
BRANCH  76  79
ATOM     79  C   UNL     1      -9.449  -6.987   7.731  1.00  0.00     0.068 C 
BRANCH  79  80
ATOM     80  C   UNL     1      -9.818  -8.411   8.074  1.00  0.00    -0.045 A 
ATOM     81  C   UNL     1      -9.476  -9.470   7.223  1.00  0.00     0.004 A 
ATOM     82  C   UNL     1     -10.538  -8.692   9.245  1.00  0.00     0.004 A 
ATOM     83  C   UNL     1      -9.833 -10.782   7.541  1.00  0.00     0.000 A 
ATOM     84  C   UNL     1     -10.895 -10.005   9.561  1.00  0.00     0.000 A 
ATOM     85  C   UNL     1     -10.541 -11.049   8.710  1.00  0.00     0.000 A 
ENDBRANCH  79  80
ENDBRANCH  76  79
ENDBRANCH  74  76
ENDBRANCH  72  74
ENDBRANCH  70  71
ENDBRANCH   1  69
TORSDOF 17
ENDMDL
MODEL 10
REMARK VINA RESULT:    -6.610      4.912     11.895
REMARK INTER + INTRA:         -26.616
REMARK INTER:                 -18.261
REMARK INTRA:                  -8.355
REMARK UNBOUND:                -6.869
REMARK SMILES C=C1C(=O)N[C@H](C)C(=O)N[C@@H](CC(C)C)C(=O)N[C@@H](C(=O)O)[C@H](C)C(=O)N[C@@H](CCCN=C(N)N)C(=O)N[C@@H](/C=C/C(C)=C/[C@H](C)[C@H](Cc2ccccc2)OC)[C@H](C)C(=O)N[C@@H](C(=O)O)CCC(=O)N1C
REMARK SMILES IDX 39 1 38 2 37 3 36 4 28 6 27 7 25 8 26 9 23 11 24 12 19 13
REMARK SMILES IDX 18 14 16 15 17 16 11 18 10 19 8 20 9 21 12 24 13 25 14 26
REMARK SMILES IDX 15 27 20 28 21 29 22 30 29 32 30 33 31 34 32 35 33 36 34 37
REMARK SMILES IDX 35 38 57 43 58 44 59 45 60 46 61 47 62 49 66 50 67 51 68 52
REMARK SMILES IDX 69 53 70 54 71 55 2 56 1 57 3 58 4 59 5 60 6 62 7 63 63 65
REMARK SMILES IDX 64 66 65 67 40 69 41 70 42 71 44 72 43 73 45 74 46 75 47 76
REMARK SMILES IDX 55 77 56 78 48 79 49 80 50 81 54 82 51 83 53 84 52 85
REMARK H PARENT 38 5 27 10 18 17 10 22 22 31 34 39 34 40 35 41 35 42 61 48
REMARK H PARENT 5 61 65 68
REMARK Flexibility Score:  369.900
ROOT
ATOM      1  C   UNL     1      -4.782   1.198  -8.654  1.00  0.00     0.117 C 
ENDROOT
BRANCH   1   2
ATOM      2  N   UNL     1      -3.450   1.359  -9.237  1.00  0.00    -0.347 N 
ATOM      3  O   UNL     1      -4.019   2.806 -10.925  1.00  0.00    -0.273 OA
ATOM      4  C   UNL     1      -3.158   2.224 -10.273  1.00  0.00     0.243 C 
ATOM      5  H   UNL     1      -2.672   0.852  -8.841  1.00  0.00     0.164 HD
BRANCH   4   6
ATOM      6  C   UNL     1      -1.655   2.267 -10.645  1.00  0.00     0.171 C 
BRANCH   6   7
ATOM      7  N   UNL     1      -0.887   2.970  -9.605  1.00  0.00    -0.344 N 
ATOM      8  C   UNL     1      -0.235   4.150  -9.890  1.00  0.00     0.226 C 
ATOM      9  O   UNL     1      -0.239   4.654 -11.006  1.00  0.00    -0.275 OA
ATOM     10  H   UNL     1      -0.804   2.550  -8.688  1.00  0.00     0.164 HD
BRANCH   8  11
ATOM     11  C   UNL     1       0.466   4.780  -8.699  1.00  0.00     0.109 C 
ATOM     12  C   UNL     1       0.130   4.010  -7.422  1.00  0.00     0.021 C 
BRANCH  11  13
ATOM     13  C   UNL     1       1.973   4.919  -8.994  1.00  0.00     0.204 C 
BRANCH  13  14
ATOM     14  N   UNL     1       2.392   4.090 -10.128  1.00  0.00    -0.340 N 
ATOM     15  C   UNL     1       3.695   3.682 -10.317  1.00  0.00     0.243 C 
ATOM     16  O   UNL     1       4.589   3.936  -9.512  1.00  0.00    -0.273 OA
ATOM     17  H   UNL     1       1.737   3.973 -10.906  1.00  0.00     0.164 HD
BRANCH  15  18
ATOM     18  C   UNL     1       3.937   2.996 -11.683  1.00  0.00     0.171 C 
BRANCH  18  19
ATOM     19  N   UNL     1       5.364   3.128 -11.972  1.00  0.00    -0.343 N 
ATOM     20  C   UNL     1       5.838   3.246 -13.264  1.00  0.00     0.242 CG0
ATOM     21  O   UNL     1       5.098   3.111 -14.236  1.00  0.00    -0.273 OA
ATOM     22  H   UNL     1       6.028   3.129 -11.206  1.00  0.00     0.164 HD
ATOM     23  G   UNL     1       7.363   3.456 -13.365  1.00  0.00     0.000 G0
ENDBRANCH  18  19
BRANCH  18  24
ATOM     24  C   UNL     1       3.508   1.524 -11.633  1.00  0.00     0.038 C 
BRANCH  24  25
ATOM     25  C   UNL     1       2.419   1.135 -12.655  1.00  0.00    -0.015 C 
ATOM     26  C   UNL     1       2.968   0.277 -13.797  1.00  0.00     0.007 C 
ATOM     27  C   UNL     1       1.773   2.400 -13.226  1.00  0.00     0.007 C 
ENDBRANCH  24  25
ENDBRANCH  18  24
ENDBRANCH  15  18
ENDBRANCH  13  14
BRANCH  13  28
ATOM     28  C   UNL     1       2.397   6.358  -9.304  1.00  0.00     0.327 C 
ATOM     29  O   UNL     1       3.299   6.979  -8.762  1.00  0.00    -0.250 OA
BRANCH  28  30
ATOM     30  O   UNL     1       1.586   6.969 -10.192  1.00  0.00    -0.480 OA
ATOM     31  H   UNL     1       1.498   7.882  -9.848  1.00  0.00     0.296 HD
ENDBRANCH  28  30
ENDBRANCH  13  28
ENDBRANCH  11  13
ENDBRANCH   8  11
ENDBRANCH   6   7
BRANCH   6  32
ATOM     32  C   UNL     1      -1.141   0.835 -10.831  1.00  0.00     0.037 C 
BRANCH  32  33
ATOM     33  C   UNL     1       0.036   0.516  -9.898  1.00  0.00     0.026 C 
BRANCH  33  34
ATOM     34  C   UNL     1      -0.342  -0.477  -8.798  1.00  0.00     0.146 C 
BRANCH  34  35
ATOM     35  N   UNL     1      -1.126   0.218  -7.787  1.00  0.00    -0.254 NA
ATOM     36  C   UNL     1      -1.414  -0.399  -6.701  1.00  0.00     0.185 C 
ATOM     37  N   UNL     1      -2.132   0.233  -5.760  1.00  0.00    -0.370 N 
ATOM     38  N   UNL     1      -1.092  -1.651  -6.331  1.00  0.00    -0.370 N 
ATOM     39  H   UNL     1      -2.404   1.187  -5.962  1.00  0.00     0.159 HD
ATOM     40  H   UNL     1      -2.248  -0.113  -4.824  1.00  0.00     0.159 HD
ATOM     41  H   UNL     1      -1.496  -2.071  -5.509  1.00  0.00     0.159 HD
ATOM     42  H   UNL     1      -0.566  -2.249  -6.948  1.00  0.00     0.159 HD
ENDBRANCH  34  35
ENDBRANCH  33  34
ENDBRANCH  32  33
ENDBRANCH   6  32
ENDBRANCH   4   6
ENDBRANCH   1   2
BRANCH   1  43
ATOM     43  C   UNL     1      -4.801   1.896  -7.263  1.00  0.00     0.102 C 
ATOM     44  C   UNL     1      -6.217   2.238  -6.769  1.00  0.00     0.020 C 
BRANCH  43  45
ATOM     45  C   UNL     1      -3.828   3.078  -7.227  1.00  0.00     0.225 C 
ATOM     46  O   UNL     1      -2.663   2.977  -6.854  1.00  0.00    -0.275 OA
ATOM     47  N   UNL     1      -4.369   4.300  -7.554  1.00  0.00    -0.342 N 
ATOM     48  H   UNL     1      -5.275   4.344  -8.000  1.00  0.00     0.164 HD
BRANCH  47  49
ATOM     49  C   UNL     1      -3.549   5.514  -7.598  1.00  0.00     0.192 C 
BRANCH  49  50
ATOM     50  C   UNL     1      -4.193   6.602  -6.735  1.00  0.00     0.047 C 
BRANCH  50  51
ATOM     51  C   UNL     1      -4.415   6.142  -5.287  1.00  0.00     0.103 C 
BRANCH  51  52
ATOM     52  C   UNL     1      -5.620   6.826  -4.646  1.00  0.00     0.226 C 
ATOM     53  O   UNL     1      -5.693   8.057  -4.644  1.00  0.00    -0.275 OA
BRANCH  52  54
ATOM     54  N   UNL     1      -6.631   5.982  -4.152  1.00  0.00    -0.311 N 
ATOM     55  C   UNL     1      -7.566   5.309  -5.063  1.00  0.00     0.153 C 
BRANCH  54  56
ATOM     56  C   UNL     1      -6.780   5.746  -2.775  1.00  0.00     0.102 C 
ATOM     57  C   UNL     1      -5.909   5.065  -2.013  1.00  0.00     0.043 C 
BRANCH  56  58
ATOM     58  C   UNL     1      -7.961   6.305  -2.017  1.00  0.00     0.268 C 
ATOM     59  O   UNL     1      -8.582   7.295  -2.380  1.00  0.00    -0.268 OA
ATOM     60  N   UNL     1      -8.304   5.553  -0.919  1.00  0.00    -0.339 N 
ATOM     61  H   UNL     1      -7.731   4.752  -0.679  1.00  0.00     0.164 HD
BRANCH  60  62
ATOM     62  C   UNL     1      -9.455   5.880  -0.078  1.00  0.00     0.168 CG0
ATOM     63  C   UNL     1     -10.239   4.626   0.287  1.00  0.00     0.041 C 
ATOM     64  G   UNL     1     -10.358   6.894  -0.811  1.00  0.00     0.000 G0
ENDBRANCH  60  62
ENDBRANCH  56  58
ENDBRANCH  54  56
ENDBRANCH  52  54
ENDBRANCH  51  52
ENDBRANCH  50  51
ENDBRANCH  49  50
BRANCH  49  65
ATOM     65  C   UNL     1      -3.383   6.036  -9.034  1.00  0.00     0.326 C 
ATOM     66  O   UNL     1      -2.569   6.872  -9.397  1.00  0.00    -0.250 OA
BRANCH  65  67
ATOM     67  O   UNL     1      -4.272   5.537  -9.921  1.00  0.00    -0.480 OA
ATOM     68  H   UNL     1      -4.713   6.336 -10.281  1.00  0.00     0.296 HD
ENDBRANCH  65  67
ENDBRANCH  49  65
ENDBRANCH  47  49
ENDBRANCH  43  45
ENDBRANCH   1  43
BRANCH   1  69
ATOM     69  C   UNL     1      -5.105  -0.283  -8.736  1.00  0.00    -0.001 C 
ATOM     70  C   UNL     1      -4.261  -1.288  -9.027  1.00  0.00     0.001 C 
BRANCH  70  71
ATOM     71  C   UNL     1      -4.580  -2.716  -9.082  1.00  0.00    -0.055 C 
ATOM     72  C   UNL     1      -5.844  -3.065  -9.405  1.00  0.00    -0.018 C 
ATOM     73  C   UNL     1      -3.475  -3.695  -8.784  1.00  0.00     0.044 C 
BRANCH  72  74
ATOM     74  C   UNL     1      -6.455  -4.452  -9.540  1.00  0.00     0.038 C 
ATOM     75  C   UNL     1      -7.386  -4.420 -10.758  1.00  0.00     0.015 C 
BRANCH  74  76
ATOM     76  C   UNL     1      -7.149  -4.827  -8.197  1.00  0.00     0.128 C 
BRANCH  76  77
ATOM     77  O   UNL     1      -8.573  -4.892  -8.382  1.00  0.00    -0.381 OA
ATOM     78  C   UNL     1      -9.286  -3.878  -7.688  1.00  0.00     0.195 C 
ENDBRANCH  76  77
BRANCH  76  79
ATOM     79  C   UNL     1      -6.573  -6.099  -7.525  1.00  0.00     0.068 C 
BRANCH  79  80
ATOM     80  C   UNL     1      -5.713  -7.014  -8.362  1.00  0.00    -0.045 A 
ATOM     81  C   UNL     1      -4.330  -7.100  -8.151  1.00  0.00     0.004 A 
ATOM     82  C   UNL     1      -6.286  -7.776  -9.392  1.00  0.00     0.004 A 
ATOM     83  C   UNL     1      -3.540  -7.938  -8.939  1.00  0.00     0.000 A 
ATOM     84  C   UNL     1      -5.494  -8.614 -10.180  1.00  0.00     0.000 A 
ATOM     85  C   UNL     1      -4.122  -8.696  -9.953  1.00  0.00     0.000 A 
ENDBRANCH  79  80
ENDBRANCH  76  79
ENDBRANCH  74  76
ENDBRANCH  72  74
ENDBRANCH  70  71
ENDBRANCH   1  69
TORSDOF 17
ENDMDL
MODEL 11
REMARK VINA RESULT:    -6.598      5.788     10.557
REMARK INTER + INTRA:         -26.582
REMARK INTER:                 -18.382
REMARK INTRA:                  -8.200
REMARK UNBOUND:                -6.869
REMARK SMILES C=C1C(=O)N[C@H](C)C(=O)N[C@@H](CC(C)C)C(=O)N[C@@H](C(=O)O)[C@H](C)C(=O)N[C@@H](CCCN=C(N)N)C(=O)N[C@@H](/C=C/C(C)=C/[C@H](C)[C@H](Cc2ccccc2)OC)[C@H](C)C(=O)N[C@@H](C(=O)O)CCC(=O)N1C
REMARK SMILES IDX 39 1 38 2 37 3 36 4 28 6 27 7 25 8 26 9 23 11 24 12 19 13
REMARK SMILES IDX 18 14 16 15 17 16 11 18 10 19 8 20 9 21 12 24 13 25 14 26
REMARK SMILES IDX 15 27 20 28 21 29 22 30 29 32 30 33 31 34 32 35 33 36 34 37
REMARK SMILES IDX 35 38 57 43 58 44 59 45 60 46 61 47 62 49 66 50 67 51 68 52
REMARK SMILES IDX 69 53 70 54 71 55 2 56 1 57 3 58 4 59 5 60 6 62 7 63 63 65
REMARK SMILES IDX 64 66 65 67 40 69 41 70 42 71 44 72 43 73 45 74 46 75 47 76
REMARK SMILES IDX 55 77 56 78 48 79 49 80 50 81 54 82 51 83 53 84 52 85
REMARK H PARENT 38 5 27 10 18 17 10 22 22 31 34 39 34 40 35 41 35 42 61 48
REMARK H PARENT 5 61 65 68
REMARK Flexibility Score:  369.900
ROOT
ATOM      1  C   UNL     1      -9.108  -1.372  -3.088  1.00  0.00     0.117 C 
ENDROOT
BRANCH   1   2
ATOM      2  N   UNL     1      -9.201  -2.677  -2.433  1.00  0.00    -0.347 N 
ATOM      3  O   UNL     1      -7.735  -2.270  -0.714  1.00  0.00    -0.273 OA
ATOM      4  C   UNL     1      -8.574  -2.992  -1.242  1.00  0.00     0.243 C 
ATOM      5  H   UNL     1      -9.792  -3.390  -2.833  1.00  0.00     0.164 HD
BRANCH   4   6
ATOM      6  C   UNL     1      -8.905  -4.413  -0.720  1.00  0.00     0.171 C 
BRANCH   6   7
ATOM      7  N   UNL     1      -7.892  -5.377  -1.176  1.00  0.00    -0.344 N 
ATOM      8  C   UNL     1      -8.219  -6.369  -2.074  1.00  0.00     0.226 C 
ATOM      9  O   UNL     1      -9.353  -6.512  -2.516  1.00  0.00    -0.275 OA
ATOM     10  H   UNL     1      -6.960  -5.333  -0.782  1.00  0.00     0.164 HD
BRANCH   8  11
ATOM     11  C   UNL     1      -7.053  -7.249  -2.488  1.00  0.00     0.109 C 
ATOM     12  C   UNL     1      -7.539  -8.672  -2.763  1.00  0.00     0.021 C 
BRANCH  11  13
ATOM     13  C   UNL     1      -6.288  -6.589  -3.652  1.00  0.00     0.204 C 
BRANCH  13  14
ATOM     14  N   UNL     1      -5.958  -7.549  -4.710  1.00  0.00    -0.340 N 
ATOM     15  C   UNL     1      -4.861  -7.409  -5.532  1.00  0.00     0.243 C 
ATOM     16  O   UNL     1      -4.046  -6.498  -5.396  1.00  0.00    -0.273 OA
ATOM     17  H   UNL     1      -6.668  -8.237  -4.973  1.00  0.00     0.164 HD
BRANCH  15  18
ATOM     18  C   UNL     1      -4.831  -8.422  -6.703  1.00  0.00     0.171 C 
BRANCH  18  19
ATOM     19  N   UNL     1      -5.538  -9.615  -6.241  1.00  0.00    -0.343 N 
ATOM     20  C   UNL     1      -5.225 -10.876  -6.713  1.00  0.00     0.242 CG0
ATOM     21  O   UNL     1      -4.432 -11.038  -7.637  1.00  0.00    -0.273 OA
ATOM     22  H   UNL     1      -6.283  -9.520  -5.561  1.00  0.00     0.164 HD
ATOM     23  G   UNL     1      -6.023 -12.019  -6.052  1.00  0.00     0.000 G0
ENDBRANCH  18  19
BRANCH  18  24
ATOM     24  C   UNL     1      -5.491  -7.826  -7.952  1.00  0.00     0.038 C 
BRANCH  24  25
ATOM     25  C   UNL     1      -4.560  -7.703  -9.177  1.00  0.00    -0.015 C 
ATOM     26  C   UNL     1      -4.860  -8.751 -10.248  1.00  0.00     0.007 C 
ATOM     27  C   UNL     1      -3.101  -7.827  -8.728  1.00  0.00     0.007 C 
ENDBRANCH  24  25
ENDBRANCH  18  24
ENDBRANCH  15  18
ENDBRANCH  13  14
BRANCH  13  28
ATOM     28  C   UNL     1      -7.061  -5.440  -4.307  1.00  0.00     0.327 C 
ATOM     29  O   UNL     1      -7.027  -4.265  -3.976  1.00  0.00    -0.250 OA
BRANCH  28  30
ATOM     30  O   UNL     1      -7.919  -5.856  -5.260  1.00  0.00    -0.480 OA
ATOM     31  H   UNL     1      -8.615  -6.336  -4.765  1.00  0.00     0.296 HD
ENDBRANCH  28  30
ENDBRANCH  13  28
ENDBRANCH  11  13
ENDBRANCH   8  11
ENDBRANCH   6   7
BRANCH   6  32
ATOM     32  C   UNL     1      -8.982  -4.381   0.810  1.00  0.00     0.037 C 
BRANCH  32  33
ATOM     33  C   UNL     1     -10.271  -3.715   1.312  1.00  0.00     0.026 C 
BRANCH  33  34
ATOM     34  C   UNL     1     -10.021  -2.327   1.901  1.00  0.00     0.146 C 
BRANCH  34  35
ATOM     35  N   UNL     1     -10.951  -2.108   3.000  1.00  0.00    -0.254 NA
ATOM     36  C   UNL     1     -10.724  -1.146   3.816  1.00  0.00     0.185 C 
ATOM     37  N   UNL     1     -11.578  -0.933   4.829  1.00  0.00    -0.370 N 
ATOM     38  N   UNL     1      -9.709  -0.264   3.820  1.00  0.00    -0.370 N 
ATOM     39  H   UNL     1     -12.376  -1.552   4.888  1.00  0.00     0.159 HD
ATOM     40  H   UNL     1     -11.567  -0.105   5.400  1.00  0.00     0.159 HD
ATOM     41  H   UNL     1      -9.565   0.360   4.596  1.00  0.00     0.159 HD
ATOM     42  H   UNL     1      -8.982  -0.316   3.123  1.00  0.00     0.159 HD
ENDBRANCH  34  35
ENDBRANCH  33  34
ENDBRANCH  32  33
ENDBRANCH   6  32
ENDBRANCH   4   6
ENDBRANCH   1   2
BRANCH   1  43
ATOM     43  C   UNL     1     -10.294  -0.489  -2.603  1.00  0.00     0.102 C 
ATOM     44  C   UNL     1     -11.033   0.225  -3.747  1.00  0.00     0.020 C 
BRANCH  43  45
ATOM     45  C   UNL     1      -9.859   0.441  -1.467  1.00  0.00     0.225 C 
ATOM     46  O   UNL     1     -10.593   0.745  -0.531  1.00  0.00    -0.275 OA
ATOM     47  N   UNL     1      -8.610   1.001  -1.605  1.00  0.00    -0.342 N 
ATOM     48  H   UNL     1      -7.968   0.628  -2.290  1.00  0.00     0.164 HD
BRANCH  47  49
ATOM     49  C   UNL     1      -8.048   1.883  -0.578  1.00  0.00     0.192 C 
BRANCH  49  50
ATOM     50  C   UNL     1      -7.061   2.860  -1.223  1.00  0.00     0.047 C 
BRANCH  50  51
ATOM     51  C   UNL     1      -7.575   3.407  -2.562  1.00  0.00     0.103 C 
BRANCH  51  52
ATOM     52  C   UNL     1      -8.778   4.330  -2.380  1.00  0.00     0.226 C 
ATOM     53  O   UNL     1      -9.916   3.889  -2.548  1.00  0.00    -0.275 OA
BRANCH  52  54
ATOM     54  N   UNL     1      -8.502   5.641  -1.949  1.00  0.00    -0.311 N 
ATOM     55  C   UNL     1      -7.325   6.368  -2.443  1.00  0.00     0.153 C 
BRANCH  54  56
ATOM     56  C   UNL     1      -9.342   6.304  -1.038  1.00  0.00     0.102 C 
ATOM     57  C   UNL     1     -10.096   7.376  -1.329  1.00  0.00     0.043 C 
BRANCH  56  58
ATOM     58  C   UNL     1      -9.493   5.806   0.380  1.00  0.00     0.268 C 
ATOM     59  O   UNL     1      -8.549   5.436   1.064  1.00  0.00    -0.268 OA
ATOM     60  N   UNL     1     -10.786   5.874   0.841  1.00  0.00    -0.339 N 
ATOM     61  H   UNL     1     -11.514   6.182   0.207  1.00  0.00     0.164 HD
BRANCH  60  62
ATOM     62  C   UNL     1     -11.146   5.500   2.208  1.00  0.00     0.168 CG0
ATOM     63  C   UNL     1     -11.598   4.046   2.277  1.00  0.00     0.041 C 
ATOM     64  G   UNL     1     -12.254   6.441   2.727  1.00  0.00     0.000 G0
ENDBRANCH  60  62
ENDBRANCH  56  58
ENDBRANCH  54  56
ENDBRANCH  52  54
ENDBRANCH  51  52
ENDBRANCH  50  51
ENDBRANCH  49  50
BRANCH  49  65
ATOM     65  C   UNL     1      -7.329   1.086   0.522  1.00  0.00     0.326 C 
ATOM     66  O   UNL     1      -7.800   0.797   1.612  1.00  0.00    -0.250 OA
BRANCH  65  67
ATOM     67  O   UNL     1      -6.054   0.748   0.232  1.00  0.00    -0.480 OA
ATOM     68  H   UNL     1      -5.669   0.522   1.106  1.00  0.00     0.296 HD
ENDBRANCH  65  67
ENDBRANCH  49  65
ENDBRANCH  47  49
ENDBRANCH  43  45
ENDBRANCH   1  43
BRANCH   1  69
ATOM     69  C   UNL     1      -8.960  -1.651  -4.572  1.00  0.00    -0.001 C 
ATOM     70  C   UNL     1      -7.973  -1.240  -5.387  1.00  0.00     0.001 C 
BRANCH  70  71
ATOM     71  C   UNL     1      -7.830  -1.534  -6.814  1.00  0.00    -0.055 C 
ATOM     72  C   UNL     1      -8.607  -2.507  -7.335  1.00  0.00    -0.018 C 
ATOM     73  C   UNL     1      -6.832  -0.726  -7.601  1.00  0.00     0.044 C 
BRANCH  72  74
ATOM     74  C   UNL     1      -8.677  -3.021  -8.766  1.00  0.00     0.038 C 
ATOM     75  C   UNL     1     -10.107  -2.778  -9.264  1.00  0.00     0.015 C 
BRANCH  74  76
ATOM     76  C   UNL     1      -8.223  -4.510  -8.787  1.00  0.00     0.128 C 
BRANCH  76  77
ATOM     77  O   UNL     1      -9.290  -5.342  -9.272  1.00  0.00    -0.381 OA
ATOM     78  C   UNL     1      -8.993  -5.991 -10.501  1.00  0.00     0.195 C 
ENDBRANCH  76  77
BRANCH  76  79
ATOM     79  C   UNL     1      -6.887  -4.750  -9.535  1.00  0.00     0.068 C 
BRANCH  79  80
ATOM     80  C   UNL     1      -5.666  -3.998  -9.062  1.00  0.00    -0.045 A 
ATOM     81  C   UNL     1      -4.989  -3.114  -9.911  1.00  0.00     0.004 A 
ATOM     82  C   UNL     1      -5.173  -4.198  -7.764  1.00  0.00     0.004 A 
ATOM     83  C   UNL     1      -3.852  -2.434  -9.470  1.00  0.00     0.000 A 
ATOM     84  C   UNL     1      -4.035  -3.518  -7.324  1.00  0.00     0.000 A 
ATOM     85  C   UNL     1      -3.376  -2.635  -8.176  1.00  0.00     0.000 A 
ENDBRANCH  79  80
ENDBRANCH  76  79
ENDBRANCH  74  76
ENDBRANCH  72  74
ENDBRANCH  70  71
ENDBRANCH   1  69
TORSDOF 17
ENDMDL
MODEL 12
REMARK VINA RESULT:    -6.593      5.413     13.667
REMARK INTER + INTRA:         -26.567
REMARK INTER:                 -17.193
REMARK INTRA:                  -9.374
REMARK UNBOUND:                -6.869
REMARK SMILES C=C1C(=O)N[C@H](C)C(=O)N[C@@H](CC(C)C)C(=O)N[C@@H](C(=O)O)[C@H](C)C(=O)N[C@@H](CCCN=C(N)N)C(=O)N[C@@H](/C=C/C(C)=C/[C@H](C)[C@H](Cc2ccccc2)OC)[C@H](C)C(=O)N[C@@H](C(=O)O)CCC(=O)N1C
REMARK SMILES IDX 39 1 38 2 37 3 36 4 28 6 27 7 25 8 26 9 23 11 24 12 19 13
REMARK SMILES IDX 18 14 16 15 17 16 11 18 10 19 8 20 9 21 12 24 13 25 14 26
REMARK SMILES IDX 15 27 20 28 21 29 22 30 29 32 30 33 31 34 32 35 33 36 34 37
REMARK SMILES IDX 35 38 57 43 58 44 59 45 60 46 61 47 62 49 66 50 67 51 68 52
REMARK SMILES IDX 69 53 70 54 71 55 2 56 1 57 3 58 4 59 5 60 6 62 7 63 63 65
REMARK SMILES IDX 64 66 65 67 40 69 41 70 42 71 44 72 43 73 45 74 46 75 47 76
REMARK SMILES IDX 55 77 56 78 48 79 49 80 50 81 54 82 51 83 53 84 52 85
REMARK H PARENT 38 5 27 10 18 17 10 22 22 31 34 39 34 40 35 41 35 42 61 48
REMARK H PARENT 5 61 65 68
REMARK Flexibility Score:  369.900
ROOT
ATOM      1  C   UNL     1      -9.731  -2.564  -1.155  1.00  0.00     0.117 C 
ENDROOT
BRANCH   1   2
ATOM      2  N   UNL     1      -9.372  -3.598  -2.126  1.00  0.00    -0.347 N 
ATOM      3  O   UNL     1      -7.094  -3.504  -1.857  1.00  0.00    -0.273 OA
ATOM      4  C   UNL     1      -8.084  -4.051  -2.333  1.00  0.00     0.243 C 
ATOM      5  H   UNL     1     -10.101  -4.057  -2.651  1.00  0.00     0.164 HD
BRANCH   4   6
ATOM      6  C   UNL     1      -7.988  -5.213  -3.355  1.00  0.00     0.171 C 
BRANCH   6   7
ATOM      7  N   UNL     1      -6.666  -5.221  -4.002  1.00  0.00    -0.344 N 
ATOM      8  C   UNL     1      -6.472  -5.882  -5.195  1.00  0.00     0.226 C 
ATOM      9  O   UNL     1      -7.365  -6.504  -5.758  1.00  0.00    -0.275 OA
ATOM     10  H   UNL     1      -5.887  -4.775  -3.533  1.00  0.00     0.164 HD
BRANCH   8  11
ATOM     11  C   UNL     1      -5.069  -5.751  -5.762  1.00  0.00     0.109 C 
ATOM     12  C   UNL     1      -4.414  -7.128  -5.866  1.00  0.00     0.021 C 
BRANCH  11  13
ATOM     13  C   UNL     1      -5.111  -4.952  -7.080  1.00  0.00     0.204 C 
BRANCH  13  14
ATOM     14  N   UNL     1      -6.444  -4.404  -7.351  1.00  0.00    -0.340 N 
ATOM     15  C   UNL     1      -7.036  -4.456  -8.594  1.00  0.00     0.243 C 
ATOM     16  O   UNL     1      -6.511  -5.021  -9.552  1.00  0.00    -0.273 OA
ATOM     17  H   UNL     1      -6.865  -3.794  -6.645  1.00  0.00     0.164 HD
BRANCH  15  18
ATOM     18  C   UNL     1      -8.345  -3.634  -8.691  1.00  0.00     0.171 C 
BRANCH  18  19
ATOM     19  N   UNL     1      -8.957  -3.972  -9.974  1.00  0.00    -0.343 N 
ATOM     20  C   UNL     1      -9.288  -3.003 -10.901  1.00  0.00     0.242 CG0
ATOM     21  O   UNL     1      -9.207  -1.805 -10.637  1.00  0.00    -0.273 OA
ATOM     22  H   UNL     1      -9.152  -4.943 -10.192  1.00  0.00     0.164 HD
ATOM     23  G   UNL     1      -9.851  -3.555 -12.227  1.00  0.00     0.000 G0
ENDBRANCH  18  19
BRANCH  18  24
ATOM     24  C   UNL     1      -9.278  -3.963  -7.519  1.00  0.00     0.038 C 
BRANCH  24  25
ATOM     25  C   UNL     1      -9.622  -2.762  -6.613  1.00  0.00    -0.015 C 
ATOM     26  C   UNL     1      -8.430  -2.301  -5.774  1.00  0.00     0.007 C 
ATOM     27  C   UNL     1     -10.789  -3.129  -5.692  1.00  0.00     0.007 C 
ENDBRANCH  24  25
ENDBRANCH  18  24
ENDBRANCH  15  18
ENDBRANCH  13  14
BRANCH  13  28
ATOM     28  C   UNL     1      -4.125  -3.780  -7.107  1.00  0.00     0.327 C 
ATOM     29  O   UNL     1      -2.974  -3.814  -7.514  1.00  0.00    -0.250 OA
BRANCH  28  30
ATOM     30  O   UNL     1      -4.607  -2.670  -6.512  1.00  0.00    -0.480 OA
ATOM     31  H   UNL     1      -4.605  -2.888  -5.557  1.00  0.00     0.296 HD
ENDBRANCH  28  30
ENDBRANCH  13  28
ENDBRANCH  11  13
ENDBRANCH   8  11
ENDBRANCH   6   7
BRANCH   6  32
ATOM     32  C   UNL     1      -8.253  -6.539  -2.634  1.00  0.00     0.037 C 
BRANCH  32  33
ATOM     33  C   UNL     1      -7.152  -6.877  -1.618  1.00  0.00     0.026 C 
BRANCH  33  34
ATOM     34  C   UNL     1      -7.712  -7.175  -0.227  1.00  0.00     0.146 C 
BRANCH  34  35
ATOM     35  N   UNL     1      -6.730  -6.775   0.771  1.00  0.00    -0.254 NA
ATOM     36  C   UNL     1      -6.810  -5.601   1.277  1.00  0.00     0.185 C 
ATOM     37  N   UNL     1      -5.913  -5.223   2.200  1.00  0.00    -0.370 N 
ATOM     38  N   UNL     1      -7.703  -4.629   1.017  1.00  0.00    -0.370 N 
ATOM     39  H   UNL     1      -5.212  -5.907   2.458  1.00  0.00     0.159 HD
ATOM     40  H   UNL     1      -6.010  -4.397   2.765  1.00  0.00     0.159 HD
ATOM     41  H   UNL     1      -7.578  -3.697   1.378  1.00  0.00     0.159 HD
ATOM     42  H   UNL     1      -8.427  -4.768   0.329  1.00  0.00     0.159 HD
ENDBRANCH  34  35
ENDBRANCH  33  34
ENDBRANCH  32  33
ENDBRANCH   6  32
ENDBRANCH   4   6
ENDBRANCH   1   2
BRANCH   1  43
ATOM     43  C   UNL     1     -11.090  -2.947  -0.502  1.00  0.00     0.102 C 
ATOM     44  C   UNL     1     -11.867  -1.739   0.047  1.00  0.00     0.020 C 
BRANCH  43  45
ATOM     45  C   UNL     1     -10.914  -4.084   0.508  1.00  0.00     0.225 C 
ATOM     46  O   UNL     1     -10.603  -5.227   0.184  1.00  0.00    -0.275 OA
ATOM     47  N   UNL     1     -11.220  -3.770   1.813  1.00  0.00    -0.342 N 
ATOM     48  H   UNL     1     -11.324  -2.803   2.083  1.00  0.00     0.164 HD
BRANCH  47  49
ATOM     49  C   UNL     1     -11.064  -4.749   2.893  1.00  0.00     0.192 C 
BRANCH  49  50
ATOM     50  C   UNL     1     -12.375  -4.866   3.675  1.00  0.00     0.047 C 
BRANCH  50  51
ATOM     51  C   UNL     1     -13.358  -3.737   3.335  1.00  0.00     0.103 C 
BRANCH  51  52
ATOM     52  C   UNL     1     -13.394  -2.662   4.419  1.00  0.00     0.226 C 
ATOM     53  O   UNL     1     -13.261  -2.984   5.602  1.00  0.00    -0.275 OA
BRANCH  52  54
ATOM     54  N   UNL     1     -13.505  -1.330   3.979  1.00  0.00    -0.311 N 
ATOM     55  C   UNL     1     -14.756  -0.828   3.397  1.00  0.00     0.153 C 
BRANCH  54  56
ATOM     56  C   UNL     1     -12.429  -0.433   4.083  1.00  0.00     0.102 C 
ATOM     57  C   UNL     1     -11.241  -0.583   3.476  1.00  0.00     0.043 C 
BRANCH  56  58
ATOM     58  C   UNL     1     -12.558   0.841   4.885  1.00  0.00     0.268 C 
ATOM     59  O   UNL     1     -12.881   1.913   4.392  1.00  0.00    -0.268 OA
ATOM     60  N   UNL     1     -12.341   0.657   6.230  1.00  0.00    -0.339 N 
ATOM     61  H   UNL     1     -12.066  -0.261   6.558  1.00  0.00     0.164 HD
BRANCH  60  62
ATOM     62  C   UNL     1     -12.476   1.745   7.197  1.00  0.00     0.168 CG0
ATOM     63  C   UNL     1     -11.160   2.496   7.363  1.00  0.00     0.041 C 
ATOM     64  G   UNL     1     -12.956   1.179   8.549  1.00  0.00     0.000 G0
ENDBRANCH  60  62
ENDBRANCH  56  58
ENDBRANCH  54  56
ENDBRANCH  52  54
ENDBRANCH  51  52
ENDBRANCH  50  51
ENDBRANCH  49  50
BRANCH  49  65
ATOM     65  C   UNL     1      -9.931  -4.356   3.854  1.00  0.00     0.326 C 
ATOM     66  O   UNL     1      -8.758  -4.680   3.741  1.00  0.00    -0.250 OA
BRANCH  65  67
ATOM     67  O   UNL     1     -10.327  -3.639   4.929  1.00  0.00    -0.480 OA
ATOM     68  H   UNL     1      -9.851  -2.787   4.826  1.00  0.00     0.296 HD
ENDBRANCH  65  67
ENDBRANCH  49  65
ENDBRANCH  47  49
ENDBRANCH  43  45
ENDBRANCH   1  43
BRANCH   1  69
ATOM     69  C   UNL     1      -9.616  -1.239  -1.886  1.00  0.00    -0.001 C 
ATOM     70  C   UNL     1     -10.319  -0.833  -2.958  1.00  0.00     0.001 C 
BRANCH  70  71
ATOM     71  C   UNL     1     -10.215   0.457  -3.642  1.00  0.00    -0.055 C 
ATOM     72  C   UNL     1      -8.986   0.871  -4.017  1.00  0.00    -0.018 C 
ATOM     73  C   UNL     1     -11.486   1.228  -3.886  1.00  0.00     0.044 C 
BRANCH  72  74
ATOM     74  C   UNL     1      -8.578   2.148  -4.738  1.00  0.00     0.038 C 
ATOM     75  C   UNL     1      -7.788   1.732  -5.985  1.00  0.00     0.015 C 
BRANCH  74  76
ATOM     76  C   UNL     1      -7.796   3.056  -3.743  1.00  0.00     0.128 C 
BRANCH  76  77
ATOM     77  O   UNL     1      -7.210   4.164  -4.447  1.00  0.00    -0.381 OA
ATOM     78  C   UNL     1      -8.155   5.139  -4.866  1.00  0.00     0.195 C 
ENDBRANCH  76  77
BRANCH  76  79
ATOM     79  C   UNL     1      -8.625   3.499  -2.511  1.00  0.00     0.068 C 
BRANCH  79  80
ATOM     80  C   UNL     1      -8.601   2.616  -1.287  1.00  0.00    -0.045 A 
ATOM     81  C   UNL     1      -9.748   2.437  -0.503  1.00  0.00     0.004 A 
ATOM     82  C   UNL     1      -7.413   1.978  -0.899  1.00  0.00     0.004 A 
ATOM     83  C   UNL     1      -9.714   1.629   0.635  1.00  0.00     0.000 A 
ATOM     84  C   UNL     1      -7.379   1.171   0.240  1.00  0.00     0.000 A 
ATOM     85  C   UNL     1      -8.530   0.996   1.006  1.00  0.00     0.000 A 
ENDBRANCH  79  80
ENDBRANCH  76  79
ENDBRANCH  74  76
ENDBRANCH  72  74
ENDBRANCH  70  71
ENDBRANCH   1  69
TORSDOF 17
ENDMDL
MODEL 13
REMARK VINA RESULT:    -6.577      4.303     13.785
REMARK INTER + INTRA:         -26.519
REMARK INTER:                 -19.739
REMARK INTRA:                  -6.779
REMARK UNBOUND:                -6.869
REMARK SMILES C=C1C(=O)N[C@H](C)C(=O)N[C@@H](CC(C)C)C(=O)N[C@@H](C(=O)O)[C@H](C)C(=O)N[C@@H](CCCN=C(N)N)C(=O)N[C@@H](/C=C/C(C)=C/[C@H](C)[C@H](Cc2ccccc2)OC)[C@H](C)C(=O)N[C@@H](C(=O)O)CCC(=O)N1C
REMARK SMILES IDX 39 1 38 2 37 3 36 4 28 6 27 7 25 8 26 9 23 11 24 12 19 13
REMARK SMILES IDX 18 14 16 15 17 16 11 18 10 19 8 20 9 21 12 24 13 25 14 26
REMARK SMILES IDX 15 27 20 28 21 29 22 30 29 32 30 33 31 34 32 35 33 36 34 37
REMARK SMILES IDX 35 38 57 43 58 44 59 45 60 46 61 47 62 49 66 50 67 51 68 52
REMARK SMILES IDX 69 53 70 54 71 55 2 56 1 57 3 58 4 59 5 60 6 62 7 63 63 65
REMARK SMILES IDX 64 66 65 67 40 69 41 70 42 71 44 72 43 73 45 74 46 75 47 76
REMARK SMILES IDX 55 77 56 78 48 79 49 80 50 81 54 82 51 83 53 84 52 85
REMARK H PARENT 38 5 27 10 18 17 10 22 22 31 34 39 34 40 35 41 35 42 61 48
REMARK H PARENT 5 61 65 68
REMARK Flexibility Score:  369.900
ROOT
ATOM      1  C   UNL     1      -7.354  -8.702  -2.368  1.00  0.00     0.117 C 
ENDROOT
BRANCH   1   2
ATOM      2  N   UNL     1      -7.432  -7.243  -2.455  1.00  0.00    -0.347 N 
ATOM      3  O   UNL     1      -9.717  -7.057  -2.564  1.00  0.00    -0.273 OA
ATOM      4  C   UNL     1      -8.615  -6.530  -2.454  1.00  0.00     0.243 C 
ATOM      5  H   UNL     1      -6.580  -6.703  -2.468  1.00  0.00     0.164 HD
BRANCH   4   6
ATOM      6  C   UNL     1      -8.417  -4.993  -2.466  1.00  0.00     0.171 C 
BRANCH   6   7
ATOM      7  N   UNL     1      -7.884  -4.554  -3.766  1.00  0.00    -0.344 N 
ATOM      8  C   UNL     1      -8.718  -4.405  -4.853  1.00  0.00     0.226 C 
ATOM      9  O   UNL     1      -9.918  -4.647  -4.803  1.00  0.00    -0.275 OA
ATOM     10  H   UNL     1      -6.887  -4.410  -3.864  1.00  0.00     0.164 HD
BRANCH   8  11
ATOM     11  C   UNL     1      -8.027  -3.893  -6.105  1.00  0.00     0.109 C 
ATOM     12  C   UNL     1      -9.006  -3.886  -7.280  1.00  0.00     0.021 C 
BRANCH  11  13
ATOM     13  C   UNL     1      -7.356  -2.537  -5.813  1.00  0.00     0.204 C 
BRANCH  13  14
ATOM     14  N   UNL     1      -6.524  -2.081  -6.932  1.00  0.00    -0.340 N 
ATOM     15  C   UNL     1      -5.401  -1.302  -6.760  1.00  0.00     0.243 C 
ATOM     16  O   UNL     1      -4.981  -0.984  -5.648  1.00  0.00    -0.273 OA
ATOM     17  H   UNL     1      -6.898  -2.180  -7.879  1.00  0.00     0.164 HD
BRANCH  15  18
ATOM     18  C   UNL     1      -4.807  -0.771  -8.088  1.00  0.00     0.171 C 
BRANCH  18  19
ATOM     19  N   UNL     1      -4.914   0.686  -8.042  1.00  0.00    -0.343 N 
ATOM     20  C   UNL     1      -6.022   1.351  -8.532  1.00  0.00     0.242 CG0
ATOM     21  O   UNL     1      -6.906   0.761  -9.148  1.00  0.00    -0.273 OA
ATOM     22  H   UNL     1      -4.155   1.228  -7.645  1.00  0.00     0.164 HD
ATOM     23  G   UNL     1      -5.990   2.880  -8.324  1.00  0.00     0.000 G0
ENDBRANCH  18  19
BRANCH  18  24
ATOM     24  C   UNL     1      -3.350  -1.222  -8.248  1.00  0.00     0.038 C 
BRANCH  24  25
ATOM     25  C   UNL     1      -3.123  -2.289  -9.340  1.00  0.00    -0.015 C 
ATOM     26  C   UNL     1      -4.116  -2.164 -10.496  1.00  0.00     0.007 C 
ATOM     27  C   UNL     1      -3.222  -3.686  -8.724  1.00  0.00     0.007 C 
ENDBRANCH  24  25
ENDBRANCH  18  24
ENDBRANCH  15  18
ENDBRANCH  13  14
BRANCH  13  28
ATOM     28  C   UNL     1      -8.358  -1.420  -5.508  1.00  0.00     0.327 C 
ATOM     29  O   UNL     1      -8.507  -0.388  -6.145  1.00  0.00    -0.250 OA
BRANCH  28  30
ATOM     30  O   UNL     1      -9.030  -1.613  -4.355  1.00  0.00    -0.480 OA
ATOM     31  H   UNL     1      -8.534  -1.085  -3.695  1.00  0.00     0.296 HD
ENDBRANCH  28  30
ENDBRANCH  13  28
ENDBRANCH  11  13
ENDBRANCH   8  11
ENDBRANCH   6   7
BRANCH   6  32
ATOM     32  C   UNL     1      -9.755  -4.310  -2.165  1.00  0.00     0.037 C 
BRANCH  32  33
ATOM     33  C   UNL     1      -9.613  -3.189  -1.126  1.00  0.00     0.026 C 
BRANCH  33  34
ATOM     34  C   UNL     1      -8.611  -3.536  -0.024  1.00  0.00     0.146 C 
BRANCH  34  35
ATOM     35  N   UNL     1      -9.287  -3.469   1.264  1.00  0.00    -0.254 NA
ATOM     36  C   UNL     1      -8.905  -4.255   2.200  1.00  0.00     0.185 C 
ATOM     37  N   UNL     1      -9.518  -4.198   3.393  1.00  0.00    -0.370 N 
ATOM     38  N   UNL     1      -7.930  -5.181   2.180  1.00  0.00    -0.370 N 
ATOM     39  H   UNL     1     -10.259  -3.515   3.490  1.00  0.00     0.159 HD
ATOM     40  H   UNL     1      -9.168  -4.650   4.220  1.00  0.00     0.159 HD
ATOM     41  H   UNL     1      -7.816  -5.834   2.938  1.00  0.00     0.159 HD
ATOM     42  H   UNL     1      -7.394  -5.344   1.342  1.00  0.00     0.159 HD
ENDBRANCH  34  35
ENDBRANCH  33  34
ENDBRANCH  32  33
ENDBRANCH   6  32
ENDBRANCH   4   6
ENDBRANCH   1   2
BRANCH   1  43
ATOM     43  C   UNL     1      -6.649  -9.082  -1.034  1.00  0.00     0.102 C 
ATOM     44  C   UNL     1      -6.395 -10.591  -0.885  1.00  0.00     0.020 C 
BRANCH  43  45
ATOM     45  C   UNL     1      -7.364  -8.450   0.165  1.00  0.00     0.225 C 
ATOM     46  O   UNL     1      -6.873  -7.550   0.840  1.00  0.00    -0.275 OA
ATOM     47  N   UNL     1      -8.568  -9.022   0.505  1.00  0.00    -0.342 N 
ATOM     48  H   UNL     1      -9.025  -9.649  -0.142  1.00  0.00     0.164 HD
BRANCH  47  49
ATOM     49  C   UNL     1      -9.380  -8.499   1.608  1.00  0.00     0.192 C 
BRANCH  49  50
ATOM     50  C   UNL     1     -10.018  -9.661   2.373  1.00  0.00     0.047 C 
BRANCH  50  51
ATOM     51  C   UNL     1     -10.444  -9.260   3.792  1.00  0.00     0.103 C 
BRANCH  51  52
ATOM     52  C   UNL     1     -11.963  -9.185   3.935  1.00  0.00     0.226 C 
ATOM     53  O   UNL     1     -12.664 -10.094   3.486  1.00  0.00    -0.275 OA
BRANCH  52  54
ATOM     54  N   UNL     1     -12.471  -8.089   4.657  1.00  0.00    -0.311 N 
ATOM     55  C   UNL     1     -13.269  -7.050   3.993  1.00  0.00     0.153 C 
BRANCH  54  56
ATOM     56  C   UNL     1     -12.240  -7.949   6.036  1.00  0.00     0.102 C 
ATOM     57  C   UNL     1     -11.306  -7.153   6.582  1.00  0.00     0.043 C 
BRANCH  56  58
ATOM     58  C   UNL     1     -13.093  -8.684   7.043  1.00  0.00     0.268 C 
ATOM     59  O   UNL     1     -12.905  -9.853   7.354  1.00  0.00    -0.268 OA
ATOM     60  N   UNL     1     -14.055  -7.889   7.619  1.00  0.00    -0.339 N 
ATOM     61  H   UNL     1     -14.153  -6.933   7.298  1.00  0.00     0.164 HD
BRANCH  60  62
ATOM     62  C   UNL     1     -14.950  -8.382   8.665  1.00  0.00     0.168 CG0
ATOM     63  C   UNL     1     -16.326  -7.737   8.556  1.00  0.00     0.041 C 
ATOM     64  G   UNL     1     -14.326  -8.110  10.049  1.00  0.00     0.000 G0
ENDBRANCH  60  62
ENDBRANCH  56  58
ENDBRANCH  54  56
ENDBRANCH  52  54
ENDBRANCH  51  52
ENDBRANCH  50  51
ENDBRANCH  49  50
BRANCH  49  65
ATOM     65  C   UNL     1     -10.483  -7.556   1.102  1.00  0.00     0.326 C 
ATOM     66  O   UNL     1     -10.835  -6.518   1.644  1.00  0.00    -0.250 OA
BRANCH  65  67
ATOM     67  O   UNL     1     -11.125  -7.983  -0.008  1.00  0.00    -0.480 OA
ATOM     68  H   UNL     1     -10.900  -7.304  -0.680  1.00  0.00     0.296 HD
ENDBRANCH  65  67
ENDBRANCH  49  65
ENDBRANCH  47  49
ENDBRANCH  43  45
ENDBRANCH   1  43
BRANCH   1  69
ATOM     69  C   UNL     1      -6.749  -9.173  -3.678  1.00  0.00    -0.001 C 
ATOM     70  C   UNL     1      -6.124  -8.425  -4.605  1.00  0.00     0.001 C 
BRANCH  70  71
ATOM     71  C   UNL     1      -5.525  -8.895  -5.855  1.00  0.00    -0.055 C 
ATOM     72  C   UNL     1      -4.992  -7.970  -6.682  1.00  0.00    -0.018 C 
ATOM     73  C   UNL     1      -5.538 -10.376  -6.128  1.00  0.00     0.044 C 
BRANCH  72  74
ATOM     74  C   UNL     1      -4.308  -8.161  -8.028  1.00  0.00     0.038 C 
ATOM     75  C   UNL     1      -3.193  -7.113  -8.122  1.00  0.00     0.015 C 
BRANCH  74  76
ATOM     76  C   UNL     1      -5.382  -8.075  -9.152  1.00  0.00     0.128 C 
BRANCH  76  77
ATOM     77  O   UNL     1      -5.518  -9.351  -9.800  1.00  0.00    -0.381 OA
ATOM     78  C   UNL     1      -4.361 -10.169  -9.698  1.00  0.00     0.195 C 
ENDBRANCH  76  77
BRANCH  76  79
ATOM     79  C   UNL     1      -6.740  -7.493  -8.682  1.00  0.00     0.068 C 
BRANCH  79  80
ATOM     80  C   UNL     1      -7.358  -6.389  -9.505  1.00  0.00    -0.045 A 
ATOM     81  C   UNL     1      -6.616  -5.259  -9.872  1.00  0.00     0.004 A 
ATOM     82  C   UNL     1      -8.704  -6.467  -9.894  1.00  0.00     0.004 A 
ATOM     83  C   UNL     1      -7.200  -4.235 -10.621  1.00  0.00     0.000 A 
ATOM     84  C   UNL     1      -9.288  -5.442 -10.643  1.00  0.00     0.000 A 
ATOM     85  C   UNL     1      -8.535  -4.328 -11.007  1.00  0.00     0.000 A 
ENDBRANCH  79  80
ENDBRANCH  76  79
ENDBRANCH  74  76
ENDBRANCH  72  74
ENDBRANCH  70  71
ENDBRANCH   1  69
TORSDOF 17
ENDMDL
MODEL 14
REMARK VINA RESULT:    -6.561      6.437     16.248
REMARK INTER + INTRA:         -26.469
REMARK INTER:                 -18.641
REMARK INTRA:                  -7.829
REMARK UNBOUND:                -6.869
REMARK SMILES C=C1C(=O)N[C@H](C)C(=O)N[C@@H](CC(C)C)C(=O)N[C@@H](C(=O)O)[C@H](C)C(=O)N[C@@H](CCCN=C(N)N)C(=O)N[C@@H](/C=C/C(C)=C/[C@H](C)[C@H](Cc2ccccc2)OC)[C@H](C)C(=O)N[C@@H](C(=O)O)CCC(=O)N1C
REMARK SMILES IDX 39 1 38 2 37 3 36 4 28 6 27 7 25 8 26 9 23 11 24 12 19 13
REMARK SMILES IDX 18 14 16 15 17 16 11 18 10 19 8 20 9 21 12 24 13 25 14 26
REMARK SMILES IDX 15 27 20 28 21 29 22 30 29 32 30 33 31 34 32 35 33 36 34 37
REMARK SMILES IDX 35 38 57 43 58 44 59 45 60 46 61 47 62 49 66 50 67 51 68 52
REMARK SMILES IDX 69 53 70 54 71 55 2 56 1 57 3 58 4 59 5 60 6 62 7 63 63 65
REMARK SMILES IDX 64 66 65 67 40 69 41 70 42 71 44 72 43 73 45 74 46 75 47 76
REMARK SMILES IDX 55 77 56 78 48 79 49 80 50 81 54 82 51 83 53 84 52 85
REMARK H PARENT 38 5 27 10 18 17 10 22 22 31 34 39 34 40 35 41 35 42 61 48
REMARK H PARENT 5 61 65 68
REMARK Flexibility Score:  369.900
ROOT
ATOM      1  C   UNL     1     -12.326  -5.399   3.594  1.00  0.00     0.117 C 
ENDROOT
BRANCH   1   2
ATOM      2  N   UNL     1     -12.056  -5.758   2.202  1.00  0.00    -0.347 N 
ATOM      3  O   UNL     1      -9.818  -6.219   2.426  1.00  0.00    -0.273 OA
ATOM      4  C   UNL     1     -10.839  -6.230   1.747  1.00  0.00     0.243 C 
ATOM      5  H   UNL     1     -12.803  -5.714   1.526  1.00  0.00     0.164 HD
BRANCH   4   6
ATOM      6  C   UNL     1     -10.843  -6.620   0.247  1.00  0.00     0.171 C 
BRANCH   6   7
ATOM      7  N   UNL     1     -10.133  -5.607  -0.550  1.00  0.00    -0.344 N 
ATOM      8  C   UNL     1     -10.735  -4.407  -0.859  1.00  0.00     0.226 C 
ATOM      9  O   UNL     1     -11.878  -4.133  -0.514  1.00  0.00    -0.275 OA
ATOM     10  H   UNL     1      -9.212  -5.824  -0.910  1.00  0.00     0.164 HD
BRANCH   8  11
ATOM     11  C   UNL     1      -9.853  -3.447  -1.639  1.00  0.00     0.109 C 
ATOM     12  C   UNL     1      -9.830  -2.080  -0.956  1.00  0.00     0.021 C 
BRANCH  11  13
ATOM     13  C   UNL     1      -8.466  -4.082  -1.867  1.00  0.00     0.204 C 
BRANCH  13  14
ATOM     14  N   UNL     1      -7.992  -3.892  -3.242  1.00  0.00    -0.340 N 
ATOM     15  C   UNL     1      -8.079  -4.874  -4.205  1.00  0.00     0.243 C 
ATOM     16  O   UNL     1      -8.617  -5.960  -3.995  1.00  0.00    -0.273 OA
ATOM     17  H   UNL     1      -7.404  -3.078  -3.439  1.00  0.00     0.164 HD
BRANCH  15  18
ATOM     18  C   UNL     1      -7.330  -4.523  -5.514  1.00  0.00     0.171 C 
BRANCH  18  19
ATOM     19  N   UNL     1      -6.545  -5.702  -5.876  1.00  0.00    -0.343 N 
ATOM     20  C   UNL     1      -5.258  -5.598  -6.366  1.00  0.00     0.242 CG0
ATOM     21  O   UNL     1      -4.762  -4.509  -6.646  1.00  0.00    -0.273 OA
ATOM     22  H   UNL     1      -6.955  -6.623  -5.772  1.00  0.00     0.164 HD
ATOM     23  G   UNL     1      -4.560  -6.951  -6.617  1.00  0.00     0.000 G0
ENDBRANCH  18  19
BRANCH  18  24
ATOM     24  C   UNL     1      -8.322  -4.147  -6.622  1.00  0.00     0.038 C 
BRANCH  24  25
ATOM     25  C   UNL     1      -8.391  -2.638  -6.940  1.00  0.00    -0.015 C 
ATOM     26  C   UNL     1      -9.280  -1.874  -5.958  1.00  0.00     0.007 C 
ATOM     27  C   UNL     1      -8.907  -2.436  -8.367  1.00  0.00     0.007 C 
ENDBRANCH  24  25
ENDBRANCH  18  24
ENDBRANCH  15  18
ENDBRANCH  13  14
BRANCH  13  28
ATOM     28  C   UNL     1      -7.387  -3.525  -0.934  1.00  0.00     0.327 C 
ATOM     29  O   UNL     1      -6.619  -2.608  -1.183  1.00  0.00    -0.250 OA
BRANCH  28  30
ATOM     30  O   UNL     1      -7.259  -4.232   0.207  1.00  0.00    -0.480 OA
ATOM     31  H   UNL     1      -7.116  -5.153  -0.095  1.00  0.00     0.296 HD
ENDBRANCH  28  30
ENDBRANCH  13  28
ENDBRANCH  11  13
ENDBRANCH   8  11
ENDBRANCH   6   7
BRANCH   6  32
ATOM     32  C   UNL     1     -10.195  -7.999   0.084  1.00  0.00     0.037 C 
BRANCH  32  33
ATOM     33  C   UNL     1      -9.304  -8.076  -1.164  1.00  0.00     0.026 C 
BRANCH  33  34
ATOM     34  C   UNL     1      -7.823  -8.238  -0.817  1.00  0.00     0.146 C 
BRANCH  34  35
ATOM     35  N   UNL     1      -7.443  -7.189   0.120  1.00  0.00    -0.254 NA
ATOM     36  C   UNL     1      -6.973  -7.527   1.263  1.00  0.00     0.185 C 
ATOM     37  N   UNL     1      -6.615  -6.570   2.132  1.00  0.00    -0.370 N 
ATOM     38  N   UNL     1      -6.767  -8.760   1.760  1.00  0.00    -0.370 N 
ATOM     39  H   UNL     1      -6.730  -5.612   1.825  1.00  0.00     0.159 HD
ATOM     40  H   UNL     1      -6.082  -6.747   2.966  1.00  0.00     0.159 HD
ATOM     41  H   UNL     1      -6.521  -8.896   2.727  1.00  0.00     0.159 HD
ATOM     42  H   UNL     1      -7.006  -9.577   1.221  1.00  0.00     0.159 HD
ENDBRANCH  34  35
ENDBRANCH  33  34
ENDBRANCH  32  33
ENDBRANCH   6  32
ENDBRANCH   4   6
ENDBRANCH   1   2
BRANCH   1  43
ATOM     43  C   UNL     1     -13.245  -6.488   4.218  1.00  0.00     0.102 C 
ATOM     44  C   UNL     1     -13.963  -6.025   5.497  1.00  0.00     0.020 C 
BRANCH  43  45
ATOM     45  C   UNL     1     -12.498  -7.816   4.371  1.00  0.00     0.225 C 
ATOM     46  O   UNL     1     -12.952  -8.890   3.987  1.00  0.00    -0.275 OA
ATOM     47  N   UNL     1     -11.308  -7.750   5.060  1.00  0.00    -0.342 N 
ATOM     48  H   UNL     1     -10.880  -6.852   5.233  1.00  0.00     0.164 HD
BRANCH  47  49
ATOM     49  C   UNL     1     -10.468  -8.936   5.252  1.00  0.00     0.192 C 
BRANCH  49  50
ATOM     50  C   UNL     1      -9.850  -8.907   6.652  1.00  0.00     0.047 C 
BRANCH  50  51
ATOM     51  C   UNL     1     -10.117  -7.581   7.379  1.00  0.00     0.103 C 
BRANCH  51  52
ATOM     52  C   UNL     1     -10.350  -7.784   8.875  1.00  0.00     0.226 C 
ATOM     53  O   UNL     1      -9.574  -7.278   9.687  1.00  0.00    -0.275 OA
BRANCH  52  54
ATOM     54  N   UNL     1     -11.511  -8.492   9.238  1.00  0.00    -0.311 N 
ATOM     55  C   UNL     1     -11.423  -9.767   9.961  1.00  0.00     0.153 C 
BRANCH  54  56
ATOM     56  C   UNL     1     -12.792  -8.006   8.929  1.00  0.00     0.102 C 
ATOM     57  C   UNL     1     -13.608  -8.527   7.998  1.00  0.00     0.043 C 
BRANCH  56  58
ATOM     58  C   UNL     1     -13.382  -6.840   9.688  1.00  0.00     0.268 C 
ATOM     59  O   UNL     1     -12.711  -6.074  10.366  1.00  0.00    -0.268 OA
ATOM     60  N   UNL     1     -14.734  -6.693   9.485  1.00  0.00    -0.339 N 
ATOM     61  H   UNL     1     -15.219  -7.377   8.917  1.00  0.00     0.164 HD
BRANCH  60  62
ATOM     62  C   UNL     1     -15.494  -5.592  10.075  1.00  0.00     0.168 CG0
ATOM     63  C   UNL     1     -15.655  -4.445   9.084  1.00  0.00     0.041 C 
ATOM     64  G   UNL     1     -14.791  -5.108  11.360  1.00  0.00     0.000 G0
ENDBRANCH  60  62
ENDBRANCH  56  58
ENDBRANCH  54  56
ENDBRANCH  52  54
ENDBRANCH  51  52
ENDBRANCH  50  51
ENDBRANCH  49  50
BRANCH  49  65
ATOM     65  C   UNL     1      -9.348  -9.013   4.203  1.00  0.00     0.326 C 
ATOM     66  O   UNL     1      -9.241  -9.871   3.338  1.00  0.00    -0.250 OA
BRANCH  65  67
ATOM     67  O   UNL     1      -8.395  -8.062   4.324  1.00  0.00    -0.480 OA
ATOM     68  H   UNL     1      -7.636  -8.544   4.716  1.00  0.00     0.296 HD
ENDBRANCH  65  67
ENDBRANCH  49  65
ENDBRANCH  47  49
ENDBRANCH  43  45
ENDBRANCH   1  43
BRANCH   1  69
ATOM     69  C   UNL     1     -12.805  -3.959   3.574  1.00  0.00    -0.001 C 
ATOM     70  C   UNL     1     -13.642  -3.388   2.689  1.00  0.00     0.001 C 
BRANCH  70  71
ATOM     71  C   UNL     1     -14.114  -2.002   2.693  1.00  0.00    -0.055 C 
ATOM     72  C   UNL     1     -14.403  -1.434   1.503  1.00  0.00    -0.018 C 
ATOM     73  C   UNL     1     -14.252  -1.310   4.024  1.00  0.00     0.044 C 
BRANCH  72  74
ATOM     74  C   UNL     1     -14.909  -0.030   1.203  1.00  0.00     0.038 C 
ATOM     75  C   UNL     1     -16.413  -0.018   1.502  1.00  0.00     0.015 C 
BRANCH  74  76
ATOM     76  C   UNL     1     -14.531   0.336  -0.262  1.00  0.00     0.128 C 
BRANCH  76  77
ATOM     77  O   UNL     1     -13.493  -0.540  -0.735  1.00  0.00    -0.381 OA
ATOM     78  C   UNL     1     -12.310   0.140  -1.134  1.00  0.00     0.195 C 
ENDBRANCH  76  77
BRANCH  76  79
ATOM     79  C   UNL     1     -15.742   0.405  -1.226  1.00  0.00     0.068 C 
BRANCH  79  80
ATOM     80  C   UNL     1     -16.001   1.708  -1.944  1.00  0.00    -0.045 A 
ATOM     81  C   UNL     1     -15.132   2.168  -2.942  1.00  0.00     0.004 A 
ATOM     82  C   UNL     1     -17.109   2.497  -1.599  1.00  0.00     0.004 A 
ATOM     83  C   UNL     1     -15.370   3.381  -3.591  1.00  0.00     0.000 A 
ATOM     84  C   UNL     1     -17.346   3.711  -2.249  1.00  0.00     0.000 A 
ATOM     85  C   UNL     1     -16.478   4.151  -3.245  1.00  0.00     0.000 A 
ENDBRANCH  79  80
ENDBRANCH  76  79
ENDBRANCH  74  76
ENDBRANCH  72  74
ENDBRANCH  70  71
ENDBRANCH   1  69
TORSDOF 17
ENDMDL
MODEL 15
REMARK VINA RESULT:    -6.560      3.099      7.719
REMARK INTER + INTRA:         -26.469
REMARK INTER:                 -19.045
REMARK INTRA:                  -7.424
REMARK UNBOUND:                -6.869
REMARK SMILES C=C1C(=O)N[C@H](C)C(=O)N[C@@H](CC(C)C)C(=O)N[C@@H](C(=O)O)[C@H](C)C(=O)N[C@@H](CCCN=C(N)N)C(=O)N[C@@H](/C=C/C(C)=C/[C@H](C)[C@H](Cc2ccccc2)OC)[C@H](C)C(=O)N[C@@H](C(=O)O)CCC(=O)N1C
REMARK SMILES IDX 39 1 38 2 37 3 36 4 28 6 27 7 25 8 26 9 23 11 24 12 19 13
REMARK SMILES IDX 18 14 16 15 17 16 11 18 10 19 8 20 9 21 12 24 13 25 14 26
REMARK SMILES IDX 15 27 20 28 21 29 22 30 29 32 30 33 31 34 32 35 33 36 34 37
REMARK SMILES IDX 35 38 57 43 58 44 59 45 60 46 61 47 62 49 66 50 67 51 68 52
REMARK SMILES IDX 69 53 70 54 71 55 2 56 1 57 3 58 4 59 5 60 6 62 7 63 63 65
REMARK SMILES IDX 64 66 65 67 40 69 41 70 42 71 44 72 43 73 45 74 46 75 47 76
REMARK SMILES IDX 55 77 56 78 48 79 49 80 50 81 54 82 51 83 53 84 52 85
REMARK H PARENT 38 5 27 10 18 17 10 22 22 31 34 39 34 40 35 41 35 42 61 48
REMARK H PARENT 5 61 65 68
REMARK Flexibility Score:  369.900
ROOT
ATOM      1  C   UNL     1      -7.789  -3.248  -5.441  1.00  0.00     0.117 C 
ENDROOT
BRANCH   1   2
ATOM      2  N   UNL     1      -7.068  -4.367  -4.834  1.00  0.00    -0.347 N 
ATOM      3  O   UNL     1      -7.649  -5.980  -6.360  1.00  0.00    -0.273 OA
ATOM      4  C   UNL     1      -6.981  -5.627  -5.394  1.00  0.00     0.243 C 
ATOM      5  H   UNL     1      -6.554  -4.218  -3.978  1.00  0.00     0.164 HD
BRANCH   4   6
ATOM      6  C   UNL     1      -6.085  -6.605  -4.593  1.00  0.00     0.171 C 
BRANCH   6   7
ATOM      7  N   UNL     1      -6.913  -7.560  -3.839  1.00  0.00    -0.344 N 
ATOM      8  C   UNL     1      -7.423  -7.225  -2.603  1.00  0.00     0.226 C 
ATOM      9  O   UNL     1      -7.200  -6.146  -2.068  1.00  0.00    -0.275 OA
ATOM     10  H   UNL     1      -7.063  -8.486  -4.218  1.00  0.00     0.164 HD
BRANCH   8  11
ATOM     11  C   UNL     1      -8.301  -8.295  -1.978  1.00  0.00     0.109 C 
ATOM     12  C   UNL     1      -7.498  -9.105  -0.960  1.00  0.00     0.021 C 
BRANCH  11  13
ATOM     13  C   UNL     1      -9.590  -7.654  -1.426  1.00  0.00     0.204 C 
BRANCH  13  14
ATOM     14  N   UNL     1      -9.317  -6.728  -0.322  1.00  0.00    -0.340 N 
ATOM     15  C   UNL     1      -9.970  -6.794   0.889  1.00  0.00     0.243 C 
ATOM     16  O   UNL     1     -10.788  -7.674   1.152  1.00  0.00    -0.273 OA
ATOM     17  H   UNL     1      -8.766  -5.889  -0.524  1.00  0.00     0.164 HD
BRANCH  15  18
ATOM     18  C   UNL     1      -9.670  -5.593   1.820  1.00  0.00     0.171 C 
BRANCH  18  19
ATOM     19  N   UNL     1     -10.205  -5.939   3.135  1.00  0.00    -0.343 N 
ATOM     20  C   UNL     1     -10.736  -4.984   3.981  1.00  0.00     0.242 CG0
ATOM     21  O   UNL     1     -10.663  -3.785   3.723  1.00  0.00    -0.273 OA
ATOM     22  H   UNL     1     -10.182  -6.905   3.443  1.00  0.00     0.164 HD
ATOM     23  G   UNL     1     -11.323  -5.549   5.291  1.00  0.00     0.000 G0
ENDBRANCH  18  19
BRANCH  18  24
ATOM     24  C   UNL     1      -8.163  -5.319   1.881  1.00  0.00     0.038 C 
BRANCH  24  25
ATOM     25  C   UNL     1      -7.390  -6.189   2.894  1.00  0.00    -0.015 C 
ATOM     26  C   UNL     1      -6.385  -5.379   3.714  1.00  0.00     0.007 C 
ATOM     27  C   UNL     1      -6.663  -7.316   2.156  1.00  0.00     0.007 C 
ENDBRANCH  24  25
ENDBRANCH  18  24
ENDBRANCH  15  18
ENDBRANCH  13  14
BRANCH  13  28
ATOM     28  C   UNL     1     -10.380  -6.878  -2.484  1.00  0.00     0.327 C 
ATOM     29  O   UNL     1     -10.726  -5.709  -2.414  1.00  0.00    -0.250 OA
BRANCH  28  30
ATOM     30  O   UNL     1     -10.788  -7.651  -3.511  1.00  0.00    -0.480 OA
ATOM     31  H   UNL     1     -10.316  -7.287  -4.289  1.00  0.00     0.296 HD
ENDBRANCH  28  30
ENDBRANCH  13  28
ENDBRANCH  11  13
ENDBRANCH   8  11
ENDBRANCH   6   7
BRANCH   6  32
ATOM     32  C   UNL     1      -5.149  -7.338  -5.561  1.00  0.00     0.037 C 
BRANCH  32  33
ATOM     33  C   UNL     1      -4.336  -6.366  -6.427  1.00  0.00     0.026 C 
BRANCH  33  34
ATOM     34  C   UNL     1      -4.166  -6.864  -7.863  1.00  0.00     0.146 C 
BRANCH  34  35
ATOM     35  N   UNL     1      -4.988  -6.047  -8.744  1.00  0.00    -0.254 NA
ATOM     36  C   UNL     1      -6.113  -6.513  -9.144  1.00  0.00     0.185 C 
ATOM     37  N   UNL     1      -6.881  -5.767  -9.952  1.00  0.00    -0.370 N 
ATOM     38  N   UNL     1      -6.681  -7.700  -8.866  1.00  0.00    -0.370 N 
ATOM     39  H   UNL     1      -6.525  -4.852 -10.199  1.00  0.00     0.159 HD
ATOM     40  H   UNL     1      -7.839  -5.983 -10.165  1.00  0.00     0.159 HD
ATOM     41  H   UNL     1      -7.507  -8.009  -9.353  1.00  0.00     0.159 HD
ATOM     42  H   UNL     1      -6.208  -8.371  -8.282  1.00  0.00     0.159 HD
ENDBRANCH  34  35
ENDBRANCH  33  34
ENDBRANCH  32  33
ENDBRANCH   6  32
ENDBRANCH   4   6
ENDBRANCH   1   2
BRANCH   1  43
ATOM     43  C   UNL     1      -6.831  -2.518  -6.426  1.00  0.00     0.102 C 
ATOM     44  C   UNL     1      -6.617  -1.033  -6.084  1.00  0.00     0.020 C 
BRANCH  43  45
ATOM     45  C   UNL     1      -7.243  -2.767  -7.880  1.00  0.00     0.225 C 
ATOM     46  O   UNL     1      -8.145  -3.536  -8.200  1.00  0.00    -0.275 OA
ATOM     47  N   UNL     1      -6.470  -2.139  -8.830  1.00  0.00    -0.342 N 
ATOM     48  H   UNL     1      -5.839  -1.400  -8.554  1.00  0.00     0.164 HD
BRANCH  47  49
ATOM     49  C   UNL     1      -6.769  -2.258 -10.261  1.00  0.00     0.192 C 
BRANCH  49  50
ATOM     50  C   UNL     1      -5.465  -2.221 -11.063  1.00  0.00     0.047 C 
BRANCH  50  51
ATOM     51  C   UNL     1      -4.234  -2.483 -10.185  1.00  0.00     0.103 C 
BRANCH  51  52
ATOM     52  C   UNL     1      -3.096  -1.510 -10.487  1.00  0.00     0.226 C 
ATOM     53  O   UNL     1      -2.538  -1.546 -11.586  1.00  0.00    -0.275 OA
BRANCH  52  54
ATOM     54  N   UNL     1      -2.803  -0.559  -9.492  1.00  0.00    -0.311 N 
ATOM     55  C   UNL     1      -3.765   0.497  -9.148  1.00  0.00     0.153 C 
BRANCH  54  56
ATOM     56  C   UNL     1      -1.588  -0.587  -8.788  1.00  0.00     0.102 C 
ATOM     57  C   UNL     1      -1.312  -1.410  -7.764  1.00  0.00     0.043 C 
BRANCH  56  58
ATOM     58  C   UNL     1      -0.443   0.317  -9.183  1.00  0.00     0.268 C 
ATOM     59  O   UNL     1       0.388   0.731  -8.386  1.00  0.00    -0.268 OA
ATOM     60  N   UNL     1      -0.395   0.569 -10.533  1.00  0.00    -0.339 N 
ATOM     61  H   UNL     1      -1.128   0.197 -11.125  1.00  0.00     0.164 HD
BRANCH  60  62
ATOM     62  C   UNL     1       0.669   1.370 -11.138  1.00  0.00     0.168 CG0
ATOM     63  C   UNL     1       0.244   2.826 -11.280  1.00  0.00     0.041 C 
ATOM     64  G   UNL     1       1.047   0.775 -12.510  1.00  0.00     0.000 G0
ENDBRANCH  60  62
ENDBRANCH  56  58
ENDBRANCH  54  56
ENDBRANCH  52  54
ENDBRANCH  51  52
ENDBRANCH  50  51
ENDBRANCH  49  50
BRANCH  49  65
ATOM     65  C   UNL     1      -7.694  -1.129 -10.742  1.00  0.00     0.326 C 
ATOM     66  O   UNL     1      -8.912  -1.112 -10.629  1.00  0.00    -0.250 OA
BRANCH  65  67
ATOM     67  O   UNL     1      -7.067  -0.121 -11.386  1.00  0.00    -0.480 OA
ATOM     68  H   UNL     1      -6.133  -0.206 -11.095  1.00  0.00     0.296 HD
ENDBRANCH  65  67
ENDBRANCH  49  65
ENDBRANCH  47  49
ENDBRANCH  43  45
ENDBRANCH   1  43
BRANCH   1  69
ATOM     69  C   UNL     1      -8.399  -2.464  -4.293  1.00  0.00    -0.001 C 
ATOM     70  C   UNL     1      -9.705  -2.293  -4.023  1.00  0.00     0.001 C 
BRANCH  70  71
ATOM     71  C   UNL     1     -10.281  -1.552  -2.900  1.00  0.00    -0.055 C 
ATOM     72  C   UNL     1     -10.341  -2.172  -1.703  1.00  0.00    -0.018 C 
ATOM     73  C   UNL     1     -10.759  -0.146  -3.157  1.00  0.00     0.044 C 
BRANCH  72  74
ATOM     74  C   UNL     1     -10.878  -1.655  -0.376  1.00  0.00     0.038 C 
ATOM     75  C   UNL     1      -9.839  -2.001   0.698  1.00  0.00     0.015 C 
BRANCH  74  76
ATOM     76  C   UNL     1     -12.291  -2.263  -0.136  1.00  0.00     0.128 C 
BRANCH  76  77
ATOM     77  O   UNL     1     -12.171  -3.562   0.469  1.00  0.00    -0.381 OA
ATOM     78  C   UNL     1     -13.243  -3.887   1.343  1.00  0.00     0.195 C 
ENDBRANCH  76  77
BRANCH  76  79
ATOM     79  C   UNL     1     -13.255  -1.329   0.638  1.00  0.00     0.068 C 
BRANCH  79  80
ATOM     80  C   UNL     1     -14.238  -0.508  -0.162  1.00  0.00    -0.045 A 
ATOM     81  C   UNL     1     -15.602  -0.504   0.156  1.00  0.00     0.004 A 
ATOM     82  C   UNL     1     -13.800   0.246  -1.261  1.00  0.00     0.004 A 
ATOM     83  C   UNL     1     -16.507   0.247  -0.598  1.00  0.00     0.000 A 
ATOM     84  C   UNL     1     -14.705   0.996  -2.015  1.00  0.00     0.000 A 
ATOM     85  C   UNL     1     -16.058   0.998  -1.682  1.00  0.00     0.000 A 
ENDBRANCH  79  80
ENDBRANCH  76  79
ENDBRANCH  74  76
ENDBRANCH  72  74
ENDBRANCH  70  71
ENDBRANCH   1  69
TORSDOF 17
ENDMDL
MODEL 16
REMARK VINA RESULT:    -6.558      6.379     16.378
REMARK INTER + INTRA:         -26.462
REMARK INTER:                 -17.990
REMARK INTRA:                  -8.472
REMARK UNBOUND:                -6.869
REMARK SMILES C=C1C(=O)N[C@H](C)C(=O)N[C@@H](CC(C)C)C(=O)N[C@@H](C(=O)O)[C@H](C)C(=O)N[C@@H](CCCN=C(N)N)C(=O)N[C@@H](/C=C/C(C)=C/[C@H](C)[C@H](Cc2ccccc2)OC)[C@H](C)C(=O)N[C@@H](C(=O)O)CCC(=O)N1C
REMARK SMILES IDX 39 1 38 2 37 3 36 4 28 6 27 7 25 8 26 9 23 11 24 12 19 13
REMARK SMILES IDX 18 14 16 15 17 16 11 18 10 19 8 20 9 21 12 24 13 25 14 26
REMARK SMILES IDX 15 27 20 28 21 29 22 30 29 32 30 33 31 34 32 35 33 36 34 37
REMARK SMILES IDX 35 38 57 43 58 44 59 45 60 46 61 47 62 49 66 50 67 51 68 52
REMARK SMILES IDX 69 53 70 54 71 55 2 56 1 57 3 58 4 59 5 60 6 62 7 63 63 65
REMARK SMILES IDX 64 66 65 67 40 69 41 70 42 71 44 72 43 73 45 74 46 75 47 76
REMARK SMILES IDX 55 77 56 78 48 79 49 80 50 81 54 82 51 83 53 84 52 85
REMARK H PARENT 38 5 27 10 18 17 10 22 22 31 34 39 34 40 35 41 35 42 61 48
REMARK H PARENT 5 61 65 68
REMARK Flexibility Score:  369.900
ROOT
ATOM      1  C   UNL     1     -11.951  -5.681   3.484  1.00  0.00     0.117 C 
ENDROOT
BRANCH   1   2
ATOM      2  N   UNL     1     -11.654  -6.202   2.149  1.00  0.00    -0.347 N 
ATOM      3  O   UNL     1      -9.390  -6.476   2.416  1.00  0.00    -0.273 OA
ATOM      4  C   UNL     1     -10.407  -6.645   1.752  1.00  0.00     0.243 C 
ATOM      5  H   UNL     1     -12.401  -6.298   1.478  1.00  0.00     0.164 HD
BRANCH   4   6
ATOM      6  C   UNL     1     -10.382  -7.229   0.316  1.00  0.00     0.171 C 
BRANCH   6   7
ATOM      7  N   UNL     1      -9.724  -6.292  -0.609  1.00  0.00    -0.344 N 
ATOM      8  C   UNL     1     -10.414  -5.221  -1.132  1.00  0.00     0.226 C 
ATOM      9  O   UNL     1     -11.594  -5.008  -0.879  1.00  0.00    -0.275 OA
ATOM     10  H   UNL     1      -8.770  -6.473  -0.894  1.00  0.00     0.164 HD
BRANCH   8  11
ATOM     11  C   UNL     1      -9.582  -4.317  -2.025  1.00  0.00     0.109 C 
ATOM     12  C   UNL     1      -9.830  -2.851  -1.668  1.00  0.00     0.021 C 
BRANCH  11  13
ATOM     13  C   UNL     1      -8.105  -4.755  -1.979  1.00  0.00     0.204 C 
BRANCH  13  14
ATOM     14  N   UNL     1      -7.431  -4.560  -3.267  1.00  0.00    -0.340 N 
ATOM     15  C   UNL     1      -7.497  -5.478  -4.292  1.00  0.00     0.243 C 
ATOM     16  O   UNL     1      -8.178  -6.500  -4.221  1.00  0.00    -0.273 OA
ATOM     17  H   UNL     1      -6.733  -3.814  -3.335  1.00  0.00     0.164 HD
BRANCH  15  18
ATOM     18  C   UNL     1      -6.543  -5.159  -5.470  1.00  0.00     0.171 C 
BRANCH  18  19
ATOM     19  N   UNL     1      -5.686  -6.330  -5.642  1.00  0.00    -0.343 N 
ATOM     20  C   UNL     1      -4.388  -6.222  -6.104  1.00  0.00     0.242 CG0
ATOM     21  O   UNL     1      -3.939  -5.155  -6.516  1.00  0.00    -0.273 OA
ATOM     22  H   UNL     1      -6.050  -7.251  -5.424  1.00  0.00     0.164 HD
ATOM     23  G   UNL     1      -3.613  -7.555  -6.144  1.00  0.00     0.000 G0
ENDBRANCH  18  19
BRANCH  18  24
ATOM     24  C   UNL     1      -7.339  -4.854  -6.744  1.00  0.00     0.038 C 
BRANCH  24  25
ATOM     25  C   UNL     1      -7.696  -3.365  -6.939  1.00  0.00    -0.015 C 
ATOM     26  C   UNL     1      -9.130  -3.046  -6.514  1.00  0.00     0.007 C 
ATOM     27  C   UNL     1      -7.495  -2.975  -8.406  1.00  0.00     0.007 C 
ENDBRANCH  24  25
ENDBRANCH  18  24
ENDBRANCH  15  18
ENDBRANCH  13  14
BRANCH  13  28
ATOM     28  C   UNL     1      -7.287  -4.008  -0.921  1.00  0.00     0.327 C 
ATOM     29  O   UNL     1      -7.250  -4.259   0.274  1.00  0.00    -0.250 OA
BRANCH  28  30
ATOM     30  O   UNL     1      -6.659  -2.919  -1.410  1.00  0.00    -0.480 OA
ATOM     31  H   UNL     1      -7.025  -2.815  -2.313  1.00  0.00     0.296 HD
ENDBRANCH  28  30
ENDBRANCH  13  28
ENDBRANCH  11  13
ENDBRANCH   8  11
ENDBRANCH   6   7
BRANCH   6  32
ATOM     32  C   UNL     1      -9.657  -8.579   0.335  1.00  0.00     0.037 C 
BRANCH  32  33
ATOM     33  C   UNL     1      -8.505  -8.633  -0.678  1.00  0.00     0.026 C 
BRANCH  33  34
ATOM     34  C   UNL     1      -7.143  -8.817  -0.007  1.00  0.00     0.146 C 
BRANCH  34  35
ATOM     35  N   UNL     1      -6.894  -7.682   0.870  1.00  0.00    -0.254 NA
ATOM     36  C   UNL     1      -6.583  -7.907   2.093  1.00  0.00     0.185 C 
ATOM     37  N   UNL     1      -6.346  -6.868   2.909  1.00  0.00    -0.370 N 
ATOM     38  N   UNL     1      -6.446  -9.085   2.727  1.00  0.00    -0.370 N 
ATOM     39  H   UNL     1      -6.419  -5.945   2.501  1.00  0.00     0.159 HD
ATOM     40  H   UNL     1      -5.932  -6.960   3.820  1.00  0.00     0.159 HD
ATOM     41  H   UNL     1      -6.334  -9.129   3.726  1.00  0.00     0.159 HD
ATOM     42  H   UNL     1      -6.610  -9.952   2.239  1.00  0.00     0.159 HD
ENDBRANCH  34  35
ENDBRANCH  33  34
ENDBRANCH  32  33
ENDBRANCH   6  32
ENDBRANCH   4   6
ENDBRANCH   1   2
BRANCH   1  43
ATOM     43  C   UNL     1     -12.902  -6.679   4.205  1.00  0.00     0.102 C 
ATOM     44  C   UNL     1     -13.424  -6.160   5.556  1.00  0.00     0.020 C 
BRANCH  43  45
ATOM     45  C   UNL     1     -12.281  -8.078   4.275  1.00  0.00     0.225 C 
ATOM     46  O   UNL     1     -12.702  -9.032   3.627  1.00  0.00    -0.275 OA
ATOM     47  N   UNL     1     -11.265  -8.230   5.191  1.00  0.00    -0.342 N 
ATOM     48  H   UNL     1     -10.834  -7.413   5.599  1.00  0.00     0.164 HD
BRANCH  47  49
ATOM     49  C   UNL     1     -10.554  -9.503   5.341  1.00  0.00     0.192 C 
BRANCH  49  50
ATOM     50  C   UNL     1     -10.737 -10.029   6.767  1.00  0.00     0.047 C 
BRANCH  50  51
ATOM     51  C   UNL     1     -11.119  -8.916   7.753  1.00  0.00     0.103 C 
BRANCH  51  52
ATOM     52  C   UNL     1     -12.606  -8.943   8.100  1.00  0.00     0.226 C 
ATOM     53  O   UNL     1     -13.400  -9.500   7.340  1.00  0.00    -0.275 OA
BRANCH  52  54
ATOM     54  N   UNL     1     -12.971  -8.378   9.336  1.00  0.00    -0.311 N 
ATOM     55  C   UNL     1     -12.722  -9.090  10.596  1.00  0.00     0.153 C 
BRANCH  54  56
ATOM     56  C   UNL     1     -13.581  -7.114   9.412  1.00  0.00     0.102 C 
ATOM     57  C   UNL     1     -12.929  -5.957   9.608  1.00  0.00     0.043 C 
BRANCH  56  58
ATOM     58  C   UNL     1     -15.072  -6.961   9.227  1.00  0.00     0.268 C 
ATOM     59  O   UNL     1     -15.671  -7.378   8.244  1.00  0.00    -0.268 OA
ATOM     60  N   UNL     1     -15.692  -6.367  10.300  1.00  0.00    -0.339 N 
ATOM     61  H   UNL     1     -15.123  -6.039  11.071  1.00  0.00     0.164 HD
BRANCH  60  62
ATOM     62  C   UNL     1     -17.141  -6.177  10.356  1.00  0.00     0.168 CG0
ATOM     63  C   UNL     1     -17.557  -4.914   9.611  1.00  0.00     0.041 C 
ATOM     64  G   UNL     1     -17.598  -6.118  11.828  1.00  0.00     0.000 G0
ENDBRANCH  60  62
ENDBRANCH  56  58
ENDBRANCH  54  56
ENDBRANCH  52  54
ENDBRANCH  51  52
ENDBRANCH  50  51
ENDBRANCH  49  50
BRANCH  49  65
ATOM     65  C   UNL     1      -9.054  -9.353   5.043  1.00  0.00     0.326 C 
ATOM     66  O   UNL     1      -8.229 -10.254   5.079  1.00  0.00    -0.250 OA
BRANCH  65  67
ATOM     67  O   UNL     1      -8.655  -8.090   4.778  1.00  0.00    -0.480 OA
ATOM     68  H   UNL     1      -8.123  -8.182   3.959  1.00  0.00     0.296 HD
ENDBRANCH  65  67
ENDBRANCH  49  65
ENDBRANCH  47  49
ENDBRANCH  43  45
ENDBRANCH   1  43
BRANCH   1  69
ATOM     69  C   UNL     1     -12.406  -4.246   3.287  1.00  0.00    -0.001 C 
ATOM     70  C   UNL     1     -13.435  -3.811   2.540  1.00  0.00     0.001 C 
BRANCH  70  71
ATOM     71  C   UNL     1     -13.878  -2.425   2.375  1.00  0.00    -0.055 C 
ATOM     72  C   UNL     1     -13.966  -1.940   1.119  1.00  0.00    -0.018 C 
ATOM     73  C   UNL     1     -14.212  -1.642   3.618  1.00  0.00     0.044 C 
BRANCH  72  74
ATOM     74  C   UNL     1     -14.394  -0.557   0.648  1.00  0.00     0.038 C 
ATOM     75  C   UNL     1     -15.839  -0.675   0.151  1.00  0.00     0.015 C 
BRANCH  74  76
ATOM     76  C   UNL     1     -13.376  -0.053  -0.417  1.00  0.00     0.128 C 
BRANCH  76  77
ATOM     77  O   UNL     1     -14.073   0.597  -1.493  1.00  0.00    -0.381 OA
ATOM     78  C   UNL     1     -13.348   1.672  -2.076  1.00  0.00     0.195 C 
ENDBRANCH  76  77
BRANCH  76  79
ATOM     79  C   UNL     1     -12.232   0.814   0.166  1.00  0.00     0.068 C 
BRANCH  79  80
ATOM     80  C   UNL     1     -11.527   0.315   1.404  1.00  0.00    -0.045 A 
ATOM     81  C   UNL     1     -10.691  -0.809   1.356  1.00  0.00     0.004 A 
ATOM     82  C   UNL     1     -11.722   0.956   2.637  1.00  0.00     0.004 A 
ATOM     83  C   UNL     1     -10.054  -1.273   2.508  1.00  0.00     0.000 A 
ATOM     84  C   UNL     1     -11.085   0.491   3.789  1.00  0.00     0.000 A 
ATOM     85  C   UNL     1     -10.250  -0.622   3.724  1.00  0.00     0.000 A 
ENDBRANCH  79  80
ENDBRANCH  76  79
ENDBRANCH  74  76
ENDBRANCH  72  74
ENDBRANCH  70  71
ENDBRANCH   1  69
TORSDOF 17
ENDMDL
MODEL 17
REMARK VINA RESULT:    -6.549      6.210     16.439
REMARK INTER + INTRA:         -26.434
REMARK INTER:                 -18.251
REMARK INTRA:                  -8.183
REMARK UNBOUND:                -6.869
REMARK SMILES C=C1C(=O)N[C@H](C)C(=O)N[C@@H](CC(C)C)C(=O)N[C@@H](C(=O)O)[C@H](C)C(=O)N[C@@H](CCCN=C(N)N)C(=O)N[C@@H](/C=C/C(C)=C/[C@H](C)[C@H](Cc2ccccc2)OC)[C@H](C)C(=O)N[C@@H](C(=O)O)CCC(=O)N1C
REMARK SMILES IDX 39 1 38 2 37 3 36 4 28 6 27 7 25 8 26 9 23 11 24 12 19 13
REMARK SMILES IDX 18 14 16 15 17 16 11 18 10 19 8 20 9 21 12 24 13 25 14 26
REMARK SMILES IDX 15 27 20 28 21 29 22 30 29 32 30 33 31 34 32 35 33 36 34 37
REMARK SMILES IDX 35 38 57 43 58 44 59 45 60 46 61 47 62 49 66 50 67 51 68 52
REMARK SMILES IDX 69 53 70 54 71 55 2 56 1 57 3 58 4 59 5 60 6 62 7 63 63 65
REMARK SMILES IDX 64 66 65 67 40 69 41 70 42 71 44 72 43 73 45 74 46 75 47 76
REMARK SMILES IDX 55 77 56 78 48 79 49 80 50 81 54 82 51 83 53 84 52 85
REMARK H PARENT 38 5 27 10 18 17 10 22 22 31 34 39 34 40 35 41 35 42 61 48
REMARK H PARENT 5 61 65 68
REMARK Flexibility Score:  369.900
ROOT
ATOM      1  C   UNL     1      -7.780  -6.870   2.851  1.00  0.00     0.117 C 
ENDROOT
BRANCH   1   2
ATOM      2  N   UNL     1      -8.376  -5.897   1.936  1.00  0.00    -0.347 N 
ATOM      3  O   UNL     1      -6.432  -4.900   1.230  1.00  0.00    -0.273 OA
ATOM      4  C   UNL     1      -7.645  -5.048   1.127  1.00  0.00     0.243 C 
ATOM      5  H   UNL     1      -9.379  -5.860   1.837  1.00  0.00     0.164 HD
BRANCH   4   6
ATOM      6  C   UNL     1      -8.518  -4.177   0.188  1.00  0.00     0.171 C 
BRANCH   6   7
ATOM      7  N   UNL     1      -8.544  -4.749  -1.168  1.00  0.00    -0.344 N 
ATOM      8  C   UNL     1      -7.764  -4.216  -2.171  1.00  0.00     0.226 C 
ATOM      9  O   UNL     1      -7.039  -3.243  -1.997  1.00  0.00    -0.275 OA
ATOM     10  H   UNL     1      -9.181  -5.511  -1.367  1.00  0.00     0.164 HD
BRANCH   8  11
ATOM     11  C   UNL     1      -7.860  -4.950  -3.496  1.00  0.00     0.109 C 
ATOM     12  C   UNL     1      -8.850  -6.109  -3.385  1.00  0.00     0.021 C 
BRANCH  11  13
ATOM     13  C   UNL     1      -8.162  -3.947  -4.628  1.00  0.00     0.204 C 
BRANCH  13  14
ATOM     14  N   UNL     1      -7.640  -4.400  -5.921  1.00  0.00    -0.340 N 
ATOM     15  C   UNL     1      -6.858  -3.607  -6.732  1.00  0.00     0.243 C 
ATOM     16  O   UNL     1      -6.492  -2.481  -6.400  1.00  0.00    -0.273 OA
ATOM     17  H   UNL     1      -8.029  -5.259  -6.321  1.00  0.00     0.164 HD
BRANCH  15  18
ATOM     18  C   UNL     1      -6.601  -4.218  -8.132  1.00  0.00     0.171 C 
BRANCH  18  19
ATOM     19  N   UNL     1      -7.648  -3.702  -9.012  1.00  0.00    -0.343 N 
ATOM     20  C   UNL     1      -8.887  -4.307  -9.103  1.00  0.00     0.242 CG0
ATOM     21  O   UNL     1      -9.121  -5.380  -8.552  1.00  0.00    -0.273 OA
ATOM     22  H   UNL     1      -7.463  -2.881  -9.578  1.00  0.00     0.164 HD
ATOM     23  G   UNL     1      -9.887  -3.575 -10.022  1.00  0.00     0.000 G0
ENDBRANCH  18  19
BRANCH  18  24
ATOM     24  C   UNL     1      -5.204  -3.840  -8.639  1.00  0.00     0.038 C 
BRANCH  24  25
ATOM     25  C   UNL     1      -4.042  -4.324  -7.746  1.00  0.00    -0.015 C 
ATOM     26  C   UNL     1      -2.919  -3.292  -7.637  1.00  0.00     0.007 C 
ATOM     27  C   UNL     1      -3.482  -5.638  -8.297  1.00  0.00     0.007 C 
ENDBRANCH  24  25
ENDBRANCH  18  24
ENDBRANCH  15  18
ENDBRANCH  13  14
BRANCH  13  28
ATOM     28  C   UNL     1      -9.658  -3.676  -4.811  1.00  0.00     0.327 C 
ATOM     29  O   UNL     1     -10.389  -3.094  -4.025  1.00  0.00    -0.250 OA
BRANCH  28  30
ATOM     30  O   UNL     1     -10.169  -4.257  -5.916  1.00  0.00    -0.480 OA
ATOM     31  H   UNL     1     -10.498  -5.125  -5.602  1.00  0.00     0.296 HD
ENDBRANCH  28  30
ENDBRANCH  13  28
ENDBRANCH  11  13
ENDBRANCH   8  11
ENDBRANCH   6   7
BRANCH   6  32
ATOM     32  C   UNL     1      -9.934  -4.077   0.766  1.00  0.00     0.037 C 
BRANCH  32  33
ATOM     33  C   UNL     1     -10.107  -2.845   1.665  1.00  0.00     0.026 C 
BRANCH  33  34
ATOM     34  C   UNL     1     -11.556  -2.361   1.724  1.00  0.00     0.146 C 
BRANCH  34  35
ATOM     35  N   UNL     1     -12.440  -3.517   1.664  1.00  0.00    -0.254 NA
ATOM     36  C   UNL     1     -12.969  -3.943   2.751  1.00  0.00     0.185 C 
ATOM     37  N   UNL     1     -13.789  -5.004   2.707  1.00  0.00    -0.370 N 
ATOM     38  N   UNL     1     -12.827  -3.469   4.001  1.00  0.00    -0.370 N 
ATOM     39  H   UNL     1     -13.954  -5.413   1.796  1.00  0.00     0.159 HD
ATOM     40  H   UNL     1     -14.372  -5.288   3.475  1.00  0.00     0.159 HD
ATOM     41  H   UNL     1     -13.185  -3.976   4.794  1.00  0.00     0.159 HD
ATOM     42  H   UNL     1     -12.226  -2.681   4.186  1.00  0.00     0.159 HD
ENDBRANCH  34  35
ENDBRANCH  33  34
ENDBRANCH  32  33
ENDBRANCH   6  32
ENDBRANCH   4   6
ENDBRANCH   1   2
BRANCH   1  43
ATOM     43  C   UNL     1      -8.437  -8.257   2.596  1.00  0.00     0.102 C 
ATOM     44  C   UNL     1      -7.934  -8.946   1.316  1.00  0.00     0.020 C 
BRANCH  43  45
ATOM     45  C   UNL     1      -9.963  -8.169   2.697  1.00  0.00     0.225 C 
ATOM     46  O   UNL     1     -10.692  -8.018   1.721  1.00  0.00    -0.275 OA
ATOM     47  N   UNL     1     -10.474  -8.177   3.975  1.00  0.00    -0.342 N 
ATOM     48  H   UNL     1      -9.884  -8.453   4.747  1.00  0.00     0.164 HD
BRANCH  47  49
ATOM     49  C   UNL     1     -11.918  -8.135   4.223  1.00  0.00     0.192 C 
BRANCH  49  50
ATOM     50  C   UNL     1     -12.202  -7.292   5.468  1.00  0.00     0.047 C 
BRANCH  50  51
ATOM     51  C   UNL     1     -13.675  -6.874   5.565  1.00  0.00     0.103 C 
BRANCH  51  52
ATOM     52  C   UNL     1     -13.912  -5.860   6.682  1.00  0.00     0.226 C 
ATOM     53  O   UNL     1     -13.791  -4.655   6.448  1.00  0.00    -0.275 OA
BRANCH  52  54
ATOM     54  N   UNL     1     -14.336  -6.377   7.920  1.00  0.00    -0.311 N 
ATOM     55  C   UNL     1     -15.764  -6.543   8.220  1.00  0.00     0.153 C 
BRANCH  54  56
ATOM     56  C   UNL     1     -13.414  -6.760   8.908  1.00  0.00     0.102 C 
ATOM     57  C   UNL     1     -12.651  -5.912   9.617  1.00  0.00     0.043 C 
BRANCH  56  58
ATOM     58  C   UNL     1     -13.244  -8.212   9.289  1.00  0.00     0.268 C 
ATOM     59  O   UNL     1     -13.327  -9.129   8.484  1.00  0.00    -0.268 OA
ATOM     60  N   UNL     1     -12.924  -8.389  10.614  1.00  0.00    -0.339 N 
ATOM     61  H   UNL     1     -12.885  -7.577  11.218  1.00  0.00     0.164 HD
BRANCH  60  62
ATOM     62  C   UNL     1     -12.654  -9.709  11.181  1.00  0.00     0.168 CG0
ATOM     63  C   UNL     1     -13.688 -10.072  12.239  1.00  0.00     0.041 C 
ATOM     64  G   UNL     1     -11.231  -9.736  11.776  1.00  0.00     0.000 G0
ENDBRANCH  60  62
ENDBRANCH  56  58
ENDBRANCH  54  56
ENDBRANCH  52  54
ENDBRANCH  51  52
ENDBRANCH  50  51
ENDBRANCH  49  50
BRANCH  49  65
ATOM     65  C   UNL     1     -12.500  -9.544   4.418  1.00  0.00     0.326 C 
ATOM     66  O   UNL     1     -12.953 -10.255   3.532  1.00  0.00    -0.250 OA
BRANCH  65  67
ATOM     67  O   UNL     1     -12.543  -9.964   5.702  1.00  0.00    -0.480 OA
ATOM     68  H   UNL     1     -13.455  -9.741   5.988  1.00  0.00     0.296 HD
ENDBRANCH  65  67
ENDBRANCH  49  65
ENDBRANCH  47  49
ENDBRANCH  43  45
ENDBRANCH   1  43
BRANCH   1  69
ATOM     69  C   UNL     1      -7.871  -6.259   4.238  1.00  0.00    -0.001 C 
ATOM     70  C   UNL     1      -8.764  -5.353   4.674  1.00  0.00     0.001 C 
BRANCH  70  71
ATOM     71  C   UNL     1      -8.855  -4.786   6.021  1.00  0.00    -0.055 C 
ATOM     72  C   UNL     1      -7.868  -5.079   6.894  1.00  0.00    -0.018 C 
ATOM     73  C   UNL     1     -10.039  -3.910   6.336  1.00  0.00     0.044 C 
BRANCH  72  74
ATOM     74  C   UNL     1      -7.698  -4.636   8.340  1.00  0.00     0.038 C 
ATOM     75  C   UNL     1      -6.665  -3.503   8.348  1.00  0.00     0.015 C 
BRANCH  74  76
ATOM     76  C   UNL     1      -7.314  -5.876   9.201  1.00  0.00     0.128 C 
BRANCH  76  77
ATOM     77  O   UNL     1      -7.041  -5.468  10.553  1.00  0.00    -0.381 OA
ATOM     78  C   UNL     1      -6.544  -6.515  11.375  1.00  0.00     0.195 C 
ENDBRANCH  76  77
BRANCH  76  79
ATOM     79  C   UNL     1      -8.334  -7.039   9.120  1.00  0.00     0.068 C 
BRANCH  79  80
ATOM     80  C   UNL     1      -8.142  -8.073   8.036  1.00  0.00    -0.045 A 
ATOM     81  C   UNL     1      -6.879  -8.306   7.476  1.00  0.00     0.004 A 
ATOM     82  C   UNL     1      -9.239  -8.800   7.551  1.00  0.00     0.004 A 
ATOM     83  C   UNL     1      -6.713  -9.253   6.464  1.00  0.00     0.000 A 
ATOM     84  C   UNL     1      -9.072  -9.748   6.539  1.00  0.00     0.000 A 
ATOM     85  C   UNL     1      -7.809  -9.975   5.996  1.00  0.00     0.000 A 
ENDBRANCH  79  80
ENDBRANCH  76  79
ENDBRANCH  74  76
ENDBRANCH  72  74
ENDBRANCH  70  71
ENDBRANCH   1  69
TORSDOF 17
ENDMDL
MODEL 18
REMARK VINA RESULT:    -6.545      5.051     10.620
REMARK INTER + INTRA:         -26.423
REMARK INTER:                 -19.941
REMARK INTRA:                  -6.482
REMARK UNBOUND:                -6.869
REMARK SMILES C=C1C(=O)N[C@H](C)C(=O)N[C@@H](CC(C)C)C(=O)N[C@@H](C(=O)O)[C@H](C)C(=O)N[C@@H](CCCN=C(N)N)C(=O)N[C@@H](/C=C/C(C)=C/[C@H](C)[C@H](Cc2ccccc2)OC)[C@H](C)C(=O)N[C@@H](C(=O)O)CCC(=O)N1C
REMARK SMILES IDX 39 1 38 2 37 3 36 4 28 6 27 7 25 8 26 9 23 11 24 12 19 13
REMARK SMILES IDX 18 14 16 15 17 16 11 18 10 19 8 20 9 21 12 24 13 25 14 26
REMARK SMILES IDX 15 27 20 28 21 29 22 30 29 32 30 33 31 34 32 35 33 36 34 37
REMARK SMILES IDX 35 38 57 43 58 44 59 45 60 46 61 47 62 49 66 50 67 51 68 52
REMARK SMILES IDX 69 53 70 54 71 55 2 56 1 57 3 58 4 59 5 60 6 62 7 63 63 65
REMARK SMILES IDX 64 66 65 67 40 69 41 70 42 71 44 72 43 73 45 74 46 75 47 76
REMARK SMILES IDX 55 77 56 78 48 79 49 80 50 81 54 82 51 83 53 84 52 85
REMARK H PARENT 38 5 27 10 18 17 10 22 22 31 34 39 34 40 35 41 35 42 61 48
REMARK H PARENT 5 61 65 68
REMARK Flexibility Score:  369.900
ROOT
ATOM      1  C   UNL     1      -1.435  -0.681  -8.101  1.00  0.00     0.117 C 
ENDROOT
BRANCH   1   2
ATOM      2  N   UNL     1      -2.685  -0.729  -8.861  1.00  0.00    -0.347 N 
ATOM      3  O   UNL     1      -3.036  -2.994  -8.746  1.00  0.00    -0.273 OA
ATOM      4  C   UNL     1      -3.436  -1.874  -9.045  1.00  0.00     0.243 C 
ATOM      5  H   UNL     1      -3.065   0.125  -9.241  1.00  0.00     0.164 HD
BRANCH   4   6
ATOM      6  C   UNL     1      -4.760  -1.635  -9.814  1.00  0.00     0.171 C 
BRANCH   6   7
ATOM      7  N   UNL     1      -5.838  -2.462  -9.251  1.00  0.00    -0.344 N 
ATOM      8  C   UNL     1      -6.522  -3.359 -10.042  1.00  0.00     0.226 C 
ATOM      9  O   UNL     1      -6.289  -3.497 -11.237  1.00  0.00    -0.275 OA
ATOM     10  H   UNL     1      -6.105  -2.329  -8.283  1.00  0.00     0.164 HD
BRANCH   8  11
ATOM     11  C   UNL     1      -7.567  -4.176  -9.302  1.00  0.00     0.109 C 
ATOM     12  C   UNL     1      -8.927  -3.480  -9.374  1.00  0.00     0.021 C 
BRANCH  11  13
ATOM     13  C   UNL     1      -7.555  -5.629  -9.818  1.00  0.00     0.204 C 
BRANCH  13  14
ATOM     14  N   UNL     1      -7.005  -6.561  -8.829  1.00  0.00    -0.340 N 
ATOM     15  C   UNL     1      -6.206  -7.630  -9.171  1.00  0.00     0.243 C 
ATOM     16  O   UNL     1      -5.846  -7.842 -10.327  1.00  0.00    -0.273 OA
ATOM     17  H   UNL     1      -7.385  -6.532  -7.879  1.00  0.00     0.164 HD
BRANCH  15  18
ATOM     18  C   UNL     1      -5.918  -8.590  -7.990  1.00  0.00     0.171 C 
BRANCH  18  19
ATOM     19  N   UNL     1      -5.640  -9.900  -8.575  1.00  0.00    -0.343 N 
ATOM     20  C   UNL     1      -6.359 -11.025  -8.219  1.00  0.00     0.242 CG0
ATOM     21  O   UNL     1      -7.174 -11.003  -7.299  1.00  0.00    -0.273 OA
ATOM     22  H   UNL     1      -4.896  -9.993  -9.257  1.00  0.00     0.164 HD
ATOM     23  G   UNL     1      -5.975 -12.300  -8.998  1.00  0.00     0.000 G0
ENDBRANCH  18  19
BRANCH  18  24
ATOM     24  C   UNL     1      -4.735  -8.084  -7.156  1.00  0.00     0.038 C 
BRANCH  24  25
ATOM     25  C   UNL     1      -3.919  -6.952  -7.816  1.00  0.00    -0.015 C 
ATOM     26  C   UNL     1      -2.588  -7.445  -8.385  1.00  0.00     0.007 C 
ATOM     27  C   UNL     1      -3.663  -5.840  -6.796  1.00  0.00     0.007 C 
ENDBRANCH  24  25
ENDBRANCH  18  24
ENDBRANCH  15  18
ENDBRANCH  13  14
BRANCH  13  28
ATOM     28  C   UNL     1      -8.945  -6.144 -10.204  1.00  0.00     0.327 C 
ATOM     29  O   UNL     1      -9.678  -6.833  -9.512  1.00  0.00    -0.250 OA
BRANCH  28  30
ATOM     30  O   UNL     1      -9.277  -5.862 -11.480  1.00  0.00    -0.480 OA
ATOM     31  H   UNL     1      -8.492  -5.398 -11.838  1.00  0.00     0.296 HD
ENDBRANCH  28  30
ENDBRANCH  13  28
ENDBRANCH  11  13
ENDBRANCH   8  11
ENDBRANCH   6   7
BRANCH   6  32
ATOM     32  C   UNL     1      -5.119  -0.146  -9.746  1.00  0.00     0.037 C 
BRANCH  32  33
ATOM     33  C   UNL     1      -6.622   0.077  -9.526  1.00  0.00     0.026 C 
BRANCH  33  34
ATOM     34  C   UNL     1      -6.922   0.761  -8.192  1.00  0.00     0.146 C 
BRANCH  34  35
ATOM     35  N   UNL     1      -7.037   2.196  -8.415  1.00  0.00    -0.254 NA
ATOM     36  C   UNL     1      -6.756   2.992  -7.451  1.00  0.00     0.185 C 
ATOM     37  N   UNL     1      -6.853   4.316  -7.647  1.00  0.00    -0.370 N 
ATOM     38  N   UNL     1      -6.353   2.697  -6.202  1.00  0.00    -0.370 N 
ATOM     39  H   UNL     1      -7.141   4.618  -8.569  1.00  0.00     0.159 HD
ATOM     40  H   UNL     1      -6.488   5.001  -7.008  1.00  0.00     0.159 HD
ATOM     41  H   UNL     1      -6.297   3.409  -5.492  1.00  0.00     0.159 HD
ATOM     42  H   UNL     1      -6.252   1.738  -5.909  1.00  0.00     0.159 HD
ENDBRANCH  34  35
ENDBRANCH  33  34
ENDBRANCH  32  33
ENDBRANCH   6  32
ENDBRANCH   4   6
ENDBRANCH   1   2
BRANCH   1  43
ATOM     43  C   UNL     1      -1.700   0.062  -6.760  1.00  0.00     0.102 C 
ATOM     44  C   UNL     1      -2.154  -0.870  -5.623  1.00  0.00     0.020 C 
BRANCH  43  45
ATOM     45  C   UNL     1      -2.612   1.273  -6.973  1.00  0.00     0.225 C 
ATOM     46  O   UNL     1      -3.814   1.259  -6.723  1.00  0.00    -0.275 OA
ATOM     47  N   UNL     1      -2.017   2.368  -7.557  1.00  0.00    -0.342 N 
ATOM     48  H   UNL     1      -1.010   2.418  -7.614  1.00  0.00     0.164 HD
BRANCH  47  49
ATOM     49  C   UNL     1      -2.760   3.611  -7.788  1.00  0.00     0.192 C 
BRANCH  49  50
ATOM     50  C   UNL     1      -1.998   4.487  -8.786  1.00  0.00     0.047 C 
BRANCH  50  51
ATOM     51  C   UNL     1      -2.938   5.237  -9.738  1.00  0.00     0.103 C 
BRANCH  51  52
ATOM     52  C   UNL     1      -3.348   6.600  -9.184  1.00  0.00     0.226 C 
ATOM     53  O   UNL     1      -2.484   7.371  -8.760  1.00  0.00    -0.275 OA
BRANCH  52  54
ATOM     54  N   UNL     1      -4.714   6.926  -9.265  1.00  0.00    -0.311 N 
ATOM     55  C   UNL     1      -5.591   6.270 -10.244  1.00  0.00     0.153 C 
BRANCH  54  56
ATOM     56  C   UNL     1      -5.292   7.881  -8.412  1.00  0.00     0.102 C 
ATOM     57  C   UNL     1      -5.671   7.650  -7.144  1.00  0.00     0.043 C 
BRANCH  56  58
ATOM     58  C   UNL     1      -5.493   9.307  -8.869  1.00  0.00     0.268 C 
ATOM     59  O   UNL     1      -6.537   9.711  -9.363  1.00  0.00    -0.268 OA
ATOM     60  N   UNL     1      -4.410  10.114  -8.612  1.00  0.00    -0.339 N 
ATOM     61  H   UNL     1      -3.578   9.700  -8.209  1.00  0.00     0.164 HD
BRANCH  60  62
ATOM     62  C   UNL     1      -4.416  11.544  -8.916  1.00  0.00     0.168 CG0
ATOM     63  C   UNL     1      -4.289  11.785 -10.416  1.00  0.00     0.041 C 
ATOM     64  G   UNL     1      -3.270  12.240  -8.153  1.00  0.00     0.000 G0
ENDBRANCH  60  62
ENDBRANCH  56  58
ENDBRANCH  54  56
ENDBRANCH  52  54
ENDBRANCH  51  52
ENDBRANCH  50  51
ENDBRANCH  49  50
BRANCH  49  65
ATOM     65  C   UNL     1      -2.974   4.394  -6.484  1.00  0.00     0.326 C 
ATOM     66  O   UNL     1      -4.056   4.747  -6.036  1.00  0.00    -0.250 OA
BRANCH  65  67
ATOM     67  O   UNL     1      -1.837   4.745  -5.843  1.00  0.00    -0.480 OA
ATOM     68  H   UNL     1      -2.044   5.630  -5.473  1.00  0.00     0.296 HD
ENDBRANCH  65  67
ENDBRANCH  49  65
ENDBRANCH  47  49
ENDBRANCH  43  45
ENDBRANCH   1  43
BRANCH   1  69
ATOM     69  C   UNL     1      -0.384  -0.134  -9.048  1.00  0.00    -0.001 C 
ATOM     70  C   UNL     1       0.716   0.571  -8.729  1.00  0.00     0.001 C 
BRANCH  70  71
ATOM     71  C   UNL     1       1.736   1.076  -9.650  1.00  0.00    -0.055 C 
ATOM     72  C   UNL     1       1.736   2.398  -9.922  1.00  0.00    -0.018 C 
ATOM     73  C   UNL     1       2.717   0.087 -10.223  1.00  0.00     0.044 C 
BRANCH  72  74
ATOM     74  C   UNL     1       2.665   3.195 -10.827  1.00  0.00     0.038 C 
ATOM     75  C   UNL     1       3.659   3.930  -9.920  1.00  0.00     0.015 C 
BRANCH  74  76
ATOM     76  C   UNL     1       1.805   4.120 -11.738  1.00  0.00     0.128 C 
BRANCH  76  77
ATOM     77  O   UNL     1       0.862   3.333 -12.486  1.00  0.00    -0.381 OA
ATOM     78  C   UNL     1       0.371   3.985 -13.650  1.00  0.00     0.195 C 
ENDBRANCH  76  77
BRANCH  76  79
ATOM     79  C   UNL     1       1.138   5.300 -10.987  1.00  0.00     0.068 C 
BRANCH  79  80
ATOM     80  C   UNL     1       1.518   6.703 -11.395  1.00  0.00    -0.045 A 
ATOM     81  C   UNL     1       2.749   7.256 -11.020  1.00  0.00     0.004 A 
ATOM     82  C   UNL     1       0.624   7.489 -12.139  1.00  0.00     0.004 A 
ATOM     83  C   UNL     1       3.087   8.560 -11.390  1.00  0.00     0.000 A 
ATOM     84  C   UNL     1       0.963   8.793 -12.507  1.00  0.00     0.000 A 
ATOM     85  C   UNL     1       2.194   9.327 -12.135  1.00  0.00     0.000 A 
ENDBRANCH  79  80
ENDBRANCH  76  79
ENDBRANCH  74  76
ENDBRANCH  72  74
ENDBRANCH  70  71
ENDBRANCH   1  69
TORSDOF 17
ENDMDL
MODEL 19
REMARK VINA RESULT:    -6.526      5.462     13.220
REMARK INTER + INTRA:         -26.367
REMARK INTER:                 -20.311
REMARK INTRA:                  -6.057
REMARK UNBOUND:                -6.869
REMARK SMILES C=C1C(=O)N[C@H](C)C(=O)N[C@@H](CC(C)C)C(=O)N[C@@H](C(=O)O)[C@H](C)C(=O)N[C@@H](CCCN=C(N)N)C(=O)N[C@@H](/C=C/C(C)=C/[C@H](C)[C@H](Cc2ccccc2)OC)[C@H](C)C(=O)N[C@@H](C(=O)O)CCC(=O)N1C
REMARK SMILES IDX 39 1 38 2 37 3 36 4 28 6 27 7 25 8 26 9 23 11 24 12 19 13
REMARK SMILES IDX 18 14 16 15 17 16 11 18 10 19 8 20 9 21 12 24 13 25 14 26
REMARK SMILES IDX 15 27 20 28 21 29 22 30 29 32 30 33 31 34 32 35 33 36 34 37
REMARK SMILES IDX 35 38 57 43 58 44 59 45 60 46 61 47 62 49 66 50 67 51 68 52
REMARK SMILES IDX 69 53 70 54 71 55 2 56 1 57 3 58 4 59 5 60 6 62 7 63 63 65
REMARK SMILES IDX 64 66 65 67 40 69 41 70 42 71 44 72 43 73 45 74 46 75 47 76
REMARK SMILES IDX 55 77 56 78 48 79 49 80 50 81 54 82 51 83 53 84 52 85
REMARK H PARENT 38 5 27 10 18 17 10 22 22 31 34 39 34 40 35 41 35 42 61 48
REMARK H PARENT 5 61 65 68
REMARK Flexibility Score:  369.900
ROOT
ATOM      1  C   UNL     1      -7.692  -6.315  -3.196  1.00  0.00     0.117 C 
ENDROOT
BRANCH   1   2
ATOM      2  N   UNL     1      -7.786  -5.285  -2.160  1.00  0.00    -0.347 N 
ATOM      3  O   UNL     1     -10.036  -4.869  -2.335  1.00  0.00    -0.273 OA
ATOM      4  C   UNL     1      -8.971  -4.708  -1.748  1.00  0.00     0.243 C 
ATOM      5  H   UNL     1      -6.952  -5.000  -1.670  1.00  0.00     0.164 HD
BRANCH   4   6
ATOM      6  C   UNL     1      -8.804  -3.709  -0.576  1.00  0.00     0.171 C 
BRANCH   6   7
ATOM      7  N   UNL     1      -9.074  -2.335  -1.029  1.00  0.00    -0.344 N 
ATOM      8  C   UNL     1      -8.134  -1.637  -1.756  1.00  0.00     0.226 C 
ATOM      9  O   UNL     1      -7.038  -2.105  -2.040  1.00  0.00    -0.275 OA
ATOM     10  H   UNL     1      -9.941  -1.890  -0.756  1.00  0.00     0.164 HD
BRANCH   8  11
ATOM     11  C   UNL     1      -8.583  -0.254  -2.195  1.00  0.00     0.109 C 
ATOM     12  C   UNL     1     -10.078  -0.078  -1.929  1.00  0.00     0.021 C 
BRANCH  11  13
ATOM     13  C   UNL     1      -7.679   0.816  -1.553  1.00  0.00     0.204 C 
BRANCH  13  14
ATOM     14  N   UNL     1      -8.307   2.141  -1.553  1.00  0.00    -0.340 N 
ATOM     15  C   UNL     1      -7.582   3.313  -1.563  1.00  0.00     0.243 C 
ATOM     16  O   UNL     1      -6.355   3.329  -1.635  1.00  0.00    -0.273 OA
ATOM     17  H   UNL     1      -9.307   2.199  -1.342  1.00  0.00     0.164 HD
BRANCH  15  18
ATOM     18  C   UNL     1      -8.449   4.578  -1.350  1.00  0.00     0.171 C 
BRANCH  18  19
ATOM     19  N   UNL     1      -8.634   5.186  -2.666  1.00  0.00    -0.343 N 
ATOM     20  C   UNL     1      -8.265   6.492  -2.924  1.00  0.00     0.242 CG0
ATOM     21  O   UNL     1      -7.889   7.244  -2.028  1.00  0.00    -0.273 OA
ATOM     22  H   UNL     1      -9.049   4.640  -3.412  1.00  0.00     0.164 HD
ATOM     23  G   UNL     1      -8.463   6.932  -4.389  1.00  0.00     0.000 G0
ENDBRANCH  18  19
BRANCH  18  24
ATOM     24  C   UNL     1      -9.791   4.213  -0.706  1.00  0.00     0.038 C 
BRANCH  24  25
ATOM     25  C   UNL     1      -9.899   4.551   0.796  1.00  0.00    -0.015 C 
ATOM     26  C   UNL     1      -8.913   5.639   1.223  1.00  0.00     0.007 C 
ATOM     27  C   UNL     1      -9.664   3.287   1.627  1.00  0.00     0.007 C 
ENDBRANCH  24  25
ENDBRANCH  18  24
ENDBRANCH  15  18
ENDBRANCH  13  14
BRANCH  13  28
ATOM     28  C   UNL     1      -7.298   0.494  -0.105  1.00  0.00     0.327 C 
ATOM     29  O   UNL     1      -8.071   0.246   0.808  1.00  0.00    -0.250 OA
BRANCH  28  30
ATOM     30  O   UNL     1      -5.977   0.621   0.135  1.00  0.00    -0.480 OA
ATOM     31  H   UNL     1      -5.576   0.689  -0.756  1.00  0.00     0.296 HD
ENDBRANCH  28  30
ENDBRANCH  13  28
ENDBRANCH  11  13
ENDBRANCH   8  11
ENDBRANCH   6   7
BRANCH   6  32
ATOM     32  C   UNL     1      -9.750  -4.105   0.563  1.00  0.00     0.037 C 
BRANCH  32  33
ATOM     33  C   UNL     1      -8.989  -4.591   1.805  1.00  0.00     0.026 C 
BRANCH  33  34
ATOM     34  C   UNL     1      -7.711  -5.351   1.449  1.00  0.00     0.146 C 
BRANCH  34  35
ATOM     35  N   UNL     1      -6.675  -5.004   2.411  1.00  0.00    -0.254 NA
ATOM     36  C   UNL     1      -6.288  -5.896   3.245  1.00  0.00     0.185 C 
ATOM     37  N   UNL     1      -5.329  -5.588   4.133  1.00  0.00    -0.370 N 
ATOM     38  N   UNL     1      -6.711  -7.165   3.383  1.00  0.00    -0.370 N 
ATOM     39  H   UNL     1      -4.951  -4.651   4.086  1.00  0.00     0.159 HD
ATOM     40  H   UNL     1      -4.854  -6.272   4.697  1.00  0.00     0.159 HD
ATOM     41  H   UNL     1      -6.428  -7.726   4.169  1.00  0.00     0.159 HD
ATOM     42  H   UNL     1      -7.442  -7.528   2.791  1.00  0.00     0.159 HD
ENDBRANCH  34  35
ENDBRANCH  33  34
ENDBRANCH  32  33
ENDBRANCH   6  32
ENDBRANCH   4   6
ENDBRANCH   1   2
BRANCH   1  43
ATOM     43  C   UNL     1      -7.036  -7.582  -2.577  1.00  0.00     0.102 C 
ATOM     44  C   UNL     1      -6.138  -8.350  -3.562  1.00  0.00     0.020 C 
BRANCH  43  45
ATOM     45  C   UNL     1      -8.081  -8.457  -1.877  1.00  0.00     0.225 C 
ATOM     46  O   UNL     1      -8.894  -9.147  -2.486  1.00  0.00    -0.275 OA
ATOM     47  N   UNL     1      -8.118  -8.352  -0.506  1.00  0.00    -0.342 N 
ATOM     48  H   UNL     1      -7.354  -7.906  -0.017  1.00  0.00     0.164 HD
BRANCH  47  49
ATOM     49  C   UNL     1      -9.042  -9.157   0.299  1.00  0.00     0.192 C 
BRANCH  49  50
ATOM     50  C   UNL     1     -10.069  -8.242   0.971  1.00  0.00     0.047 C 
BRANCH  50  51
ATOM     51  C   UNL     1      -9.988  -8.303   2.503  1.00  0.00     0.103 C 
BRANCH  51  52
ATOM     52  C   UNL     1     -11.336  -8.647   3.135  1.00  0.00     0.226 C 
ATOM     53  O   UNL     1     -11.913  -9.687   2.811  1.00  0.00    -0.275 OA
BRANCH  52  54
ATOM     54  N   UNL     1     -11.806  -7.767   4.127  1.00  0.00    -0.311 N 
ATOM     55  C   UNL     1     -12.130  -6.370   3.808  1.00  0.00     0.153 C 
BRANCH  54  56
ATOM     56  C   UNL     1     -11.987  -8.190   5.454  1.00  0.00     0.102 C 
ATOM     57  C   UNL     1     -13.039  -7.870   6.226  1.00  0.00     0.043 C 
BRANCH  56  58
ATOM     58  C   UNL     1     -10.990  -9.110   6.118  1.00  0.00     0.268 C 
ATOM     59  O   UNL     1      -9.798  -8.850   6.211  1.00  0.00    -0.268 OA
ATOM     60  N   UNL     1     -11.568 -10.232   6.661  1.00  0.00    -0.339 N 
ATOM     61  H   UNL     1     -12.562 -10.380   6.531  1.00  0.00     0.164 HD
BRANCH  60  62
ATOM     62  C   UNL     1     -10.794 -11.226   7.404  1.00  0.00     0.168 CG0
ATOM     63  C   UNL     1     -10.788 -10.912   8.895  1.00  0.00     0.041 C 
ATOM     64  G   UNL     1      -9.355 -11.278   6.852  1.00  0.00     0.000 G0
ENDBRANCH  60  62
ENDBRANCH  56  58
ENDBRANCH  54  56
ENDBRANCH  52  54
ENDBRANCH  51  52
ENDBRANCH  50  51
ENDBRANCH  49  50
BRANCH  49  65
ATOM     65  C   UNL     1      -8.300  -9.966   1.374  1.00  0.00     0.326 C 
ATOM     66  O   UNL     1      -7.217  -9.676   1.861  1.00  0.00    -0.250 OA
BRANCH  65  67
ATOM     67  O   UNL     1      -8.913 -11.114   1.739  1.00  0.00    -0.480 OA
ATOM     68  H   UNL     1      -8.374 -11.434   2.494  1.00  0.00     0.296 HD
ENDBRANCH  65  67
ENDBRANCH  49  65
ENDBRANCH  47  49
ENDBRANCH  43  45
ENDBRANCH   1  43
BRANCH   1  69
ATOM     69  C   UNL     1      -7.029  -5.654  -4.391  1.00  0.00    -0.001 C 
ATOM     70  C   UNL     1      -7.494  -4.623  -5.117  1.00  0.00     0.001 C 
BRANCH  70  71
ATOM     71  C   UNL     1      -6.835  -3.980  -6.256  1.00  0.00    -0.055 C 
ATOM     72  C   UNL     1      -6.140  -4.766  -7.105  1.00  0.00    -0.018 C 
ATOM     73  C   UNL     1      -6.984  -2.488  -6.403  1.00  0.00     0.044 C 
BRANCH  72  74
ATOM     74  C   UNL     1      -5.366  -4.383  -8.358  1.00  0.00     0.038 C 
ATOM     75  C   UNL     1      -6.285  -4.647  -9.556  1.00  0.00     0.015 C 
BRANCH  74  76
ATOM     76  C   UNL     1      -4.024  -5.172  -8.378  1.00  0.00     0.128 C 
BRANCH  76  77
ATOM     77  O   UNL     1      -2.923  -4.263  -8.547  1.00  0.00    -0.381 OA
ATOM     78  C   UNL     1      -2.939  -3.171  -7.637  1.00  0.00     0.195 C 
ENDBRANCH  76  77
BRANCH  76  79
ATOM     79  C   UNL     1      -3.835  -6.124  -7.171  1.00  0.00     0.068 C 
BRANCH  79  80
ATOM     80  C   UNL     1      -4.020  -7.604  -7.402  1.00  0.00    -0.045 A 
ATOM     81  C   UNL     1      -3.102  -8.336  -8.165  1.00  0.00     0.004 A 
ATOM     82  C   UNL     1      -5.139  -8.268  -6.875  1.00  0.00     0.004 A 
ATOM     83  C   UNL     1      -3.288  -9.703  -8.386  1.00  0.00     0.000 A 
ATOM     84  C   UNL     1      -5.325  -9.634  -7.097  1.00  0.00     0.000 A 
ATOM     85  C   UNL     1      -4.399 -10.351  -7.851  1.00  0.00     0.000 A 
ENDBRANCH  79  80
ENDBRANCH  76  79
ENDBRANCH  74  76
ENDBRANCH  72  74
ENDBRANCH  70  71
ENDBRANCH   1  69
TORSDOF 17
ENDMDL
MODEL 20
REMARK VINA RESULT:    -6.501      8.189     17.155
REMARK INTER + INTRA:         -26.290
REMARK INTER:                 -17.393
REMARK INTRA:                  -8.897
REMARK UNBOUND:                -6.869
REMARK SMILES C=C1C(=O)N[C@H](C)C(=O)N[C@@H](CC(C)C)C(=O)N[C@@H](C(=O)O)[C@H](C)C(=O)N[C@@H](CCCN=C(N)N)C(=O)N[C@@H](/C=C/C(C)=C/[C@H](C)[C@H](Cc2ccccc2)OC)[C@H](C)C(=O)N[C@@H](C(=O)O)CCC(=O)N1C
REMARK SMILES IDX 39 1 38 2 37 3 36 4 28 6 27 7 25 8 26 9 23 11 24 12 19 13
REMARK SMILES IDX 18 14 16 15 17 16 11 18 10 19 8 20 9 21 12 24 13 25 14 26
REMARK SMILES IDX 15 27 20 28 21 29 22 30 29 32 30 33 31 34 32 35 33 36 34 37
REMARK SMILES IDX 35 38 57 43 58 44 59 45 60 46 61 47 62 49 66 50 67 51 68 52
REMARK SMILES IDX 69 53 70 54 71 55 2 56 1 57 3 58 4 59 5 60 6 62 7 63 63 65
REMARK SMILES IDX 64 66 65 67 40 69 41 70 42 71 44 72 43 73 45 74 46 75 47 76
REMARK SMILES IDX 55 77 56 78 48 79 49 80 50 81 54 82 51 83 53 84 52 85
REMARK H PARENT 38 5 27 10 18 17 10 22 22 31 34 39 34 40 35 41 35 42 61 48
REMARK H PARENT 5 61 65 68
REMARK Flexibility Score:  369.900
ROOT
ATOM      1  C   UNL     1     -10.509  -0.552   4.494  1.00  0.00     0.117 C 
ENDROOT
BRANCH   1   2
ATOM      2  N   UNL     1     -11.069  -0.483   3.143  1.00  0.00    -0.347 N 
ATOM      3  O   UNL     1      -9.110  -0.094   2.012  1.00  0.00    -0.273 OA
ATOM      4  C   UNL     1     -10.309  -0.351   1.997  1.00  0.00     0.243 C 
ATOM      5  H   UNL     1     -12.064  -0.587   3.015  1.00  0.00     0.164 HD
BRANCH   4   6
ATOM      6  C   UNL     1     -11.140  -0.392   0.690  1.00  0.00     0.171 C 
BRANCH   6   7
ATOM      7  N   UNL     1     -10.343  -0.957  -0.410  1.00  0.00    -0.344 N 
ATOM      8  C   UNL     1     -10.444  -0.447  -1.686  1.00  0.00     0.226 C 
ATOM      9  O   UNL     1     -11.204   0.470  -1.972  1.00  0.00    -0.275 OA
ATOM     10  H   UNL     1      -9.754  -1.760  -0.226  1.00  0.00     0.164 HD
BRANCH   8  11
ATOM     11  C   UNL     1      -9.517  -1.101  -2.696  1.00  0.00     0.109 C 
ATOM     12  C   UNL     1     -10.138  -1.045  -4.092  1.00  0.00     0.021 C 
BRANCH  11  13
ATOM     13  C   UNL     1      -8.108  -0.484  -2.588  1.00  0.00     0.204 C 
BRANCH  13  14
ATOM     14  N   UNL     1      -8.145   0.886  -2.067  1.00  0.00    -0.340 N 
ATOM     15  C   UNL     1      -7.780   1.983  -2.818  1.00  0.00     0.243 C 
ATOM     16  O   UNL     1      -7.454   1.894  -4.000  1.00  0.00    -0.273 OA
ATOM     17  H   UNL     1      -8.258   1.014  -1.057  1.00  0.00     0.164 HD
BRANCH  15  18
ATOM     18  C   UNL     1      -7.699   3.294  -1.999  1.00  0.00     0.171 C 
BRANCH  18  19
ATOM     19  N   UNL     1      -7.335   4.353  -2.939  1.00  0.00    -0.343 N 
ATOM     20  C   UNL     1      -6.097   4.965  -2.903  1.00  0.00     0.242 CG0
ATOM     21  O   UNL     1      -5.296   4.743  -1.998  1.00  0.00    -0.273 OA
ATOM     22  H   UNL     1      -8.008   4.653  -3.634  1.00  0.00     0.164 HD
ATOM     23  G   UNL     1      -5.867   6.002  -4.021  1.00  0.00     0.000 G0
ENDBRANCH  18  19
BRANCH  18  24
ATOM     24  C   UNL     1      -9.040   3.588  -1.314  1.00  0.00     0.038 C 
BRANCH  24  25
ATOM     25  C   UNL     1      -9.439   5.079  -1.292  1.00  0.00    -0.015 C 
ATOM     26  C   UNL     1      -8.874   5.818  -0.079  1.00  0.00     0.007 C 
ATOM     27  C   UNL     1     -10.965   5.203  -1.306  1.00  0.00     0.007 C 
ENDBRANCH  24  25
ENDBRANCH  18  24
ENDBRANCH  15  18
ENDBRANCH  13  14
BRANCH  13  28
ATOM     28  C   UNL     1      -7.165  -1.287  -1.686  1.00  0.00     0.327 C 
ATOM     29  O   UNL     1      -7.491  -2.153  -0.889  1.00  0.00    -0.250 OA
BRANCH  28  30
ATOM     30  O   UNL     1      -5.885  -0.870  -1.756  1.00  0.00    -0.480 OA
ATOM     31  H   UNL     1      -5.785  -0.551  -2.677  1.00  0.00     0.296 HD
ENDBRANCH  28  30
ENDBRANCH  13  28
ENDBRANCH  11  13
ENDBRANCH   8  11
ENDBRANCH   6   7
BRANCH   6  32
ATOM     32  C   UNL     1     -12.410  -1.218   0.927  1.00  0.00     0.037 C 
BRANCH  32  33
ATOM     33  C   UNL     1     -13.603  -0.342   1.333  1.00  0.00     0.026 C 
BRANCH  33  34
ATOM     34  C   UNL     1     -14.825  -0.566   0.441  1.00  0.00     0.146 C 
BRANCH  34  35
ATOM     35  N   UNL     1     -14.416  -0.451  -0.952  1.00  0.00    -0.254 NA
ATOM     36  C   UNL     1     -14.655   0.643  -1.574  1.00  0.00     0.185 C 
ATOM     37  N   UNL     1     -14.279   0.762  -2.856  1.00  0.00    -0.370 N 
ATOM     38  N   UNL     1     -15.258   1.757  -1.122  1.00  0.00    -0.370 N 
ATOM     39  H   UNL     1     -13.808  -0.033  -3.267  1.00  0.00     0.159 HD
ATOM     40  H   UNL     1     -14.272   1.636  -3.355  1.00  0.00     0.159 HD
ATOM     41  H   UNL     1     -15.513   2.503  -1.749  1.00  0.00     0.159 HD
ATOM     42  H   UNL     1     -15.608   1.804  -0.177  1.00  0.00     0.159 HD
ENDBRANCH  34  35
ENDBRANCH  33  34
ENDBRANCH  32  33
ENDBRANCH   6  32
ENDBRANCH   4   6
ENDBRANCH   1   2
BRANCH   1  43
ATOM     43  C   UNL     1     -11.126  -1.779   5.224  1.00  0.00     0.102 C 
ATOM     44  C   UNL     1     -10.098  -2.871   5.562  1.00  0.00     0.020 C 
BRANCH  43  45
ATOM     45  C   UNL     1     -12.361  -2.297   4.481  1.00  0.00     0.225 C 
ATOM     46  O   UNL     1     -13.423  -1.682   4.434  1.00  0.00    -0.275 OA
ATOM     47  N   UNL     1     -12.241  -3.556   3.938  1.00  0.00    -0.342 N 
ATOM     48  H   UNL     1     -11.328  -3.979   3.854  1.00  0.00     0.164 HD
BRANCH  47  49
ATOM     49  C   UNL     1     -13.330  -4.166   3.169  1.00  0.00     0.192 C 
BRANCH  49  50
ATOM     50  C   UNL     1     -13.917  -5.343   3.952  1.00  0.00     0.047 C 
BRANCH  50  51
ATOM     51  C   UNL     1     -12.857  -6.069   4.793  1.00  0.00     0.103 C 
BRANCH  51  52
ATOM     52  C   UNL     1     -13.134  -5.951   6.290  1.00  0.00     0.226 C 
ATOM     53  O   UNL     1     -13.093  -4.845   6.833  1.00  0.00    -0.275 OA
BRANCH  52  54
ATOM     54  N   UNL     1     -13.502  -7.135   6.955  1.00  0.00    -0.311 N 
ATOM     55  C   UNL     1     -12.950  -8.434   6.546  1.00  0.00     0.153 C 
BRANCH  54  56
ATOM     56  C   UNL     1     -14.401  -7.120   8.034  1.00  0.00     0.102 C 
ATOM     57  C   UNL     1     -15.720  -6.892   7.931  1.00  0.00     0.043 C 
BRANCH  56  58
ATOM     58  C   UNL     1     -13.931  -7.418   9.439  1.00  0.00     0.268 C 
ATOM     59  O   UNL     1     -13.338  -6.604  10.133  1.00  0.00    -0.268 OA
ATOM     60  N   UNL     1     -14.297  -8.669   9.877  1.00  0.00    -0.339 N 
ATOM     61  H   UNL     1     -14.778  -9.288   9.236  1.00  0.00     0.164 HD
BRANCH  60  62
ATOM     62  C   UNL     1     -13.998  -9.138  11.229  1.00  0.00     0.168 CG0
ATOM     63  C   UNL     1     -12.647  -9.840  11.278  1.00  0.00     0.041 C 
ATOM     64  G   UNL     1     -15.121 -10.081  11.708  1.00  0.00     0.000 G0
ENDBRANCH  60  62
ENDBRANCH  56  58
ENDBRANCH  54  56
ENDBRANCH  52  54
ENDBRANCH  51  52
ENDBRANCH  50  51
ENDBRANCH  49  50
BRANCH  49  65
ATOM     65  C   UNL     1     -12.847  -4.658   1.796  1.00  0.00     0.326 C 
ATOM     66  O   UNL     1     -11.707  -5.009   1.527  1.00  0.00    -0.250 OA
BRANCH  65  67
ATOM     67  O   UNL     1     -13.786  -4.629   0.824  1.00  0.00    -0.480 OA
ATOM     68  H   UNL     1     -13.856  -3.677   0.598  1.00  0.00     0.296 HD
ENDBRANCH  65  67
ENDBRANCH  49  65
ENDBRANCH  47  49
ENDBRANCH  43  45
ENDBRANCH   1  43
BRANCH   1  69
ATOM     69  C   UNL     1     -10.690   0.829   5.098  1.00  0.00    -0.001 C 
ATOM     70  C   UNL     1     -11.838   1.396   5.509  1.00  0.00     0.001 C 
BRANCH  70  71
ATOM     71  C   UNL     1     -11.997   2.722   6.111  1.00  0.00    -0.055 C 
ATOM     72  C   UNL     1     -13.135   3.398   5.847  1.00  0.00    -0.018 C 
ATOM     73  C   UNL     1     -10.884   3.233   6.988  1.00  0.00     0.044 C 
BRANCH  72  74
ATOM     74  C   UNL     1     -13.571   4.775   6.329  1.00  0.00     0.038 C 
ATOM     75  C   UNL     1     -14.908   4.596   7.058  1.00  0.00     0.015 C 
BRANCH  74  76
ATOM     76  C   UNL     1     -13.616   5.741   5.109  1.00  0.00     0.128 C 
BRANCH  76  77
ATOM     77  O   UNL     1     -14.353   6.928   5.450  1.00  0.00    -0.381 OA
ATOM     78  C   UNL     1     -13.548   7.961   6.002  1.00  0.00     0.195 C 
ENDBRANCH  76  77
BRANCH  76  79
ATOM     79  C   UNL     1     -12.225   6.054   4.501  1.00  0.00     0.068 C 
BRANCH  79  80
ATOM     80  C   UNL     1     -11.604   5.022   3.591  1.00  0.00    -0.045 A 
ATOM     81  C   UNL     1     -10.232   4.746   3.643  1.00  0.00     0.004 A 
ATOM     82  C   UNL     1     -12.393   4.341   2.651  1.00  0.00     0.004 A 
ATOM     83  C   UNL     1      -9.662   3.801   2.787  1.00  0.00     0.000 A 
ATOM     84  C   UNL     1     -11.823   3.397   1.795  1.00  0.00     0.000 A 
ATOM     85  C   UNL     1     -10.458   3.125   1.865  1.00  0.00     0.000 A 
ENDBRANCH  79  80
ENDBRANCH  76  79
ENDBRANCH  74  76
ENDBRANCH  72  74
ENDBRANCH  70  71
ENDBRANCH   1  69
TORSDOF 17
ENDMDL
MODEL 21
REMARK VINA RESULT:    -6.479      6.063     11.612
REMARK INTER + INTRA:         -26.226
REMARK INTER:                 -19.253
REMARK INTRA:                  -6.972
REMARK UNBOUND:                -6.869
REMARK SMILES C=C1C(=O)N[C@H](C)C(=O)N[C@@H](CC(C)C)C(=O)N[C@@H](C(=O)O)[C@H](C)C(=O)N[C@@H](CCCN=C(N)N)C(=O)N[C@@H](/C=C/C(C)=C/[C@H](C)[C@H](Cc2ccccc2)OC)[C@H](C)C(=O)N[C@@H](C(=O)O)CCC(=O)N1C
REMARK SMILES IDX 39 1 38 2 37 3 36 4 28 6 27 7 25 8 26 9 23 11 24 12 19 13
REMARK SMILES IDX 18 14 16 15 17 16 11 18 10 19 8 20 9 21 12 24 13 25 14 26
REMARK SMILES IDX 15 27 20 28 21 29 22 30 29 32 30 33 31 34 32 35 33 36 34 37
REMARK SMILES IDX 35 38 57 43 58 44 59 45 60 46 61 47 62 49 66 50 67 51 68 52
REMARK SMILES IDX 69 53 70 54 71 55 2 56 1 57 3 58 4 59 5 60 6 62 7 63 63 65
REMARK SMILES IDX 64 66 65 67 40 69 41 70 42 71 44 72 43 73 45 74 46 75 47 76
REMARK SMILES IDX 55 77 56 78 48 79 49 80 50 81 54 82 51 83 53 84 52 85
REMARK H PARENT 38 5 27 10 18 17 10 22 22 31 34 39 34 40 35 41 35 42 61 48
REMARK H PARENT 5 61 65 68
REMARK Flexibility Score:  369.900
ROOT
ATOM      1  C   UNL     1      -9.449  -6.579  -0.362  1.00  0.00     0.117 C 
ENDROOT
BRANCH   1   2
ATOM      2  N   UNL     1     -10.439  -5.528  -0.125  1.00  0.00    -0.347 N 
ATOM      3  O   UNL     1      -8.987  -3.754   0.009  1.00  0.00    -0.273 OA
ATOM      4  C   UNL     1     -10.135  -4.182  -0.049  1.00  0.00     0.243 C 
ATOM      5  H   UNL     1     -11.415  -5.774  -0.058  1.00  0.00     0.164 HD
BRANCH   4   6
ATOM      6  C   UNL     1     -11.378  -3.271   0.122  1.00  0.00     0.171 C 
BRANCH   6   7
ATOM      7  N   UNL     1     -11.448  -2.750   1.496  1.00  0.00    -0.344 N 
ATOM      8  C   UNL     1     -12.465  -3.136   2.343  1.00  0.00     0.226 C 
ATOM      9  O   UNL     1     -13.359  -3.899   1.996  1.00  0.00    -0.275 OA
ATOM     10  H   UNL     1     -10.766  -2.065   1.797  1.00  0.00     0.164 HD
BRANCH   8  11
ATOM     11  C   UNL     1     -12.367  -2.555   3.743  1.00  0.00     0.109 C 
ATOM     12  C   UNL     1     -12.612  -3.647   4.783  1.00  0.00     0.021 C 
BRANCH  11  13
ATOM     13  C   UNL     1     -11.035  -1.795   3.900  1.00  0.00     0.204 C 
BRANCH  13  14
ATOM     14  N   UNL     1     -11.180  -0.593   4.727  1.00  0.00    -0.340 N 
ATOM     15  C   UNL     1     -11.462   0.648   4.200  1.00  0.00     0.243 C 
ATOM     16  O   UNL     1     -11.673   0.824   3.001  1.00  0.00    -0.273 OA
ATOM     17  H   UNL     1     -10.871  -0.640   5.702  1.00  0.00     0.164 HD
BRANCH  15  18
ATOM     18  C   UNL     1     -11.362   1.797   5.233  1.00  0.00     0.171 C 
BRANCH  18  19
ATOM     19  N   UNL     1     -11.110   1.172   6.530  1.00  0.00    -0.343 N 
ATOM     20  C   UNL     1     -11.542   1.745   7.711  1.00  0.00     0.242 CG0
ATOM     21  O   UNL     1     -12.039   2.868   7.737  1.00  0.00    -0.273 OA
ATOM     22  H   UNL     1     -10.599   0.298   6.570  1.00  0.00     0.164 HD
ATOM     23  G   UNL     1     -11.253   0.902   8.970  1.00  0.00     0.000 G0
ENDBRANCH  18  19
BRANCH  18  24
ATOM     24  C   UNL     1     -10.241   2.772   4.852  1.00  0.00     0.038 C 
BRANCH  24  25
ATOM     25  C   UNL     1     -10.706   4.222   4.599  1.00  0.00    -0.015 C 
ATOM     26  C   UNL     1     -10.099   4.818   3.329  1.00  0.00     0.007 C 
ATOM     27  C   UNL     1     -10.345   5.096   5.802  1.00  0.00     0.007 C 
ENDBRANCH  24  25
ENDBRANCH  18  24
ENDBRANCH  15  18
ENDBRANCH  13  14
BRANCH  13  28
ATOM     28  C   UNL     1      -9.926  -2.646   4.527  1.00  0.00     0.327 C 
ATOM     29  O   UNL     1      -9.460  -2.514   5.648  1.00  0.00    -0.250 OA
BRANCH  28  30
ATOM     30  O   UNL     1      -9.389  -3.533   3.665  1.00  0.00    -0.480 OA
ATOM     31  H   UNL     1      -8.431  -3.518   3.869  1.00  0.00     0.296 HD
ENDBRANCH  28  30
ENDBRANCH  13  28
ENDBRANCH  11  13
ENDBRANCH   8  11
ENDBRANCH   6   7
BRANCH   6  32
ATOM     32  C   UNL     1     -11.306  -2.126  -0.895  1.00  0.00     0.037 C 
BRANCH  32  33
ATOM     33  C   UNL     1     -11.063  -0.768  -0.221  1.00  0.00     0.026 C 
BRANCH  33  34
ATOM     34  C   UNL     1      -9.624  -0.281  -0.390  1.00  0.00     0.146 C 
BRANCH  34  35
ATOM     35  N   UNL     1      -8.987  -0.232   0.919  1.00  0.00    -0.254 NA
ATOM     36  C   UNL     1      -8.895   0.897   1.516  1.00  0.00     0.185 C 
ATOM     37  N   UNL     1      -8.315   0.952   2.725  1.00  0.00    -0.370 N 
ATOM     38  N   UNL     1      -9.312   2.107   1.103  1.00  0.00    -0.370 N 
ATOM     39  H   UNL     1      -7.983   0.077   3.110  1.00  0.00     0.159 HD
ATOM     40  H   UNL     1      -8.360   1.756   3.327  1.00  0.00     0.159 HD
ATOM     41  H   UNL     1      -9.057   2.944   1.602  1.00  0.00     0.159 HD
ATOM     42  H   UNL     1      -9.753   2.218   0.204  1.00  0.00     0.159 HD
ENDBRANCH  34  35
ENDBRANCH  33  34
ENDBRANCH  32  33
ENDBRANCH   6  32
ENDBRANCH   4   6
ENDBRANCH   1   2
BRANCH   1  43
ATOM     43  C   UNL     1      -9.803  -7.301  -1.694  1.00  0.00     0.102 C 
ATOM     44  C   UNL     1      -8.910  -8.518  -1.986  1.00  0.00     0.020 C 
BRANCH  43  45
ATOM     45  C   UNL     1      -9.895  -6.304  -2.853  1.00  0.00     0.225 C 
ATOM     46  O   UNL     1     -10.895  -6.181  -3.554  1.00  0.00    -0.275 OA
ATOM     47  N   UNL     1      -8.740  -5.609  -3.128  1.00  0.00    -0.342 N 
ATOM     48  H   UNL     1      -7.984  -5.608  -2.458  1.00  0.00     0.164 HD
BRANCH  47  49
ATOM     49  C   UNL     1      -8.690  -4.595  -4.187  1.00  0.00     0.192 C 
BRANCH  49  50
ATOM     50  C   UNL     1      -7.418  -4.783  -5.019  1.00  0.00     0.047 C 
BRANCH  50  51
ATOM     51  C   UNL     1      -7.344  -3.802  -6.197  1.00  0.00     0.103 C 
BRANCH  51  52
ATOM     52  C   UNL     1      -8.059  -4.338  -7.435  1.00  0.00     0.226 C 
ATOM     53  O   UNL     1      -9.287  -4.270  -7.508  1.00  0.00    -0.275 OA
BRANCH  52  54
ATOM     54  N   UNL     1      -7.240  -4.820  -8.473  1.00  0.00    -0.311 N 
ATOM     55  C   UNL     1      -6.434  -3.901  -9.288  1.00  0.00     0.153 C 
BRANCH  54  56
ATOM     56  C   UNL     1      -7.157  -6.192  -8.764  1.00  0.00     0.102 C 
ATOM     57  C   UNL     1      -8.040  -6.873  -9.512  1.00  0.00     0.043 C 
BRANCH  56  58
ATOM     58  C   UNL     1      -5.993  -7.020  -8.272  1.00  0.00     0.268 C 
ATOM     59  O   UNL     1      -4.995  -6.533  -7.760  1.00  0.00    -0.268 OA
ATOM     60  N   UNL     1      -6.202  -8.373  -8.398  1.00  0.00    -0.339 N 
ATOM     61  H   UNL     1      -7.052  -8.695  -8.843  1.00  0.00     0.164 HD
BRANCH  60  62
ATOM     62  C   UNL     1      -5.229  -9.358  -7.926  1.00  0.00     0.168 CG0
ATOM     63  C   UNL     1      -5.536  -9.788  -6.497  1.00  0.00     0.041 C 
ATOM     64  G   UNL     1      -3.807  -8.769  -8.025  1.00  0.00     0.000 G0
ENDBRANCH  60  62
ENDBRANCH  56  58
ENDBRANCH  54  56
ENDBRANCH  52  54
ENDBRANCH  51  52
ENDBRANCH  50  51
ENDBRANCH  49  50
BRANCH  49  65
ATOM     65  C   UNL     1      -8.715  -3.171  -3.610  1.00  0.00     0.326 C 
ATOM     66  O   UNL     1      -9.498  -2.289  -3.930  1.00  0.00    -0.250 OA
BRANCH  65  67
ATOM     67  O   UNL     1      -7.735  -2.907  -2.718  1.00  0.00    -0.480 OA
ATOM     68  H   UNL     1      -6.960  -2.695  -3.282  1.00  0.00     0.296 HD
ENDBRANCH  65  67
ENDBRANCH  49  65
ENDBRANCH  47  49
ENDBRANCH  43  45
ENDBRANCH   1  43
BRANCH   1  69
ATOM     69  C   UNL     1      -9.379  -7.392   0.917  1.00  0.00    -0.001 C 
ATOM     70  C   UNL     1     -10.373  -8.084   1.501  1.00  0.00     0.001 C 
BRANCH  70  71
ATOM     71  C   UNL     1     -10.288  -8.883   2.725  1.00  0.00    -0.055 C 
ATOM     72  C   UNL     1     -11.240  -8.698   3.663  1.00  0.00    -0.018 C 
ATOM     73  C   UNL     1      -9.149  -9.862   2.847  1.00  0.00     0.044 C 
BRANCH  72  74
ATOM     74  C   UNL     1     -11.408  -9.379   5.014  1.00  0.00     0.038 C 
ATOM     75  C   UNL     1     -12.661 -10.257   4.926  1.00  0.00     0.015 C 
BRANCH  74  76
ATOM     76  C   UNL     1     -11.452  -8.287   6.123  1.00  0.00     0.128 C 
BRANCH  76  77
ATOM     77  O   UNL     1     -10.146  -7.714   6.300  1.00  0.00    -0.381 OA
ATOM     78  C   UNL     1     -10.113  -6.303   6.128  1.00  0.00     0.195 C 
ENDBRANCH  76  77
BRANCH  76  79
ATOM     79  C   UNL     1     -12.552  -7.217   5.910  1.00  0.00     0.068 C 
BRANCH  79  80
ATOM     80  C   UNL     1     -13.729  -7.214   6.856  1.00  0.00    -0.045 A 
ATOM     81  C   UNL     1     -14.619  -6.134   6.898  1.00  0.00     0.004 A 
ATOM     82  C   UNL     1     -13.932  -8.290   7.735  1.00  0.00     0.004 A 
ATOM     83  C   UNL     1     -15.697  -6.133   7.786  1.00  0.00     0.000 A 
ATOM     84  C   UNL     1     -15.010  -8.287   8.623  1.00  0.00     0.000 A 
ATOM     85  C   UNL     1     -15.893  -7.210   8.647  1.00  0.00     0.000 A 
ENDBRANCH  79  80
ENDBRANCH  76  79
ENDBRANCH  74  76
ENDBRANCH  72  74
ENDBRANCH  70  71
ENDBRANCH   1  69
TORSDOF 17
ENDMDL
MODEL 22
REMARK VINA RESULT:    -6.475      7.126     12.522
REMARK INTER + INTRA:         -26.213
REMARK INTER:                 -19.278
REMARK INTRA:                  -6.935
REMARK UNBOUND:                -6.869
REMARK SMILES C=C1C(=O)N[C@H](C)C(=O)N[C@@H](CC(C)C)C(=O)N[C@@H](C(=O)O)[C@H](C)C(=O)N[C@@H](CCCN=C(N)N)C(=O)N[C@@H](/C=C/C(C)=C/[C@H](C)[C@H](Cc2ccccc2)OC)[C@H](C)C(=O)N[C@@H](C(=O)O)CCC(=O)N1C
REMARK SMILES IDX 39 1 38 2 37 3 36 4 28 6 27 7 25 8 26 9 23 11 24 12 19 13
REMARK SMILES IDX 18 14 16 15 17 16 11 18 10 19 8 20 9 21 12 24 13 25 14 26
REMARK SMILES IDX 15 27 20 28 21 29 22 30 29 32 30 33 31 34 32 35 33 36 34 37
REMARK SMILES IDX 35 38 57 43 58 44 59 45 60 46 61 47 62 49 66 50 67 51 68 52
REMARK SMILES IDX 69 53 70 54 71 55 2 56 1 57 3 58 4 59 5 60 6 62 7 63 63 65
REMARK SMILES IDX 64 66 65 67 40 69 41 70 42 71 44 72 43 73 45 74 46 75 47 76
REMARK SMILES IDX 55 77 56 78 48 79 49 80 50 81 54 82 51 83 53 84 52 85
REMARK H PARENT 38 5 27 10 18 17 10 22 22 31 34 39 34 40 35 41 35 42 61 48
REMARK H PARENT 5 61 65 68
REMARK Flexibility Score:  369.900
ROOT
ATOM      1  C   UNL     1      -8.352  -6.618   3.196  1.00  0.00     0.117 C 
ENDROOT
BRANCH   1   2
ATOM      2  N   UNL     1      -9.374  -5.747   2.615  1.00  0.00    -0.347 N 
ATOM      3  O   UNL     1      -9.277  -4.067   4.176  1.00  0.00    -0.273 OA
ATOM      4  C   UNL     1      -9.690  -4.494   3.103  1.00  0.00     0.243 C 
ATOM      5  H   UNL     1      -9.854  -6.039   1.777  1.00  0.00     0.164 HD
BRANCH   4   6
ATOM      6  C   UNL     1     -10.746  -3.743   2.253  1.00  0.00     0.171 C 
BRANCH   6   7
ATOM      7  N   UNL     1     -11.762  -3.127   3.122  1.00  0.00    -0.344 N 
ATOM      8  C   UNL     1     -13.078  -3.532   3.061  1.00  0.00     0.226 C 
ATOM      9  O   UNL     1     -13.468  -4.392   2.280  1.00  0.00    -0.275 OA
ATOM     10  H   UNL     1     -11.491  -2.366   3.732  1.00  0.00     0.164 HD
BRANCH   8  11
ATOM     11  C   UNL     1     -13.992  -2.841   4.057  1.00  0.00     0.109 C 
ATOM     12  C   UNL     1     -13.613  -3.240   5.483  1.00  0.00     0.021 C 
BRANCH  11  13
ATOM     13  C   UNL     1     -14.003  -1.323   3.789  1.00  0.00     0.204 C 
BRANCH  13  14
ATOM     14  N   UNL     1     -12.821  -0.657   4.344  1.00  0.00    -0.340 N 
ATOM     15  C   UNL     1     -12.900   0.433   5.183  1.00  0.00     0.243 C 
ATOM     16  O   UNL     1     -13.974   0.887   5.576  1.00  0.00    -0.273 OA
ATOM     17  H   UNL     1     -11.908  -0.885   3.941  1.00  0.00     0.164 HD
BRANCH  15  18
ATOM     18  C   UNL     1     -11.530   1.093   5.472  1.00  0.00     0.171 C 
BRANCH  18  19
ATOM     19  N   UNL     1     -11.314   0.997   6.914  1.00  0.00    -0.343 N 
ATOM     20  C   UNL     1     -11.538   2.067   7.758  1.00  0.00     0.242 CG0
ATOM     21  O   UNL     1     -11.799   3.186   7.323  1.00  0.00    -0.273 OA
ATOM     22  H   UNL     1     -10.986   0.123   7.311  1.00  0.00     0.164 HD
ATOM     23  G   UNL     1     -11.333   1.753   9.254  1.00  0.00     0.000 G0
ENDBRANCH  18  19
BRANCH  18  24
ATOM     24  C   UNL     1     -10.414   0.390   4.689  1.00  0.00     0.038 C 
BRANCH  24  25
ATOM     25  C   UNL     1      -9.497   1.336   3.885  1.00  0.00    -0.015 C 
ATOM     26  C   UNL     1     -10.039   2.764   3.822  1.00  0.00     0.007 C 
ATOM     27  C   UNL     1      -9.314   0.792   2.466  1.00  0.00     0.007 C 
ENDBRANCH  24  25
ENDBRANCH  18  24
ENDBRANCH  15  18
ENDBRANCH  13  14
BRANCH  13  28
ATOM     28  C   UNL     1     -14.064  -0.973   2.299  1.00  0.00     0.327 C 
ATOM     29  O   UNL     1     -15.006  -1.176   1.547  1.00  0.00    -0.250 OA
BRANCH  28  30
ATOM     30  O   UNL     1     -12.896  -0.501   1.819  1.00  0.00    -0.480 OA
ATOM     31  H   UNL     1     -13.074  -0.339   0.869  1.00  0.00     0.296 HD
ENDBRANCH  28  30
ENDBRANCH  13  28
ENDBRANCH  11  13
ENDBRANCH   8  11
ENDBRANCH   6   7
BRANCH   6  32
ATOM     32  C   UNL     1     -10.043  -2.683   1.398  1.00  0.00     0.037 C 
BRANCH  32  33
ATOM     33  C   UNL     1      -9.496  -3.266   0.088  1.00  0.00     0.026 C 
BRANCH  33  34
ATOM     34  C   UNL     1     -10.607  -3.681  -0.877  1.00  0.00     0.146 C 
BRANCH  34  35
ATOM     35  N   UNL     1     -10.569  -5.127  -1.043  1.00  0.00    -0.254 NA
ATOM     36  C   UNL     1     -11.608  -5.809  -0.733  1.00  0.00     0.185 C 
ATOM     37  N   UNL     1     -11.586  -7.142  -0.886  1.00  0.00    -0.370 N 
ATOM     38  N   UNL     1     -12.788  -5.379  -0.250  1.00  0.00    -0.370 N 
ATOM     39  H   UNL     1     -10.733  -7.542  -1.256  1.00  0.00     0.159 HD
ATOM     40  H   UNL     1     -12.406  -7.722  -0.833  1.00  0.00     0.159 HD
ATOM     41  H   UNL     1     -13.480  -6.027   0.087  1.00  0.00     0.159 HD
ATOM     42  H   UNL     1     -12.941  -4.399  -0.069  1.00  0.00     0.159 HD
ENDBRANCH  34  35
ENDBRANCH  33  34
ENDBRANCH  32  33
ENDBRANCH   6  32
ENDBRANCH   4   6
ENDBRANCH   1   2
BRANCH   1  43
ATOM     43  C   UNL     1      -7.444  -7.150   2.049  1.00  0.00     0.102 C 
ATOM     44  C   UNL     1      -6.306  -6.186   1.673  1.00  0.00     0.020 C 
BRANCH  43  45
ATOM     45  C   UNL     1      -8.283  -7.618   0.856  1.00  0.00     0.225 C 
ATOM     46  O   UNL     1      -9.419  -8.069   0.970  1.00  0.00    -0.275 OA
ATOM     47  N   UNL     1      -7.645  -7.590  -0.363  1.00  0.00    -0.342 N 
ATOM     48  H   UNL     1      -6.778  -7.081  -0.463  1.00  0.00     0.164 HD
BRANCH  47  49
ATOM     49  C   UNL     1      -8.335  -7.975  -1.598  1.00  0.00     0.192 C 
BRANCH  49  50
ATOM     50  C   UNL     1      -7.620  -9.168  -2.237  1.00  0.00     0.047 C 
BRANCH  50  51
ATOM     51  C   UNL     1      -6.154  -8.858  -2.568  1.00  0.00     0.103 C 
BRANCH  51  52
ATOM     52  C   UNL     1      -5.912  -8.772  -4.074  1.00  0.00     0.226 C 
ATOM     53  O   UNL     1      -6.212  -9.725  -4.796  1.00  0.00    -0.275 OA
BRANCH  52  54
ATOM     54  N   UNL     1      -5.420  -7.546  -4.560  1.00  0.00    -0.311 N 
ATOM     55  C   UNL     1      -4.788  -6.574  -3.658  1.00  0.00     0.153 C 
BRANCH  54  56
ATOM     56  C   UNL     1      -5.507  -7.210  -5.921  1.00  0.00     0.102 C 
ATOM     57  C   UNL     1      -6.506  -6.505  -6.476  1.00  0.00     0.043 C 
BRANCH  56  58
ATOM     58  C   UNL     1      -4.411  -7.597  -6.887  1.00  0.00     0.268 C 
ATOM     59  O   UNL     1      -3.530  -6.827  -7.244  1.00  0.00    -0.268 OA
ATOM     60  N   UNL     1      -4.469  -8.917  -7.268  1.00  0.00    -0.339 N 
ATOM     61  H   UNL     1      -5.238  -9.487  -6.936  1.00  0.00     0.164 HD
BRANCH  60  62
ATOM     62  C   UNL     1      -3.469  -9.517  -8.150  1.00  0.00     0.168 CG0
ATOM     63  C   UNL     1      -4.039 -10.727  -8.880  1.00  0.00     0.041 C 
ATOM     64  G   UNL     1      -2.225  -9.912  -7.327  1.00  0.00     0.000 G0
ENDBRANCH  60  62
ENDBRANCH  56  58
ENDBRANCH  54  56
ENDBRANCH  52  54
ENDBRANCH  51  52
ENDBRANCH  50  51
ENDBRANCH  49  50
BRANCH  49  65
ATOM     65  C   UNL     1      -8.387  -6.815  -2.604  1.00  0.00     0.326 C 
ATOM     66  O   UNL     1      -8.842  -6.876  -3.737  1.00  0.00    -0.250 OA
BRANCH  65  67
ATOM     67  O   UNL     1      -7.820  -5.667  -2.171  1.00  0.00    -0.480 OA
ATOM     68  H   UNL     1      -7.318  -5.348  -2.951  1.00  0.00     0.296 HD
ENDBRANCH  65  67
ENDBRANCH  49  65
ENDBRANCH  47  49
ENDBRANCH  43  45
ENDBRANCH   1  43
BRANCH   1  69
ATOM     69  C   UNL     1      -9.091  -7.616   4.068  1.00  0.00    -0.001 C 
ATOM     70  C   UNL     1      -8.564  -8.453   4.979  1.00  0.00     0.001 C 
BRANCH  70  71
ATOM     71  C   UNL     1      -9.290  -9.397   5.831  1.00  0.00    -0.055 C 
ATOM     72  C   UNL     1     -10.631  -9.265   5.912  1.00  0.00    -0.018 C 
ATOM     73  C   UNL     1      -8.491 -10.453   6.550  1.00  0.00     0.044 C 
BRANCH  72  74
ATOM     74  C   UNL     1     -11.634 -10.091   6.705  1.00  0.00     0.038 C 
ATOM     75  C   UNL     1     -12.666 -10.630   5.707  1.00  0.00     0.015 C 
BRANCH  74  76
ATOM     76  C   UNL     1     -12.224  -9.206   7.842  1.00  0.00     0.128 C 
BRANCH  76  77
ATOM     77  O   UNL     1     -11.279  -9.098   8.920  1.00  0.00    -0.381 OA
ATOM     78  C   UNL     1     -11.061 -10.319   9.613  1.00  0.00     0.195 C 
ENDBRANCH  76  77
BRANCH  76  79
ATOM     79  C   UNL     1     -12.746  -7.829   7.361  1.00  0.00     0.068 C 
BRANCH  79  80
ATOM     80  C   UNL     1     -14.158  -7.440   7.729  1.00  0.00    -0.045 A 
ATOM     81  C   UNL     1     -14.688  -6.202   7.345  1.00  0.00     0.004 A 
ATOM     82  C   UNL     1     -14.955  -8.309   8.489  1.00  0.00     0.004 A 
ATOM     83  C   UNL     1     -15.990  -5.844   7.701  1.00  0.00     0.000 A 
ATOM     84  C   UNL     1     -16.257  -7.950   8.845  1.00  0.00     0.000 A 
ATOM     85  C   UNL     1     -16.775  -6.719   8.450  1.00  0.00     0.000 A 
ENDBRANCH  79  80
ENDBRANCH  76  79
ENDBRANCH  74  76
ENDBRANCH  72  74
ENDBRANCH  70  71
ENDBRANCH   1  69
TORSDOF 17
ENDMDL
MODEL 23
REMARK VINA RESULT:    -6.453      5.194     11.452
REMARK INTER + INTRA:         -26.147
REMARK INTER:                 -20.164
REMARK INTRA:                  -5.983
REMARK UNBOUND:                -6.869
REMARK SMILES C=C1C(=O)N[C@H](C)C(=O)N[C@@H](CC(C)C)C(=O)N[C@@H](C(=O)O)[C@H](C)C(=O)N[C@@H](CCCN=C(N)N)C(=O)N[C@@H](/C=C/C(C)=C/[C@H](C)[C@H](Cc2ccccc2)OC)[C@H](C)C(=O)N[C@@H](C(=O)O)CCC(=O)N1C
REMARK SMILES IDX 39 1 38 2 37 3 36 4 28 6 27 7 25 8 26 9 23 11 24 12 19 13
REMARK SMILES IDX 18 14 16 15 17 16 11 18 10 19 8 20 9 21 12 24 13 25 14 26
REMARK SMILES IDX 15 27 20 28 21 29 22 30 29 32 30 33 31 34 32 35 33 36 34 37
REMARK SMILES IDX 35 38 57 43 58 44 59 45 60 46 61 47 62 49 66 50 67 51 68 52
REMARK SMILES IDX 69 53 70 54 71 55 2 56 1 57 3 58 4 59 5 60 6 62 7 63 63 65
REMARK SMILES IDX 64 66 65 67 40 69 41 70 42 71 44 72 43 73 45 74 46 75 47 76
REMARK SMILES IDX 55 77 56 78 48 79 49 80 50 81 54 82 51 83 53 84 52 85
REMARK H PARENT 38 5 27 10 18 17 10 22 22 31 34 39 34 40 35 41 35 42 61 48
REMARK H PARENT 5 61 65 68
REMARK Flexibility Score:  369.900
ROOT
ATOM      1  C   UNL     1      -8.213  -1.712  -3.038  1.00  0.00     0.117 C 
ENDROOT
BRANCH   1   2
ATOM      2  N   UNL     1      -7.538  -2.176  -4.250  1.00  0.00    -0.347 N 
ATOM      3  O   UNL     1      -8.201  -0.479  -5.647  1.00  0.00    -0.273 OA
ATOM      4  C   UNL     1      -7.510  -1.472  -5.438  1.00  0.00     0.243 C 
ATOM      5  H   UNL     1      -7.012  -3.037  -4.225  1.00  0.00     0.164 HD
BRANCH   4   6
ATOM      6  C   UNL     1      -6.653  -2.143  -6.541  1.00  0.00     0.171 C 
BRANCH   6   7
ATOM      7  N   UNL     1      -7.516  -2.710  -7.589  1.00  0.00    -0.344 N 
ATOM      8  C   UNL     1      -8.288  -3.824  -7.337  1.00  0.00     0.226 C 
ATOM      9  O   UNL     1      -8.280  -4.402  -6.257  1.00  0.00    -0.275 OA
ATOM     10  H   UNL     1      -7.499  -2.300  -8.515  1.00  0.00     0.164 HD
BRANCH   8  11
ATOM     11  C   UNL     1      -9.164  -4.254  -8.501  1.00  0.00     0.109 C 
ATOM     12  C   UNL     1      -9.649  -3.029  -9.276  1.00  0.00     0.021 C 
BRANCH  11  13
ATOM     13  C   UNL     1      -8.423  -5.306  -9.350  1.00  0.00     0.204 C 
BRANCH  13  14
ATOM     14  N   UNL     1      -7.667  -6.250  -8.522  1.00  0.00    -0.340 N 
ATOM     15  C   UNL     1      -6.424  -6.728  -8.876  1.00  0.00     0.243 C 
ATOM     16  O   UNL     1      -5.834  -6.347  -9.886  1.00  0.00    -0.273 OA
ATOM     17  H   UNL     1      -8.159  -6.718  -7.756  1.00  0.00     0.164 HD
BRANCH  15  18
ATOM     18  C   UNL     1      -5.913  -7.865  -7.958  1.00  0.00     0.171 C 
BRANCH  18  19
ATOM     19  N   UNL     1      -5.966  -9.095  -8.747  1.00  0.00    -0.343 N 
ATOM     20  C   UNL     1      -6.288 -10.312  -8.178  1.00  0.00     0.242 CG0
ATOM     21  O   UNL     1      -6.415 -10.441  -6.963  1.00  0.00    -0.273 OA
ATOM     22  H   UNL     1      -5.755  -9.060  -9.738  1.00  0.00     0.164 HD
ATOM     23  G   UNL     1      -6.370 -11.481  -9.181  1.00  0.00     0.000 G0
ENDBRANCH  18  19
BRANCH  18  24
ATOM     24  C   UNL     1      -4.489  -7.570  -7.472  1.00  0.00     0.038 C 
BRANCH  24  25
ATOM     25  C   UNL     1      -4.411  -6.744  -6.170  1.00  0.00    -0.015 C 
ATOM     26  C   UNL     1      -5.670  -6.881  -5.313  1.00  0.00     0.007 C 
ATOM     27  C   UNL     1      -4.177  -5.270  -6.510  1.00  0.00     0.007 C 
ENDBRANCH  24  25
ENDBRANCH  18  24
ENDBRANCH  15  18
ENDBRANCH  13  14
BRANCH  13  28
ATOM     28  C   UNL     1      -9.358  -6.131 -10.240  1.00  0.00     0.327 C 
ATOM     29  O   UNL     1     -10.041  -7.080  -9.886  1.00  0.00    -0.250 OA
BRANCH  28  30
ATOM     30  O   UNL     1      -9.288  -5.788 -11.542  1.00  0.00    -0.480 OA
ATOM     31  H   UNL     1     -10.156  -5.375 -11.730  1.00  0.00     0.296 HD
ENDBRANCH  28  30
ENDBRANCH  13  28
ENDBRANCH  11  13
ENDBRANCH   8  11
ENDBRANCH   6   7
BRANCH   6  32
ATOM     32  C   UNL     1      -5.688  -1.107  -7.129  1.00  0.00     0.037 C 
BRANCH  32  33
ATOM     33  C   UNL     1      -4.517  -1.763  -7.873  1.00  0.00     0.026 C 
BRANCH  33  34
ATOM     34  C   UNL     1      -4.577  -1.527  -9.383  1.00  0.00     0.146 C 
BRANCH  34  35
ATOM     35  N   UNL     1      -5.111  -2.721 -10.024  1.00  0.00    -0.254 NA
ATOM     36  C   UNL     1      -6.166  -2.613 -10.743  1.00  0.00     0.185 C 
ATOM     37  N   UNL     1      -6.663  -3.706 -11.342  1.00  0.00    -0.370 N 
ATOM     38  N   UNL     1      -6.897  -1.517 -11.011  1.00  0.00    -0.370 N 
ATOM     39  H   UNL     1      -6.161  -4.572 -11.197  1.00  0.00     0.159 HD
ATOM     40  H   UNL     1      -7.374  -3.676 -12.053  1.00  0.00     0.159 HD
ATOM     41  H   UNL     1      -7.786  -1.585 -11.478  1.00  0.00     0.159 HD
ATOM     42  H   UNL     1      -6.648  -0.625 -10.613  1.00  0.00     0.159 HD
ENDBRANCH  34  35
ENDBRANCH  33  34
ENDBRANCH  32  33
ENDBRANCH   6  32
ENDBRANCH   4   6
ENDBRANCH   1   2
BRANCH   1  43
ATOM     43  C   UNL     1      -7.391  -0.539  -2.431  1.00  0.00     0.102 C 
ATOM     44  C   UNL     1      -6.700  -0.898  -1.104  1.00  0.00     0.020 C 
BRANCH  43  45
ATOM     45  C   UNL     1      -8.225   0.744  -2.370  1.00  0.00     0.225 C 
ATOM     46  O   UNL     1      -7.788   1.844  -2.696  1.00  0.00    -0.275 OA
ATOM     47  N   UNL     1      -9.484   0.607  -1.833  1.00  0.00    -0.342 N 
ATOM     48  H   UNL     1      -9.880  -0.315  -1.713  1.00  0.00     0.164 HD
BRANCH  47  49
ATOM     49  C   UNL     1     -10.408   1.742  -1.744  1.00  0.00     0.192 C 
BRANCH  49  50
ATOM     50  C   UNL     1     -10.854   1.931  -0.292  1.00  0.00     0.047 C 
BRANCH  50  51
ATOM     51  C   UNL     1     -10.602   0.680   0.561  1.00  0.00     0.103 C 
BRANCH  51  52
ATOM     52  C   UNL     1     -10.884   0.930   2.041  1.00  0.00     0.226 C 
ATOM     53  O   UNL     1     -11.908   0.472   2.553  1.00  0.00    -0.275 OA
BRANCH  52  54
ATOM     54  N   UNL     1      -9.891   1.621   2.760  1.00  0.00    -0.311 N 
ATOM     55  C   UNL     1      -8.592   0.997   3.046  1.00  0.00     0.153 C 
BRANCH  54  56
ATOM     56  C   UNL     1     -10.100   2.930   3.225  1.00  0.00     0.102 C 
ATOM     57  C   UNL     1      -9.672   4.042   2.606  1.00  0.00     0.043 C 
BRANCH  56  58
ATOM     58  C   UNL     1     -10.895   3.187   4.484  1.00  0.00     0.268 C 
ATOM     59  O   UNL     1     -12.061   3.556   4.475  1.00  0.00    -0.268 OA
ATOM     60  N   UNL     1     -10.195   2.902   5.632  1.00  0.00    -0.339 N 
ATOM     61  H   UNL     1      -9.228   2.611   5.553  1.00  0.00     0.164 HD
BRANCH  60  62
ATOM     62  C   UNL     1     -10.795   3.022   6.960  1.00  0.00     0.168 CG0
ATOM     63  C   UNL     1     -11.538   1.747   7.341  1.00  0.00     0.041 C 
ATOM     64  G   UNL     1     -11.745   4.237   6.990  1.00  0.00     0.000 G0
ENDBRANCH  60  62
ENDBRANCH  56  58
ENDBRANCH  54  56
ENDBRANCH  52  54
ENDBRANCH  51  52
ENDBRANCH  50  51
ENDBRANCH  49  50
BRANCH  49  65
ATOM     65  C   UNL     1     -11.644   1.538  -2.634  1.00  0.00     0.326 C 
ATOM     66  O   UNL     1     -12.215   2.413  -3.268  1.00  0.00    -0.250 OA
BRANCH  65  67
ATOM     67  O   UNL     1     -12.133   0.279  -2.638  1.00  0.00    -0.480 OA
ATOM     68  H   UNL     1     -12.139   0.029  -1.689  1.00  0.00     0.296 HD
ENDBRANCH  65  67
ENDBRANCH  49  65
ENDBRANCH  47  49
ENDBRANCH  43  45
ENDBRANCH   1  43
BRANCH   1  69
ATOM     69  C   UNL     1      -8.463  -2.948  -2.192  1.00  0.00    -0.001 C 
ATOM     70  C   UNL     1      -9.644  -3.535  -1.933  1.00  0.00     0.001 C 
BRANCH  70  71
ATOM     71  C   UNL     1      -9.870  -4.740  -1.132  1.00  0.00    -0.055 C 
ATOM     72  C   UNL     1      -9.839  -5.930  -1.768  1.00  0.00    -0.018 C 
ATOM     73  C   UNL     1     -10.113  -4.567   0.344  1.00  0.00     0.044 C 
BRANCH  72  74
ATOM     74  C   UNL     1     -10.034  -7.330  -1.201  1.00  0.00     0.038 C 
ATOM     75  C   UNL     1     -10.616  -7.171   0.208  1.00  0.00     0.015 C 
BRANCH  74  76
ATOM     76  C   UNL     1      -8.676  -8.089  -1.265  1.00  0.00     0.128 C 
BRANCH  76  77
ATOM     77  O   UNL     1      -8.585  -8.829  -2.495  1.00  0.00    -0.381 OA
ATOM     78  C   UNL     1      -8.538 -10.237  -2.312  1.00  0.00     0.195 C 
ENDBRANCH  76  77
BRANCH  76  79
ATOM     79  C   UNL     1      -7.439  -7.191  -1.013  1.00  0.00     0.068 C 
BRANCH  79  80
ATOM     80  C   UNL     1      -7.049  -6.911   0.418  1.00  0.00    -0.045 A 
ATOM     81  C   UNL     1      -6.663  -5.626   0.823  1.00  0.00     0.004 A 
ATOM     82  C   UNL     1      -7.039  -7.947   1.364  1.00  0.00     0.004 A 
ATOM     83  C   UNL     1      -6.290  -5.379   2.146  1.00  0.00     0.000 A 
ATOM     84  C   UNL     1      -6.665  -7.699   2.686  1.00  0.00     0.000 A 
ATOM     85  C   UNL     1      -6.292  -6.415   3.077  1.00  0.00     0.000 A 
ENDBRANCH  79  80
ENDBRANCH  76  79
ENDBRANCH  74  76
ENDBRANCH  72  74
ENDBRANCH  70  71
ENDBRANCH   1  69
TORSDOF 17
ENDMDL
MODEL 24
REMARK VINA RESULT:    -6.432      6.051     13.678
REMARK INTER + INTRA:         -26.084
REMARK INTER:                 -19.835
REMARK INTRA:                  -6.250
REMARK UNBOUND:                -6.869
REMARK SMILES C=C1C(=O)N[C@H](C)C(=O)N[C@@H](CC(C)C)C(=O)N[C@@H](C(=O)O)[C@H](C)C(=O)N[C@@H](CCCN=C(N)N)C(=O)N[C@@H](/C=C/C(C)=C/[C@H](C)[C@H](Cc2ccccc2)OC)[C@H](C)C(=O)N[C@@H](C(=O)O)CCC(=O)N1C
REMARK SMILES IDX 39 1 38 2 37 3 36 4 28 6 27 7 25 8 26 9 23 11 24 12 19 13
REMARK SMILES IDX 18 14 16 15 17 16 11 18 10 19 8 20 9 21 12 24 13 25 14 26
REMARK SMILES IDX 15 27 20 28 21 29 22 30 29 32 30 33 31 34 32 35 33 36 34 37
REMARK SMILES IDX 35 38 57 43 58 44 59 45 60 46 61 47 62 49 66 50 67 51 68 52
REMARK SMILES IDX 69 53 70 54 71 55 2 56 1 57 3 58 4 59 5 60 6 62 7 63 63 65
REMARK SMILES IDX 64 66 65 67 40 69 41 70 42 71 44 72 43 73 45 74 46 75 47 76
REMARK SMILES IDX 55 77 56 78 48 79 49 80 50 81 54 82 51 83 53 84 52 85
REMARK H PARENT 38 5 27 10 18 17 10 22 22 31 34 39 34 40 35 41 35 42 61 48
REMARK H PARENT 5 61 65 68
REMARK Flexibility Score:  369.900
ROOT
ATOM      1  C   UNL     1      -8.650  -6.874  -2.399  1.00  0.00     0.117 C 
ENDROOT
BRANCH   1   2
ATOM      2  N   UNL     1      -8.321  -5.726  -1.553  1.00  0.00    -0.347 N 
ATOM      3  O   UNL     1     -10.107  -4.399  -2.119  1.00  0.00    -0.273 OA
ATOM      4  C   UNL     1      -9.128  -4.614  -1.412  1.00  0.00     0.243 C 
ATOM      5  H   UNL     1      -7.483  -5.749  -0.993  1.00  0.00     0.164 HD
BRANCH   4   6
ATOM      6  C   UNL     1      -8.591  -3.580  -0.390  1.00  0.00     0.171 C 
BRANCH   6   7
ATOM      7  N   UNL     1      -8.923  -2.212  -0.819  1.00  0.00    -0.344 N 
ATOM      8  C   UNL     1      -8.084  -1.518  -1.664  1.00  0.00     0.226 C 
ATOM      9  O   UNL     1      -7.029  -1.985  -2.077  1.00  0.00    -0.275 OA
ATOM     10  H   UNL     1      -9.752  -1.768  -0.445  1.00  0.00     0.164 HD
BRANCH   8  11
ATOM     11  C   UNL     1      -8.592  -0.142  -2.058  1.00  0.00     0.109 C 
ATOM     12  C   UNL     1     -10.073  -0.007  -1.705  1.00  0.00     0.021 C 
BRANCH  11  13
ATOM     13  C   UNL     1      -7.679   0.943  -1.453  1.00  0.00     0.204 C 
BRANCH  13  14
ATOM     14  N   UNL     1      -8.376   2.224  -1.294  1.00  0.00    -0.340 N 
ATOM     15  C   UNL     1      -7.732   3.440  -1.370  1.00  0.00     0.243 C 
ATOM     16  O   UNL     1      -6.535   3.538  -1.637  1.00  0.00    -0.273 OA
ATOM     17  H   UNL     1      -9.330   2.209  -0.924  1.00  0.00     0.164 HD
BRANCH  15  18
ATOM     18  C   UNL     1      -8.624   4.639  -0.966  1.00  0.00     0.171 C 
BRANCH  18  19
ATOM     19  N   UNL     1      -8.970   5.338  -2.201  1.00  0.00    -0.343 N 
ATOM     20  C   UNL     1      -9.023   6.717  -2.268  1.00  0.00     0.242 CG0
ATOM     21  O   UNL     1      -8.913   7.415  -1.262  1.00  0.00    -0.273 OA
ATOM     22  H   UNL     1      -9.184   4.801  -3.034  1.00  0.00     0.164 HD
ATOM     23  G   UNL     1      -9.328   7.276  -3.673  1.00  0.00     0.000 G0
ENDBRANCH  18  19
BRANCH  18  24
ATOM     24  C   UNL     1      -9.877   4.155  -0.224  1.00  0.00     0.038 C 
BRANCH  24  25
ATOM     25  C   UNL     1      -9.922   4.526   1.273  1.00  0.00    -0.015 C 
ATOM     26  C   UNL     1      -8.912   5.614   1.638  1.00  0.00     0.007 C 
ATOM     27  C   UNL     1      -9.663   3.278   2.121  1.00  0.00     0.007 C 
ENDBRANCH  24  25
ENDBRANCH  18  24
ENDBRANCH  15  18
ENDBRANCH  13  14
BRANCH  13  28
ATOM     28  C   UNL     1      -7.115   0.561  -0.081  1.00  0.00     0.327 C 
ATOM     29  O   UNL     1      -5.947   0.310   0.176  1.00  0.00    -0.250 OA
BRANCH  28  30
ATOM     30  O   UNL     1      -8.069   0.402   0.858  1.00  0.00    -0.480 OA
ATOM     31  H   UNL     1      -8.441  -0.486   0.676  1.00  0.00     0.296 HD
ENDBRANCH  28  30
ENDBRANCH  13  28
ENDBRANCH  11  13
ENDBRANCH   8  11
ENDBRANCH   6   7
BRANCH   6  32
ATOM     32  C   UNL     1      -9.187  -3.880   0.990  1.00  0.00     0.037 C 
BRANCH  32  33
ATOM     33  C   UNL     1     -10.433  -3.032   1.280  1.00  0.00     0.026 C 
BRANCH  33  34
ATOM     34  C   UNL     1     -11.731  -3.818   1.098  1.00  0.00     0.146 C 
BRANCH  34  35
ATOM     35  N   UNL     1     -12.710  -2.962   0.442  1.00  0.00    -0.254 NA
ATOM     36  C   UNL     1     -13.633  -2.428   1.151  1.00  0.00     0.185 C 
ATOM     37  N   UNL     1     -14.538  -1.634   0.558  1.00  0.00    -0.370 N 
ATOM     38  N   UNL     1     -13.855  -2.541   2.473  1.00  0.00    -0.370 N 
ATOM     39  H   UNL     1     -14.432  -1.490  -0.438  1.00  0.00     0.159 HD
ATOM     40  H   UNL     1     -15.178  -1.046   1.064  1.00  0.00     0.159 HD
ATOM     41  H   UNL     1     -14.697  -2.184   2.893  1.00  0.00     0.159 HD
ATOM     42  H   UNL     1     -13.261  -3.122   3.045  1.00  0.00     0.159 HD
ENDBRANCH  34  35
ENDBRANCH  33  34
ENDBRANCH  32  33
ENDBRANCH   6  32
ENDBRANCH   4   6
ENDBRANCH   1   2
BRANCH   1  43
ATOM     43  C   UNL     1      -8.761  -8.138  -1.497  1.00  0.00     0.102 C 
ATOM     44  C   UNL     1      -8.912  -9.446  -2.293  1.00  0.00     0.020 C 
BRANCH  43  45
ATOM     45  C   UNL     1      -9.822  -7.946  -0.409  1.00  0.00     0.225 C 
ATOM     46  O   UNL     1     -10.941  -7.495  -0.636  1.00  0.00    -0.275 OA
ATOM     47  N   UNL     1      -9.411  -8.225   0.874  1.00  0.00    -0.342 N 
ATOM     48  H   UNL     1      -8.551  -8.733   1.025  1.00  0.00     0.164 HD
BRANCH  47  49
ATOM     49  C   UNL     1     -10.329  -8.121   2.012  1.00  0.00     0.192 C 
BRANCH  49  50
ATOM     50  C   UNL     1      -9.706  -7.239   3.097  1.00  0.00     0.047 C 
BRANCH  50  51
ATOM     51  C   UNL     1     -10.736  -6.311   3.755  1.00  0.00     0.103 C 
BRANCH  51  52
ATOM     52  C   UNL     1     -11.072  -6.746   5.180  1.00  0.00     0.226 C 
ATOM     53  O   UNL     1     -10.184  -6.780   6.033  1.00  0.00    -0.275 OA
BRANCH  52  54
ATOM     54  N   UNL     1     -12.427  -7.015   5.450  1.00  0.00    -0.311 N 
ATOM     55  C   UNL     1     -13.411  -7.104   4.363  1.00  0.00     0.153 C 
BRANCH  54  56
ATOM     56  C   UNL     1     -12.887  -7.214   6.762  1.00  0.00     0.102 C 
ATOM     57  C   UNL     1     -13.563  -6.307   7.485  1.00  0.00     0.043 C 
BRANCH  56  58
ATOM     58  C   UNL     1     -12.681  -8.536   7.464  1.00  0.00     0.268 C 
ATOM     59  O   UNL     1     -13.410  -9.504   7.295  1.00  0.00    -0.268 OA
ATOM     60  N   UNL     1     -11.558  -8.559   8.255  1.00  0.00    -0.339 N 
ATOM     61  H   UNL     1     -11.012  -7.711   8.351  1.00  0.00     0.164 HD
BRANCH  60  62
ATOM     62  C   UNL     1     -11.137  -9.760   8.976  1.00  0.00     0.168 CG0
ATOM     63  C   UNL     1     -11.684  -9.765  10.397  1.00  0.00     0.041 C 
ATOM     64  G   UNL     1      -9.596  -9.844   8.984  1.00  0.00     0.000 G0
ENDBRANCH  60  62
ENDBRANCH  56  58
ENDBRANCH  54  56
ENDBRANCH  52  54
ENDBRANCH  51  52
ENDBRANCH  50  51
ENDBRANCH  49  50
BRANCH  49  65
ATOM     65  C   UNL     1     -10.657  -9.501   2.604  1.00  0.00     0.326 C 
ATOM     66  O   UNL     1     -11.692  -9.798   3.183  1.00  0.00    -0.250 OA
BRANCH  65  67
ATOM     67  O   UNL     1      -9.664 -10.410   2.498  1.00  0.00    -0.480 OA
ATOM     68  H   UNL     1      -9.578 -10.767   3.408  1.00  0.00     0.296 HD
ENDBRANCH  65  67
ENDBRANCH  49  65
ENDBRANCH  47  49
ENDBRANCH  43  45
ENDBRANCH   1  43
BRANCH   1  69
ATOM     69  C   UNL     1      -7.641  -6.869  -3.533  1.00  0.00    -0.001 C 
ATOM     70  C   UNL     1      -6.983  -5.809  -4.036  1.00  0.00     0.001 C 
BRANCH  70  71
ATOM     71  C   UNL     1      -5.995  -5.819  -5.116  1.00  0.00    -0.055 C 
ATOM     72  C   UNL     1      -6.220  -5.018  -6.179  1.00  0.00    -0.018 C 
ATOM     73  C   UNL     1      -4.794  -6.715  -4.962  1.00  0.00     0.044 C 
BRANCH  72  74
ATOM     74  C   UNL     1      -5.377  -4.821  -7.431  1.00  0.00     0.038 C 
ATOM     75  C   UNL     1      -4.646  -3.481  -7.279  1.00  0.00     0.015 C 
BRANCH  74  76
ATOM     76  C   UNL     1      -6.303  -4.921  -8.679  1.00  0.00     0.128 C 
BRANCH  76  77
ATOM     77  O   UNL     1      -6.161  -3.744  -9.492  1.00  0.00    -0.381 OA
ATOM     78  C   UNL     1      -6.958  -3.763 -10.669  1.00  0.00     0.195 C 
ENDBRANCH  76  77
BRANCH  76  79
ATOM     79  C   UNL     1      -6.131  -6.232  -9.487  1.00  0.00     0.068 C 
BRANCH  79  80
ATOM     80  C   UNL     1      -5.394  -7.375  -8.832  1.00  0.00    -0.045 A 
ATOM     81  C   UNL     1      -4.002  -7.494  -8.941  1.00  0.00     0.004 A 
ATOM     82  C   UNL     1      -6.100  -8.358  -8.122  1.00  0.00     0.004 A 
ATOM     83  C   UNL     1      -3.329  -8.562  -8.344  1.00  0.00     0.000 A 
ATOM     84  C   UNL     1      -5.426  -9.426  -7.526  1.00  0.00     0.000 A 
ATOM     85  C   UNL     1      -4.041  -9.527  -7.635  1.00  0.00     0.000 A 
ENDBRANCH  79  80
ENDBRANCH  76  79
ENDBRANCH  74  76
ENDBRANCH  72  74
ENDBRANCH  70  71
ENDBRANCH   1  69
TORSDOF 17
ENDMDL
MODEL 25
REMARK VINA RESULT:    -6.421      5.083      9.958
REMARK INTER + INTRA:         -26.052
REMARK INTER:                 -18.080
REMARK INTRA:                  -7.973
REMARK UNBOUND:                -6.869
REMARK SMILES C=C1C(=O)N[C@H](C)C(=O)N[C@@H](CC(C)C)C(=O)N[C@@H](C(=O)O)[C@H](C)C(=O)N[C@@H](CCCN=C(N)N)C(=O)N[C@@H](/C=C/C(C)=C/[C@H](C)[C@H](Cc2ccccc2)OC)[C@H](C)C(=O)N[C@@H](C(=O)O)CCC(=O)N1C
REMARK SMILES IDX 39 1 38 2 37 3 36 4 28 6 27 7 25 8 26 9 23 11 24 12 19 13
REMARK SMILES IDX 18 14 16 15 17 16 11 18 10 19 8 20 9 21 12 24 13 25 14 26
REMARK SMILES IDX 15 27 20 28 21 29 22 30 29 32 30 33 31 34 32 35 33 36 34 37
REMARK SMILES IDX 35 38 57 43 58 44 59 45 60 46 61 47 62 49 66 50 67 51 68 52
REMARK SMILES IDX 69 53 70 54 71 55 2 56 1 57 3 58 4 59 5 60 6 62 7 63 63 65
REMARK SMILES IDX 64 66 65 67 40 69 41 70 42 71 44 72 43 73 45 74 46 75 47 76
REMARK SMILES IDX 55 77 56 78 48 79 49 80 50 81 54 82 51 83 53 84 52 85
REMARK H PARENT 38 5 27 10 18 17 10 22 22 31 34 39 34 40 35 41 35 42 61 48
REMARK H PARENT 5 61 65 68
REMARK Flexibility Score:  369.900
ROOT
ATOM      1  C   UNL     1      -8.985  -4.991  -1.602  1.00  0.00     0.117 C 
ENDROOT
BRANCH   1   2
ATOM      2  N   UNL     1      -9.946  -4.612  -0.566  1.00  0.00    -0.347 N 
ATOM      3  O   UNL     1     -11.689  -5.938  -1.256  1.00  0.00    -0.273 OA
ATOM      4  C   UNL     1     -11.194  -5.186  -0.422  1.00  0.00     0.243 C 
ATOM      5  H   UNL     1      -9.683  -3.927   0.126  1.00  0.00     0.164 HD
BRANCH   4   6
ATOM      6  C   UNL     1     -11.981  -4.667   0.808  1.00  0.00     0.171 C 
BRANCH   6   7
ATOM      7  N   UNL     1     -11.091  -4.543   1.974  1.00  0.00    -0.344 N 
ATOM      8  C   UNL     1     -11.160  -5.449   3.010  1.00  0.00     0.226 C 
ATOM      9  O   UNL     1     -11.964  -6.373   3.027  1.00  0.00    -0.275 OA
ATOM     10  H   UNL     1     -10.460  -3.753   2.027  1.00  0.00     0.164 HD
BRANCH   8  11
ATOM     11  C   UNL     1     -10.140  -5.218   4.111  1.00  0.00     0.109 C 
ATOM     12  C   UNL     1      -8.950  -4.426   3.569  1.00  0.00     0.021 C 
BRANCH  11  13
ATOM     13  C   UNL     1     -10.831  -4.589   5.338  1.00  0.00     0.204 C 
BRANCH  13  14
ATOM     14  N   UNL     1     -11.556  -5.585   6.133  1.00  0.00    -0.340 N 
ATOM     15  C   UNL     1     -12.711  -5.293   6.826  1.00  0.00     0.243 C 
ATOM     16  O   UNL     1     -13.249  -4.189   6.776  1.00  0.00    -0.273 OA
ATOM     17  H   UNL     1     -11.086  -6.471   6.338  1.00  0.00     0.164 HD
BRANCH  15  18
ATOM     18  C   UNL     1     -13.180  -6.439   7.756  1.00  0.00     0.171 C 
BRANCH  18  19
ATOM     19  N   UNL     1     -13.254  -5.879   9.105  1.00  0.00    -0.343 N 
ATOM     20  C   UNL     1     -12.663  -6.504  10.186  1.00  0.00     0.242 CG0
ATOM     21  O   UNL     1     -12.164  -7.623  10.089  1.00  0.00    -0.273 OA
ATOM     22  H   UNL     1     -13.756  -5.012   9.257  1.00  0.00     0.164 HD
ATOM     23  G   UNL     1     -12.778  -5.725  11.512  1.00  0.00     0.000 G0
ENDBRANCH  18  19
BRANCH  18  24
ATOM     24  C   UNL     1     -14.539  -6.985   7.300  1.00  0.00     0.038 C 
BRANCH  24  25
ATOM     25  C   UNL     1     -15.744  -6.488   8.127  1.00  0.00    -0.015 C 
ATOM     26  C   UNL     1     -16.655  -7.630   8.578  1.00  0.00     0.007 C 
ATOM     27  C   UNL     1     -16.551  -5.479   7.306  1.00  0.00     0.007 C 
ENDBRANCH  24  25
ENDBRANCH  18  24
ENDBRANCH  15  18
ENDBRANCH  13  14
BRANCH  13  28
ATOM     28  C   UNL     1      -9.856  -3.878   6.281  1.00  0.00     0.327 C 
ATOM     29  O   UNL     1      -9.110  -4.413   7.087  1.00  0.00    -0.250 OA
BRANCH  28  30
ATOM     30  O   UNL     1      -9.965  -2.535   6.239  1.00  0.00    -0.480 OA
ATOM     31  H   UNL     1      -9.414  -2.272   5.472  1.00  0.00     0.296 HD
ENDBRANCH  28  30
ENDBRANCH  13  28
ENDBRANCH  11  13
ENDBRANCH   8  11
ENDBRANCH   6   7
BRANCH   6  32
ATOM     32  C   UNL     1     -12.622  -3.318   0.463  1.00  0.00     0.037 C 
BRANCH  32  33
ATOM     33  C   UNL     1     -11.994  -2.160   1.251  1.00  0.00     0.026 C 
BRANCH  33  34
ATOM     34  C   UNL     1     -13.043  -1.272   1.922  1.00  0.00     0.146 C 
BRANCH  34  35
ATOM     35  N   UNL     1     -12.623  -1.001   3.290  1.00  0.00    -0.254 NA
ATOM     36  C   UNL     1     -13.050  -1.763   4.227  1.00  0.00     0.185 C 
ATOM     37  N   UNL     1     -12.666  -1.525   5.490  1.00  0.00    -0.370 N 
ATOM     38  N   UNL     1     -13.870  -2.826   4.143  1.00  0.00    -0.370 N 
ATOM     39  H   UNL     1     -12.037  -0.745   5.634  1.00  0.00     0.159 HD
ATOM     40  H   UNL     1     -12.813  -2.170   6.247  1.00  0.00     0.159 HD
ATOM     41  H   UNL     1     -14.245  -3.261   4.970  1.00  0.00     0.159 HD
ATOM     42  H   UNL     1     -14.250  -3.111   3.254  1.00  0.00     0.159 HD
ENDBRANCH  34  35
ENDBRANCH  33  34
ENDBRANCH  32  33
ENDBRANCH   6  32
ENDBRANCH   4   6
ENDBRANCH   1   2
BRANCH   1  43
ATOM     43  C   UNL     1      -7.832  -5.797  -0.937  1.00  0.00     0.102 C 
ATOM     44  C   UNL     1      -7.354  -5.195   0.395  1.00  0.00     0.020 C 
BRANCH  43  45
ATOM     45  C   UNL     1      -6.704  -6.069  -1.936  1.00  0.00     0.225 C 
ATOM     46  O   UNL     1      -5.691  -5.379  -2.010  1.00  0.00    -0.275 OA
ATOM     47  N   UNL     1      -6.935  -7.094  -2.825  1.00  0.00    -0.342 N 
ATOM     48  H   UNL     1      -7.691  -7.741  -2.657  1.00  0.00     0.164 HD
BRANCH  47  49
ATOM     49  C   UNL     1      -5.929  -7.491  -3.815  1.00  0.00     0.192 C 
BRANCH  49  50
ATOM     50  C   UNL     1      -6.284  -6.892  -5.178  1.00  0.00     0.047 C 
BRANCH  50  51
ATOM     51  C   UNL     1      -5.113  -6.116  -5.797  1.00  0.00     0.103 C 
BRANCH  51  52
ATOM     52  C   UNL     1      -4.541  -6.824  -7.024  1.00  0.00     0.226 C 
ATOM     53  O   UNL     1      -4.893  -7.976  -7.283  1.00  0.00    -0.275 OA
BRANCH  52  54
ATOM     54  N   UNL     1      -3.683  -6.065  -7.841  1.00  0.00    -0.311 N 
ATOM     55  C   UNL     1      -2.538  -6.687  -8.519  1.00  0.00     0.153 C 
BRANCH  54  56
ATOM     56  C   UNL     1      -3.891  -4.691  -8.045  1.00  0.00     0.102 C 
ATOM     57  C   UNL     1      -3.288  -3.711  -7.352  1.00  0.00     0.043 C 
BRANCH  56  58
ATOM     58  C   UNL     1      -4.815  -4.200  -9.135  1.00  0.00     0.268 C 
ATOM     59  O   UNL     1      -5.881  -4.738  -9.402  1.00  0.00    -0.268 OA
ATOM     60  N   UNL     1      -4.366  -3.054  -9.748  1.00  0.00    -0.339 N 
ATOM     61  H   UNL     1      -3.466  -2.677  -9.476  1.00  0.00     0.164 HD
BRANCH  60  62
ATOM     62  C   UNL     1      -5.136  -2.374 -10.788  1.00  0.00     0.168 CG0
ATOM     63  C   UNL     1      -4.898  -0.870 -10.751  1.00  0.00     0.041 C 
ATOM     64  G   UNL     1      -6.635  -2.694 -10.614  1.00  0.00     0.000 G0
ENDBRANCH  60  62
ENDBRANCH  56  58
ENDBRANCH  54  56
ENDBRANCH  52  54
ENDBRANCH  51  52
ENDBRANCH  50  51
ENDBRANCH  49  50
BRANCH  49  65
ATOM     65  C   UNL     1      -5.829  -9.019  -3.940  1.00  0.00     0.326 C 
ATOM     66  O   UNL     1      -5.563  -9.791  -3.031  1.00  0.00    -0.250 OA
BRANCH  65  67
ATOM     67  O   UNL     1      -6.004  -9.495  -5.193  1.00  0.00    -0.480 OA
ATOM     68  H   UNL     1      -6.249  -8.698  -5.711  1.00  0.00     0.296 HD
ENDBRANCH  65  67
ENDBRANCH  49  65
ENDBRANCH  47  49
ENDBRANCH  43  45
ENDBRANCH   1  43
BRANCH   1  69
ATOM     69  C   UNL     1      -8.649  -3.717  -2.355  1.00  0.00    -0.001 C 
ATOM     70  C   UNL     1      -8.226  -2.550  -1.838  1.00  0.00     0.001 C 
BRANCH  70  71
ATOM     71  C   UNL     1      -7.884  -1.333  -2.578  1.00  0.00    -0.055 C 
ATOM     72  C   UNL     1      -7.664  -1.445  -3.905  1.00  0.00    -0.018 C 
ATOM     73  C   UNL     1      -7.812  -0.040  -1.808  1.00  0.00     0.044 C 
BRANCH  72  74
ATOM     74  C   UNL     1      -7.300  -0.367  -4.916  1.00  0.00     0.038 C 
ATOM     75  C   UNL     1      -8.615   0.210  -5.454  1.00  0.00     0.015 C 
BRANCH  74  76
ATOM     76  C   UNL     1      -6.368  -0.989  -5.997  1.00  0.00     0.128 C 
BRANCH  76  77
ATOM     77  O   UNL     1      -4.994  -0.861  -5.592  1.00  0.00    -0.381 OA
ATOM     78  C   UNL     1      -4.150  -0.318  -6.599  1.00  0.00     0.195 C 
ENDBRANCH  76  77
BRANCH  76  79
ATOM     79  C   UNL     1      -6.744  -2.438  -6.395  1.00  0.00     0.068 C 
BRANCH  79  80
ATOM     80  C   UNL     1      -7.774  -2.629  -7.481  1.00  0.00    -0.045 A 
ATOM     81  C   UNL     1      -8.674  -3.702  -7.443  1.00  0.00     0.004 A 
ATOM     82  C   UNL     1      -7.827  -1.743  -8.568  1.00  0.00     0.004 A 
ATOM     83  C   UNL     1      -9.615  -3.879  -8.459  1.00  0.00     0.000 A 
ATOM     84  C   UNL     1      -8.768  -1.922  -9.585  1.00  0.00     0.000 A 
ATOM     85  C   UNL     1      -9.663  -2.988  -9.529  1.00  0.00     0.000 A 
ENDBRANCH  79  80
ENDBRANCH  76  79
ENDBRANCH  74  76
ENDBRANCH  72  74
ENDBRANCH  70  71
ENDBRANCH   1  69
TORSDOF 17
ENDMDL
MODEL 26
REMARK VINA RESULT:    -6.385      5.931      9.869
REMARK INTER + INTRA:         -25.946
REMARK INTER:                 -18.830
REMARK INTRA:                  -7.116
REMARK UNBOUND:                -6.869
REMARK SMILES C=C1C(=O)N[C@H](C)C(=O)N[C@@H](CC(C)C)C(=O)N[C@@H](C(=O)O)[C@H](C)C(=O)N[C@@H](CCCN=C(N)N)C(=O)N[C@@H](/C=C/C(C)=C/[C@H](C)[C@H](Cc2ccccc2)OC)[C@H](C)C(=O)N[C@@H](C(=O)O)CCC(=O)N1C
REMARK SMILES IDX 39 1 38 2 37 3 36 4 28 6 27 7 25 8 26 9 23 11 24 12 19 13
REMARK SMILES IDX 18 14 16 15 17 16 11 18 10 19 8 20 9 21 12 24 13 25 14 26
REMARK SMILES IDX 15 27 20 28 21 29 22 30 29 32 30 33 31 34 32 35 33 36 34 37
REMARK SMILES IDX 35 38 57 43 58 44 59 45 60 46 61 47 62 49 66 50 67 51 68 52
REMARK SMILES IDX 69 53 70 54 71 55 2 56 1 57 3 58 4 59 5 60 6 62 7 63 63 65
REMARK SMILES IDX 64 66 65 67 40 69 41 70 42 71 44 72 43 73 45 74 46 75 47 76
REMARK SMILES IDX 55 77 56 78 48 79 49 80 50 81 54 82 51 83 53 84 52 85
REMARK H PARENT 38 5 27 10 18 17 10 22 22 31 34 39 34 40 35 41 35 42 61 48
REMARK H PARENT 5 61 65 68
REMARK Flexibility Score:  369.900
ROOT
ATOM      1  C   UNL     1      -7.335  -5.455  -2.640  1.00  0.00     0.117 C 
ENDROOT
BRANCH   1   2
ATOM      2  N   UNL     1      -8.247  -4.553  -1.935  1.00  0.00    -0.347 N 
ATOM      3  O   UNL     1      -6.664  -3.265  -0.885  1.00  0.00    -0.273 OA
ATOM      4  C   UNL     1      -7.835  -3.469  -1.183  1.00  0.00     0.243 C 
ATOM      5  H   UNL     1      -9.243  -4.684  -2.030  1.00  0.00     0.164 HD
BRANCH   4   6
ATOM      6  C   UNL     1      -9.004  -2.626  -0.614  1.00  0.00     0.171 C 
BRANCH   6   7
ATOM      7  N   UNL     1      -8.819  -1.203  -0.941  1.00  0.00    -0.344 N 
ATOM      8  C   UNL     1      -8.939  -0.236   0.034  1.00  0.00     0.226 C 
ATOM      9  O   UNL     1      -9.222  -0.502   1.196  1.00  0.00    -0.275 OA
ATOM     10  H   UNL     1      -8.651  -0.939  -1.904  1.00  0.00     0.164 HD
BRANCH   8  11
ATOM     11  C   UNL     1      -8.666   1.177  -0.450  1.00  0.00     0.109 C 
ATOM     12  C   UNL     1      -7.865   1.142  -1.752  1.00  0.00     0.021 C 
BRANCH  11  13
ATOM     13  C   UNL     1      -9.988   1.968  -0.523  1.00  0.00     0.204 C 
BRANCH  13  14
ATOM     14  N   UNL     1      -9.936   3.203   0.265  1.00  0.00    -0.340 N 
ATOM     15  C   UNL     1     -10.300   3.259   1.593  1.00  0.00     0.243 C 
ATOM     16  O   UNL     1     -10.636   2.261   2.228  1.00  0.00    -0.273 OA
ATOM     17  H   UNL     1      -9.812   4.087  -0.236  1.00  0.00     0.164 HD
BRANCH  15  18
ATOM     18  C   UNL     1     -10.363   4.700   2.157  1.00  0.00     0.171 C 
BRANCH  18  19
ATOM     19  N   UNL     1     -10.037   4.608   3.578  1.00  0.00    -0.343 N 
ATOM     20  C   UNL     1     -10.981   4.846   4.559  1.00  0.00     0.242 CG0
ATOM     21  O   UNL     1     -12.099   5.275   4.285  1.00  0.00    -0.273 OA
ATOM     22  H   UNL     1      -9.093   4.368   3.858  1.00  0.00     0.164 HD
ATOM     23  G   UNL     1     -10.473   4.624   5.999  1.00  0.00     0.000 G0
ENDBRANCH  18  19
BRANCH  18  24
ATOM     24  C   UNL     1      -9.382   5.615   1.414  1.00  0.00     0.038 C 
BRANCH  24  25
ATOM     25  C   UNL     1     -10.039   6.806   0.684  1.00  0.00    -0.015 C 
ATOM     26  C   UNL     1     -11.551   6.865   0.903  1.00  0.00     0.007 C 
ATOM     27  C   UNL     1      -9.738   6.720  -0.815  1.00  0.00     0.007 C 
ENDBRANCH  24  25
ENDBRANCH  18  24
ENDBRANCH  15  18
ENDBRANCH  13  14
BRANCH  13  28
ATOM     28  C   UNL     1     -10.380   2.357  -1.952  1.00  0.00     0.327 C 
ATOM     29  O   UNL     1     -10.267   3.464  -2.456  1.00  0.00    -0.250 OA
BRANCH  28  30
ATOM     30  O   UNL     1     -11.000   1.363  -2.620  1.00  0.00    -0.480 OA
ATOM     31  H   UNL     1     -11.903   1.345  -2.242  1.00  0.00     0.296 HD
ENDBRANCH  28  30
ENDBRANCH  13  28
ENDBRANCH  11  13
ENDBRANCH   8  11
ENDBRANCH   6   7
BRANCH   6  32
ATOM     32  C   UNL     1     -10.327  -3.151  -1.182  1.00  0.00     0.037 C 
BRANCH  32  33
ATOM     33  C   UNL     1     -11.318  -3.542  -0.076  1.00  0.00     0.026 C 
BRANCH  33  34
ATOM     34  C   UNL     1     -11.740  -5.009  -0.161  1.00  0.00     0.146 C 
BRANCH  34  35
ATOM     35  N   UNL     1     -10.981  -5.656  -1.222  1.00  0.00    -0.254 NA
ATOM     36  C   UNL     1     -11.504  -6.654  -1.832  1.00  0.00     0.185 C 
ATOM     37  N   UNL     1     -10.815  -7.254  -2.815  1.00  0.00    -0.370 N 
ATOM     38  N   UNL     1     -12.704  -7.229  -1.636  1.00  0.00    -0.370 N 
ATOM     39  H   UNL     1      -9.904  -6.870  -3.030  1.00  0.00     0.159 HD
ATOM     40  H   UNL     1     -11.219  -7.920  -3.450  1.00  0.00     0.159 HD
ATOM     41  H   UNL     1     -12.945  -8.097  -2.086  1.00  0.00     0.159 HD
ATOM     42  H   UNL     1     -13.323  -6.890  -0.916  1.00  0.00     0.159 HD
ENDBRANCH  34  35
ENDBRANCH  33  34
ENDBRANCH  32  33
ENDBRANCH   6  32
ENDBRANCH   4   6
ENDBRANCH   1   2
BRANCH   1  43
ATOM     43  C   UNL     1      -7.918  -5.743  -4.053  1.00  0.00     0.102 C 
ATOM     44  C   UNL     1      -6.848  -6.128  -5.089  1.00  0.00     0.020 C 
BRANCH  43  45
ATOM     45  C   UNL     1      -8.843  -4.610  -4.508  1.00  0.00     0.225 C 
ATOM     46  O   UNL     1     -10.029  -4.547  -4.198  1.00  0.00    -0.275 OA
ATOM     47  N   UNL     1      -8.283  -3.700  -5.375  1.00  0.00    -0.342 N 
ATOM     48  H   UNL     1      -7.281  -3.677  -5.498  1.00  0.00     0.164 HD
BRANCH  47  49
ATOM     49  C   UNL     1      -9.040  -2.543  -5.865  1.00  0.00     0.192 C 
BRANCH  49  50
ATOM     50  C   UNL     1      -8.551  -2.165  -7.266  1.00  0.00     0.047 C 
BRANCH  50  51
ATOM     51  C   UNL     1      -9.585  -2.493  -8.351  1.00  0.00     0.103 C 
BRANCH  51  52
ATOM     52  C   UNL     1      -8.999  -2.371  -9.757  1.00  0.00     0.226 C 
ATOM     53  O   UNL     1      -9.286  -1.396 -10.455  1.00  0.00    -0.275 OA
BRANCH  52  54
ATOM     54  N   UNL     1      -8.087  -3.370 -10.144  1.00  0.00    -0.311 N 
ATOM     55  C   UNL     1      -6.691  -3.037 -10.461  1.00  0.00     0.153 C 
BRANCH  54  56
ATOM     56  C   UNL     1      -8.471  -4.717 -10.236  1.00  0.00     0.102 C 
ATOM     57  C   UNL     1      -9.288  -5.221 -11.176  1.00  0.00     0.043 C 
BRANCH  56  58
ATOM     58  C   UNL     1      -7.933  -5.745  -9.268  1.00  0.00     0.268 C 
ATOM     59  O   UNL     1      -8.159  -5.715  -8.066  1.00  0.00    -0.268 OA
ATOM     60  N   UNL     1      -7.224  -6.748  -9.884  1.00  0.00    -0.339 N 
ATOM     61  H   UNL     1      -7.072  -6.694 -10.884  1.00  0.00     0.164 HD
BRANCH  60  62
ATOM     62  C   UNL     1      -6.667  -7.878  -9.142  1.00  0.00     0.168 CG0
ATOM     63  C   UNL     1      -5.160  -7.734  -8.975  1.00  0.00     0.041 C 
ATOM     64  G   UNL     1      -7.013  -9.194  -9.868  1.00  0.00     0.000 G0
ENDBRANCH  60  62
ENDBRANCH  56  58
ENDBRANCH  54  56
ENDBRANCH  52  54
ENDBRANCH  51  52
ENDBRANCH  50  51
ENDBRANCH  49  50
BRANCH  49  65
ATOM     65  C   UNL     1      -8.892  -1.333  -4.930  1.00  0.00     0.326 C 
ATOM     66  O   UNL     1      -7.996  -0.503  -4.978  1.00  0.00    -0.250 OA
BRANCH  65  67
ATOM     67  O   UNL     1      -9.826  -1.255  -3.957  1.00  0.00    -0.480 OA
ATOM     68  H   UNL     1      -9.523  -1.911  -3.293  1.00  0.00     0.296 HD
ENDBRANCH  65  67
ENDBRANCH  49  65
ENDBRANCH  47  49
ENDBRANCH  43  45
ENDBRANCH   1  43
BRANCH   1  69
ATOM     69  C   UNL     1      -7.080  -6.619  -1.700  1.00  0.00    -0.001 C 
ATOM     70  C   UNL     1      -7.924  -7.133  -0.788  1.00  0.00     0.001 C 
BRANCH  70  71
ATOM     71  C   UNL     1      -7.675  -8.272   0.098  1.00  0.00    -0.055 C 
ATOM     72  C   UNL     1      -6.750  -8.120   1.070  1.00  0.00    -0.018 C 
ATOM     73  C   UNL     1      -8.473  -9.528  -0.131  1.00  0.00     0.044 C 
BRANCH  72  74
ATOM     74  C   UNL     1      -6.289  -9.115   2.125  1.00  0.00     0.038 C 
ATOM     75  C   UNL     1      -5.575 -10.256   1.390  1.00  0.00     0.015 C 
BRANCH  74  76
ATOM     76  C   UNL     1      -7.521  -9.554   2.971  1.00  0.00     0.128 C 
BRANCH  76  77
ATOM     77  O   UNL     1      -7.154 -10.630   3.851  1.00  0.00    -0.381 OA
ATOM     78  C   UNL     1      -6.558 -10.197   5.066  1.00  0.00     0.195 C 
ENDBRANCH  76  77
BRANCH  76  79
ATOM     79  C   UNL     1      -8.223  -8.387   3.712  1.00  0.00     0.068 C 
BRANCH  79  80
ATOM     80  C   UNL     1      -9.719  -8.469   3.901  1.00  0.00    -0.045 A 
ATOM     81  C   UNL     1     -10.478  -9.444   3.240  1.00  0.00     0.004 A 
ATOM     82  C   UNL     1     -10.379  -7.544   4.724  1.00  0.00     0.004 A 
ATOM     83  C   UNL     1     -11.863  -9.503   3.409  1.00  0.00     0.000 A 
ATOM     84  C   UNL     1     -11.764  -7.604   4.892  1.00  0.00     0.000 A 
ATOM     85  C   UNL     1     -12.505  -8.584   4.236  1.00  0.00     0.000 A 
ENDBRANCH  79  80
ENDBRANCH  76  79
ENDBRANCH  74  76
ENDBRANCH  72  74
ENDBRANCH  70  71
ENDBRANCH   1  69
TORSDOF 17
ENDMDL
MODEL 27
REMARK VINA RESULT:    -6.382      5.522     10.889
REMARK INTER + INTRA:         -25.935
REMARK INTER:                 -18.114
REMARK INTRA:                  -7.821
REMARK UNBOUND:                -6.869
REMARK SMILES C=C1C(=O)N[C@H](C)C(=O)N[C@@H](CC(C)C)C(=O)N[C@@H](C(=O)O)[C@H](C)C(=O)N[C@@H](CCCN=C(N)N)C(=O)N[C@@H](/C=C/C(C)=C/[C@H](C)[C@H](Cc2ccccc2)OC)[C@H](C)C(=O)N[C@@H](C(=O)O)CCC(=O)N1C
REMARK SMILES IDX 39 1 38 2 37 3 36 4 28 6 27 7 25 8 26 9 23 11 24 12 19 13
REMARK SMILES IDX 18 14 16 15 17 16 11 18 10 19 8 20 9 21 12 24 13 25 14 26
REMARK SMILES IDX 15 27 20 28 21 29 22 30 29 32 30 33 31 34 32 35 33 36 34 37
REMARK SMILES IDX 35 38 57 43 58 44 59 45 60 46 61 47 62 49 66 50 67 51 68 52
REMARK SMILES IDX 69 53 70 54 71 55 2 56 1 57 3 58 4 59 5 60 6 62 7 63 63 65
REMARK SMILES IDX 64 66 65 67 40 69 41 70 42 71 44 72 43 73 45 74 46 75 47 76
REMARK SMILES IDX 55 77 56 78 48 79 49 80 50 81 54 82 51 83 53 84 52 85
REMARK H PARENT 38 5 27 10 18 17 10 22 22 31 34 39 34 40 35 41 35 42 61 48
REMARK H PARENT 5 61 65 68
REMARK Flexibility Score:  369.900
ROOT
ATOM      1  C   UNL     1      -8.859  -6.388   0.751  1.00  0.00     0.117 C 
ENDROOT
BRANCH   1   2
ATOM      2  N   UNL     1      -9.224  -6.120   2.143  1.00  0.00    -0.347 N 
ATOM      3  O   UNL     1      -9.041  -3.832   2.079  1.00  0.00    -0.273 OA
ATOM      4  C   UNL     1      -9.374  -4.852   2.672  1.00  0.00     0.243 C 
ATOM      5  H   UNL     1      -9.430  -6.892   2.758  1.00  0.00     0.164 HD
BRANCH   4   6
ATOM      6  C   UNL     1      -9.850  -4.846   4.147  1.00  0.00     0.171 C 
BRANCH   6   7
ATOM      7  N   UNL     1     -11.314  -4.707   4.215  1.00  0.00    -0.344 N 
ATOM      8  C   UNL     1     -11.915  -4.140   5.318  1.00  0.00     0.226 C 
ATOM      9  O   UNL     1     -11.279  -3.750   6.290  1.00  0.00    -0.275 OA
ATOM     10  H   UNL     1     -11.877  -5.079   3.461  1.00  0.00     0.164 HD
BRANCH   8  11
ATOM     11  C   UNL     1     -13.425  -4.018   5.213  1.00  0.00     0.109 C 
ATOM     12  C   UNL     1     -13.828  -3.695   3.774  1.00  0.00     0.021 C 
BRANCH  11  13
ATOM     13  C   UNL     1     -14.092  -5.274   5.807  1.00  0.00     0.204 C 
BRANCH  13  14
ATOM     14  N   UNL     1     -13.267  -5.899   6.845  1.00  0.00    -0.340 N 
ATOM     15  C   UNL     1     -12.821  -7.200   6.765  1.00  0.00     0.243 C 
ATOM     16  O   UNL     1     -13.033  -7.912   5.785  1.00  0.00    -0.273 OA
ATOM     17  H   UNL     1     -13.183  -5.419   7.745  1.00  0.00     0.164 HD
BRANCH  15  18
ATOM     18  C   UNL     1     -12.148  -7.705   8.065  1.00  0.00     0.171 C 
BRANCH  18  19
ATOM     19  N   UNL     1     -13.211  -7.846   9.059  1.00  0.00    -0.343 N 
ATOM     20  C   UNL     1     -13.331  -6.978  10.126  1.00  0.00     0.242 CG0
ATOM     21  O   UNL     1     -12.474  -6.129  10.365  1.00  0.00    -0.273 OA
ATOM     22  H   UNL     1     -13.877  -8.605   8.969  1.00  0.00     0.164 HD
ATOM     23  G   UNL     1     -14.558  -7.237  11.024  1.00  0.00     0.000 G0
ENDBRANCH  18  19
BRANCH  18  24
ATOM     24  C   UNL     1     -11.427  -9.036   7.820  1.00  0.00     0.038 C 
BRANCH  24  25
ATOM     25  C   UNL     1      -9.955  -8.899   7.377  1.00  0.00    -0.015 C 
ATOM     26  C   UNL     1      -9.336 -10.239   6.979  1.00  0.00     0.007 C 
ATOM     27  C   UNL     1      -9.134  -8.268   8.505  1.00  0.00     0.007 C 
ENDBRANCH  24  25
ENDBRANCH  18  24
ENDBRANCH  15  18
ENDBRANCH  13  14
BRANCH  13  28
ATOM     28  C   UNL     1     -15.465  -4.994   6.425  1.00  0.00     0.327 C 
ATOM     29  O   UNL     1     -16.426  -4.497   5.857  1.00  0.00    -0.250 OA
BRANCH  28  30
ATOM     30  O   UNL     1     -15.509  -5.244   7.750  1.00  0.00    -0.480 OA
ATOM     31  H   UNL     1     -15.463  -4.358   8.164  1.00  0.00     0.296 HD
ENDBRANCH  28  30
ENDBRANCH  13  28
ENDBRANCH  11  13
ENDBRANCH   8  11
ENDBRANCH   6   7
BRANCH   6  32
ATOM     32  C   UNL     1      -9.391  -6.139   4.830  1.00  0.00     0.037 C 
BRANCH  32  33
ATOM     33  C   UNL     1      -8.215  -5.903   5.788  1.00  0.00     0.026 C 
BRANCH  33  34
ATOM     34  C   UNL     1      -7.698  -4.464   5.736  1.00  0.00     0.146 C 
BRANCH  34  35
ATOM     35  N   UNL     1      -6.956  -4.188   6.958  1.00  0.00    -0.254 NA
ATOM     36  C   UNL     1      -7.595  -3.757   7.981  1.00  0.00     0.185 C 
ATOM     37  N   UNL     1      -6.921  -3.503   9.113  1.00  0.00    -0.370 N 
ATOM     38  N   UNL     1      -8.909  -3.504   8.111  1.00  0.00    -0.370 N 
ATOM     39  H   UNL     1      -5.925  -3.679   9.099  1.00  0.00     0.159 HD
ATOM     40  H   UNL     1      -7.366  -3.333   9.999  1.00  0.00     0.159 HD
ATOM     41  H   UNL     1      -9.271  -3.034   8.924  1.00  0.00     0.159 HD
ATOM     42  H   UNL     1      -9.536  -3.634   7.332  1.00  0.00     0.159 HD
ENDBRANCH  34  35
ENDBRANCH  33  34
ENDBRANCH  32  33
ENDBRANCH   6  32
ENDBRANCH   4   6
ENDBRANCH   1   2
BRANCH   1  43
ATOM     43  C   UNL     1     -10.135  -6.255  -0.129  1.00  0.00     0.102 C 
ATOM     44  C   UNL     1     -10.848  -7.595  -0.380  1.00  0.00     0.020 C 
BRANCH  43  45
ATOM     45  C   UNL     1      -9.843  -5.459  -1.405  1.00  0.00     0.225 C 
ATOM     46  O   UNL     1     -10.568  -5.488  -2.395  1.00  0.00    -0.275 OA
ATOM     47  N   UNL     1      -8.652  -4.769  -1.413  1.00  0.00    -0.342 N 
ATOM     48  H   UNL     1      -8.147  -4.632  -0.548  1.00  0.00     0.164 HD
BRANCH  47  49
ATOM     49  C   UNL     1      -8.257  -3.935  -2.552  1.00  0.00     0.192 C 
BRANCH  49  50
ATOM     50  C   UNL     1      -7.419  -4.763  -3.530  1.00  0.00     0.047 C 
BRANCH  50  51
ATOM     51  C   UNL     1      -8.114  -4.941  -4.886  1.00  0.00     0.103 C 
BRANCH  51  52
ATOM     52  C   UNL     1      -7.372  -4.221  -6.010  1.00  0.00     0.226 C 
ATOM     53  O   UNL     1      -6.347  -3.586  -5.755  1.00  0.00    -0.275 OA
BRANCH  52  54
ATOM     54  N   UNL     1      -7.881  -4.397  -7.310  1.00  0.00    -0.311 N 
ATOM     55  C   UNL     1      -9.200  -3.869  -7.684  1.00  0.00     0.153 C 
BRANCH  54  56
ATOM     56  C   UNL     1      -7.148  -5.076  -8.298  1.00  0.00     0.102 C 
ATOM     57  C   UNL     1      -7.303  -6.372  -8.615  1.00  0.00     0.043 C 
BRANCH  56  58
ATOM     58  C   UNL     1      -6.122  -4.352  -9.137  1.00  0.00     0.268 C 
ATOM     59  O   UNL     1      -6.375  -3.864 -10.230  1.00  0.00    -0.268 OA
ATOM     60  N   UNL     1      -4.899  -4.240  -8.519  1.00  0.00    -0.339 N 
ATOM     61  H   UNL     1      -4.767  -4.682  -7.617  1.00  0.00     0.164 HD
BRANCH  60  62
ATOM     62  C   UNL     1      -3.781  -3.522  -9.128  1.00  0.00     0.168 CG0
ATOM     63  C   UNL     1      -2.875  -2.915  -8.063  1.00  0.00     0.041 C 
ATOM     64  G   UNL     1      -4.322  -2.428 -10.072  1.00  0.00     0.000 G0
ENDBRANCH  60  62
ENDBRANCH  56  58
ENDBRANCH  54  56
ENDBRANCH  52  54
ENDBRANCH  51  52
ENDBRANCH  50  51
ENDBRANCH  49  50
BRANCH  49  65
ATOM     65  C   UNL     1      -7.450  -2.707  -2.103  1.00  0.00     0.326 C 
ATOM     66  O   UNL     1      -7.324  -1.669  -2.736  1.00  0.00    -0.250 OA
BRANCH  65  67
ATOM     67  O   UNL     1      -6.800  -2.859  -0.928  1.00  0.00    -0.480 OA
ATOM     68  H   UNL     1      -5.916  -3.193  -1.194  1.00  0.00     0.296 HD
ENDBRANCH  65  67
ENDBRANCH  49  65
ENDBRANCH  47  49
ENDBRANCH  43  45
ENDBRANCH   1  43
BRANCH   1  69
ATOM     69  C   UNL     1      -8.105  -7.705   0.757  1.00  0.00    -0.001 C 
ATOM     70  C   UNL     1      -7.919  -8.535   1.798  1.00  0.00     0.001 C 
BRANCH  70  71
ATOM     71  C   UNL     1      -7.207  -9.815   1.786  1.00  0.00    -0.055 C 
ATOM     72  C   UNL     1      -5.891  -9.799   1.490  1.00  0.00    -0.018 C 
ATOM     73  C   UNL     1      -7.993 -11.058   2.113  1.00  0.00     0.044 C 
BRANCH  72  74
ATOM     74  C   UNL     1      -4.908 -10.958   1.407  1.00  0.00     0.038 C 
ATOM     75  C   UNL     1      -3.887 -10.768   2.536  1.00  0.00     0.015 C 
BRANCH  74  76
ATOM     76  C   UNL     1      -4.297 -10.995  -0.025  1.00  0.00     0.128 C 
BRANCH  76  77
ATOM     77  O   UNL     1      -3.082 -11.763  -0.021  1.00  0.00    -0.381 OA
ATOM     78  C   UNL     1      -2.020 -11.156  -0.745  1.00  0.00     0.195 C 
ENDBRANCH  76  77
BRANCH  76  79
ATOM     79  C   UNL     1      -5.292 -11.451  -1.122  1.00  0.00     0.068 C 
BRANCH  79  80
ATOM     80  C   UNL     1      -6.247 -10.425  -1.682  1.00  0.00    -0.045 A 
ATOM     81  C   UNL     1      -7.633 -10.628  -1.638  1.00  0.00     0.004 A 
ATOM     82  C   UNL     1      -5.756  -9.257  -2.285  1.00  0.00     0.004 A 
ATOM     83  C   UNL     1      -8.509  -9.680  -2.171  1.00  0.00     0.000 A 
ATOM     84  C   UNL     1      -6.633  -8.310  -2.818  1.00  0.00     0.000 A 
ATOM     85  C   UNL     1      -8.009  -8.521  -2.760  1.00  0.00     0.000 A 
ENDBRANCH  79  80
ENDBRANCH  76  79
ENDBRANCH  74  76
ENDBRANCH  72  74
ENDBRANCH  70  71
ENDBRANCH   1  69
TORSDOF 17
ENDMDL
MODEL 28
REMARK VINA RESULT:    -6.380      6.572     11.089
REMARK INTER + INTRA:         -25.931
REMARK INTER:                 -18.478
REMARK INTRA:                  -7.453
REMARK UNBOUND:                -6.869
REMARK SMILES C=C1C(=O)N[C@H](C)C(=O)N[C@@H](CC(C)C)C(=O)N[C@@H](C(=O)O)[C@H](C)C(=O)N[C@@H](CCCN=C(N)N)C(=O)N[C@@H](/C=C/C(C)=C/[C@H](C)[C@H](Cc2ccccc2)OC)[C@H](C)C(=O)N[C@@H](C(=O)O)CCC(=O)N1C
REMARK SMILES IDX 39 1 38 2 37 3 36 4 28 6 27 7 25 8 26 9 23 11 24 12 19 13
REMARK SMILES IDX 18 14 16 15 17 16 11 18 10 19 8 20 9 21 12 24 13 25 14 26
REMARK SMILES IDX 15 27 20 28 21 29 22 30 29 32 30 33 31 34 32 35 33 36 34 37
REMARK SMILES IDX 35 38 57 43 58 44 59 45 60 46 61 47 62 49 66 50 67 51 68 52
REMARK SMILES IDX 69 53 70 54 71 55 2 56 1 57 3 58 4 59 5 60 6 62 7 63 63 65
REMARK SMILES IDX 64 66 65 67 40 69 41 70 42 71 44 72 43 73 45 74 46 75 47 76
REMARK SMILES IDX 55 77 56 78 48 79 49 80 50 81 54 82 51 83 53 84 52 85
REMARK H PARENT 38 5 27 10 18 17 10 22 22 31 34 39 34 40 35 41 35 42 61 48
REMARK H PARENT 5 61 65 68
REMARK Flexibility Score:  369.900
ROOT
ATOM      1  C   UNL     1      -8.619  -4.714  -0.351  1.00  0.00     0.117 C 
ENDROOT
BRANCH   1   2
ATOM      2  N   UNL     1      -9.375  -3.463  -0.433  1.00  0.00    -0.347 N 
ATOM      3  O   UNL     1     -11.448  -4.374  -0.810  1.00  0.00    -0.273 OA
ATOM      4  C   UNL     1     -10.748  -3.397  -0.566  1.00  0.00     0.243 C 
ATOM      5  H   UNL     1      -8.888  -2.584  -0.340  1.00  0.00     0.164 HD
BRANCH   4   6
ATOM      6  C   UNL     1     -11.308  -1.952  -0.541  1.00  0.00     0.171 C 
BRANCH   6   7
ATOM      7  N   UNL     1     -10.920  -1.271   0.704  1.00  0.00    -0.344 N 
ATOM      8  C   UNL     1     -11.830  -1.103   1.726  1.00  0.00     0.226 C 
ATOM      9  O   UNL     1     -12.992  -1.483   1.644  1.00  0.00    -0.275 OA
ATOM     10  H   UNL     1      -9.989  -0.883   0.783  1.00  0.00     0.164 HD
BRANCH   8  11
ATOM     11  C   UNL     1     -11.264  -0.432   2.965  1.00  0.00     0.109 C 
ATOM     12  C   UNL     1     -10.287  -1.372   3.671  1.00  0.00     0.021 C 
BRANCH  11  13
ATOM     13  C   UNL     1     -10.683   0.946   2.591  1.00  0.00     0.204 C 
BRANCH  13  14
ATOM     14  N   UNL     1     -11.167   2.008   3.479  1.00  0.00    -0.340 N 
ATOM     15  C   UNL     1     -12.155   2.896   3.114  1.00  0.00     0.243 C 
ATOM     16  O   UNL     1     -12.745   2.822   2.038  1.00  0.00    -0.273 OA
ATOM     17  H   UNL     1     -10.620   2.218   4.319  1.00  0.00     0.164 HD
BRANCH  15  18
ATOM     18  C   UNL     1     -12.354   4.051   4.126  1.00  0.00     0.171 C 
BRANCH  18  19
ATOM     19  N   UNL     1     -13.508   4.819   3.664  1.00  0.00    -0.343 N 
ATOM     20  C   UNL     1     -13.544   6.198   3.739  1.00  0.00     0.242 CG0
ATOM     21  O   UNL     1     -12.666   6.833   4.318  1.00  0.00    -0.273 OA
ATOM     22  H   UNL     1     -14.310   4.330   3.282  1.00  0.00     0.164 HD
ATOM     23  G   UNL     1     -14.809   6.836   3.131  1.00  0.00     0.000 G0
ENDBRANCH  18  19
BRANCH  18  24
ATOM     24  C   UNL     1     -12.575   3.500   5.540  1.00  0.00     0.038 C 
BRANCH  24  25
ATOM     25  C   UNL     1     -11.443   3.819   6.540  1.00  0.00    -0.015 C 
ATOM     26  C   UNL     1     -10.381   4.744   5.946  1.00  0.00     0.007 C 
ATOM     27  C   UNL     1     -10.789   2.518   7.010  1.00  0.00     0.007 C 
ENDBRANCH  24  25
ENDBRANCH  18  24
ENDBRANCH  15  18
ENDBRANCH  13  14
BRANCH  13  28
ATOM     28  C   UNL     1      -9.152   0.986   2.629  1.00  0.00     0.327 C 
ATOM     29  O   UNL     1      -8.397   0.621   1.740  1.00  0.00    -0.250 OA
BRANCH  28  30
ATOM     30  O   UNL     1      -8.662   1.371   3.825  1.00  0.00    -0.480 OA
ATOM     31  H   UNL     1      -8.851   2.331   3.865  1.00  0.00     0.296 HD
ENDBRANCH  28  30
ENDBRANCH  13  28
ENDBRANCH  11  13
ENDBRANCH   8  11
ENDBRANCH   6   7
BRANCH   6  32
ATOM     32  C   UNL     1     -10.788  -1.190  -1.766  1.00  0.00     0.037 C 
BRANCH  32  33
ATOM     33  C   UNL     1     -10.411   0.260  -1.429  1.00  0.00     0.026 C 
BRANCH  33  34
ATOM     34  C   UNL     1      -8.957   0.582  -1.776  1.00  0.00     0.146 C 
BRANCH  34  35
ATOM     35  N   UNL     1      -8.202  -0.661  -1.836  1.00  0.00    -0.254 NA
ATOM     36  C   UNL     1      -7.083  -0.731  -1.216  1.00  0.00     0.185 C 
ATOM     37  N   UNL     1      -6.381  -1.874  -1.261  1.00  0.00    -0.370 N 
ATOM     38  N   UNL     1      -6.462   0.211  -0.485  1.00  0.00    -0.370 N 
ATOM     39  H   UNL     1      -6.788  -2.637  -1.786  1.00  0.00     0.159 HD
ATOM     40  H   UNL     1      -5.592  -2.066  -0.668  1.00  0.00     0.159 HD
ATOM     41  H   UNL     1      -5.517   0.082  -0.162  1.00  0.00     0.159 HD
ATOM     42  H   UNL     1      -6.868   1.127  -0.378  1.00  0.00     0.159 HD
ENDBRANCH  34  35
ENDBRANCH  33  34
ENDBRANCH  32  33
ENDBRANCH   6  32
ENDBRANCH   4   6
ENDBRANCH   1   2
BRANCH   1  43
ATOM     43  C   UNL     1      -8.777  -5.477  -1.697  1.00  0.00     0.102 C 
ATOM     44  C   UNL     1      -9.257  -6.928  -1.526  1.00  0.00     0.020 C 
BRANCH  43  45
ATOM     45  C   UNL     1      -7.518  -5.337  -2.559  1.00  0.00     0.225 C 
ATOM     46  O   UNL     1      -6.478  -4.828  -2.150  1.00  0.00    -0.275 OA
ATOM     47  N   UNL     1      -7.650  -5.735  -3.870  1.00  0.00    -0.342 N 
ATOM     48  H   UNL     1      -8.451  -6.285  -4.147  1.00  0.00     0.164 HD
BRANCH  47  49
ATOM     49  C   UNL     1      -6.519  -5.692  -4.802  1.00  0.00     0.192 C 
BRANCH  49  50
ATOM     50  C   UNL     1      -7.040  -5.659  -6.241  1.00  0.00     0.047 C 
BRANCH  50  51
ATOM     51  C   UNL     1      -7.261  -4.227  -6.747  1.00  0.00     0.103 C 
BRANCH  51  52
ATOM     52  C   UNL     1      -8.613  -4.066  -7.440  1.00  0.00     0.226 C 
ATOM     53  O   UNL     1      -9.651  -4.254  -6.804  1.00  0.00    -0.275 OA
BRANCH  52  54
ATOM     54  N   UNL     1      -8.583  -3.629  -8.777  1.00  0.00    -0.311 N 
ATOM     55  C   UNL     1      -8.492  -2.199  -9.104  1.00  0.00     0.153 C 
BRANCH  54  56
ATOM     56  C   UNL     1      -8.633  -4.538  -9.847  1.00  0.00     0.102 C 
ATOM     57  C   UNL     1      -8.826  -4.203 -11.133  1.00  0.00     0.043 C 
BRANCH  56  58
ATOM     58  C   UNL     1      -8.418  -6.016  -9.618  1.00  0.00     0.268 C 
ATOM     59  O   UNL     1      -9.336  -6.812  -9.478  1.00  0.00    -0.268 OA
ATOM     60  N   UNL     1      -7.093  -6.380  -9.649  1.00  0.00    -0.339 N 
ATOM     61  H   UNL     1      -6.391  -5.658  -9.759  1.00  0.00     0.164 HD
BRANCH  60  62
ATOM     62  C   UNL     1      -6.664  -7.772  -9.512  1.00  0.00     0.168 CG0
ATOM     63  C   UNL     1      -5.144  -7.876  -9.488  1.00  0.00     0.041 C 
ATOM     64  G   UNL     1      -7.251  -8.610 -10.666  1.00  0.00     0.000 G0
ENDBRANCH  60  62
ENDBRANCH  56  58
ENDBRANCH  54  56
ENDBRANCH  52  54
ENDBRANCH  51  52
ENDBRANCH  50  51
ENDBRANCH  49  50
BRANCH  49  65
ATOM     65  C   UNL     1      -5.591  -6.904  -4.624  1.00  0.00     0.326 C 
ATOM     66  O   UNL     1      -5.793  -8.024  -5.068  1.00  0.00    -0.250 OA
BRANCH  65  67
ATOM     67  O   UNL     1      -4.503  -6.672  -3.857  1.00  0.00    -0.480 OA
ATOM     68  H   UNL     1      -3.902  -7.416  -4.079  1.00  0.00     0.296 HD
ENDBRANCH  65  67
ENDBRANCH  49  65
ENDBRANCH  47  49
ENDBRANCH  43  45
ENDBRANCH   1  43
BRANCH   1  69
ATOM     69  C   UNL     1      -9.062  -5.392   0.933  1.00  0.00    -0.001 C 
ATOM     70  C   UNL     1      -8.993  -4.901   2.183  1.00  0.00     0.001 C 
BRANCH  70  71
ATOM     71  C   UNL     1      -9.443  -5.557   3.412  1.00  0.00    -0.055 C 
ATOM     72  C   UNL     1      -9.915  -6.817   3.314  1.00  0.00    -0.018 C 
ATOM     73  C   UNL     1      -9.340  -4.782   4.700  1.00  0.00     0.044 C 
BRANCH  72  74
ATOM     74  C   UNL     1     -10.442  -7.736   4.407  1.00  0.00     0.038 C 
ATOM     75  C   UNL     1      -9.351  -8.777   4.688  1.00  0.00     0.015 C 
BRANCH  74  76
ATOM     76  C   UNL     1     -11.807  -8.328   3.948  1.00  0.00     0.128 C 
BRANCH  76  77
ATOM     77  O   UNL     1     -11.803  -9.757   4.114  1.00  0.00    -0.381 OA
ATOM     78  C   UNL     1     -12.662 -10.214   5.149  1.00  0.00     0.195 C 
ENDBRANCH  76  77
BRANCH  76  79
ATOM     79  C   UNL     1     -13.038  -7.653   4.603  1.00  0.00     0.068 C 
BRANCH  79  80
ATOM     80  C   UNL     1     -12.952  -6.179   4.917  1.00  0.00    -0.045 A 
ATOM     81  C   UNL     1     -12.700  -5.731   6.220  1.00  0.00     0.004 A 
ATOM     82  C   UNL     1     -13.154  -5.228   3.905  1.00  0.00     0.004 A 
ATOM     83  C   UNL     1     -12.636  -4.366   6.505  1.00  0.00     0.000 A 
ATOM     84  C   UNL     1     -13.090  -3.862   4.191  1.00  0.00     0.000 A 
ATOM     85  C   UNL     1     -12.830  -3.431   5.489  1.00  0.00     0.000 A 
ENDBRANCH  79  80
ENDBRANCH  76  79
ENDBRANCH  74  76
ENDBRANCH  72  74
ENDBRANCH  70  71
ENDBRANCH   1  69
TORSDOF 17
ENDMDL
MODEL 29
REMARK VINA RESULT:    -6.379      4.705      9.962
REMARK INTER + INTRA:         -25.926
REMARK INTER:                 -17.960
REMARK INTRA:                  -7.966
REMARK UNBOUND:                -6.869
REMARK SMILES C=C1C(=O)N[C@H](C)C(=O)N[C@@H](CC(C)C)C(=O)N[C@@H](C(=O)O)[C@H](C)C(=O)N[C@@H](CCCN=C(N)N)C(=O)N[C@@H](/C=C/C(C)=C/[C@H](C)[C@H](Cc2ccccc2)OC)[C@H](C)C(=O)N[C@@H](C(=O)O)CCC(=O)N1C
REMARK SMILES IDX 39 1 38 2 37 3 36 4 28 6 27 7 25 8 26 9 23 11 24 12 19 13
REMARK SMILES IDX 18 14 16 15 17 16 11 18 10 19 8 20 9 21 12 24 13 25 14 26
REMARK SMILES IDX 15 27 20 28 21 29 22 30 29 32 30 33 31 34 32 35 33 36 34 37
REMARK SMILES IDX 35 38 57 43 58 44 59 45 60 46 61 47 62 49 66 50 67 51 68 52
REMARK SMILES IDX 69 53 70 54 71 55 2 56 1 57 3 58 4 59 5 60 6 62 7 63 63 65
REMARK SMILES IDX 64 66 65 67 40 69 41 70 42 71 44 72 43 73 45 74 46 75 47 76
REMARK SMILES IDX 55 77 56 78 48 79 49 80 50 81 54 82 51 83 53 84 52 85
REMARK H PARENT 38 5 27 10 18 17 10 22 22 31 34 39 34 40 35 41 35 42 61 48
REMARK H PARENT 5 61 65 68
REMARK Flexibility Score:  369.900
ROOT
ATOM      1  C   UNL     1      -0.763   0.126  -8.638  1.00  0.00     0.117 C 
ENDROOT
BRANCH   1   2
ATOM      2  N   UNL     1      -1.833  -0.233  -9.569  1.00  0.00    -0.347 N 
ATOM      3  O   UNL     1      -2.449  -2.215  -8.588  1.00  0.00    -0.273 OA
ATOM      4  C   UNL     1      -2.654  -1.334  -9.416  1.00  0.00     0.243 C 
ATOM      5  H   UNL     1      -2.033   0.373 -10.350  1.00  0.00     0.164 HD
BRANCH   4   6
ATOM      6  C   UNL     1      -3.763  -1.439 -10.494  1.00  0.00     0.171 C 
BRANCH   6   7
ATOM      7  N   UNL     1      -5.088  -1.222  -9.892  1.00  0.00    -0.344 N 
ATOM      8  C   UNL     1      -6.141  -2.059 -10.191  1.00  0.00     0.226 C 
ATOM      9  O   UNL     1      -6.039  -2.994 -10.975  1.00  0.00    -0.275 OA
ATOM     10  H   UNL     1      -5.229  -0.419  -9.291  1.00  0.00     0.164 HD
BRANCH   8  11
ATOM     11  C   UNL     1      -7.426  -1.737  -9.448  1.00  0.00     0.109 C 
ATOM     12  C   UNL     1      -8.289  -0.786 -10.277  1.00  0.00     0.021 C 
BRANCH  11  13
ATOM     13  C   UNL     1      -8.125  -3.044  -9.025  1.00  0.00     0.204 C 
BRANCH  13  14
ATOM     14  N   UNL     1      -7.165  -4.109  -8.720  1.00  0.00    -0.340 N 
ATOM     15  C   UNL     1      -7.283  -5.388  -9.220  1.00  0.00     0.243 C 
ATOM     16  O   UNL     1      -8.170  -5.710 -10.009  1.00  0.00    -0.273 OA
ATOM     17  H   UNL     1      -6.499  -3.952  -7.959  1.00  0.00     0.164 HD
BRANCH  15  18
ATOM     18  C   UNL     1      -6.278  -6.390  -8.600  1.00  0.00     0.171 C 
BRANCH  18  19
ATOM     19  N   UNL     1      -6.492  -7.669  -9.274  1.00  0.00    -0.343 N 
ATOM     20  C   UNL     1      -6.547  -8.860  -8.576  1.00  0.00     0.242 CG0
ATOM     21  O   UNL     1      -6.287  -8.916  -7.376  1.00  0.00    -0.273 OA
ATOM     22  H   UNL     1      -6.598  -7.689 -10.282  1.00  0.00     0.164 HD
ATOM     23  G   UNL     1      -6.859 -10.095  -9.447  1.00  0.00     0.000 G0
ENDBRANCH  18  19
BRANCH  18  24
ATOM     24  C   UNL     1      -4.838  -5.894  -8.779  1.00  0.00     0.038 C 
BRANCH  24  25
ATOM     25  C   UNL     1      -3.826  -6.473  -7.767  1.00  0.00    -0.015 C 
ATOM     26  C   UNL     1      -3.712  -5.622  -6.503  1.00  0.00     0.007 C 
ATOM     27  C   UNL     1      -2.452  -6.600  -8.429  1.00  0.00     0.007 C 
ENDBRANCH  24  25
ENDBRANCH  18  24
ENDBRANCH  15  18
ENDBRANCH  13  14
BRANCH  13  28
ATOM     28  C   UNL     1      -9.024  -2.877  -7.795  1.00  0.00     0.327 C 
ATOM     29  O   UNL     1     -10.218  -3.124  -7.734  1.00  0.00    -0.250 OA
BRANCH  28  30
ATOM     30  O   UNL     1      -8.392  -2.299  -6.753  1.00  0.00    -0.480 OA
ATOM     31  H   UNL     1      -8.821  -1.423  -6.667  1.00  0.00     0.296 HD
ENDBRANCH  28  30
ENDBRANCH  13  28
ENDBRANCH  11  13
ENDBRANCH   8  11
ENDBRANCH   6   7
BRANCH   6  32
ATOM     32  C   UNL     1      -3.489  -0.412 -11.599  1.00  0.00     0.037 C 
BRANCH  32  33
ATOM     33  C   UNL     1      -4.573   0.674 -11.662  1.00  0.00     0.026 C 
BRANCH  33  34
ATOM     34  C   UNL     1      -5.571   0.439 -12.796  1.00  0.00     0.146 C 
BRANCH  34  35
ATOM     35  N   UNL     1      -4.883   0.603 -14.069  1.00  0.00    -0.254 NA
ATOM     36  C   UNL     1      -5.038   1.699 -14.714  1.00  0.00     0.185 C 
ATOM     37  N   UNL     1      -4.405   1.863 -15.886  1.00  0.00    -0.370 N 
ATOM     38  N   UNL     1      -5.775   2.775 -14.386  1.00  0.00    -0.370 N 
ATOM     39  H   UNL     1      -3.820   1.098 -16.197  1.00  0.00     0.159 HD
ATOM     40  H   UNL     1      -4.335   2.747 -16.361  1.00  0.00     0.159 HD
ATOM     41  H   UNL     1      -5.927   3.522 -15.044  1.00  0.00     0.159 HD
ATOM     42  H   UNL     1      -6.318   2.785 -13.538  1.00  0.00     0.159 HD
ENDBRANCH  34  35
ENDBRANCH  33  34
ENDBRANCH  32  33
ENDBRANCH   6  32
ENDBRANCH   4   6
ENDBRANCH   1   2
BRANCH   1  43
ATOM     43  C   UNL     1      -1.251   1.313  -7.757  1.00  0.00     0.102 C 
ATOM     44  C   UNL     1      -2.079   0.871  -6.539  1.00  0.00     0.020 C 
BRANCH  43  45
ATOM     45  C   UNL     1      -1.928   2.389  -8.611  1.00  0.00     0.225 C 
ATOM     46  O   UNL     1      -3.124   2.374  -8.887  1.00  0.00    -0.275 OA
ATOM     47  N   UNL     1      -1.086   3.342  -9.139  1.00  0.00    -0.342 N 
ATOM     48  H   UNL     1      -0.145   3.430  -8.784  1.00  0.00     0.164 HD
BRANCH  47  49
ATOM     49  C   UNL     1      -1.598   4.454  -9.946  1.00  0.00     0.192 C 
BRANCH  49  50
ATOM     50  C   UNL     1      -0.673   4.690 -11.143  1.00  0.00     0.047 C 
BRANCH  50  51
ATOM     51  C   UNL     1      -1.205   4.041 -12.427  1.00  0.00     0.103 C 
BRANCH  51  52
ATOM     52  C   UNL     1      -0.629   4.695 -13.682  1.00  0.00     0.226 C 
ATOM     53  O   UNL     1       0.126   4.051 -14.413  1.00  0.00    -0.275 OA
BRANCH  52  54
ATOM     54  N   UNL     1      -1.071   6.000 -13.967  1.00  0.00    -0.311 N 
ATOM     55  C   UNL     1      -2.492   6.283 -14.206  1.00  0.00     0.153 C 
BRANCH  54  56
ATOM     56  C   UNL     1      -0.173   7.079 -14.028  1.00  0.00     0.102 C 
ATOM     57  C   UNL     1       0.825   7.200 -14.918  1.00  0.00     0.043 C 
BRANCH  56  58
ATOM     58  C   UNL     1      -0.305   8.251 -13.083  1.00  0.00     0.268 C 
ATOM     59  O   UNL     1      -0.524   8.124 -11.886  1.00  0.00    -0.268 OA
ATOM     60  N   UNL     1      -0.087   9.463 -13.692  1.00  0.00    -0.339 N 
ATOM     61  H   UNL     1       0.078   9.484 -14.691  1.00  0.00     0.164 HD
BRANCH  60  62
ATOM     62  C   UNL     1      -0.104  10.723 -12.949  1.00  0.00     0.168 CG0
ATOM     63  C   UNL     1      -1.450  11.423 -13.089  1.00  0.00     0.041 C 
ATOM     64  G   UNL     1       1.039  11.632 -13.446  1.00  0.00     0.000 G0
ENDBRANCH  60  62
ENDBRANCH  56  58
ENDBRANCH  54  56
ENDBRANCH  52  54
ENDBRANCH  51  52
ENDBRANCH  50  51
ENDBRANCH  49  50
BRANCH  49  65
ATOM     65  C   UNL     1      -1.708   5.748  -9.125  1.00  0.00     0.326 C 
ATOM     66  O   UNL     1      -2.508   5.951  -8.223  1.00  0.00    -0.250 OA
BRANCH  65  67
ATOM     67  O   UNL     1      -0.864   6.731  -9.507  1.00  0.00    -0.480 OA
ATOM     68  H   UNL     1      -0.101   6.246  -9.888  1.00  0.00     0.296 HD
ENDBRANCH  65  67
ENDBRANCH  49  65
ENDBRANCH  47  49
ENDBRANCH  43  45
ENDBRANCH   1  43
BRANCH   1  69
ATOM     69  C   UNL     1       0.489   0.302  -9.477  1.00  0.00    -0.001 C 
ATOM     70  C   UNL     1       0.575   0.814 -10.718  1.00  0.00     0.001 C 
BRANCH  70  71
ATOM     71  C   UNL     1       1.793   0.998 -11.510  1.00  0.00    -0.055 C 
ATOM     72  C   UNL     1       1.661   1.503 -12.755  1.00  0.00    -0.018 C 
ATOM     73  C   UNL     1       3.106   0.620 -10.878  1.00  0.00     0.044 C 
BRANCH  72  74
ATOM     74  C   UNL     1       2.734   1.802 -13.792  1.00  0.00     0.038 C 
ATOM     75  C   UNL     1       3.291   0.455 -14.269  1.00  0.00     0.015 C 
BRANCH  74  76
ATOM     76  C   UNL     1       3.789   2.758 -13.160  1.00  0.00     0.128 C 
BRANCH  76  77
ATOM     77  O   UNL     1       5.086   2.498 -13.722  1.00  0.00    -0.381 OA
ATOM     78  C   UNL     1       5.669   3.627 -14.358  1.00  0.00     0.195 C 
ENDBRANCH  76  77
BRANCH  76  79
ATOM     79  C   UNL     1       3.398   4.256 -13.221  1.00  0.00     0.068 C 
BRANCH  79  80
ATOM     80  C   UNL     1       3.155   4.978 -11.918  1.00  0.00    -0.045 A 
ATOM     81  C   UNL     1       3.243   4.304 -10.693  1.00  0.00     0.004 A 
ATOM     82  C   UNL     1       2.809   6.337 -11.916  1.00  0.00     0.004 A 
ATOM     83  C   UNL     1       3.004   4.976  -9.492  1.00  0.00     0.000 A 
ATOM     84  C   UNL     1       2.569   7.008 -10.715  1.00  0.00     0.000 A 
ATOM     85  C   UNL     1       2.668   6.328  -9.503  1.00  0.00     0.000 A 
ENDBRANCH  79  80
ENDBRANCH  76  79
ENDBRANCH  74  76
ENDBRANCH  72  74
ENDBRANCH  70  71
ENDBRANCH   1  69
TORSDOF 17
ENDMDL
MODEL 30
REMARK VINA RESULT:    -6.376      4.983      9.925
REMARK INTER + INTRA:         -25.919
REMARK INTER:                 -17.665
REMARK INTRA:                  -8.254
REMARK UNBOUND:                -6.869
REMARK SMILES C=C1C(=O)N[C@H](C)C(=O)N[C@@H](CC(C)C)C(=O)N[C@@H](C(=O)O)[C@H](C)C(=O)N[C@@H](CCCN=C(N)N)C(=O)N[C@@H](/C=C/C(C)=C/[C@H](C)[C@H](Cc2ccccc2)OC)[C@H](C)C(=O)N[C@@H](C(=O)O)CCC(=O)N1C
REMARK SMILES IDX 39 1 38 2 37 3 36 4 28 6 27 7 25 8 26 9 23 11 24 12 19 13
REMARK SMILES IDX 18 14 16 15 17 16 11 18 10 19 8 20 9 21 12 24 13 25 14 26
REMARK SMILES IDX 15 27 20 28 21 29 22 30 29 32 30 33 31 34 32 35 33 36 34 37
REMARK SMILES IDX 35 38 57 43 58 44 59 45 60 46 61 47 62 49 66 50 67 51 68 52
REMARK SMILES IDX 69 53 70 54 71 55 2 56 1 57 3 58 4 59 5 60 6 62 7 63 63 65
REMARK SMILES IDX 64 66 65 67 40 69 41 70 42 71 44 72 43 73 45 74 46 75 47 76
REMARK SMILES IDX 55 77 56 78 48 79 49 80 50 81 54 82 51 83 53 84 52 85
REMARK H PARENT 38 5 27 10 18 17 10 22 22 31 34 39 34 40 35 41 35 42 61 48
REMARK H PARENT 5 61 65 68
REMARK Flexibility Score:  369.900
ROOT
ATOM      1  C   UNL     1      -8.523  -6.461  -1.025  1.00  0.00     0.117 C 
ENDROOT
BRANCH   1   2
ATOM      2  N   UNL     1      -9.592  -5.484  -0.813  1.00  0.00    -0.347 N 
ATOM      3  O   UNL     1      -8.273  -3.696  -0.238  1.00  0.00    -0.273 OA
ATOM      4  C   UNL     1      -9.375  -4.151  -0.525  1.00  0.00     0.243 C 
ATOM      5  H   UNL     1     -10.553  -5.770  -0.929  1.00  0.00     0.164 HD
BRANCH   4   6
ATOM      6  C   UNL     1     -10.676  -3.313  -0.435  1.00  0.00     0.171 C 
BRANCH   6   7
ATOM      7  N   UNL     1     -11.023  -3.051   0.971  1.00  0.00    -0.344 N 
ATOM      8  C   UNL     1     -11.572  -4.041   1.756  1.00  0.00     0.226 C 
ATOM      9  O   UNL     1     -11.818  -5.163   1.328  1.00  0.00    -0.275 OA
ATOM     10  H   UNL     1     -10.897  -2.117   1.341  1.00  0.00     0.164 HD
BRANCH   8  11
ATOM     11  C   UNL     1     -11.822  -3.631   3.196  1.00  0.00     0.109 C 
ATOM     12  C   UNL     1     -11.216  -2.253   3.464  1.00  0.00     0.021 C 
BRANCH  11  13
ATOM     13  C   UNL     1     -13.325  -3.752   3.520  1.00  0.00     0.204 C 
BRANCH  13  14
ATOM     14  N   UNL     1     -13.560  -4.358   4.834  1.00  0.00    -0.340 N 
ATOM     15  C   UNL     1     -13.772  -5.708   5.008  1.00  0.00     0.243 C 
ATOM     16  O   UNL     1     -13.720  -6.510   4.078  1.00  0.00    -0.273 OA
ATOM     17  H   UNL     1     -13.766  -3.735   5.620  1.00  0.00     0.164 HD
BRANCH  15  18
ATOM     18  C   UNL     1     -14.203  -6.086   6.447  1.00  0.00     0.171 C 
BRANCH  18  19
ATOM     19  N   UNL     1     -13.321  -7.169   6.877  1.00  0.00    -0.343 N 
ATOM     20  C   UNL     1     -13.781  -8.221   7.645  1.00  0.00     0.242 CG0
ATOM     21  O   UNL     1     -14.917  -8.228   8.114  1.00  0.00    -0.273 OA
ATOM     22  H   UNL     1     -12.343  -7.150   6.612  1.00  0.00     0.164 HD
ATOM     23  G   UNL     1     -12.725  -9.308   7.934  1.00  0.00     0.000 G0
ENDBRANCH  18  19
BRANCH  18  24
ATOM     24  C   UNL     1     -14.099  -4.873   7.379  1.00  0.00     0.038 C 
BRANCH  24  25
ATOM     25  C   UNL     1     -15.398  -4.531   8.140  1.00  0.00    -0.015 C 
ATOM     26  C   UNL     1     -15.393  -5.061   9.574  1.00  0.00     0.007 C 
ATOM     27  C   UNL     1     -16.601  -5.100   7.385  1.00  0.00     0.007 C 
ENDBRANCH  24  25
ENDBRANCH  18  24
ENDBRANCH  15  18
ENDBRANCH  13  14
BRANCH  13  28
ATOM     28  C   UNL     1     -14.056  -2.406   3.503  1.00  0.00     0.327 C 
ATOM     29  O   UNL     1     -14.427  -1.773   4.480  1.00  0.00    -0.250 OA
BRANCH  28  30
ATOM     30  O   UNL     1     -14.382  -1.996   2.260  1.00  0.00    -0.480 OA
ATOM     31  H   UNL     1     -15.130  -1.379   2.398  1.00  0.00     0.296 HD
ENDBRANCH  28  30
ENDBRANCH  13  28
ENDBRANCH  11  13
ENDBRANCH   8  11
ENDBRANCH   6   7
BRANCH   6  32
ATOM     32  C   UNL     1     -10.485  -2.002  -1.205  1.00  0.00     0.037 C 
BRANCH  32  33
ATOM     33  C   UNL     1     -10.294  -0.801  -0.267  1.00  0.00     0.026 C 
BRANCH  33  34
ATOM     34  C   UNL     1      -9.307   0.225  -0.824  1.00  0.00     0.146 C 
BRANCH  34  35
ATOM     35  N   UNL     1      -8.140  -0.477  -1.340  1.00  0.00    -0.254 NA
ATOM     36  C   UNL     1      -6.996  -0.234  -0.818  1.00  0.00     0.185 C 
ATOM     37  N   UNL     1      -5.915  -0.879  -1.282  1.00  0.00    -0.370 N 
ATOM     38  N   UNL     1      -6.686   0.612   0.181  1.00  0.00    -0.370 N 
ATOM     39  H   UNL     1      -6.069  -1.543  -2.030  1.00  0.00     0.159 HD
ATOM     40  H   UNL     1      -5.023  -0.876  -0.818  1.00  0.00     0.159 HD
ATOM     41  H   UNL     1      -5.727   0.818   0.409  1.00  0.00     0.159 HD
ATOM     42  H   UNL     1      -7.399   1.176   0.615  1.00  0.00     0.159 HD
ENDBRANCH  34  35
ENDBRANCH  33  34
ENDBRANCH  32  33
ENDBRANCH   6  32
ENDBRANCH   4   6
ENDBRANCH   1   2
BRANCH   1  43
ATOM     43  C   UNL     1      -8.652  -7.032  -2.466  1.00  0.00     0.102 C 
ATOM     44  C   UNL     1      -7.404  -7.798  -2.935  1.00  0.00     0.020 C 
BRANCH  43  45
ATOM     45  C   UNL     1      -9.123  -5.953  -3.446  1.00  0.00     0.225 C 
ATOM     46  O   UNL     1     -10.297  -5.810  -3.773  1.00  0.00    -0.275 OA
ATOM     47  N   UNL     1      -8.125  -5.198  -4.019  1.00  0.00    -0.342 N 
ATOM     48  H   UNL     1      -7.193  -5.223  -3.631  1.00  0.00     0.164 HD
BRANCH  47  49
ATOM     49  C   UNL     1      -8.429  -4.105  -4.948  1.00  0.00     0.192 C 
BRANCH  49  50
ATOM     50  C   UNL     1      -7.493  -4.182  -6.157  1.00  0.00     0.047 C 
BRANCH  50  51
ATOM     51  C   UNL     1      -7.105  -5.626  -6.502  1.00  0.00     0.103 C 
BRANCH  51  52
ATOM     52  C   UNL     1      -6.005  -5.688  -7.559  1.00  0.00     0.226 C 
ATOM     53  O   UNL     1      -6.293  -5.544  -8.749  1.00  0.00    -0.275 OA
BRANCH  52  54
ATOM     54  N   UNL     1      -4.688  -5.834  -7.085  1.00  0.00    -0.311 N 
ATOM     55  C   UNL     1      -4.416  -6.483  -5.796  1.00  0.00     0.153 C 
BRANCH  54  56
ATOM     56  C   UNL     1      -3.588  -5.372  -7.826  1.00  0.00     0.102 C 
ATOM     57  C   UNL     1      -2.656  -6.158  -8.389  1.00  0.00     0.043 C 
BRANCH  56  58
ATOM     58  C   UNL     1      -3.394  -3.897  -8.089  1.00  0.00     0.268 C 
ATOM     59  O   UNL     1      -2.732  -3.168  -7.362  1.00  0.00    -0.268 OA
ATOM     60  N   UNL     1      -3.982  -3.475  -9.257  1.00  0.00    -0.339 N 
ATOM     61  H   UNL     1      -4.523  -4.139  -9.798  1.00  0.00     0.164 HD
BRANCH  60  62
ATOM     62  C   UNL     1      -3.865  -2.097  -9.735  1.00  0.00     0.168 CG0
ATOM     63  C   UNL     1      -2.912  -2.009 -10.920  1.00  0.00     0.041 C 
ATOM     64  G   UNL     1      -3.389  -1.189  -8.582  1.00  0.00     0.000 G0
ENDBRANCH  60  62
ENDBRANCH  56  58
ENDBRANCH  54  56
ENDBRANCH  52  54
ENDBRANCH  51  52
ENDBRANCH  50  51
ENDBRANCH  49  50
BRANCH  49  65
ATOM     65  C   UNL     1      -8.280  -2.731  -4.275  1.00  0.00     0.326 C 
ATOM     66  O   UNL     1      -8.726  -1.678  -4.704  1.00  0.00    -0.250 OA
BRANCH  65  67
ATOM     67  O   UNL     1      -7.537  -2.735  -3.146  1.00  0.00    -0.480 OA
ATOM     68  H   UNL     1      -8.162  -2.422  -2.457  1.00  0.00     0.296 HD
ENDBRANCH  65  67
ENDBRANCH  49  65
ENDBRANCH  47  49
ENDBRANCH  43  45
ENDBRANCH   1  43
BRANCH   1  69
ATOM     69  C   UNL     1      -8.585  -7.418   0.152  1.00  0.00    -0.001 C 
ATOM     70  C   UNL     1      -9.681  -7.986   0.686  1.00  0.00     0.001 C 
BRANCH  70  71
ATOM     71  C   UNL     1      -9.726  -8.925   1.809  1.00  0.00    -0.055 C 
ATOM     72  C   UNL     1     -10.625  -8.691   2.788  1.00  0.00    -0.018 C 
ATOM     73  C   UNL     1      -8.772 -10.091   1.787  1.00  0.00     0.044 C 
BRANCH  72  74
ATOM     74  C   UNL     1     -10.897  -9.486   4.056  1.00  0.00     0.038 C 
ATOM     75  C   UNL     1     -12.403  -9.773   4.097  1.00  0.00     0.015 C 
BRANCH  74  76
ATOM     76  C   UNL     1     -10.352  -8.687   5.276  1.00  0.00     0.128 C 
BRANCH  76  77
ATOM     77  O   UNL     1      -9.112  -9.261   5.724  1.00  0.00    -0.381 OA
ATOM     78  C   UNL     1      -9.226  -9.990   6.939  1.00  0.00     0.195 C 
ENDBRANCH  76  77
BRANCH  76  79
ATOM     79  C   UNL     1     -10.253  -7.160   5.034  1.00  0.00     0.068 C 
BRANCH  79  80
ATOM     80  C   UNL     1      -8.882  -6.528   5.053  1.00  0.00    -0.045 A 
ATOM     81  C   UNL     1      -8.108  -6.448   3.888  1.00  0.00     0.004 A 
ATOM     82  C   UNL     1      -8.347  -6.033   6.252  1.00  0.00     0.004 A 
ATOM     83  C   UNL     1      -6.834  -5.875   3.916  1.00  0.00     0.000 A 
ATOM     84  C   UNL     1      -7.073  -5.461   6.280  1.00  0.00     0.000 A 
ATOM     85  C   UNL     1      -6.318  -5.381   5.112  1.00  0.00     0.000 A 
ENDBRANCH  79  80
ENDBRANCH  76  79
ENDBRANCH  74  76
ENDBRANCH  72  74
ENDBRANCH  70  71
ENDBRANCH   1  69
TORSDOF 17
ENDMDL
MODEL 31
REMARK VINA RESULT:    -6.362      2.620      4.080
REMARK INTER + INTRA:         -25.877
REMARK INTER:                 -18.989
REMARK INTRA:                  -6.888
REMARK UNBOUND:                -6.869
REMARK SMILES C=C1C(=O)N[C@H](C)C(=O)N[C@@H](CC(C)C)C(=O)N[C@@H](C(=O)O)[C@H](C)C(=O)N[C@@H](CCCN=C(N)N)C(=O)N[C@@H](/C=C/C(C)=C/[C@H](C)[C@H](Cc2ccccc2)OC)[C@H](C)C(=O)N[C@@H](C(=O)O)CCC(=O)N1C
REMARK SMILES IDX 39 1 38 2 37 3 36 4 28 6 27 7 25 8 26 9 23 11 24 12 19 13
REMARK SMILES IDX 18 14 16 15 17 16 11 18 10 19 8 20 9 21 12 24 13 25 14 26
REMARK SMILES IDX 15 27 20 28 21 29 22 30 29 32 30 33 31 34 32 35 33 36 34 37
REMARK SMILES IDX 35 38 57 43 58 44 59 45 60 46 61 47 62 49 66 50 67 51 68 52
REMARK SMILES IDX 69 53 70 54 71 55 2 56 1 57 3 58 4 59 5 60 6 62 7 63 63 65
REMARK SMILES IDX 64 66 65 67 40 69 41 70 42 71 44 72 43 73 45 74 46 75 47 76
REMARK SMILES IDX 55 77 56 78 48 79 49 80 50 81 54 82 51 83 53 84 52 85
REMARK H PARENT 38 5 27 10 18 17 10 22 22 31 34 39 34 40 35 41 35 42 61 48
REMARK H PARENT 5 61 65 68
REMARK Flexibility Score:  369.900
ROOT
ATOM      1  C   UNL     1      -3.490  -1.931  -8.111  1.00  0.00     0.117 C 
ENDROOT
BRANCH   1   2
ATOM      2  N   UNL     1      -4.860  -1.426  -8.020  1.00  0.00    -0.347 N 
ATOM      3  O   UNL     1      -4.905  -1.049  -5.756  1.00  0.00    -0.273 OA
ATOM      4  C   UNL     1      -5.429  -0.939  -6.859  1.00  0.00     0.243 C 
ATOM      5  H   UNL     1      -5.426  -1.377  -8.854  1.00  0.00     0.164 HD
BRANCH   4   6
ATOM      6  C   UNL     1      -6.864  -0.385  -7.053  1.00  0.00     0.171 C 
BRANCH   6   7
ATOM      7  N   UNL     1      -7.336   0.263  -5.819  1.00  0.00    -0.344 N 
ATOM      8  C   UNL     1      -8.546  -0.087  -5.260  1.00  0.00     0.226 C 
ATOM      9  O   UNL     1      -9.288  -0.923  -5.761  1.00  0.00    -0.275 OA
ATOM     10  H   UNL     1      -6.782   1.007  -5.413  1.00  0.00     0.164 HD
BRANCH   8  11
ATOM     11  C   UNL     1      -8.866   0.632  -3.961  1.00  0.00     0.109 C 
ATOM     12  C   UNL     1     -10.202   1.364  -4.080  1.00  0.00     0.021 C 
BRANCH  11  13
ATOM     13  C   UNL     1      -8.771  -0.356  -2.781  1.00  0.00     0.204 C 
BRANCH  13  14
ATOM     14  N   UNL     1      -8.510  -1.727  -3.229  1.00  0.00    -0.340 N 
ATOM     15  C   UNL     1      -9.340  -2.784  -2.925  1.00  0.00     0.243 C 
ATOM     16  O   UNL     1     -10.393  -2.641  -2.306  1.00  0.00    -0.273 OA
ATOM     17  H   UNL     1      -7.585  -1.939  -3.613  1.00  0.00     0.164 HD
BRANCH  15  18
ATOM     18  C   UNL     1      -8.758  -4.163  -3.324  1.00  0.00     0.171 C 
BRANCH  18  19
ATOM     19  N   UNL     1      -9.660  -5.173  -2.775  1.00  0.00    -0.343 N 
ATOM     20  C   UNL     1      -9.192  -6.248  -2.045  1.00  0.00     0.242 CG0
ATOM     21  O   UNL     1      -7.990  -6.477  -1.936  1.00  0.00    -0.273 OA
ATOM     22  H   UNL     1     -10.657  -5.090  -2.938  1.00  0.00     0.164 HD
ATOM     23  G   UNL     1     -10.297  -7.164  -1.481  1.00  0.00     0.000 G0
ENDBRANCH  18  19
BRANCH  18  24
ATOM     24  C   UNL     1      -8.642  -4.281  -4.849  1.00  0.00     0.038 C 
BRANCH  24  25
ATOM     25  C   UNL     1      -7.226  -4.614  -5.364  1.00  0.00    -0.015 C 
ATOM     26  C   UNL     1      -6.993  -4.123  -6.793  1.00  0.00     0.007 C 
ATOM     27  C   UNL     1      -6.996  -6.126  -5.295  1.00  0.00     0.007 C 
ENDBRANCH  24  25
ENDBRANCH  18  24
ENDBRANCH  15  18
ENDBRANCH  13  14
BRANCH  13  28
ATOM     28  C   UNL     1      -7.674   0.009  -1.775  1.00  0.00     0.327 C 
ATOM     29  O   UNL     1      -7.359  -0.633  -0.785  1.00  0.00    -0.250 OA
BRANCH  28  30
ATOM     30  O   UNL     1      -7.123   1.217  -2.009  1.00  0.00    -0.480 OA
ATOM     31  H   UNL     1      -7.786   1.682  -2.560  1.00  0.00     0.296 HD
ENDBRANCH  28  30
ENDBRANCH  13  28
ENDBRANCH  11  13
ENDBRANCH   8  11
ENDBRANCH   6   7
BRANCH   6  32
ATOM     32  C   UNL     1      -6.869   0.600  -8.226  1.00  0.00     0.037 C 
BRANCH  32  33
ATOM     33  C   UNL     1      -6.206   1.936  -7.863  1.00  0.00     0.026 C 
BRANCH  33  34
ATOM     34  C   UNL     1      -5.911   2.797  -9.093  1.00  0.00     0.146 C 
BRANCH  34  35
ATOM     35  N   UNL     1      -5.954   1.952 -10.278  1.00  0.00    -0.254 NA
ATOM     36  C   UNL     1      -6.676   2.320 -11.270  1.00  0.00     0.185 C 
ATOM     37  N   UNL     1      -6.719   1.552 -12.369  1.00  0.00    -0.370 N 
ATOM     38  N   UNL     1      -7.443   3.418 -11.395  1.00  0.00    -0.370 N 
ATOM     39  H   UNL     1      -6.158   0.710 -12.357  1.00  0.00     0.159 HD
ATOM     40  H   UNL     1      -7.116   1.853 -13.243  1.00  0.00     0.159 HD
ATOM     41  H   UNL     1      -8.075   3.527 -12.171  1.00  0.00     0.159 HD
ATOM     42  H   UNL     1      -7.519   4.079 -10.637  1.00  0.00     0.159 HD
ENDBRANCH  34  35
ENDBRANCH  33  34
ENDBRANCH  32  33
ENDBRANCH   6  32
ENDBRANCH   4   6
ENDBRANCH   1   2
BRANCH   1  43
ATOM     43  C   UNL     1      -2.676  -0.987  -9.044  1.00  0.00     0.102 C 
ATOM     44  C   UNL     1      -2.701  -1.417 -10.520  1.00  0.00     0.020 C 
BRANCH  43  45
ATOM     45  C   UNL     1      -1.268  -0.747  -8.490  1.00  0.00     0.225 C 
ATOM     46  O   UNL     1      -0.769  -1.435  -7.604  1.00  0.00    -0.275 OA
ATOM     47  N   UNL     1      -0.618   0.360  -8.985  1.00  0.00    -0.342 N 
ATOM     48  H   UNL     1      -0.973   0.821  -9.812  1.00  0.00     0.164 HD
BRANCH  47  49
ATOM     49  C   UNL     1       0.748   0.695  -8.573  1.00  0.00     0.192 C 
BRANCH  49  50
ATOM     50  C   UNL     1       0.784   2.121  -8.020  1.00  0.00     0.047 C 
BRANCH  50  51
ATOM     51  C   UNL     1      -0.409   2.961  -8.497  1.00  0.00     0.103 C 
BRANCH  51  52
ATOM     52  C   UNL     1       0.031   4.303  -9.079  1.00  0.00     0.226 C 
ATOM     53  O   UNL     1       0.443   5.189  -8.327  1.00  0.00    -0.275 OA
BRANCH  52  54
ATOM     54  N   UNL     1       0.006   4.416 -10.482  1.00  0.00    -0.311 N 
ATOM     55  C   UNL     1      -0.821   3.517 -11.298  1.00  0.00     0.153 C 
BRANCH  54  56
ATOM     56  C   UNL     1       0.762   5.393 -11.151  1.00  0.00     0.102 C 
ATOM     57  C   UNL     1       0.312   6.610 -11.496  1.00  0.00     0.043 C 
BRANCH  56  58
ATOM     58  C   UNL     1       2.210   5.145 -11.503  1.00  0.00     0.268 C 
ATOM     59  O   UNL     1       2.871   5.909 -12.193  1.00  0.00    -0.268 OA
ATOM     60  N   UNL     1       2.722   4.013 -10.916  1.00  0.00    -0.339 N 
ATOM     61  H   UNL     1       2.105   3.427 -10.366  1.00  0.00     0.164 HD
BRANCH  60  62
ATOM     62  C   UNL     1       4.122   3.619 -11.073  1.00  0.00     0.168 CG0
ATOM     63  C   UNL     1       4.594   2.790  -9.885  1.00  0.00     0.041 C 
ATOM     64  G   UNL     1       4.997   4.878 -11.243  1.00  0.00     0.000 G0
ENDBRANCH  60  62
ENDBRANCH  56  58
ENDBRANCH  54  56
ENDBRANCH  52  54
ENDBRANCH  51  52
ENDBRANCH  50  51
ENDBRANCH  49  50
BRANCH  49  65
ATOM     65  C   UNL     1       1.737   0.577  -9.743  1.00  0.00     0.326 C 
ATOM     66  O   UNL     1       1.618   1.120 -10.832  1.00  0.00    -0.250 OA
BRANCH  65  67
ATOM     67  O   UNL     1       2.782  -0.250  -9.518  1.00  0.00    -0.480 OA
ATOM     68  H   UNL     1       2.995  -0.101  -8.572  1.00  0.00     0.296 HD
ENDBRANCH  65  67
ENDBRANCH  49  65
ENDBRANCH  47  49
ENDBRANCH  43  45
ENDBRANCH   1  43
BRANCH   1  69
ATOM     69  C   UNL     1      -3.602  -3.401  -8.472  1.00  0.00    -0.001 C 
ATOM     70  C   UNL     1      -3.071  -4.446  -7.814  1.00  0.00     0.001 C 
BRANCH  70  71
ATOM     71  C   UNL     1      -3.204  -5.863  -8.160  1.00  0.00    -0.055 C 
ATOM     72  C   UNL     1      -4.211  -6.557  -7.588  1.00  0.00    -0.018 C 
ATOM     73  C   UNL     1      -2.213  -6.444  -9.135  1.00  0.00     0.044 C 
BRANCH  72  74
ATOM     74  C   UNL     1      -4.590  -8.020  -7.759  1.00  0.00     0.038 C 
ATOM     75  C   UNL     1      -3.296  -8.838  -7.663  1.00  0.00     0.015 C 
BRANCH  74  76
ATOM     76  C   UNL     1      -5.368  -8.183  -9.099  1.00  0.00     0.128 C 
BRANCH  76  77
ATOM     77  O   UNL     1      -5.083  -9.468  -9.679  1.00  0.00    -0.381 OA
ATOM     78  C   UNL     1      -4.462  -9.393 -10.955  1.00  0.00     0.195 C 
ENDBRANCH  76  77
BRANCH  76  79
ATOM     79  C   UNL     1      -6.887  -7.901  -8.983  1.00  0.00     0.068 C 
BRANCH  79  80
ATOM     80  C   UNL     1      -7.420  -6.633  -9.605  1.00  0.00    -0.045 A 
ATOM     81  C   UNL     1      -6.570  -5.554  -9.886  1.00  0.00     0.004 A 
ATOM     82  C   UNL     1      -8.788  -6.504  -9.886  1.00  0.00     0.004 A 
ATOM     83  C   UNL     1      -7.073  -4.379 -10.448  1.00  0.00     0.000 A 
ATOM     84  C   UNL     1      -9.290  -5.328 -10.448  1.00  0.00     0.000 A 
ATOM     85  C   UNL     1      -8.433  -4.267 -10.730  1.00  0.00     0.000 A 
ENDBRANCH  79  80
ENDBRANCH  76  79
ENDBRANCH  74  76
ENDBRANCH  72  74
ENDBRANCH  70  71
ENDBRANCH   1  69
TORSDOF 17
ENDMDL
MODEL 32
REMARK VINA RESULT:    -6.357      7.407     13.724
REMARK INTER + INTRA:         -25.862
REMARK INTER:                 -18.044
REMARK INTRA:                  -7.818
REMARK UNBOUND:                -6.869
REMARK SMILES C=C1C(=O)N[C@H](C)C(=O)N[C@@H](CC(C)C)C(=O)N[C@@H](C(=O)O)[C@H](C)C(=O)N[C@@H](CCCN=C(N)N)C(=O)N[C@@H](/C=C/C(C)=C/[C@H](C)[C@H](Cc2ccccc2)OC)[C@H](C)C(=O)N[C@@H](C(=O)O)CCC(=O)N1C
REMARK SMILES IDX 39 1 38 2 37 3 36 4 28 6 27 7 25 8 26 9 23 11 24 12 19 13
REMARK SMILES IDX 18 14 16 15 17 16 11 18 10 19 8 20 9 21 12 24 13 25 14 26
REMARK SMILES IDX 15 27 20 28 21 29 22 30 29 32 30 33 31 34 32 35 33 36 34 37
REMARK SMILES IDX 35 38 57 43 58 44 59 45 60 46 61 47 62 49 66 50 67 51 68 52
REMARK SMILES IDX 69 53 70 54 71 55 2 56 1 57 3 58 4 59 5 60 6 62 7 63 63 65
REMARK SMILES IDX 64 66 65 67 40 69 41 70 42 71 44 72 43 73 45 74 46 75 47 76
REMARK SMILES IDX 55 77 56 78 48 79 49 80 50 81 54 82 51 83 53 84 52 85
REMARK H PARENT 38 5 27 10 18 17 10 22 22 31 34 39 34 40 35 41 35 42 61 48
REMARK H PARENT 5 61 65 68
REMARK Flexibility Score:  369.900
ROOT
ATOM      1  C   UNL     1     -10.883  -5.463   2.059  1.00  0.00     0.117 C 
ENDROOT
BRANCH   1   2
ATOM      2  N   UNL     1     -11.047  -5.810   3.471  1.00  0.00    -0.347 N 
ATOM      3  O   UNL     1     -13.341  -5.759   3.541  1.00  0.00    -0.273 OA
ATOM      4  C   UNL     1     -12.270  -6.020   4.078  1.00  0.00     0.243 C 
ATOM      5  H   UNL     1     -10.229  -5.957   4.042  1.00  0.00     0.164 HD
BRANCH   4   6
ATOM      6  C   UNL     1     -12.162  -6.461   5.560  1.00  0.00     0.171 C 
BRANCH   6   7
ATOM      7  N   UNL     1     -13.447  -6.265   6.250  1.00  0.00    -0.344 N 
ATOM      8  C   UNL     1     -13.504  -5.598   7.454  1.00  0.00     0.226 C 
ATOM      9  O   UNL     1     -12.506  -5.161   8.015  1.00  0.00    -0.275 OA
ATOM     10  H   UNL     1     -14.285  -6.670   5.851  1.00  0.00     0.164 HD
BRANCH   8  11
ATOM     11  C   UNL     1     -14.907  -5.430   8.011  1.00  0.00     0.109 C 
ATOM     12  C   UNL     1     -15.909  -5.259   6.869  1.00  0.00     0.021 C 
BRANCH  11  13
ATOM     13  C   UNL     1     -15.224  -6.584   8.983  1.00  0.00     0.204 C 
BRANCH  13  14
ATOM     14  N   UNL     1     -14.010  -7.159   9.571  1.00  0.00    -0.340 N 
ATOM     15  C   UNL     1     -13.550  -8.419   9.254  1.00  0.00     0.243 C 
ATOM     16  O   UNL     1     -14.093  -9.128   8.408  1.00  0.00    -0.273 OA
ATOM     17  H   UNL     1     -13.601  -6.691  10.384  1.00  0.00     0.164 HD
BRANCH  15  18
ATOM     18  C   UNL     1     -12.377  -8.892  10.148  1.00  0.00     0.171 C 
BRANCH  18  19
ATOM     19  N   UNL     1     -12.730 -10.226  10.631  1.00  0.00    -0.343 N 
ATOM     20  C   UNL     1     -13.372 -10.416  11.839  1.00  0.00     0.242 CG0
ATOM     21  O   UNL     1     -13.557  -9.488  12.624  1.00  0.00    -0.273 OA
ATOM     22  H   UNL     1     -12.495 -11.037  10.070  1.00  0.00     0.164 HD
ATOM     23  G   UNL     1     -13.734 -11.885  12.144  1.00  0.00     0.000 G0
ENDBRANCH  18  19
BRANCH  18  24
ATOM     24  C   UNL     1     -11.065  -8.912   9.354  1.00  0.00     0.038 C 
BRANCH  24  25
ATOM     25  C   UNL     1     -10.071  -7.791   9.724  1.00  0.00    -0.015 C 
ATOM     26  C   UNL     1      -9.512  -7.074   8.495  1.00  0.00     0.007 C 
ATOM     27  C   UNL     1      -8.920  -8.376  10.547  1.00  0.00     0.007 C 
ENDBRANCH  24  25
ENDBRANCH  18  24
ENDBRANCH  15  18
ENDBRANCH  13  14
BRANCH  13  28
ATOM     28  C   UNL     1     -16.134  -6.165  10.142  1.00  0.00     0.327 C 
ATOM     29  O   UNL     1     -15.989  -5.185  10.856  1.00  0.00    -0.250 OA
BRANCH  28  30
ATOM     30  O   UNL     1     -17.101  -7.066  10.407  1.00  0.00    -0.480 OA
ATOM     31  H   UNL     1     -17.541  -6.718  11.210  1.00  0.00     0.296 HD
ENDBRANCH  28  30
ENDBRANCH  13  28
ENDBRANCH  11  13
ENDBRANCH   8  11
ENDBRANCH   6   7
BRANCH   6  32
ATOM     32  C   UNL     1     -11.728  -7.929   5.619  1.00  0.00     0.037 C 
BRANCH  32  33
ATOM     33  C   UNL     1     -12.465  -8.793   4.586  1.00  0.00     0.026 C 
BRANCH  33  34
ATOM     34  C   UNL     1     -11.510  -9.483   3.611  1.00  0.00     0.146 C 
BRANCH  34  35
ATOM     35  N   UNL     1     -10.159  -8.997   3.854  1.00  0.00    -0.254 NA
ATOM     36  C   UNL     1      -9.214  -9.399   3.088  1.00  0.00     0.185 C 
ATOM     37  N   UNL     1      -7.966  -8.954   3.299  1.00  0.00    -0.370 N 
ATOM     38  N   UNL     1      -9.276 -10.245   2.044  1.00  0.00    -0.370 N 
ATOM     39  H   UNL     1      -7.840  -8.303   4.064  1.00  0.00     0.159 HD
ATOM     40  H   UNL     1      -7.212  -9.082   2.646  1.00  0.00     0.159 HD
ATOM     41  H   UNL     1      -8.439 -10.593   1.606  1.00  0.00     0.159 HD
ATOM     42  H   UNL     1     -10.150 -10.671   1.779  1.00  0.00     0.159 HD
ENDBRANCH  34  35
ENDBRANCH  33  34
ENDBRANCH  32  33
ENDBRANCH   6  32
ENDBRANCH   4   6
ENDBRANCH   1   2
BRANCH   1  43
ATOM     43  C   UNL     1      -9.615  -6.184   1.516  1.00  0.00     0.102 C 
ATOM     44  C   UNL     1      -8.396  -5.256   1.376  1.00  0.00     0.020 C 
BRANCH  43  45
ATOM     45  C   UNL     1      -9.936  -6.983   0.249  1.00  0.00     0.225 C 
ATOM     46  O   UNL     1     -10.590  -8.022   0.259  1.00  0.00    -0.275 OA
ATOM     47  N   UNL     1      -9.362  -6.512  -0.909  1.00  0.00    -0.342 N 
ATOM     48  H   UNL     1      -8.961  -5.585  -0.928  1.00  0.00     0.164 HD
BRANCH  47  49
ATOM     49  C   UNL     1      -9.611  -7.155  -2.203  1.00  0.00     0.192 C 
BRANCH  49  50
ATOM     50  C   UNL     1      -8.401  -6.952  -3.119  1.00  0.00     0.047 C 
BRANCH  50  51
ATOM     51  C   UNL     1      -7.162  -7.710  -2.623  1.00  0.00     0.103 C 
BRANCH  51  52
ATOM     52  C   UNL     1      -6.328  -8.263  -3.777  1.00  0.00     0.226 C 
ATOM     53  O   UNL     1      -6.351  -9.471  -4.021  1.00  0.00    -0.275 OA
BRANCH  52  54
ATOM     54  N   UNL     1      -5.627  -7.321  -4.552  1.00  0.00    -0.311 N 
ATOM     55  C   UNL     1      -4.546  -6.516  -3.969  1.00  0.00     0.153 C 
BRANCH  54  56
ATOM     56  C   UNL     1      -5.930  -7.119  -5.909  1.00  0.00     0.102 C 
ATOM     57  C   UNL     1      -6.684  -6.116  -6.388  1.00  0.00     0.043 C 
BRANCH  56  58
ATOM     58  C   UNL     1      -5.365  -8.032  -6.973  1.00  0.00     0.268 C 
ATOM     59  O   UNL     1      -4.271  -8.572  -6.880  1.00  0.00    -0.268 OA
ATOM     60  N   UNL     1      -6.232  -8.243  -8.018  1.00  0.00    -0.339 N 
ATOM     61  H   UNL     1      -7.117  -7.749  -8.026  1.00  0.00     0.164 HD
BRANCH  60  62
ATOM     62  C   UNL     1      -5.912  -9.142  -9.126  1.00  0.00     0.168 CG0
ATOM     63  C   UNL     1      -5.223  -8.391 -10.259  1.00  0.00     0.041 C 
ATOM     64  G   UNL     1      -7.201  -9.824  -9.628  1.00  0.00     0.000 G0
ENDBRANCH  60  62
ENDBRANCH  56  58
ENDBRANCH  54  56
ENDBRANCH  52  54
ENDBRANCH  51  52
ENDBRANCH  50  51
ENDBRANCH  49  50
BRANCH  49  65
ATOM     65  C   UNL     1     -10.866  -6.588  -2.886  1.00  0.00     0.326 C 
ATOM     66  O   UNL     1     -10.875  -5.879  -3.881  1.00  0.00    -0.250 OA
BRANCH  65  67
ATOM     67  O   UNL     1     -12.028  -6.883  -2.262  1.00  0.00    -0.480 OA
ATOM     68  H   UNL     1     -12.707  -6.727  -2.953  1.00  0.00     0.296 HD
ENDBRANCH  65  67
ENDBRANCH  49  65
ENDBRANCH  47  49
ENDBRANCH  43  45
ENDBRANCH   1  43
BRANCH   1  69
ATOM     69  C   UNL     1     -10.955  -3.949   1.982  1.00  0.00    -0.001 C 
ATOM     70  C   UNL     1     -11.804  -3.207   1.250  1.00  0.00     0.001 C 
BRANCH  70  71
ATOM     71  C   UNL     1     -11.878  -1.746   1.201  1.00  0.00    -0.055 C 
ATOM     72  C   UNL     1     -10.925  -1.047   1.853  1.00  0.00    -0.018 C 
ATOM     73  C   UNL     1     -13.008  -1.125   0.421  1.00  0.00     0.044 C 
BRANCH  72  74
ATOM     74  C   UNL     1     -10.747   0.460   1.972  1.00  0.00     0.038 C 
ATOM     75  C   UNL     1      -9.537   0.842   1.112  1.00  0.00     0.015 C 
BRANCH  74  76
ATOM     76  C   UNL     1     -10.622   0.832   3.479  1.00  0.00     0.128 C 
BRANCH  76  77
ATOM     77  O   UNL     1      -9.823   2.018   3.627  1.00  0.00    -0.381 OA
ATOM     78  C   UNL     1     -10.416   3.006   4.458  1.00  0.00     0.195 C 
ENDBRANCH  76  77
BRANCH  76  79
ATOM     79  C   UNL     1     -11.980   0.928   4.219  1.00  0.00     0.068 C 
BRANCH  79  80
ATOM     80  C   UNL     1     -12.759  -0.347   4.434  1.00  0.00    -0.045 A 
ATOM     81  C   UNL     1     -12.193  -1.433   5.113  1.00  0.00     0.004 A 
ATOM     82  C   UNL     1     -14.062  -0.473   3.929  1.00  0.00     0.004 A 
ATOM     83  C   UNL     1     -12.916  -2.614   5.296  1.00  0.00     0.000 A 
ATOM     84  C   UNL     1     -14.784  -1.654   4.111  1.00  0.00     0.000 A 
ATOM     85  C   UNL     1     -14.212  -2.724   4.796  1.00  0.00     0.000 A 
ENDBRANCH  79  80
ENDBRANCH  76  79
ENDBRANCH  74  76
ENDBRANCH  72  74
ENDBRANCH  70  71
ENDBRANCH   1  69
TORSDOF 17
ENDMDL
MODEL 33
REMARK VINA RESULT:    -6.345      6.044     10.405
REMARK INTER + INTRA:         -25.825
REMARK INTER:                 -18.871
REMARK INTRA:                  -6.954
REMARK UNBOUND:                -6.869
REMARK SMILES C=C1C(=O)N[C@H](C)C(=O)N[C@@H](CC(C)C)C(=O)N[C@@H](C(=O)O)[C@H](C)C(=O)N[C@@H](CCCN=C(N)N)C(=O)N[C@@H](/C=C/C(C)=C/[C@H](C)[C@H](Cc2ccccc2)OC)[C@H](C)C(=O)N[C@@H](C(=O)O)CCC(=O)N1C
REMARK SMILES IDX 39 1 38 2 37 3 36 4 28 6 27 7 25 8 26 9 23 11 24 12 19 13
REMARK SMILES IDX 18 14 16 15 17 16 11 18 10 19 8 20 9 21 12 24 13 25 14 26
REMARK SMILES IDX 15 27 20 28 21 29 22 30 29 32 30 33 31 34 32 35 33 36 34 37
REMARK SMILES IDX 35 38 57 43 58 44 59 45 60 46 61 47 62 49 66 50 67 51 68 52
REMARK SMILES IDX 69 53 70 54 71 55 2 56 1 57 3 58 4 59 5 60 6 62 7 63 63 65
REMARK SMILES IDX 64 66 65 67 40 69 41 70 42 71 44 72 43 73 45 74 46 75 47 76
REMARK SMILES IDX 55 77 56 78 48 79 49 80 50 81 54 82 51 83 53 84 52 85
REMARK H PARENT 38 5 27 10 18 17 10 22 22 31 34 39 34 40 35 41 35 42 61 48
REMARK H PARENT 5 61 65 68
REMARK Flexibility Score:  369.900
ROOT
ATOM      1  C   UNL     1      -7.512  -4.184  -0.676  1.00  0.00     0.117 C 
ENDROOT
BRANCH   1   2
ATOM      2  N   UNL     1      -8.165  -2.893  -0.457  1.00  0.00    -0.347 N 
ATOM      3  O   UNL     1      -6.701  -1.594  -1.657  1.00  0.00    -0.273 OA
ATOM      4  C   UNL     1      -7.757  -1.710  -1.043  1.00  0.00     0.243 C 
ATOM      5  H   UNL     1      -8.995  -2.849   0.115  1.00  0.00     0.164 HD
BRANCH   4   6
ATOM      6  C   UNL     1      -8.672  -0.503  -0.714  1.00  0.00     0.171 C 
BRANCH   6   7
ATOM      7  N   UNL     1      -9.104   0.166  -1.951  1.00  0.00    -0.344 N 
ATOM      8  C   UNL     1      -8.394   1.233  -2.458  1.00  0.00     0.226 C 
ATOM      9  O   UNL     1      -7.398   1.686  -1.906  1.00  0.00    -0.275 OA
ATOM     10  H   UNL     1      -9.960  -0.136  -2.399  1.00  0.00     0.164 HD
BRANCH   8  11
ATOM     11  C   UNL     1      -8.935   1.779  -3.768  1.00  0.00     0.109 C 
ATOM     12  C   UNL     1     -10.437   1.512  -3.868  1.00  0.00     0.021 C 
BRANCH  11  13
ATOM     13  C   UNL     1      -8.527   3.258  -3.924  1.00  0.00     0.204 C 
BRANCH  13  14
ATOM     14  N   UNL     1      -8.586   3.984  -2.652  1.00  0.00    -0.340 N 
ATOM     15  C   UNL     1      -9.666   4.754  -2.278  1.00  0.00     0.243 C 
ATOM     16  O   UNL     1     -10.685   4.837  -2.961  1.00  0.00    -0.273 OA
ATOM     17  H   UNL     1      -7.721   4.079  -2.113  1.00  0.00     0.164 HD
BRANCH  15  18
ATOM     18  C   UNL     1      -9.418   5.588  -0.998  1.00  0.00     0.171 C 
BRANCH  18  19
ATOM     19  N   UNL     1     -10.644   6.342  -0.745  1.00  0.00    -0.343 N 
ATOM     20  C   UNL     1     -10.686   7.719  -0.840  1.00  0.00     0.242 CG0
ATOM     21  O   UNL     1      -9.666   8.384  -1.010  1.00  0.00    -0.273 OA
ATOM     22  H   UNL     1     -11.489   5.845  -0.486  1.00  0.00     0.164 HD
ATOM     23  G   UNL     1     -12.084   8.331  -0.616  1.00  0.00     0.000 G0
ENDBRANCH  18  19
BRANCH  18  24
ATOM     24  C   UNL     1      -9.065   4.676   0.183  1.00  0.00     0.038 C 
BRANCH  24  25
ATOM     25  C   UNL     1      -9.940   3.410   0.304  1.00  0.00    -0.015 C 
ATOM     26  C   UNL     1     -11.322   3.708   0.886  1.00  0.00     0.007 C 
ATOM     27  C   UNL     1      -9.227   2.373   1.174  1.00  0.00     0.007 C 
ENDBRANCH  24  25
ENDBRANCH  18  24
ENDBRANCH  15  18
ENDBRANCH  13  14
BRANCH  13  28
ATOM     28  C   UNL     1      -7.114   3.438  -4.485  1.00  0.00     0.327 C 
ATOM     29  O   UNL     1      -6.707   3.032  -5.563  1.00  0.00    -0.250 OA
BRANCH  28  30
ATOM     30  O   UNL     1      -6.266   4.012  -3.608  1.00  0.00    -0.480 OA
ATOM     31  H   UNL     1      -5.602   4.461  -4.172  1.00  0.00     0.296 HD
ENDBRANCH  28  30
ENDBRANCH  13  28
ENDBRANCH  11  13
ENDBRANCH   8  11
ENDBRANCH   6   7
BRANCH   6  32
ATOM     32  C   UNL     1      -9.879  -0.992   0.094  1.00  0.00     0.037 C 
BRANCH  32  33
ATOM     33  C   UNL     1     -11.107  -1.240  -0.792  1.00  0.00     0.026 C 
BRANCH  33  34
ATOM     34  C   UNL     1     -12.076  -2.253  -0.179  1.00  0.00     0.146 C 
BRANCH  34  35
ATOM     35  N   UNL     1     -11.474  -3.577  -0.246  1.00  0.00    -0.254 NA
ATOM     36  C   UNL     1     -12.158  -4.584   0.155  1.00  0.00     0.185 C 
ATOM     37  N   UNL     1     -11.615  -5.810   0.094  1.00  0.00    -0.370 N 
ATOM     38  N   UNL     1     -13.406  -4.612   0.655  1.00  0.00    -0.370 N 
ATOM     39  H   UNL     1     -10.678  -5.873  -0.283  1.00  0.00     0.159 HD
ATOM     40  H   UNL     1     -12.140  -6.657   0.222  1.00  0.00     0.159 HD
ATOM     41  H   UNL     1     -13.784  -5.450   1.066  1.00  0.00     0.159 HD
ATOM     42  H   UNL     1     -13.930  -3.759   0.774  1.00  0.00     0.159 HD
ENDBRANCH  34  35
ENDBRANCH  33  34
ENDBRANCH  32  33
ENDBRANCH   6  32
ENDBRANCH   4   6
ENDBRANCH   1   2
BRANCH   1  43
ATOM     43  C   UNL     1      -7.781  -4.632  -2.142  1.00  0.00     0.102 C 
ATOM     44  C   UNL     1      -9.099  -5.406  -2.313  1.00  0.00     0.020 C 
BRANCH  43  45
ATOM     45  C   UNL     1      -6.561  -5.345  -2.732  1.00  0.00     0.225 C 
ATOM     46  O   UNL     1      -5.528  -5.544  -2.098  1.00  0.00    -0.275 OA
ATOM     47  N   UNL     1      -6.653  -5.673  -4.065  1.00  0.00    -0.342 N 
ATOM     48  H   UNL     1      -7.552  -5.642  -4.527  1.00  0.00     0.164 HD
BRANCH  47  49
ATOM     49  C   UNL     1      -5.577  -6.390  -4.755  1.00  0.00     0.192 C 
BRANCH  49  50
ATOM     50  C   UNL     1      -5.603  -6.047  -6.246  1.00  0.00     0.047 C 
BRANCH  50  51
ATOM     51  C   UNL     1      -6.267  -4.690  -6.520  1.00  0.00     0.103 C 
BRANCH  51  52
ATOM     52  C   UNL     1      -7.548  -4.834  -7.340  1.00  0.00     0.226 C 
ATOM     53  O   UNL     1      -8.640  -4.635  -6.805  1.00  0.00    -0.275 OA
BRANCH  52  54
ATOM     54  N   UNL     1      -7.388  -5.120  -8.708  1.00  0.00    -0.311 N 
ATOM     55  C   UNL     1      -6.742  -4.158  -9.611  1.00  0.00     0.153 C 
BRANCH  54  56
ATOM     56  C   UNL     1      -7.832  -6.333  -9.260  1.00  0.00     0.102 C 
ATOM     57  C   UNL     1      -9.003  -6.506  -9.894  1.00  0.00     0.043 C 
BRANCH  56  58
ATOM     58  C   UNL     1      -6.964  -7.569  -9.215  1.00  0.00     0.268 C 
ATOM     59  O   UNL     1      -7.107  -8.458  -8.387  1.00  0.00    -0.268 OA
ATOM     60  N   UNL     1      -6.045  -7.621 -10.236  1.00  0.00    -0.339 N 
ATOM     61  H   UNL     1      -5.982  -6.838 -10.876  1.00  0.00     0.164 HD
BRANCH  60  62
ATOM     62  C   UNL     1      -5.146  -8.760 -10.417  1.00  0.00     0.168 CG0
ATOM     63  C   UNL     1      -3.782  -8.484  -9.798  1.00  0.00     0.041 C 
ATOM     64  G   UNL     1      -5.009  -9.076 -11.921  1.00  0.00     0.000 G0
ENDBRANCH  60  62
ENDBRANCH  56  58
ENDBRANCH  54  56
ENDBRANCH  52  54
ENDBRANCH  51  52
ENDBRANCH  50  51
ENDBRANCH  49  50
BRANCH  49  65
ATOM     65  C   UNL     1      -5.706  -7.911  -4.580  1.00  0.00     0.326 C 
ATOM     66  O   UNL     1      -5.958  -8.710  -5.471  1.00  0.00    -0.250 OA
BRANCH  65  67
ATOM     67  O   UNL     1      -5.577  -8.345  -3.307  1.00  0.00    -0.480 OA
ATOM     68  H   UNL     1      -6.436  -8.785  -3.125  1.00  0.00     0.296 HD
ENDBRANCH  65  67
ENDBRANCH  49  65
ENDBRANCH  47  49
ENDBRANCH  43  45
ENDBRANCH   1  43
BRANCH   1  69
ATOM     69  C   UNL     1      -7.961  -5.084   0.460  1.00  0.00    -0.001 C 
ATOM     70  C   UNL     1      -7.374  -6.217   0.885  1.00  0.00     0.001 C 
BRANCH  70  71
ATOM     71  C   UNL     1      -7.804  -7.067   1.997  1.00  0.00    -0.055 C 
ATOM     72  C   UNL     1      -8.930  -7.793   1.833  1.00  0.00    -0.018 C 
ATOM     73  C   UNL     1      -6.956  -7.077   3.242  1.00  0.00     0.044 C 
BRANCH  72  74
ATOM     74  C   UNL     1      -9.607  -8.753   2.801  1.00  0.00     0.038 C 
ATOM     75  C   UNL     1      -9.298 -10.175   2.318  1.00  0.00     0.015 C 
BRANCH  74  76
ATOM     76  C   UNL     1     -11.122  -8.403   2.877  1.00  0.00     0.128 C 
BRANCH  76  77
ATOM     77  O   UNL     1     -11.906  -9.607   2.841  1.00  0.00    -0.381 OA
ATOM     78  C   UNL     1     -12.594  -9.877   4.056  1.00  0.00     0.195 C 
ENDBRANCH  76  77
BRANCH  76  79
ATOM     79  C   UNL     1     -11.496  -7.478   4.062  1.00  0.00     0.068 C 
BRANCH  79  80
ATOM     80  C   UNL     1     -10.594  -6.304   4.356  1.00  0.00    -0.045 A 
ATOM     81  C   UNL     1      -9.765  -6.296   5.486  1.00  0.00     0.004 A 
ATOM     82  C   UNL     1     -10.592  -5.184   3.511  1.00  0.00     0.004 A 
ATOM     83  C   UNL     1      -8.943  -5.200   5.758  1.00  0.00     0.000 A 
ATOM     84  C   UNL     1      -9.770  -4.089   3.785  1.00  0.00     0.000 A 
ATOM     85  C   UNL     1      -8.945  -4.098   4.907  1.00  0.00     0.000 A 
ENDBRANCH  79  80
ENDBRANCH  76  79
ENDBRANCH  74  76
ENDBRANCH  72  74
ENDBRANCH  70  71
ENDBRANCH   1  69
TORSDOF 17
ENDMDL
MODEL 34
REMARK VINA RESULT:    -6.344      4.475     11.894
REMARK INTER + INTRA:         -25.822
REMARK INTER:                 -20.048
REMARK INTRA:                  -5.774
REMARK UNBOUND:                -6.869
REMARK SMILES C=C1C(=O)N[C@H](C)C(=O)N[C@@H](CC(C)C)C(=O)N[C@@H](C(=O)O)[C@H](C)C(=O)N[C@@H](CCCN=C(N)N)C(=O)N[C@@H](/C=C/C(C)=C/[C@H](C)[C@H](Cc2ccccc2)OC)[C@H](C)C(=O)N[C@@H](C(=O)O)CCC(=O)N1C
REMARK SMILES IDX 39 1 38 2 37 3 36 4 28 6 27 7 25 8 26 9 23 11 24 12 19 13
REMARK SMILES IDX 18 14 16 15 17 16 11 18 10 19 8 20 9 21 12 24 13 25 14 26
REMARK SMILES IDX 15 27 20 28 21 29 22 30 29 32 30 33 31 34 32 35 33 36 34 37
REMARK SMILES IDX 35 38 57 43 58 44 59 45 60 46 61 47 62 49 66 50 67 51 68 52
REMARK SMILES IDX 69 53 70 54 71 55 2 56 1 57 3 58 4 59 5 60 6 62 7 63 63 65
REMARK SMILES IDX 64 66 65 67 40 69 41 70 42 71 44 72 43 73 45 74 46 75 47 76
REMARK SMILES IDX 55 77 56 78 48 79 49 80 50 81 54 82 51 83 53 84 52 85
REMARK H PARENT 38 5 27 10 18 17 10 22 22 31 34 39 34 40 35 41 35 42 61 48
REMARK H PARENT 5 61 65 68
REMARK Flexibility Score:  369.900
ROOT
ATOM      1  C   UNL     1      -8.052  -1.415  -2.514  1.00  0.00     0.117 C 
ENDROOT
BRANCH   1   2
ATOM      2  N   UNL     1      -7.426  -1.955  -3.721  1.00  0.00    -0.347 N 
ATOM      3  O   UNL     1      -8.912  -1.105  -5.251  1.00  0.00    -0.273 OA
ATOM      4  C   UNL     1      -7.856  -1.680  -5.004  1.00  0.00     0.243 C 
ATOM      5  H   UNL     1      -6.599  -2.526  -3.636  1.00  0.00     0.164 HD
BRANCH   4   6
ATOM      6  C   UNL     1      -6.967  -2.307  -6.108  1.00  0.00     0.171 C 
BRANCH   6   7
ATOM      7  N   UNL     1      -7.783  -2.686  -7.273  1.00  0.00    -0.344 N 
ATOM      8  C   UNL     1      -8.489  -3.869  -7.281  1.00  0.00     0.226 C 
ATOM      9  O   UNL     1      -8.458  -4.663  -6.348  1.00  0.00    -0.275 OA
ATOM     10  H   UNL     1      -7.780  -2.087  -8.089  1.00  0.00     0.164 HD
BRANCH   8  11
ATOM     11  C   UNL     1      -9.325  -4.090  -8.530  1.00  0.00     0.109 C 
ATOM     12  C   UNL     1      -9.860  -2.755  -9.048  1.00  0.00     0.021 C 
BRANCH  11  13
ATOM     13  C   UNL     1      -8.519  -4.908  -9.558  1.00  0.00     0.204 C 
BRANCH  13  14
ATOM     14  N   UNL     1      -7.432  -5.666  -8.931  1.00  0.00    -0.340 N 
ATOM     15  C   UNL     1      -6.101  -5.374  -9.136  1.00  0.00     0.243 C 
ATOM     16  O   UNL     1      -5.731  -4.418  -9.815  1.00  0.00    -0.273 OA
ATOM     17  H   UNL     1      -7.663  -6.557  -8.483  1.00  0.00     0.164 HD
BRANCH  15  18
ATOM     18  C   UNL     1      -5.137  -6.431  -8.542  1.00  0.00     0.171 C 
BRANCH  18  19
ATOM     19  N   UNL     1      -5.149  -7.570  -9.459  1.00  0.00    -0.343 N 
ATOM     20  C   UNL     1      -6.073  -8.590  -9.342  1.00  0.00     0.242 CG0
ATOM     21  O   UNL     1      -6.842  -8.655  -8.386  1.00  0.00    -0.273 OA
ATOM     22  H   UNL     1      -4.457  -7.620 -10.198  1.00  0.00     0.164 HD
ATOM     23  G   UNL     1      -5.979  -9.664 -10.446  1.00  0.00     0.000 G0
ENDBRANCH  18  19
BRANCH  18  24
ATOM     24  C   UNL     1      -3.726  -5.850  -8.386  1.00  0.00     0.038 C 
BRANCH  24  25
ATOM     25  C   UNL     1      -2.600  -6.903  -8.316  1.00  0.00    -0.015 C 
ATOM     26  C   UNL     1      -2.038  -7.251  -9.694  1.00  0.00     0.007 C 
ATOM     27  C   UNL     1      -3.123  -8.172  -7.637  1.00  0.00     0.007 C 
ENDBRANCH  24  25
ENDBRANCH  18  24
ENDBRANCH  15  18
ENDBRANCH  13  14
BRANCH  13  28
ATOM     28  C   UNL     1      -9.377  -5.908 -10.340  1.00  0.00     0.327 C 
ATOM     29  O   UNL     1     -10.010  -6.840  -9.868  1.00  0.00    -0.250 OA
BRANCH  28  30
ATOM     30  O   UNL     1      -9.291  -5.748 -11.676  1.00  0.00    -0.480 OA
ATOM     31  H   UNL     1      -8.402  -6.093 -11.903  1.00  0.00     0.296 HD
ENDBRANCH  28  30
ENDBRANCH  13  28
ENDBRANCH  11  13
ENDBRANCH   8  11
ENDBRANCH   6   7
BRANCH   6  32
ATOM     32  C   UNL     1      -5.877  -1.306  -6.506  1.00  0.00     0.037 C 
BRANCH  32  33
ATOM     33  C   UNL     1      -5.022  -1.814  -7.675  1.00  0.00     0.026 C 
BRANCH  33  34
ATOM     34  C   UNL     1      -3.625  -2.250  -7.233  1.00  0.00     0.146 C 
BRANCH  34  35
ATOM     35  N   UNL     1      -2.647  -1.324  -7.786  1.00  0.00    -0.254 NA
ATOM     36  C   UNL     1      -1.565  -1.110  -7.133  1.00  0.00     0.185 C 
ATOM     37  N   UNL     1      -0.655  -0.262  -7.636  1.00  0.00    -0.370 N 
ATOM     38  N   UNL     1      -1.172  -1.629  -5.957  1.00  0.00    -0.370 N 
ATOM     39  H   UNL     1      -0.874   0.163  -8.528  1.00  0.00     0.159 HD
ATOM     40  H   UNL     1       0.281  -0.175  -7.279  1.00  0.00     0.159 HD
ATOM     41  H   UNL     1      -0.360  -1.276  -5.477  1.00  0.00     0.159 HD
ATOM     42  H   UNL     1      -1.766  -2.271  -5.455  1.00  0.00     0.159 HD
ENDBRANCH  34  35
ENDBRANCH  33  34
ENDBRANCH  32  33
ENDBRANCH   6  32
ENDBRANCH   4   6
ENDBRANCH   1   2
BRANCH   1  43
ATOM     43  C   UNL     1      -7.332  -0.089  -2.134  1.00  0.00     0.102 C 
ATOM     44  C   UNL     1      -6.386  -0.229  -0.929  1.00  0.00     0.020 C 
BRANCH  43  45
ATOM     45  C   UNL     1      -8.333   1.064  -2.006  1.00  0.00     0.225 C 
ATOM     46  O   UNL     1      -8.011   2.245  -2.097  1.00  0.00    -0.275 OA
ATOM     47  N   UNL     1      -9.620   0.698  -1.687  1.00  0.00    -0.342 N 
ATOM     48  H   UNL     1      -9.899  -0.270  -1.766  1.00  0.00     0.164 HD
BRANCH  47  49
ATOM     49  C   UNL     1     -10.692   1.691  -1.568  1.00  0.00     0.192 C 
BRANCH  49  50
ATOM     50  C   UNL     1     -11.265   1.662  -0.149  1.00  0.00     0.047 C 
BRANCH  50  51
ATOM     51  C   UNL     1     -10.187   1.892   0.919  1.00  0.00     0.103 C 
BRANCH  51  52
ATOM     52  C   UNL     1      -9.874   0.618   1.701  1.00  0.00     0.226 C 
ATOM     53  O   UNL     1      -8.971  -0.128   1.317  1.00  0.00    -0.275 OA
BRANCH  52  54
ATOM     54  N   UNL     1     -10.607   0.412   2.885  1.00  0.00    -0.311 N 
ATOM     55  C   UNL     1     -11.593  -0.672   2.985  1.00  0.00     0.153 C 
BRANCH  54  56
ATOM     56  C   UNL     1     -10.421   1.229   4.013  1.00  0.00     0.102 C 
ATOM     57  C   UNL     1      -9.285   1.310   4.724  1.00  0.00     0.043 C 
BRANCH  56  58
ATOM     58  C   UNL     1     -11.520   2.145   4.496  1.00  0.00     0.268 C 
ATOM     59  O   UNL     1     -12.299   2.713   3.742  1.00  0.00    -0.268 OA
ATOM     60  N   UNL     1     -11.597   2.221   5.866  1.00  0.00    -0.339 N 
ATOM     61  H   UNL     1     -10.907   1.728   6.421  1.00  0.00     0.164 HD
BRANCH  60  62
ATOM     62  C   UNL     1     -12.629   3.002   6.547  1.00  0.00     0.168 CG0
ATOM     63  C   UNL     1     -13.797   2.119   6.966  1.00  0.00     0.041 C 
ATOM     64  G   UNL     1     -13.109   4.141   5.623  1.00  0.00     0.000 G0
ENDBRANCH  60  62
ENDBRANCH  56  58
ENDBRANCH  54  56
ENDBRANCH  52  54
ENDBRANCH  51  52
ENDBRANCH  50  51
ENDBRANCH  49  50
BRANCH  49  65
ATOM     65  C   UNL     1     -11.821   1.431  -2.578  1.00  0.00     0.326 C 
ATOM     66  O   UNL     1     -12.183   2.204  -3.453  1.00  0.00    -0.250 OA
BRANCH  65  67
ATOM     67  O   UNL     1     -12.471   0.259  -2.407  1.00  0.00    -0.480 OA
ATOM     68  H   UNL     1     -12.637   0.225  -1.440  1.00  0.00     0.296 HD
ENDBRANCH  65  67
ENDBRANCH  49  65
ENDBRANCH  47  49
ENDBRANCH  43  45
ENDBRANCH   1  43
BRANCH   1  69
ATOM     69  C   UNL     1      -8.079  -2.549  -1.506  1.00  0.00    -0.001 C 
ATOM     70  C   UNL     1      -9.111  -2.930  -0.732  1.00  0.00     0.001 C 
BRANCH  70  71
ATOM     71  C   UNL     1      -9.132  -4.041   0.222  1.00  0.00    -0.055 C 
ATOM     72  C   UNL     1      -8.147  -4.959   0.137  1.00  0.00    -0.018 C 
ATOM     73  C   UNL     1     -10.246  -4.076   1.235  1.00  0.00     0.044 C 
BRANCH  72  74
ATOM     74  C   UNL     1      -7.913  -6.202   0.985  1.00  0.00     0.038 C 
ATOM     75  C   UNL     1      -6.653  -5.948   1.822  1.00  0.00     0.015 C 
BRANCH  74  76
ATOM     76  C   UNL     1      -7.833  -7.441   0.046  1.00  0.00     0.128 C 
BRANCH  76  77
ATOM     77  O   UNL     1      -8.499  -8.561   0.653  1.00  0.00    -0.381 OA
ATOM     78  C   UNL     1      -9.702  -8.214   1.326  1.00  0.00     0.195 C 
ENDBRANCH  76  77
BRANCH  76  79
ATOM     79  C   UNL     1      -8.319  -7.167  -1.400  1.00  0.00     0.068 C 
BRANCH  79  80
ATOM     80  C   UNL     1      -7.325  -7.338  -2.524  1.00  0.00    -0.045 A 
ATOM     81  C   UNL     1      -6.910  -6.242  -3.292  1.00  0.00     0.004 A 
ATOM     82  C   UNL     1      -6.821  -8.610  -2.835  1.00  0.00     0.004 A 
ATOM     83  C   UNL     1      -6.001  -6.411  -4.339  1.00  0.00     0.000 A 
ATOM     84  C   UNL     1      -5.912  -8.777  -3.883  1.00  0.00     0.000 A 
ATOM     85  C   UNL     1      -5.502  -7.678  -4.633  1.00  0.00     0.000 A 
ENDBRANCH  79  80
ENDBRANCH  76  79
ENDBRANCH  74  76
ENDBRANCH  72  74
ENDBRANCH  70  71
ENDBRANCH   1  69
TORSDOF 17
ENDMDL
MODEL 35
REMARK VINA RESULT:    -6.339      5.994     16.199
REMARK INTER + INTRA:         -25.808
REMARK INTER:                 -18.806
REMARK INTRA:                  -7.002
REMARK UNBOUND:                -6.869
REMARK SMILES C=C1C(=O)N[C@H](C)C(=O)N[C@@H](CC(C)C)C(=O)N[C@@H](C(=O)O)[C@H](C)C(=O)N[C@@H](CCCN=C(N)N)C(=O)N[C@@H](/C=C/C(C)=C/[C@H](C)[C@H](Cc2ccccc2)OC)[C@H](C)C(=O)N[C@@H](C(=O)O)CCC(=O)N1C
REMARK SMILES IDX 39 1 38 2 37 3 36 4 28 6 27 7 25 8 26 9 23 11 24 12 19 13
REMARK SMILES IDX 18 14 16 15 17 16 11 18 10 19 8 20 9 21 12 24 13 25 14 26
REMARK SMILES IDX 15 27 20 28 21 29 22 30 29 32 30 33 31 34 32 35 33 36 34 37
REMARK SMILES IDX 35 38 57 43 58 44 59 45 60 46 61 47 62 49 66 50 67 51 68 52
REMARK SMILES IDX 69 53 70 54 71 55 2 56 1 57 3 58 4 59 5 60 6 62 7 63 63 65
REMARK SMILES IDX 64 66 65 67 40 69 41 70 42 71 44 72 43 73 45 74 46 75 47 76
REMARK SMILES IDX 55 77 56 78 48 79 49 80 50 81 54 82 51 83 53 84 52 85
REMARK H PARENT 38 5 27 10 18 17 10 22 22 31 34 39 34 40 35 41 35 42 61 48
REMARK H PARENT 5 61 65 68
REMARK Flexibility Score:  369.900
ROOT
ATOM      1  C   UNL     1     -11.866  -5.750   3.361  1.00  0.00     0.117 C 
ENDROOT
BRANCH   1   2
ATOM      2  N   UNL     1     -11.548  -6.206   2.008  1.00  0.00    -0.347 N 
ATOM      3  O   UNL     1      -9.271  -6.360   2.255  1.00  0.00    -0.273 OA
ATOM      4  C   UNL     1     -10.281  -6.563   1.589  1.00  0.00     0.243 C 
ATOM      5  H   UNL     1     -12.293  -6.321   1.337  1.00  0.00     0.164 HD
BRANCH   4   6
ATOM      6  C   UNL     1     -10.232  -7.094   0.134  1.00  0.00     0.171 C 
BRANCH   6   7
ATOM      7  N   UNL     1      -9.660  -6.079  -0.765  1.00  0.00    -0.344 N 
ATOM      8  C   UNL     1     -10.407  -4.991  -1.163  1.00  0.00     0.226 C 
ATOM      9  O   UNL     1     -11.570  -4.827  -0.816  1.00  0.00    -0.275 OA
ATOM     10  H   UNL     1      -8.724  -6.215  -1.127  1.00  0.00     0.164 HD
BRANCH   8  11
ATOM     11  C   UNL     1      -9.658  -4.007  -2.044  1.00  0.00     0.109 C 
ATOM     12  C   UNL     1      -9.834  -2.585  -1.512  1.00  0.00     0.021 C 
BRANCH  11  13
ATOM     13  C   UNL     1      -8.194  -4.462  -2.207  1.00  0.00     0.204 C 
BRANCH  13  14
ATOM     14  N   UNL     1      -7.665  -4.153  -3.539  1.00  0.00    -0.340 N 
ATOM     15  C   UNL     1      -7.664  -5.064  -4.573  1.00  0.00     0.243 C 
ATOM     16  O   UNL     1      -8.163  -6.183  -4.468  1.00  0.00    -0.273 OA
ATOM     17  H   UNL     1      -7.104  -3.304  -3.648  1.00  0.00     0.164 HD
BRANCH  15  18
ATOM     18  C   UNL     1      -6.870  -4.589  -5.815  1.00  0.00     0.171 C 
BRANCH  18  19
ATOM     19  N   UNL     1      -6.664  -3.151  -5.655  1.00  0.00    -0.343 N 
ATOM     20  C   UNL     1      -6.924  -2.259  -6.678  1.00  0.00     0.242 CG0
ATOM     21  O   UNL     1      -7.212  -2.643  -7.809  1.00  0.00    -0.273 OA
ATOM     22  H   UNL     1      -6.314  -2.794  -4.773  1.00  0.00     0.164 HD
ATOM     23  G   UNL     1      -6.722  -0.778  -6.297  1.00  0.00     0.000 G0
ENDBRANCH  18  19
BRANCH  18  24
ATOM     24  C   UNL     1      -5.537  -5.339  -5.926  1.00  0.00     0.038 C 
BRANCH  24  25
ATOM     25  C   UNL     1      -5.309  -6.052  -7.276  1.00  0.00    -0.015 C 
ATOM     26  C   UNL     1      -6.599  -6.209  -8.080  1.00  0.00     0.007 C 
ATOM     27  C   UNL     1      -4.683  -7.428  -7.032  1.00  0.00     0.007 C 
ENDBRANCH  24  25
ENDBRANCH  18  24
ENDBRANCH  15  18
ENDBRANCH  13  14
BRANCH  13  28
ATOM     28  C   UNL     1      -7.247  -3.826  -1.184  1.00  0.00     0.327 C 
ATOM     29  O   UNL     1      -7.076  -4.193  -0.032  1.00  0.00    -0.250 OA
BRANCH  28  30
ATOM     30  O   UNL     1      -6.663  -2.697  -1.635  1.00  0.00    -0.480 OA
ATOM     31  H   UNL     1      -6.424  -2.903  -2.563  1.00  0.00     0.296 HD
ENDBRANCH  28  30
ENDBRANCH  13  28
ENDBRANCH  11  13
ENDBRANCH   8  11
ENDBRANCH   6   7
BRANCH   6  32
ATOM     32  C   UNL     1      -9.407  -8.385   0.096  1.00  0.00     0.037 C 
BRANCH  32  33
ATOM     33  C   UNL     1      -8.761  -8.621  -1.276  1.00  0.00     0.026 C 
BRANCH  33  34
ATOM     34  C   UNL     1      -7.323  -9.129  -1.166  1.00  0.00     0.146 C 
BRANCH  34  35
ATOM     35  N   UNL     1      -6.937  -9.723  -2.439  1.00  0.00    -0.254 NA
ATOM     36  C   UNL     1      -6.279  -9.010  -3.275  1.00  0.00     0.185 C 
ATOM     37  N   UNL     1      -5.913  -9.548  -4.448  1.00  0.00    -0.370 N 
ATOM     38  N   UNL     1      -5.870  -7.734  -3.159  1.00  0.00    -0.370 N 
ATOM     39  H   UNL     1      -6.175 -10.513  -4.607  1.00  0.00     0.159 HD
ATOM     40  H   UNL     1      -5.254  -9.119  -5.076  1.00  0.00     0.159 HD
ATOM     41  H   UNL     1      -5.481  -7.238  -3.944  1.00  0.00     0.159 HD
ATOM     42  H   UNL     1      -6.090  -7.198  -2.334  1.00  0.00     0.159 HD
ENDBRANCH  34  35
ENDBRANCH  33  34
ENDBRANCH  32  33
ENDBRANCH   6  32
ENDBRANCH   4   6
ENDBRANCH   1   2
BRANCH   1  43
ATOM     43  C   UNL     1     -12.891  -6.737   3.989  1.00  0.00     0.102 C 
ATOM     44  C   UNL     1     -13.458  -6.257   5.336  1.00  0.00     0.020 C 
BRANCH  43  45
ATOM     45  C   UNL     1     -12.332  -8.163   4.023  1.00  0.00     0.225 C 
ATOM     46  O   UNL     1     -12.959  -9.139   3.621  1.00  0.00    -0.275 OA
ATOM     47  N   UNL     1     -11.103  -8.303   4.626  1.00  0.00    -0.342 N 
ATOM     48  H   UNL     1     -10.541  -7.484   4.811  1.00  0.00     0.164 HD
BRANCH  47  49
ATOM     49  C   UNL     1     -10.430  -9.603   4.699  1.00  0.00     0.192 C 
BRANCH  49  50
ATOM     50  C   UNL     1      -9.828  -9.793   6.094  1.00  0.00     0.047 C 
BRANCH  50  51
ATOM     51  C   UNL     1     -10.430  -8.826   7.124  1.00  0.00     0.103 C 
BRANCH  51  52
ATOM     52  C   UNL     1     -11.604  -9.449   7.876  1.00  0.00     0.226 C 
ATOM     53  O   UNL     1     -12.713  -9.501   7.341  1.00  0.00    -0.275 OA
BRANCH  52  54
ATOM     54  N   UNL     1     -11.317 -10.004   9.137  1.00  0.00    -0.311 N 
ATOM     55  C   UNL     1     -10.869 -11.397   9.265  1.00  0.00     0.153 C 
BRANCH  54  56
ATOM     56  C   UNL     1     -11.442  -9.249  10.315  1.00  0.00     0.102 C 
ATOM     57  C   UNL     1     -10.527  -8.378  10.771  1.00  0.00     0.043 C 
BRANCH  56  58
ATOM     58  C   UNL     1     -12.689  -9.338  11.164  1.00  0.00     0.268 C 
ATOM     59  O   UNL     1     -12.664  -9.505  12.376  1.00  0.00    -0.268 OA
ATOM     60  N   UNL     1     -13.845  -9.146  10.446  1.00  0.00    -0.339 N 
ATOM     61  H   UNL     1     -13.781  -9.024   9.442  1.00  0.00     0.164 HD
BRANCH  60  62
ATOM     62  C   UNL     1     -15.163  -9.129  11.081  1.00  0.00     0.168 CG0
ATOM     63  C   UNL     1     -15.964  -7.909  10.645  1.00  0.00     0.041 C 
ATOM     64  G   UNL     1     -14.997  -9.155  12.615  1.00  0.00     0.000 G0
ENDBRANCH  60  62
ENDBRANCH  56  58
ENDBRANCH  54  56
ENDBRANCH  52  54
ENDBRANCH  51  52
ENDBRANCH  50  51
ENDBRANCH  49  50
BRANCH  49  65
ATOM     65  C   UNL     1      -9.319  -9.726   3.645  1.00  0.00     0.326 C 
ATOM     66  O   UNL     1      -8.213  -9.210   3.714  1.00  0.00    -0.250 OA
BRANCH  65  67
ATOM     67  O   UNL     1      -9.663 -10.428   2.542  1.00  0.00    -0.480 OA
ATOM     68  H   UNL     1     -10.257 -11.128   2.890  1.00  0.00     0.296 HD
ENDBRANCH  65  67
ENDBRANCH  49  65
ENDBRANCH  47  49
ENDBRANCH  43  45
ENDBRANCH   1  43
BRANCH   1  69
ATOM     69  C   UNL     1     -12.239  -4.284   3.238  1.00  0.00    -0.001 C 
ATOM     70  C   UNL     1     -13.232  -3.753   2.503  1.00  0.00     0.001 C 
BRANCH  70  71
ATOM     71  C   UNL     1     -13.597  -2.338   2.408  1.00  0.00    -0.055 C 
ATOM     72  C   UNL     1     -13.097  -1.628   1.375  1.00  0.00    -0.018 C 
ATOM     73  C   UNL     1     -14.512  -1.777   3.466  1.00  0.00     0.044 C 
BRANCH  72  74
ATOM     74  C   UNL     1     -13.303  -0.162   1.024  1.00  0.00     0.038 C 
ATOM     75  C   UNL     1     -13.524  -0.086  -0.491  1.00  0.00     0.015 C 
BRANCH  74  76
ATOM     76  C   UNL     1     -12.085   0.655   1.549  1.00  0.00     0.128 C 
BRANCH  76  77
ATOM     77  O   UNL     1     -12.277   0.988   2.934  1.00  0.00    -0.381 OA
ATOM     78  C   UNL     1     -11.253   0.494   3.787  1.00  0.00     0.195 C 
ENDBRANCH  76  77
BRANCH  76  79
ATOM     79  C   UNL     1     -10.715  -0.014   1.277  1.00  0.00     0.068 C 
BRANCH  79  80
ATOM     80  C   UNL     1      -9.722   0.730   0.417  1.00  0.00    -0.045 A 
ATOM     81  C   UNL     1      -8.344   0.621   0.646  1.00  0.00     0.004 A 
ATOM     82  C   UNL     1     -10.170   1.571  -0.613  1.00  0.00     0.004 A 
ATOM     83  C   UNL     1      -7.433   1.325  -0.145  1.00  0.00     0.000 A 
ATOM     84  C   UNL     1      -9.258   2.274  -1.403  1.00  0.00     0.000 A 
ATOM     85  C   UNL     1      -7.890   2.150  -1.170  1.00  0.00     0.000 A 
ENDBRANCH  79  80
ENDBRANCH  76  79
ENDBRANCH  74  76
ENDBRANCH  72  74
ENDBRANCH  70  71
ENDBRANCH   1  69
TORSDOF 17
ENDMDL
MODEL 36
REMARK VINA RESULT:    -6.328      4.820      9.999
REMARK INTER + INTRA:         -25.775
REMARK INTER:                 -17.367
REMARK INTRA:                  -8.409
REMARK UNBOUND:                -6.869
REMARK SMILES C=C1C(=O)N[C@H](C)C(=O)N[C@@H](CC(C)C)C(=O)N[C@@H](C(=O)O)[C@H](C)C(=O)N[C@@H](CCCN=C(N)N)C(=O)N[C@@H](/C=C/C(C)=C/[C@H](C)[C@H](Cc2ccccc2)OC)[C@H](C)C(=O)N[C@@H](C(=O)O)CCC(=O)N1C
REMARK SMILES IDX 39 1 38 2 37 3 36 4 28 6 27 7 25 8 26 9 23 11 24 12 19 13
REMARK SMILES IDX 18 14 16 15 17 16 11 18 10 19 8 20 9 21 12 24 13 25 14 26
REMARK SMILES IDX 15 27 20 28 21 29 22 30 29 32 30 33 31 34 32 35 33 36 34 37
REMARK SMILES IDX 35 38 57 43 58 44 59 45 60 46 61 47 62 49 66 50 67 51 68 52
REMARK SMILES IDX 69 53 70 54 71 55 2 56 1 57 3 58 4 59 5 60 6 62 7 63 63 65
REMARK SMILES IDX 64 66 65 67 40 69 41 70 42 71 44 72 43 73 45 74 46 75 47 76
REMARK SMILES IDX 55 77 56 78 48 79 49 80 50 81 54 82 51 83 53 84 52 85
REMARK H PARENT 38 5 27 10 18 17 10 22 22 31 34 39 34 40 35 41 35 42 61 48
REMARK H PARENT 5 61 65 68
REMARK Flexibility Score:  369.900
ROOT
ATOM      1  C   UNL     1      -1.172  -0.744  -8.145  1.00  0.00     0.117 C 
ENDROOT
BRANCH   1   2
ATOM      2  N   UNL     1      -2.303  -0.980  -9.043  1.00  0.00    -0.347 N 
ATOM      3  O   UNL     1      -2.534  -3.233  -8.670  1.00  0.00    -0.273 OA
ATOM      4  C   UNL     1      -2.954  -2.193  -9.164  1.00  0.00     0.243 C 
ATOM      5  H   UNL     1      -2.678  -0.212  -9.579  1.00  0.00     0.164 HD
BRANCH   4   6
ATOM      6  C   UNL     1      -4.174  -2.152 -10.120  1.00  0.00     0.171 C 
BRANCH   6   7
ATOM      7  N   UNL     1      -5.363  -1.649  -9.414  1.00  0.00    -0.344 N 
ATOM      8  C   UNL     1      -6.466  -2.455  -9.233  1.00  0.00     0.226 C 
ATOM      9  O   UNL     1      -6.524  -3.602  -9.662  1.00  0.00    -0.275 OA
ATOM     10  H   UNL     1      -5.379  -0.685  -9.105  1.00  0.00     0.164 HD
BRANCH   8  11
ATOM     11  C   UNL     1      -7.589  -1.810  -8.440  1.00  0.00     0.109 C 
ATOM     12  C   UNL     1      -8.943  -2.305  -8.947  1.00  0.00     0.021 C 
BRANCH  11  13
ATOM     13  C   UNL     1      -7.347  -2.017  -6.931  1.00  0.00     0.204 C 
BRANCH  13  14
ATOM     14  N   UNL     1      -6.600  -3.249  -6.656  1.00  0.00    -0.340 N 
ATOM     15  C   UNL     1      -7.212  -4.431  -6.300  1.00  0.00     0.243 C 
ATOM     16  O   UNL     1      -8.435  -4.552  -6.248  1.00  0.00    -0.273 OA
ATOM     17  H   UNL     1      -5.586  -3.179  -6.534  1.00  0.00     0.164 HD
BRANCH  15  18
ATOM     18  C   UNL     1      -6.219  -5.533  -5.858  1.00  0.00     0.171 C 
BRANCH  18  19
ATOM     19  N   UNL     1      -6.909  -6.340  -4.853  1.00  0.00    -0.343 N 
ATOM     20  C   UNL     1      -6.301  -6.701  -3.666  1.00  0.00     0.242 CG0
ATOM     21  O   UNL     1      -5.112  -6.475  -3.457  1.00  0.00    -0.273 OA
ATOM     22  H   UNL     1      -7.857  -6.651  -5.031  1.00  0.00     0.164 HD
ATOM     23  G   UNL     1      -7.212  -7.485  -2.698  1.00  0.00     0.000 G0
ENDBRANCH  18  19
BRANCH  18  24
ATOM     24  C   UNL     1      -5.782  -6.382  -7.058  1.00  0.00     0.038 C 
BRANCH  24  25
ATOM     25  C   UNL     1      -4.480  -7.182  -6.842  1.00  0.00    -0.015 C 
ATOM     26  C   UNL     1      -3.403  -6.837  -7.871  1.00  0.00     0.007 C 
ATOM     27  C   UNL     1      -4.782  -8.682  -6.896  1.00  0.00     0.007 C 
ENDBRANCH  24  25
ENDBRANCH  18  24
ENDBRANCH  15  18
ENDBRANCH  13  14
BRANCH  13  28
ATOM     28  C   UNL     1      -6.577  -0.864  -6.280  1.00  0.00     0.327 C 
ATOM     29  O   UNL     1      -5.749  -0.962  -5.387  1.00  0.00    -0.250 OA
BRANCH  28  30
ATOM     30  O   UNL     1      -6.980   0.349  -6.707  1.00  0.00    -0.480 OA
ATOM     31  H   UNL     1      -7.618   0.646  -6.025  1.00  0.00     0.296 HD
ENDBRANCH  28  30
ENDBRANCH  13  28
ENDBRANCH  11  13
ENDBRANCH   8  11
ENDBRANCH   6   7
BRANCH   6  32
ATOM     32  C   UNL     1      -3.839  -1.269 -11.327  1.00  0.00     0.037 C 
BRANCH  32  33
ATOM     33  C   UNL     1      -4.563   0.084 -11.273  1.00  0.00     0.026 C 
BRANCH  33  34
ATOM     34  C   UNL     1      -3.940   1.119 -12.210  1.00  0.00     0.146 C 
BRANCH  34  35
ATOM     35  N   UNL     1      -2.586   0.697 -12.542  1.00  0.00    -0.254 NA
ATOM     36  C   UNL     1      -1.602   1.382 -12.092  1.00  0.00     0.185 C 
ATOM     37  N   UNL     1      -0.350   1.000 -12.387  1.00  0.00    -0.370 N 
ATOM     38  N   UNL     1      -1.622   2.487 -11.326  1.00  0.00    -0.370 N 
ATOM     39  H   UNL     1      -0.251   0.167 -12.954  1.00  0.00     0.159 HD
ATOM     40  H   UNL     1       0.467   1.374 -11.936  1.00  0.00     0.159 HD
ATOM     41  H   UNL     1      -0.783   3.016 -11.152  1.00  0.00     0.159 HD
ATOM     42  H   UNL     1      -2.497   2.897 -11.040  1.00  0.00     0.159 HD
ENDBRANCH  34  35
ENDBRANCH  33  34
ENDBRANCH  32  33
ENDBRANCH   6  32
ENDBRANCH   4   6
ENDBRANCH   1   2
BRANCH   1  43
ATOM     43  C   UNL     1      -1.684   0.034  -6.898  1.00  0.00     0.102 C 
ATOM     44  C   UNL     1      -2.051  -0.878  -5.716  1.00  0.00     0.020 C 
BRANCH  43  45
ATOM     45  C   UNL     1      -2.787   1.025  -7.283  1.00  0.00     0.225 C 
ATOM     46  O   UNL     1      -3.936   0.682  -7.545  1.00  0.00    -0.275 OA
ATOM     47  N   UNL     1      -2.387   2.336  -7.410  1.00  0.00    -0.342 N 
ATOM     48  H   UNL     1      -1.488   2.622  -7.048  1.00  0.00     0.164 HD
BRANCH  47  49
ATOM     49  C   UNL     1      -3.341   3.400  -7.739  1.00  0.00     0.192 C 
BRANCH  49  50
ATOM     50  C   UNL     1      -2.589   4.611  -8.295  1.00  0.00     0.047 C 
BRANCH  50  51
ATOM     51  C   UNL     1      -3.437   5.416  -9.289  1.00  0.00     0.103 C 
BRANCH  51  52
ATOM     52  C   UNL     1      -3.712   6.834  -8.792  1.00  0.00     0.226 C 
ATOM     53  O   UNL     1      -2.796   7.658  -8.759  1.00  0.00    -0.275 OA
BRANCH  52  54
ATOM     54  N   UNL     1      -5.047   7.136  -8.467  1.00  0.00    -0.311 N 
ATOM     55  C   UNL     1      -6.133   6.199  -8.785  1.00  0.00     0.153 C 
BRANCH  54  56
ATOM     56  C   UNL     1      -5.391   8.336  -7.824  1.00  0.00     0.102 C 
ATOM     57  C   UNL     1      -5.538   8.482  -6.497  1.00  0.00     0.043 C 
BRANCH  56  58
ATOM     58  C   UNL     1      -5.583   9.611  -8.612  1.00  0.00     0.268 C 
ATOM     59  O   UNL     1      -6.663   9.961  -9.066  1.00  0.00    -0.268 OA
ATOM     60  N   UNL     1      -4.437  10.364  -8.707  1.00  0.00    -0.339 N 
ATOM     61  H   UNL     1      -3.579   9.998  -8.312  1.00  0.00     0.164 HD
BRANCH  60  62
ATOM     62  C   UNL     1      -4.414  11.665  -9.374  1.00  0.00     0.168 CG0
ATOM     63  C   UNL     1      -3.906  11.538 -10.805  1.00  0.00     0.041 C 
ATOM     64  G   UNL     1      -3.534  12.644  -8.568  1.00  0.00     0.000 G0
ENDBRANCH  60  62
ENDBRANCH  56  58
ENDBRANCH  54  56
ENDBRANCH  52  54
ENDBRANCH  51  52
ENDBRANCH  50  51
ENDBRANCH  49  50
BRANCH  49  65
ATOM     65  C   UNL     1      -4.157   3.828  -6.509  1.00  0.00     0.326 C 
ATOM     66  O   UNL     1      -3.938   4.812  -5.818  1.00  0.00    -0.250 OA
BRANCH  65  67
ATOM     67  O   UNL     1      -5.156   2.982  -6.173  1.00  0.00    -0.480 OA
ATOM     68  H   UNL     1      -5.692   3.499  -5.534  1.00  0.00     0.296 HD
ENDBRANCH  65  67
ENDBRANCH  49  65
ENDBRANCH  47  49
ENDBRANCH  43  45
ENDBRANCH   1  43
BRANCH   1  69
ATOM     69  C   UNL     1      -0.077  -0.127  -8.995  1.00  0.00    -0.001 C 
ATOM     70  C   UNL     1       0.672   0.952  -8.707  1.00  0.00     0.001 C 
BRANCH  70  71
ATOM     71  C   UNL     1       1.741   1.526  -9.526  1.00  0.00    -0.055 C 
ATOM     72  C   UNL     1       1.746   2.864  -9.705  1.00  0.00    -0.018 C 
ATOM     73  C   UNL     1       2.764   0.584 -10.105  1.00  0.00     0.044 C 
BRANCH  72  74
ATOM     74  C   UNL     1       2.721   3.727 -10.493  1.00  0.00     0.038 C 
ATOM     75  C   UNL     1       3.294   4.766  -9.521  1.00  0.00     0.015 C 
BRANCH  74  76
ATOM     76  C   UNL     1       1.979   4.324 -11.724  1.00  0.00     0.128 C 
BRANCH  76  77
ATOM     77  O   UNL     1       1.654   3.279 -12.657  1.00  0.00    -0.381 OA
ATOM     78  C   UNL     1       2.790   2.714 -13.298  1.00  0.00     0.195 C 
ENDBRANCH  76  77
BRANCH  76  79
ATOM     79  C   UNL     1       0.755   5.201 -11.357  1.00  0.00     0.068 C 
BRANCH  79  80
ATOM     80  C   UNL     1       0.786   6.658 -11.750  1.00  0.00    -0.045 A 
ATOM     81  C   UNL     1      -0.384   7.327 -12.136  1.00  0.00     0.004 A 
ATOM     82  C   UNL     1       1.999   7.362 -11.763  1.00  0.00     0.004 A 
ATOM     83  C   UNL     1      -0.345   8.671 -12.512  1.00  0.00     0.000 A 
ATOM     84  C   UNL     1       2.038   8.706 -12.140  1.00  0.00     0.000 A 
ATOM     85  C   UNL     1       0.866   9.361 -12.512  1.00  0.00     0.000 A 
ENDBRANCH  79  80
ENDBRANCH  76  79
ENDBRANCH  74  76
ENDBRANCH  72  74
ENDBRANCH  70  71
ENDBRANCH   1  69
TORSDOF 17
ENDMDL
MODEL 37
REMARK VINA RESULT:    -6.317      5.751     11.404
REMARK INTER + INTRA:         -25.741
REMARK INTER:                 -18.777
REMARK INTRA:                  -6.964
REMARK UNBOUND:                -6.869
REMARK SMILES C=C1C(=O)N[C@H](C)C(=O)N[C@@H](CC(C)C)C(=O)N[C@@H](C(=O)O)[C@H](C)C(=O)N[C@@H](CCCN=C(N)N)C(=O)N[C@@H](/C=C/C(C)=C/[C@H](C)[C@H](Cc2ccccc2)OC)[C@H](C)C(=O)N[C@@H](C(=O)O)CCC(=O)N1C
REMARK SMILES IDX 39 1 38 2 37 3 36 4 28 6 27 7 25 8 26 9 23 11 24 12 19 13
REMARK SMILES IDX 18 14 16 15 17 16 11 18 10 19 8 20 9 21 12 24 13 25 14 26
REMARK SMILES IDX 15 27 20 28 21 29 22 30 29 32 30 33 31 34 32 35 33 36 34 37
REMARK SMILES IDX 35 38 57 43 58 44 59 45 60 46 61 47 62 49 66 50 67 51 68 52
REMARK SMILES IDX 69 53 70 54 71 55 2 56 1 57 3 58 4 59 5 60 6 62 7 63 63 65
REMARK SMILES IDX 64 66 65 67 40 69 41 70 42 71 44 72 43 73 45 74 46 75 47 76
REMARK SMILES IDX 55 77 56 78 48 79 49 80 50 81 54 82 51 83 53 84 52 85
REMARK H PARENT 38 5 27 10 18 17 10 22 22 31 34 39 34 40 35 41 35 42 61 48
REMARK H PARENT 5 61 65 68
REMARK Flexibility Score:  369.900
ROOT
ATOM      1  C   UNL     1      -9.104  -0.798  -0.824  1.00  0.00     0.117 C 
ENDROOT
BRANCH   1   2
ATOM      2  N   UNL     1      -9.298  -1.694   0.317  1.00  0.00    -0.347 N 
ATOM      3  O   UNL     1     -10.063  -3.520  -0.845  1.00  0.00    -0.273 OA
ATOM      4  C   UNL     1      -9.677  -3.018   0.205  1.00  0.00     0.243 C 
ATOM      5  H   UNL     1      -9.102  -1.358   1.248  1.00  0.00     0.164 HD
BRANCH   4   6
ATOM      6  C   UNL     1      -9.727  -3.768   1.560  1.00  0.00     0.171 C 
BRANCH   6   7
ATOM      7  N   UNL     1     -11.118  -3.915   2.016  1.00  0.00    -0.344 N 
ATOM      8  C   UNL     1     -11.452  -3.699   3.336  1.00  0.00     0.226 C 
ATOM      9  O   UNL     1     -10.622  -3.401   4.187  1.00  0.00    -0.275 OA
ATOM     10  H   UNL     1     -11.821  -4.225   1.357  1.00  0.00     0.164 HD
BRANCH   8  11
ATOM     11  C   UNL     1     -12.934  -3.836   3.637  1.00  0.00     0.109 C 
ATOM     12  C   UNL     1     -13.141  -4.705   4.877  1.00  0.00     0.021 C 
BRANCH  11  13
ATOM     13  C   UNL     1     -13.583  -2.439   3.709  1.00  0.00     0.204 C 
BRANCH  13  14
ATOM     14  N   UNL     1     -12.642  -1.417   4.178  1.00  0.00    -0.340 N 
ATOM     15  C   UNL     1     -13.013  -0.383   5.009  1.00  0.00     0.243 C 
ATOM     16  O   UNL     1     -14.150  -0.279   5.467  1.00  0.00    -0.273 OA
ATOM     17  H   UNL     1     -11.729  -1.358   3.719  1.00  0.00     0.164 HD
BRANCH  15  18
ATOM     18  C   UNL     1     -11.908   0.684   5.201  1.00  0.00     0.171 C 
BRANCH  18  19
ATOM     19  N   UNL     1     -11.537   0.653   6.615  1.00  0.00    -0.343 N 
ATOM     20  C   UNL     1     -11.722   1.745   7.441  1.00  0.00     0.242 CG0
ATOM     21  O   UNL     1     -12.083   2.833   6.998  1.00  0.00    -0.273 OA
ATOM     22  H   UNL     1     -11.126  -0.188   7.003  1.00  0.00     0.164 HD
ATOM     23  G   UNL     1     -11.345   1.499   8.916  1.00  0.00     0.000 G0
ENDBRANCH  18  19
BRANCH  18  24
ATOM     24  C   UNL     1     -10.705   0.386   4.298  1.00  0.00     0.038 C 
BRANCH  24  25
ATOM     25  C   UNL     1      -9.770   1.589   4.053  1.00  0.00    -0.015 C 
ATOM     26  C   UNL     1     -10.538   2.884   3.790  1.00  0.00     0.007 C 
ATOM     27  C   UNL     1      -8.846   1.290   2.869  1.00  0.00     0.007 C 
ENDBRANCH  24  25
ENDBRANCH  18  24
ENDBRANCH  15  18
ENDBRANCH  13  14
BRANCH  13  28
ATOM     28  C   UNL     1     -14.138  -1.961   2.363  1.00  0.00     0.327 C 
ATOM     29  O   UNL     1     -13.785  -2.345   1.259  1.00  0.00    -0.250 OA
BRANCH  28  30
ATOM     30  O   UNL     1     -15.018  -0.947   2.485  1.00  0.00    -0.480 OA
ATOM     31  H   UNL     1     -15.806  -1.359   2.897  1.00  0.00     0.296 HD
ENDBRANCH  28  30
ENDBRANCH  13  28
ENDBRANCH  11  13
ENDBRANCH   8  11
ENDBRANCH   6   7
BRANCH   6  32
ATOM     32  C   UNL     1      -9.055  -5.137   1.403  1.00  0.00     0.037 C 
BRANCH  32  33
ATOM     33  C   UNL     1     -10.073  -6.286   1.415  1.00  0.00     0.026 C 
BRANCH  33  34
ATOM     34  C   UNL     1      -9.796  -7.325   0.327  1.00  0.00     0.146 C 
BRANCH  34  35
ATOM     35  N   UNL     1     -10.445  -6.899  -0.905  1.00  0.00    -0.254 NA
ATOM     36  C   UNL     1     -10.161  -7.513  -1.993  1.00  0.00     0.185 C 
ATOM     37  N   UNL     1     -10.757  -7.132  -3.134  1.00  0.00    -0.370 N 
ATOM     38  N   UNL     1      -9.313  -8.538  -2.188  1.00  0.00    -0.370 N 
ATOM     39  H   UNL     1     -11.419  -6.370  -3.067  1.00  0.00     0.159 HD
ATOM     40  H   UNL     1     -10.722  -7.666  -3.985  1.00  0.00     0.159 HD
ATOM     41  H   UNL     1      -9.070  -8.844  -3.116  1.00  0.00     0.159 HD
ATOM     42  H   UNL     1      -8.783  -8.918  -1.419  1.00  0.00     0.159 HD
ENDBRANCH  34  35
ENDBRANCH  33  34
ENDBRANCH  32  33
ENDBRANCH   6  32
ENDBRANCH   4   6
ENDBRANCH   1   2
BRANCH   1  43
ATOM     43  C   UNL     1      -7.613  -0.871  -1.262  1.00  0.00     0.102 C 
ATOM     44  C   UNL     1      -6.832   0.426  -0.991  1.00  0.00     0.020 C 
BRANCH  43  45
ATOM     45  C   UNL     1      -7.486  -1.383  -2.700  1.00  0.00     0.225 C 
ATOM     46  O   UNL     1      -6.686  -0.922  -3.508  1.00  0.00    -0.275 OA
ATOM     47  N   UNL     1      -8.400  -2.344  -3.069  1.00  0.00    -0.342 N 
ATOM     48  H   UNL     1      -8.943  -2.816  -2.360  1.00  0.00     0.164 HD
BRANCH  47  49
ATOM     49  C   UNL     1      -8.376  -2.952  -4.402  1.00  0.00     0.192 C 
BRANCH  49  50
ATOM     50  C   UNL     1      -8.922  -1.958  -5.431  1.00  0.00     0.047 C 
BRANCH  50  51
ATOM     51  C   UNL     1      -8.887  -2.521  -6.859  1.00  0.00     0.103 C 
BRANCH  51  52
ATOM     52  C   UNL     1      -7.466  -2.589  -7.414  1.00  0.00     0.226 C 
ATOM     53  O   UNL     1      -6.644  -3.347  -6.895  1.00  0.00    -0.275 OA
BRANCH  52  54
ATOM     54  N   UNL     1      -7.202  -1.815  -8.559  1.00  0.00    -0.311 N 
ATOM     55  C   UNL     1      -6.208  -0.735  -8.530  1.00  0.00     0.153 C 
BRANCH  54  56
ATOM     56  C   UNL     1      -7.873  -2.049  -9.771  1.00  0.00     0.102 C 
ATOM     57  C   UNL     1      -8.538  -1.118 -10.474  1.00  0.00     0.043 C 
BRANCH  56  58
ATOM     58  C   UNL     1      -7.852  -3.415 -10.417  1.00  0.00     0.268 C 
ATOM     59  O   UNL     1      -6.825  -3.961 -10.796  1.00  0.00    -0.268 OA
ATOM     60  N   UNL     1      -9.093  -4.004 -10.474  1.00  0.00    -0.339 N 
ATOM     61  H   UNL     1      -9.896  -3.481 -10.149  1.00  0.00     0.164 HD
BRANCH  60  62
ATOM     62  C   UNL     1      -9.291  -5.353 -11.005  1.00  0.00     0.168 CG0
ATOM     63  C   UNL     1      -9.278  -6.387  -9.886  1.00  0.00     0.041 C 
ATOM     64  G   UNL     1      -8.198  -5.663 -12.048  1.00  0.00     0.000 G0
ENDBRANCH  60  62
ENDBRANCH  56  58
ENDBRANCH  54  56
ENDBRANCH  52  54
ENDBRANCH  51  52
ENDBRANCH  50  51
ENDBRANCH  49  50
BRANCH  49  65
ATOM     65  C   UNL     1      -9.207  -4.244  -4.451  1.00  0.00     0.326 C 
ATOM     66  O   UNL     1     -10.414  -4.319  -4.276  1.00  0.00    -0.250 OA
BRANCH  65  67
ATOM     67  O   UNL     1      -8.488  -5.370  -4.654  1.00  0.00    -0.480 OA
ATOM     68  H   UNL     1      -7.796  -5.331  -3.959  1.00  0.00     0.296 HD
ENDBRANCH  65  67
ENDBRANCH  49  65
ENDBRANCH  47  49
ENDBRANCH  43  45
ENDBRANCH   1  43
BRANCH   1  69
ATOM     69  C   UNL     1      -9.684   0.543  -0.413  1.00  0.00    -0.001 C 
ATOM     70  C   UNL     1     -10.084   1.541  -1.220  1.00  0.00     0.001 C 
BRANCH  70  71
ATOM     71  C   UNL     1     -10.662   2.824  -0.813  1.00  0.00    -0.055 C 
ATOM     72  C   UNL     1     -10.173   3.943  -1.386  1.00  0.00    -0.018 C 
ATOM     73  C   UNL     1     -11.767   2.802   0.211  1.00  0.00     0.044 C 
BRANCH  72  74
ATOM     74  C   UNL     1     -10.576   5.394  -1.164  1.00  0.00     0.038 C 
ATOM     75  C   UNL     1     -11.187   5.900  -2.477  1.00  0.00     0.015 C 
BRANCH  74  76
ATOM     76  C   UNL     1      -9.330   6.190  -0.674  1.00  0.00     0.128 C 
BRANCH  76  77
ATOM     77  O   UNL     1      -9.509   6.587   0.696  1.00  0.00    -0.381 OA
ATOM     78  C   UNL     1      -8.915   5.696   1.631  1.00  0.00     0.195 C 
ENDBRANCH  76  77
BRANCH  76  79
ATOM     79  C   UNL     1      -7.983   5.464  -0.917  1.00  0.00     0.068 C 
BRANCH  79  80
ATOM     80  C   UNL     1      -7.087   5.985  -2.014  1.00  0.00    -0.045 A 
ATOM     81  C   UNL     1      -7.500   7.031  -2.849  1.00  0.00     0.004 A 
ATOM     82  C   UNL     1      -5.828   5.405  -2.233  1.00  0.00     0.004 A 
ATOM     83  C   UNL     1      -6.671   7.498  -3.870  1.00  0.00     0.000 A 
ATOM     84  C   UNL     1      -4.999   5.873  -3.256  1.00  0.00     0.000 A 
ATOM     85  C   UNL     1      -5.420   6.920  -4.072  1.00  0.00     0.000 A 
ENDBRANCH  79  80
ENDBRANCH  76  79
ENDBRANCH  74  76
ENDBRANCH  72  74
ENDBRANCH  70  71
ENDBRANCH   1  69
TORSDOF 17
ENDMDL
MODEL 38
REMARK VINA RESULT:    -6.306      5.688     11.601
REMARK INTER + INTRA:         -25.710
REMARK INTER:                 -18.288
REMARK INTRA:                  -7.422
REMARK UNBOUND:                -6.869
REMARK SMILES C=C1C(=O)N[C@H](C)C(=O)N[C@@H](CC(C)C)C(=O)N[C@@H](C(=O)O)[C@H](C)C(=O)N[C@@H](CCCN=C(N)N)C(=O)N[C@@H](/C=C/C(C)=C/[C@H](C)[C@H](Cc2ccccc2)OC)[C@H](C)C(=O)N[C@@H](C(=O)O)CCC(=O)N1C
REMARK SMILES IDX 39 1 38 2 37 3 36 4 28 6 27 7 25 8 26 9 23 11 24 12 19 13
REMARK SMILES IDX 18 14 16 15 17 16 11 18 10 19 8 20 9 21 12 24 13 25 14 26
REMARK SMILES IDX 15 27 20 28 21 29 22 30 29 32 30 33 31 34 32 35 33 36 34 37
REMARK SMILES IDX 35 38 57 43 58 44 59 45 60 46 61 47 62 49 66 50 67 51 68 52
REMARK SMILES IDX 69 53 70 54 71 55 2 56 1 57 3 58 4 59 5 60 6 62 7 63 63 65
REMARK SMILES IDX 64 66 65 67 40 69 41 70 42 71 44 72 43 73 45 74 46 75 47 76
REMARK SMILES IDX 55 77 56 78 48 79 49 80 50 81 54 82 51 83 53 84 52 85
REMARK H PARENT 38 5 27 10 18 17 10 22 22 31 34 39 34 40 35 41 35 42 61 48
REMARK H PARENT 5 61 65 68
REMARK Flexibility Score:  369.900
ROOT
ATOM      1  C   UNL     1     -10.886  -1.910  -1.022  1.00  0.00     0.117 C 
ENDROOT
BRANCH   1   2
ATOM      2  N   UNL     1     -11.540  -2.571   0.108  1.00  0.00    -0.347 N 
ATOM      3  O   UNL     1     -11.539  -4.706  -0.735  1.00  0.00    -0.273 OA
ATOM      4  C   UNL     1     -11.732  -3.936   0.199  1.00  0.00     0.243 C 
ATOM      5  H   UNL     1     -11.832  -2.021   0.901  1.00  0.00     0.164 HD
BRANCH   4   6
ATOM      6  C   UNL     1     -12.371  -4.387   1.538  1.00  0.00     0.171 C 
BRANCH   6   7
ATOM      7  N   UNL     1     -11.363  -4.397   2.611  1.00  0.00    -0.344 N 
ATOM      8  C   UNL     1     -11.207  -5.503   3.418  1.00  0.00     0.226 C 
ATOM      9  O   UNL     1     -11.900  -6.507   3.303  1.00  0.00    -0.275 OA
ATOM     10  H   UNL     1     -10.819  -3.561   2.780  1.00  0.00     0.164 HD
BRANCH   8  11
ATOM     11  C   UNL     1     -10.092  -5.378   4.441  1.00  0.00     0.109 C 
ATOM     12  C   UNL     1      -8.886  -4.673   3.820  1.00  0.00     0.021 C 
BRANCH  11  13
ATOM     13  C   UNL     1     -10.634  -4.724   5.727  1.00  0.00     0.204 C 
BRANCH  13  14
ATOM     14  N   UNL     1     -11.656  -5.550   6.378  1.00  0.00    -0.340 N 
ATOM     15  C   UNL     1     -12.865  -5.046   6.806  1.00  0.00     0.243 C 
ATOM     16  O   UNL     1     -13.197  -3.877   6.617  1.00  0.00    -0.273 OA
ATOM     17  H   UNL     1     -11.385  -6.483   6.700  1.00  0.00     0.164 HD
BRANCH  15  18
ATOM     18  C   UNL     1     -13.691  -6.050   7.647  1.00  0.00     0.171 C 
BRANCH  18  19
ATOM     19  N   UNL     1     -12.823  -7.199   7.898  1.00  0.00    -0.343 N 
ATOM     20  C   UNL     1     -13.329  -8.475   8.050  1.00  0.00     0.242 CG0
ATOM     21  O   UNL     1     -14.538  -8.685   8.114  1.00  0.00    -0.273 OA
ATOM     22  H   UNL     1     -11.821  -7.059   7.970  1.00  0.00     0.164 HD
ATOM     23  G   UNL     1     -12.256  -9.569   8.229  1.00  0.00     0.000 G0
ENDBRANCH  18  19
BRANCH  18  24
ATOM     24  C   UNL     1     -14.159  -5.403   8.956  1.00  0.00     0.038 C 
BRANCH  24  25
ATOM     25  C   UNL     1     -15.678  -5.139   9.037  1.00  0.00    -0.015 C 
ATOM     26  C   UNL     1     -16.039  -3.692   8.699  1.00  0.00     0.007 C 
ATOM     27  C   UNL     1     -16.187  -5.483  10.439  1.00  0.00     0.007 C 
ENDBRANCH  24  25
ENDBRANCH  18  24
ENDBRANCH  15  18
ENDBRANCH  13  14
BRANCH  13  28
ATOM     28  C   UNL     1      -9.546  -4.444   6.767  1.00  0.00     0.327 C 
ATOM     29  O   UNL     1      -8.938  -5.279   7.420  1.00  0.00    -0.250 OA
BRANCH  28  30
ATOM     30  O   UNL     1      -9.372  -3.129   7.010  1.00  0.00    -0.480 OA
ATOM     31  H   UNL     1     -10.263  -2.810   7.262  1.00  0.00     0.296 HD
ENDBRANCH  28  30
ENDBRANCH  13  28
ENDBRANCH  11  13
ENDBRANCH   8  11
ENDBRANCH   6   7
BRANCH   6  32
ATOM     32  C   UNL     1     -13.530  -3.447   1.884  1.00  0.00     0.037 C 
BRANCH  32  33
ATOM     33  C   UNL     1     -13.402  -2.865   3.299  1.00  0.00     0.026 C 
BRANCH  33  34
ATOM     34  C   UNL     1     -12.950  -1.404   3.291  1.00  0.00     0.146 C 
BRANCH  34  35
ATOM     35  N   UNL     1     -11.500  -1.360   3.428  1.00  0.00    -0.254 NA
ATOM     36  C   UNL     1     -10.996  -1.260   4.601  1.00  0.00     0.185 C 
ATOM     37  N   UNL     1      -9.662  -1.223   4.739  1.00  0.00    -0.370 N 
ATOM     38  N   UNL     1     -11.626  -1.181   5.787  1.00  0.00    -0.370 N 
ATOM     39  H   UNL     1      -9.116  -1.289   3.889  1.00  0.00     0.159 HD
ATOM     40  H   UNL     1      -9.191  -1.321   5.622  1.00  0.00     0.159 HD
ATOM     41  H   UNL     1     -11.121  -0.964   6.631  1.00  0.00     0.159 HD
ATOM     42  H   UNL     1     -12.633  -1.181   5.834  1.00  0.00     0.159 HD
ENDBRANCH  34  35
ENDBRANCH  33  34
ENDBRANCH  32  33
ENDBRANCH   6  32
ENDBRANCH   4   6
ENDBRANCH   1   2
BRANCH   1  43
ATOM     43  C   UNL     1      -9.350  -1.905  -0.772  1.00  0.00     0.102 C 
ATOM     44  C   UNL     1      -8.760  -0.494  -0.615  1.00  0.00     0.020 C 
BRANCH  43  45
ATOM     45  C   UNL     1      -8.623  -2.772  -1.804  1.00  0.00     0.225 C 
ATOM     46  O   UNL     1      -7.404  -2.757  -1.952  1.00  0.00    -0.275 OA
ATOM     47  N   UNL     1      -9.434  -3.513  -2.633  1.00  0.00    -0.342 N 
ATOM     48  H   UNL     1     -10.410  -3.632  -2.402  1.00  0.00     0.164 HD
BRANCH  47  49
ATOM     49  C   UNL     1      -8.875  -4.416  -3.644  1.00  0.00     0.192 C 
BRANCH  49  50
ATOM     50  C   UNL     1      -9.188  -3.878  -5.042  1.00  0.00     0.047 C 
BRANCH  50  51
ATOM     51  C   UNL     1      -8.051  -3.010  -5.600  1.00  0.00     0.103 C 
BRANCH  51  52
ATOM     52  C   UNL     1      -7.349  -3.675  -6.783  1.00  0.00     0.226 C 
ATOM     53  O   UNL     1      -7.626  -4.838  -7.081  1.00  0.00    -0.275 OA
BRANCH  52  54
ATOM     54  N   UNL     1      -6.464  -2.867  -7.520  1.00  0.00    -0.311 N 
ATOM     55  C   UNL     1      -6.912  -2.163  -8.729  1.00  0.00     0.153 C 
BRANCH  54  56
ATOM     56  C   UNL     1      -5.126  -2.700  -7.128  1.00  0.00     0.102 C 
ATOM     57  C   UNL     1      -4.164  -3.628  -7.261  1.00  0.00     0.043 C 
BRANCH  56  58
ATOM     58  C   UNL     1      -4.647  -1.391  -6.544  1.00  0.00     0.268 C 
ATOM     59  O   UNL     1      -5.145  -0.879  -5.551  1.00  0.00    -0.268 OA
ATOM     60  N   UNL     1      -3.558  -0.872  -7.203  1.00  0.00    -0.339 N 
ATOM     61  H   UNL     1      -3.211  -1.353  -8.025  1.00  0.00     0.164 HD
BRANCH  60  62
ATOM     62  C   UNL     1      -2.895   0.356  -6.766  1.00  0.00     0.168 CG0
ATOM     63  C   UNL     1      -3.207   1.511  -7.709  1.00  0.00     0.041 C 
ATOM     64  G   UNL     1      -1.374   0.119  -6.677  1.00  0.00     0.000 G0
ENDBRANCH  60  62
ENDBRANCH  56  58
ENDBRANCH  54  56
ENDBRANCH  52  54
ENDBRANCH  51  52
ENDBRANCH  50  51
ENDBRANCH  49  50
BRANCH  49  65
ATOM     65  C   UNL     1      -9.441  -5.838  -3.508  1.00  0.00     0.326 C 
ATOM     66  O   UNL     1      -8.782  -6.868  -3.514  1.00  0.00    -0.250 OA
BRANCH  65  67
ATOM     67  O   UNL     1     -10.788  -5.905  -3.434  1.00  0.00    -0.480 OA
ATOM     68  H   UNL     1     -11.075  -5.836  -4.370  1.00  0.00     0.296 HD
ENDBRANCH  65  67
ENDBRANCH  49  65
ENDBRANCH  47  49
ENDBRANCH  43  45
ENDBRANCH   1  43
BRANCH   1  69
ATOM     69  C   UNL     1     -11.603  -0.585  -1.210  1.00  0.00    -0.001 C 
ATOM     70  C   UNL     1     -11.731   0.119  -2.348  1.00  0.00     0.001 C 
BRANCH  70  71
ATOM     71  C   UNL     1     -12.444   1.387  -2.522  1.00  0.00    -0.055 C 
ATOM     72  C   UNL     1     -13.303   1.487  -3.559  1.00  0.00    -0.018 C 
ATOM     73  C   UNL     1     -12.174   2.486  -1.528  1.00  0.00     0.044 C 
BRANCH  72  74
ATOM     74  C   UNL     1     -14.172   2.664  -3.979  1.00  0.00     0.038 C 
ATOM     75  C   UNL     1     -13.264   3.656  -4.716  1.00  0.00     0.015 C 
BRANCH  74  76
ATOM     76  C   UNL     1     -14.880   3.239  -2.718  1.00  0.00     0.128 C 
BRANCH  76  77
ATOM     77  O   UNL     1     -15.004   4.667  -2.832  1.00  0.00    -0.381 OA
ATOM     78  C   UNL     1     -16.315   5.149  -2.573  1.00  0.00     0.195 C 
ENDBRANCH  76  77
BRANCH  76  79
ATOM     79  C   UNL     1     -16.225   2.546  -2.380  1.00  0.00     0.068 C 
BRANCH  79  80
ATOM     80  C   UNL     1     -16.270   1.640  -1.173  1.00  0.00    -0.045 A 
ATOM     81  C   UNL     1     -16.787   2.091   0.048  1.00  0.00     0.004 A 
ATOM     82  C   UNL     1     -15.765   0.334  -1.251  1.00  0.00     0.004 A 
ATOM     83  C   UNL     1     -16.812   1.251   1.164  1.00  0.00     0.000 A 
ATOM     84  C   UNL     1     -15.790  -0.505  -0.134  1.00  0.00     0.000 A 
ATOM     85  C   UNL     1     -16.315  -0.047   1.072  1.00  0.00     0.000 A 
ENDBRANCH  79  80
ENDBRANCH  76  79
ENDBRANCH  74  76
ENDBRANCH  72  74
ENDBRANCH  70  71
ENDBRANCH   1  69
TORSDOF 17
ENDMDL
MODEL 39
REMARK VINA RESULT:    -6.302      5.801     14.004
REMARK INTER + INTRA:         -25.696
REMARK INTER:                 -19.153
REMARK INTRA:                  -6.543
REMARK UNBOUND:                -6.869
REMARK SMILES C=C1C(=O)N[C@H](C)C(=O)N[C@@H](CC(C)C)C(=O)N[C@@H](C(=O)O)[C@H](C)C(=O)N[C@@H](CCCN=C(N)N)C(=O)N[C@@H](/C=C/C(C)=C/[C@H](C)[C@H](Cc2ccccc2)OC)[C@H](C)C(=O)N[C@@H](C(=O)O)CCC(=O)N1C
REMARK SMILES IDX 39 1 38 2 37 3 36 4 28 6 27 7 25 8 26 9 23 11 24 12 19 13
REMARK SMILES IDX 18 14 16 15 17 16 11 18 10 19 8 20 9 21 12 24 13 25 14 26
REMARK SMILES IDX 15 27 20 28 21 29 22 30 29 32 30 33 31 34 32 35 33 36 34 37
REMARK SMILES IDX 35 38 57 43 58 44 59 45 60 46 61 47 62 49 66 50 67 51 68 52
REMARK SMILES IDX 69 53 70 54 71 55 2 56 1 57 3 58 4 59 5 60 6 62 7 63 63 65
REMARK SMILES IDX 64 66 65 67 40 69 41 70 42 71 44 72 43 73 45 74 46 75 47 76
REMARK SMILES IDX 55 77 56 78 48 79 49 80 50 81 54 82 51 83 53 84 52 85
REMARK H PARENT 38 5 27 10 18 17 10 22 22 31 34 39 34 40 35 41 35 42 61 48
REMARK H PARENT 5 61 65 68
REMARK Flexibility Score:  369.900
ROOT
ATOM      1  C   UNL     1      -8.286   0.287   0.120  1.00  0.00     0.117 C 
ENDROOT
BRANCH   1   2
ATOM      2  N   UNL     1      -8.607  -0.767  -0.843  1.00  0.00    -0.347 N 
ATOM      3  O   UNL     1      -6.486  -1.606  -1.107  1.00  0.00    -0.273 OA
ATOM      4  C   UNL     1      -7.692  -1.691  -1.311  1.00  0.00     0.243 C 
ATOM      5  H   UNL     1      -9.558  -0.875  -1.160  1.00  0.00     0.164 HD
BRANCH   4   6
ATOM      6  C   UNL     1      -8.308  -2.754  -2.256  1.00  0.00     0.171 C 
BRANCH   6   7
ATOM      7  N   UNL     1      -8.069  -2.392  -3.662  1.00  0.00    -0.344 N 
ATOM      8  C   UNL     1      -8.961  -1.593  -4.344  1.00  0.00     0.226 C 
ATOM      9  O   UNL     1      -9.991  -1.168  -3.833  1.00  0.00    -0.275 OA
ATOM     10  H   UNL     1      -7.264  -2.779  -4.139  1.00  0.00     0.164 HD
BRANCH   8  11
ATOM     11  C   UNL     1      -8.546  -1.265  -5.767  1.00  0.00     0.109 C 
ATOM     12  C   UNL     1      -7.022  -1.209  -5.871  1.00  0.00     0.021 C 
BRANCH  11  13
ATOM     13  C   UNL     1      -9.227  -2.242  -6.747  1.00  0.00     0.204 C 
BRANCH  13  14
ATOM     14  N   UNL     1      -8.614  -2.206  -8.078  1.00  0.00    -0.340 N 
ATOM     15  C   UNL     1      -9.345  -2.309  -9.242  1.00  0.00     0.243 C 
ATOM     16  O   UNL     1     -10.573  -2.379  -9.247  1.00  0.00    -0.273 OA
ATOM     17  H   UNL     1      -7.597  -2.302  -8.141  1.00  0.00     0.164 HD
BRANCH  15  18
ATOM     18  C   UNL     1      -8.470  -2.456 -10.511  1.00  0.00     0.171 C 
BRANCH  18  19
ATOM     19  N   UNL     1      -7.641  -1.255 -10.589  1.00  0.00    -0.343 N 
ATOM     20  C   UNL     1      -8.149  -0.046 -11.026  1.00  0.00     0.242 CG0
ATOM     21  O   UNL     1      -9.281   0.045 -11.494  1.00  0.00    -0.273 OA
ATOM     22  H   UNL     1      -6.664  -1.306 -10.322  1.00  0.00     0.164 HD
ATOM     23  G   UNL     1      -7.146   1.125 -10.964  1.00  0.00     0.000 G0
ENDBRANCH  18  19
BRANCH  18  24
ATOM     24  C   UNL     1      -7.613  -3.726 -10.434  1.00  0.00     0.038 C 
BRANCH  24  25
ATOM     25  C   UNL     1      -8.365  -4.982  -9.945  1.00  0.00    -0.015 C 
ATOM     26  C   UNL     1      -7.417  -6.099  -9.510  1.00  0.00     0.007 C 
ATOM     27  C   UNL     1      -9.288  -5.493 -11.054  1.00  0.00     0.007 C 
ENDBRANCH  24  25
ENDBRANCH  18  24
ENDBRANCH  15  18
ENDBRANCH  13  14
BRANCH  13  28
ATOM     28  C   UNL     1      -9.192  -3.697  -6.270  1.00  0.00     0.327 C 
ATOM     29  O   UNL     1      -8.204  -4.413  -6.207  1.00  0.00    -0.250 OA
BRANCH  28  30
ATOM     30  O   UNL     1     -10.417  -4.201  -6.016  1.00  0.00    -0.480 OA
ATOM     31  H   UNL     1     -10.767  -3.631  -5.300  1.00  0.00     0.296 HD
ENDBRANCH  28  30
ENDBRANCH  13  28
ENDBRANCH  11  13
ENDBRANCH   8  11
ENDBRANCH   6   7
BRANCH   6  32
ATOM     32  C   UNL     1      -7.704  -4.125  -1.933  1.00  0.00     0.037 C 
BRANCH  32  33
ATOM     33  C   UNL     1      -8.266  -5.233  -2.836  1.00  0.00     0.026 C 
BRANCH  33  34
ATOM     34  C   UNL     1      -8.193  -6.613  -2.182  1.00  0.00     0.146 C 
BRANCH  34  35
ATOM     35  N   UNL     1      -9.314  -6.757  -1.263  1.00  0.00    -0.254 NA
ATOM     36  C   UNL     1     -10.452  -7.111  -1.732  1.00  0.00     0.185 C 
ATOM     37  N   UNL     1     -11.490  -7.251  -0.894  1.00  0.00    -0.370 N 
ATOM     38  N   UNL     1     -10.794  -7.381  -3.005  1.00  0.00    -0.370 N 
ATOM     39  H   UNL     1     -11.310  -7.075   0.086  1.00  0.00     0.159 HD
ATOM     40  H   UNL     1     -12.359  -7.688  -1.152  1.00  0.00     0.159 HD
ATOM     41  H   UNL     1     -11.757  -7.514  -3.268  1.00  0.00     0.159 HD
ATOM     42  H   UNL     1     -10.116  -7.300  -3.746  1.00  0.00     0.159 HD
ENDBRANCH  34  35
ENDBRANCH  33  34
ENDBRANCH  32  33
ENDBRANCH   6  32
ENDBRANCH   4   6
ENDBRANCH   1   2
BRANCH   1  43
ATOM     43  C   UNL     1      -9.426   0.355   1.177  1.00  0.00     0.102 C 
ATOM     44  C   UNL     1      -8.939   0.761   2.578  1.00  0.00     0.020 C 
BRANCH  43  45
ATOM     45  C   UNL     1     -10.271  -0.922   1.158  1.00  0.00     0.225 C 
ATOM     46  O   UNL     1     -11.160  -1.127   0.336  1.00  0.00    -0.275 OA
ATOM     47  N   UNL     1     -10.037  -1.802   2.190  1.00  0.00    -0.342 N 
ATOM     48  H   UNL     1      -9.211  -1.694   2.761  1.00  0.00     0.164 HD
BRANCH  47  49
ATOM     49  C   UNL     1     -10.746  -3.082   2.281  1.00  0.00     0.192 C 
BRANCH  49  50
ATOM     50  C   UNL     1     -10.978  -3.438   3.751  1.00  0.00     0.047 C 
BRANCH  50  51
ATOM     51  C   UNL     1      -9.663  -3.640   4.516  1.00  0.00     0.103 C 
BRANCH  51  52
ATOM     52  C   UNL     1      -9.463  -5.095   4.938  1.00  0.00     0.226 C 
ATOM     53  O   UNL     1     -10.395  -5.894   4.832  1.00  0.00    -0.275 OA
BRANCH  52  54
ATOM     54  N   UNL     1      -8.170  -5.452   5.361  1.00  0.00    -0.311 N 
ATOM     55  C   UNL     1      -7.026  -5.379   4.442  1.00  0.00     0.153 C 
BRANCH  54  56
ATOM     56  C   UNL     1      -7.923  -5.885   6.675  1.00  0.00     0.102 C 
ATOM     57  C   UNL     1      -7.635  -7.149   7.026  1.00  0.00     0.043 C 
BRANCH  56  58
ATOM     58  C   UNL     1      -7.920  -4.907   7.826  1.00  0.00     0.268 C 
ATOM     59  O   UNL     1      -8.919  -4.637   8.478  1.00  0.00    -0.268 OA
ATOM     60  N   UNL     1      -6.671  -4.404   8.104  1.00  0.00    -0.339 N 
ATOM     61  H   UNL     1      -5.895  -4.669   7.509  1.00  0.00     0.164 HD
BRANCH  60  62
ATOM     62  C   UNL     1      -6.431  -3.488   9.218  1.00  0.00     0.168 CG0
ATOM     63  C   UNL     1      -5.325  -4.011  10.127  1.00  0.00     0.041 C 
ATOM     64  G   UNL     1      -7.738  -3.285  10.011  1.00  0.00     0.000 G0
ENDBRANCH  60  62
ENDBRANCH  56  58
ENDBRANCH  54  56
ENDBRANCH  52  54
ENDBRANCH  51  52
ENDBRANCH  50  51
ENDBRANCH  49  50
BRANCH  49  65
ATOM     65  C   UNL     1      -9.961  -4.214   1.601  1.00  0.00     0.326 C 
ATOM     66  O   UNL     1     -10.386  -5.338   1.376  1.00  0.00    -0.250 OA
BRANCH  65  67
ATOM     67  O   UNL     1      -8.680  -3.909   1.296  1.00  0.00    -0.480 OA
ATOM     68  H   UNL     1      -8.314  -4.755   0.960  1.00  0.00     0.296 HD
ENDBRANCH  65  67
ENDBRANCH  49  65
ENDBRANCH  47  49
ENDBRANCH  43  45
ENDBRANCH   1  43
BRANCH   1  69
ATOM     69  C   UNL     1      -7.968   1.525  -0.697  1.00  0.00    -0.001 C 
ATOM     70  C   UNL     1      -8.070   1.673  -2.030  1.00  0.00     0.001 C 
BRANCH  70  71
ATOM     71  C   UNL     1      -7.780   2.881  -2.805  1.00  0.00    -0.055 C 
ATOM     72  C   UNL     1      -7.212   3.921  -2.159  1.00  0.00    -0.018 C 
ATOM     73  C   UNL     1      -8.129   2.875  -4.271  1.00  0.00     0.044 C 
BRANCH  72  74
ATOM     74  C   UNL     1      -6.800   5.282  -2.700  1.00  0.00     0.038 C 
ATOM     75  C   UNL     1      -5.306   5.455  -2.402  1.00  0.00     0.015 C 
BRANCH  74  76
ATOM     76  C   UNL     1      -7.721   6.370  -2.072  1.00  0.00     0.128 C 
BRANCH  76  77
ATOM     77  O   UNL     1      -7.665   7.573  -2.856  1.00  0.00    -0.381 OA
ATOM     78  C   UNL     1      -7.955   7.372  -4.233  1.00  0.00     0.195 C 
ENDBRANCH  76  77
BRANCH  76  79
ATOM     79  C   UNL     1      -9.172   5.892  -1.810  1.00  0.00     0.068 C 
BRANCH  79  80
ATOM     80  C   UNL     1      -9.495   5.325  -0.449  1.00  0.00    -0.045 A 
ATOM     81  C   UNL     1     -10.399   4.264  -0.305  1.00  0.00     0.004 A 
ATOM     82  C   UNL     1      -8.911   5.875   0.703  1.00  0.00     0.004 A 
ATOM     83  C   UNL     1     -10.703   3.755   0.959  1.00  0.00     0.000 A 
ATOM     84  C   UNL     1      -9.217   5.365   1.966  1.00  0.00     0.000 A 
ATOM     85  C   UNL     1     -10.111   4.304   2.094  1.00  0.00     0.000 A 
ENDBRANCH  79  80
ENDBRANCH  76  79
ENDBRANCH  74  76
ENDBRANCH  72  74
ENDBRANCH  70  71
ENDBRANCH   1  69
TORSDOF 17
ENDMDL
MODEL 40
REMARK VINA RESULT:    -6.300      4.460      8.783
REMARK INTER + INTRA:         -25.691
REMARK INTER:                 -17.698
REMARK INTRA:                  -7.994
REMARK UNBOUND:                -6.869
REMARK SMILES C=C1C(=O)N[C@H](C)C(=O)N[C@@H](CC(C)C)C(=O)N[C@@H](C(=O)O)[C@H](C)C(=O)N[C@@H](CCCN=C(N)N)C(=O)N[C@@H](/C=C/C(C)=C/[C@H](C)[C@H](Cc2ccccc2)OC)[C@H](C)C(=O)N[C@@H](C(=O)O)CCC(=O)N1C
REMARK SMILES IDX 39 1 38 2 37 3 36 4 28 6 27 7 25 8 26 9 23 11 24 12 19 13
REMARK SMILES IDX 18 14 16 15 17 16 11 18 10 19 8 20 9 21 12 24 13 25 14 26
REMARK SMILES IDX 15 27 20 28 21 29 22 30 29 32 30 33 31 34 32 35 33 36 34 37
REMARK SMILES IDX 35 38 57 43 58 44 59 45 60 46 61 47 62 49 66 50 67 51 68 52
REMARK SMILES IDX 69 53 70 54 71 55 2 56 1 57 3 58 4 59 5 60 6 62 7 63 63 65
REMARK SMILES IDX 64 66 65 67 40 69 41 70 42 71 44 72 43 73 45 74 46 75 47 76
REMARK SMILES IDX 55 77 56 78 48 79 49 80 50 81 54 82 51 83 53 84 52 85
REMARK H PARENT 38 5 27 10 18 17 10 22 22 31 34 39 34 40 35 41 35 42 61 48
REMARK H PARENT 5 61 65 68
REMARK Flexibility Score:  369.900
ROOT
ATOM      1  C   UNL     1      -8.295  -1.752  -4.048  1.00  0.00     0.117 C 
ENDROOT
BRANCH   1   2
ATOM      2  N   UNL     1      -7.735  -2.957  -3.437  1.00  0.00    -0.347 N 
ATOM      3  O   UNL     1      -9.183  -4.479  -4.364  1.00  0.00    -0.273 OA
ATOM      4  C   UNL     1      -8.168  -4.239  -3.717  1.00  0.00     0.243 C 
ATOM      5  H   UNL     1      -6.951  -2.874  -2.807  1.00  0.00     0.164 HD
BRANCH   4   6
ATOM      6  C   UNL     1      -7.350  -5.344  -3.002  1.00  0.00     0.171 C 
BRANCH   6   7
ATOM      7  N   UNL     1      -8.220  -6.474  -2.638  1.00  0.00    -0.344 N 
ATOM      8  C   UNL     1      -8.331  -6.881  -1.326  1.00  0.00     0.226 C 
ATOM      9  O   UNL     1      -7.708  -6.350  -0.415  1.00  0.00    -0.275 OA
ATOM     10  H   UNL     1      -8.699  -6.981  -3.372  1.00  0.00     0.164 HD
BRANCH   8  11
ATOM     11  C   UNL     1      -9.308  -8.023  -1.106  1.00  0.00     0.109 C 
ATOM     12  C   UNL     1      -8.681  -9.084  -0.202  1.00  0.00     0.021 C 
BRANCH  11  13
ATOM     13  C   UNL     1     -10.658  -7.466  -0.613  1.00  0.00     0.204 C 
BRANCH  13  14
ATOM     14  N   UNL     1     -10.486  -6.399   0.378  1.00  0.00    -0.340 N 
ATOM     15  C   UNL     1     -10.682  -6.593   1.728  1.00  0.00     0.243 C 
ATOM     16  O   UNL     1     -10.956  -7.694   2.204  1.00  0.00    -0.273 OA
ATOM     17  H   UNL     1     -10.410  -5.437   0.039  1.00  0.00     0.164 HD
BRANCH  15  18
ATOM     18  C   UNL     1     -10.648  -5.283   2.553  1.00  0.00     0.171 C 
BRANCH  18  19
ATOM     19  N   UNL     1      -9.240  -4.987   2.810  1.00  0.00    -0.343 N 
ATOM     20  C   UNL     1      -8.789  -4.629   4.066  1.00  0.00     0.242 CG0
ATOM     21  O   UNL     1      -9.567  -4.414   4.992  1.00  0.00    -0.273 OA
ATOM     22  H   UNL     1      -8.574  -5.038   2.048  1.00  0.00     0.164 HD
ATOM     23  G   UNL     1      -7.262  -4.432   4.161  1.00  0.00     0.000 G0
ENDBRANCH  18  19
BRANCH  18  24
ATOM     24  C   UNL     1     -11.332  -4.144   1.787  1.00  0.00     0.038 C 
BRANCH  24  25
ATOM     25  C   UNL     1     -12.871  -4.234   1.736  1.00  0.00    -0.015 C 
ATOM     26  C   UNL     1     -13.412  -4.215   0.306  1.00  0.00     0.007 C 
ATOM     27  C   UNL     1     -13.482  -3.078   2.533  1.00  0.00     0.007 C 
ENDBRANCH  24  25
ENDBRANCH  18  24
ENDBRANCH  15  18
ENDBRANCH  13  14
BRANCH  13  28
ATOM     28  C   UNL     1     -11.527  -6.902  -1.741  1.00  0.00     0.327 C 
ATOM     29  O   UNL     1     -11.166  -6.126  -2.613  1.00  0.00    -0.250 OA
BRANCH  28  30
ATOM     30  O   UNL     1     -12.825  -7.254  -1.636  1.00  0.00    -0.480 OA
ATOM     31  H   UNL     1     -13.315  -6.429  -1.834  1.00  0.00     0.296 HD
ENDBRANCH  28  30
ENDBRANCH  13  28
ENDBRANCH  11  13
ENDBRANCH   8  11
ENDBRANCH   6   7
BRANCH   6  32
ATOM     32  C   UNL     1      -6.213  -5.803  -3.921  1.00  0.00     0.037 C 
BRANCH  32  33
ATOM     33  C   UNL     1      -6.701  -6.769  -5.009  1.00  0.00     0.026 C 
BRANCH  33  34
ATOM     34  C   UNL     1      -5.565  -7.264  -5.905  1.00  0.00     0.146 C 
BRANCH  34  35
ATOM     35  N   UNL     1      -6.065  -7.402  -7.266  1.00  0.00    -0.254 NA
ATOM     36  C   UNL     1      -5.755  -6.507  -8.128  1.00  0.00     0.185 C 
ATOM     37  N   UNL     1      -6.207  -6.627  -9.386  1.00  0.00    -0.370 N 
ATOM     38  N   UNL     1      -5.005  -5.402  -7.967  1.00  0.00    -0.370 N 
ATOM     39  H   UNL     1      -6.772  -7.441  -9.590  1.00  0.00     0.159 HD
ATOM     40  H   UNL     1      -5.870  -6.070 -10.153  1.00  0.00     0.159 HD
ATOM     41  H   UNL     1      -4.949  -4.701  -8.688  1.00  0.00     0.159 HD
ATOM     42  H   UNL     1      -4.612  -5.176  -7.066  1.00  0.00     0.159 HD
ENDBRANCH  34  35
ENDBRANCH  33  34
ENDBRANCH  32  33
ENDBRANCH   6  32
ENDBRANCH   4   6
ENDBRANCH   1   2
BRANCH   1  43
ATOM     43  C   UNL     1      -7.301  -1.237  -5.130  1.00  0.00     0.102 C 
ATOM     44  C   UNL     1      -7.682   0.136  -5.707  1.00  0.00     0.020 C 
BRANCH  43  45
ATOM     45  C   UNL     1      -7.044  -2.309  -6.194  1.00  0.00     0.225 C 
ATOM     46  O   UNL     1      -6.057  -3.039  -6.185  1.00  0.00    -0.275 OA
ATOM     47  N   UNL     1      -7.949  -2.345  -7.229  1.00  0.00    -0.342 N 
ATOM     48  H   UNL     1      -8.826  -1.850  -7.145  1.00  0.00     0.164 HD
BRANCH  47  49
ATOM     49  C   UNL     1      -7.849  -3.341  -8.300  1.00  0.00     0.192 C 
BRANCH  49  50
ATOM     50  C   UNL     1      -8.030  -2.657  -9.658  1.00  0.00     0.047 C 
BRANCH  50  51
ATOM     51  C   UNL     1      -7.600  -1.184  -9.630  1.00  0.00     0.103 C 
BRANCH  51  52
ATOM     52  C   UNL     1      -6.386  -0.925 -10.520  1.00  0.00     0.226 C 
ATOM     53  O   UNL     1      -5.714  -1.874 -10.928  1.00  0.00    -0.275 OA
BRANCH  52  54
ATOM     54  N   UNL     1      -6.154   0.414 -10.888  1.00  0.00    -0.311 N 
ATOM     55  C   UNL     1      -5.296   1.284 -10.073  1.00  0.00     0.153 C 
BRANCH  54  56
ATOM     56  C   UNL     1      -6.725   0.965 -12.047  1.00  0.00     0.102 C 
ATOM     57  C   UNL     1      -7.980   1.435 -12.136  1.00  0.00     0.043 C 
BRANCH  56  58
ATOM     58  C   UNL     1      -5.917   1.114 -13.315  1.00  0.00     0.268 C 
ATOM     59  O   UNL     1      -5.163   0.246 -13.733  1.00  0.00    -0.268 OA
ATOM     60  N   UNL     1      -6.166   2.291 -13.979  1.00  0.00    -0.339 N 
ATOM     61  H   UNL     1      -6.798   2.963 -13.560  1.00  0.00     0.164 HD
BRANCH  60  62
ATOM     62  C   UNL     1      -5.538   2.610 -15.260  1.00  0.00     0.168 CG0
ATOM     63  C   UNL     1      -4.213   3.333 -15.054  1.00  0.00     0.041 C 
ATOM     64  G   UNL     1      -6.501   3.466 -16.109  1.00  0.00     0.000 G0
ENDBRANCH  60  62
ENDBRANCH  56  58
ENDBRANCH  54  56
ENDBRANCH  52  54
ENDBRANCH  51  52
ENDBRANCH  50  51
ENDBRANCH  49  50
BRANCH  49  65
ATOM     65  C   UNL     1      -8.901  -4.449  -8.144  1.00  0.00     0.326 C 
ATOM     66  O   UNL     1      -9.020  -5.425  -8.871  1.00  0.00    -0.250 OA
BRANCH  65  67
ATOM     67  O   UNL     1      -9.780  -4.254  -7.136  1.00  0.00    -0.480 OA
ATOM     68  H   UNL     1      -9.582  -4.985  -6.512  1.00  0.00     0.296 HD
ENDBRANCH  65  67
ENDBRANCH  49  65
ENDBRANCH  47  49
ENDBRANCH  43  45
ENDBRANCH   1  43
BRANCH   1  69
ATOM     69  C   UNL     1      -8.672  -0.831  -2.902  1.00  0.00    -0.001 C 
ATOM     70  C   UNL     1      -7.841  -0.134  -2.106  1.00  0.00     0.001 C 
BRANCH  70  71
ATOM     71  C   UNL     1      -8.218   0.768  -1.016  1.00  0.00    -0.055 C 
ATOM     72  C   UNL     1      -9.128   0.327  -0.123  1.00  0.00    -0.018 C 
ATOM     73  C   UNL     1      -7.556   2.121  -0.964  1.00  0.00     0.044 C 
BRANCH  72  74
ATOM     74  C   UNL     1      -9.701   1.034   1.097  1.00  0.00     0.038 C 
ATOM     75  C   UNL     1      -8.624   0.996   2.189  1.00  0.00     0.015 C 
BRANCH  74  76
ATOM     76  C   UNL     1     -11.047   0.354   1.484  1.00  0.00     0.128 C 
BRANCH  76  77
ATOM     77  O   UNL     1     -12.009   1.352   1.868  1.00  0.00    -0.381 OA
ATOM     78  C   UNL     1     -12.577   1.134   3.152  1.00  0.00     0.195 C 
ENDBRANCH  76  77
BRANCH  76  79
ATOM     79  C   UNL     1     -11.591  -0.621   0.410  1.00  0.00     0.068 C 
BRANCH  79  80
ATOM     80  C   UNL     1     -12.764  -0.170  -0.426  1.00  0.00    -0.045 A 
ATOM     81  C   UNL     1     -14.074  -0.539  -0.091  1.00  0.00     0.004 A 
ATOM     82  C   UNL     1     -12.556   0.609  -1.574  1.00  0.00     0.004 A 
ATOM     83  C   UNL     1     -15.153  -0.129  -0.877  1.00  0.00     0.000 A 
ATOM     84  C   UNL     1     -13.636   1.018  -2.361  1.00  0.00     0.000 A 
ATOM     85  C   UNL     1     -14.933   0.650  -2.011  1.00  0.00     0.000 A 
ENDBRANCH  79  80
ENDBRANCH  76  79
ENDBRANCH  74  76
ENDBRANCH  72  74
ENDBRANCH  70  71
ENDBRANCH   1  69
TORSDOF 17
ENDMDL
MODEL 41
REMARK VINA RESULT:    -6.298      4.342     11.633
REMARK INTER + INTRA:         -25.684
REMARK INTER:                 -19.370
REMARK INTRA:                  -6.314
REMARK UNBOUND:                -6.869
REMARK SMILES C=C1C(=O)N[C@H](C)C(=O)N[C@@H](CC(C)C)C(=O)N[C@@H](C(=O)O)[C@H](C)C(=O)N[C@@H](CCCN=C(N)N)C(=O)N[C@@H](/C=C/C(C)=C/[C@H](C)[C@H](Cc2ccccc2)OC)[C@H](C)C(=O)N[C@@H](C(=O)O)CCC(=O)N1C
REMARK SMILES IDX 39 1 38 2 37 3 36 4 28 6 27 7 25 8 26 9 23 11 24 12 19 13
REMARK SMILES IDX 18 14 16 15 17 16 11 18 10 19 8 20 9 21 12 24 13 25 14 26
REMARK SMILES IDX 15 27 20 28 21 29 22 30 29 32 30 33 31 34 32 35 33 36 34 37
REMARK SMILES IDX 35 38 57 43 58 44 59 45 60 46 61 47 62 49 66 50 67 51 68 52
REMARK SMILES IDX 69 53 70 54 71 55 2 56 1 57 3 58 4 59 5 60 6 62 7 63 63 65
REMARK SMILES IDX 64 66 65 67 40 69 41 70 42 71 44 72 43 73 45 74 46 75 47 76
REMARK SMILES IDX 55 77 56 78 48 79 49 80 50 81 54 82 51 83 53 84 52 85
REMARK H PARENT 38 5 27 10 18 17 10 22 22 31 34 39 34 40 35 41 35 42 61 48
REMARK H PARENT 5 61 65 68
REMARK Flexibility Score:  369.900
ROOT
ATOM      1  C   UNL     1      -8.217  -1.024  -2.771  1.00  0.00     0.117 C 
ENDROOT
BRANCH   1   2
ATOM      2  N   UNL     1      -7.570  -1.717  -3.885  1.00  0.00    -0.347 N 
ATOM      3  O   UNL     1      -8.672  -0.655  -5.596  1.00  0.00    -0.273 OA
ATOM      4  C   UNL     1      -7.785  -1.411  -5.215  1.00  0.00     0.243 C 
ATOM      5  H   UNL     1      -6.886  -2.433  -3.692  1.00  0.00     0.164 HD
BRANCH   4   6
ATOM      6  C   UNL     1      -6.911  -2.236  -6.194  1.00  0.00     0.171 C 
BRANCH   6   7
ATOM      7  N   UNL     1      -7.698  -2.643  -7.369  1.00  0.00    -0.344 N 
ATOM      8  C   UNL     1      -8.449  -3.799  -7.345  1.00  0.00     0.226 C 
ATOM      9  O   UNL     1      -8.483  -4.545  -6.374  1.00  0.00    -0.275 OA
ATOM     10  H   UNL     1      -7.642  -2.088  -8.213  1.00  0.00     0.164 HD
BRANCH   8  11
ATOM     11  C   UNL     1      -9.247  -4.052  -8.613  1.00  0.00     0.109 C 
ATOM     12  C   UNL     1      -9.681  -2.724  -9.234  1.00  0.00     0.021 C 
BRANCH  11  13
ATOM     13  C   UNL     1      -8.451  -4.978  -9.554  1.00  0.00     0.204 C 
BRANCH  13  14
ATOM     14  N   UNL     1      -7.464  -5.785  -8.828  1.00  0.00    -0.340 N 
ATOM     15  C   UNL     1      -6.104  -5.608  -8.969  1.00  0.00     0.243 C 
ATOM     16  O   UNL     1      -5.623  -4.719  -9.668  1.00  0.00    -0.273 OA
ATOM     17  H   UNL     1      -7.790  -6.631  -8.354  1.00  0.00     0.164 HD
BRANCH  15  18
ATOM     18  C   UNL     1      -5.263  -6.705  -8.271  1.00  0.00     0.171 C 
BRANCH  18  19
ATOM     19  N   UNL     1      -3.930  -6.142  -8.066  1.00  0.00    -0.343 N 
ATOM     20  C   UNL     1      -2.793  -6.770  -8.539  1.00  0.00     0.242 CG0
ATOM     21  O   UNL     1      -2.838  -7.893  -9.036  1.00  0.00    -0.273 OA
ATOM     22  H   UNL     1      -3.830  -5.271  -7.558  1.00  0.00     0.164 HD
ATOM     23  G   UNL     1      -1.486  -5.988  -8.297  1.00  0.00     0.000 G0
ENDBRANCH  18  19
BRANCH  18  24
ATOM     24  C   UNL     1      -5.908  -7.119  -6.943  1.00  0.00     0.038 C 
BRANCH  24  25
ATOM     25  C   UNL     1      -5.163  -8.239  -6.186  1.00  0.00    -0.015 C 
ATOM     26  C   UNL     1      -5.244  -9.586  -6.904  1.00  0.00     0.007 C 
ATOM     27  C   UNL     1      -5.734  -8.373  -4.772  1.00  0.00     0.007 C 
ENDBRANCH  24  25
ENDBRANCH  18  24
ENDBRANCH  15  18
ENDBRANCH  13  14
BRANCH  13  28
ATOM     28  C   UNL     1      -9.339  -5.947 -10.340  1.00  0.00     0.327 C 
ATOM     29  O   UNL     1      -9.977  -6.880  -9.878  1.00  0.00    -0.250 OA
BRANCH  28  30
ATOM     30  O   UNL     1      -9.277  -5.756 -11.674  1.00  0.00    -0.480 OA
ATOM     31  H   UNL     1      -9.208  -4.785 -11.776  1.00  0.00     0.296 HD
ENDBRANCH  28  30
ENDBRANCH  13  28
ENDBRANCH  11  13
ENDBRANCH   8  11
ENDBRANCH   6   7
BRANCH   6  32
ATOM     32  C   UNL     1      -5.696  -1.400  -6.612  1.00  0.00     0.037 C 
BRANCH  32  33
ATOM     33  C   UNL     1      -4.904  -2.057  -7.750  1.00  0.00     0.026 C 
BRANCH  33  34
ATOM     34  C   UNL     1      -3.452  -2.343  -7.364  1.00  0.00     0.146 C 
BRANCH  34  35
ATOM     35  N   UNL     1      -2.643  -1.175  -7.683  1.00  0.00    -0.254 NA
ATOM     36  C   UNL     1      -1.601  -0.938  -6.976  1.00  0.00     0.185 C 
ATOM     37  N   UNL     1      -0.845   0.132  -7.264  1.00  0.00    -0.370 N 
ATOM     38  N   UNL     1      -1.114  -1.631  -5.931  1.00  0.00    -0.370 N 
ATOM     39  H   UNL     1      -1.142   0.700  -8.048  1.00  0.00     0.159 HD
ATOM     40  H   UNL     1       0.069   0.288  -6.876  1.00  0.00     0.159 HD
ATOM     41  H   UNL     1      -0.363  -1.265  -5.369  1.00  0.00     0.159 HD
ATOM     42  H   UNL     1      -1.591  -2.452  -5.593  1.00  0.00     0.159 HD
ENDBRANCH  34  35
ENDBRANCH  33  34
ENDBRANCH  32  33
ENDBRANCH   6  32
ENDBRANCH   4   6
ENDBRANCH   1   2
BRANCH   1  43
ATOM     43  C   UNL     1      -7.201  -0.017  -2.158  1.00  0.00     0.102 C 
ATOM     44  C   UNL     1      -6.600  -0.491  -0.823  1.00  0.00     0.020 C 
BRANCH  43  45
ATOM     45  C   UNL     1      -7.789   1.396  -2.107  1.00  0.00     0.225 C 
ATOM     46  O   UNL     1      -7.098   2.408  -2.043  1.00  0.00    -0.275 OA
ATOM     47  N   UNL     1      -9.162   1.464  -2.044  1.00  0.00    -0.342 N 
ATOM     48  H   UNL     1      -9.714   0.643  -2.250  1.00  0.00     0.164 HD
BRANCH  47  49
ATOM     49  C   UNL     1      -9.865   2.751  -2.028  1.00  0.00     0.192 C 
BRANCH  49  50
ATOM     50  C   UNL     1     -10.680   2.875  -0.737  1.00  0.00     0.047 C 
BRANCH  50  51
ATOM     51  C   UNL     1      -9.788   2.939   0.510  1.00  0.00     0.103 C 
BRANCH  51  52
ATOM     52  C   UNL     1      -9.936   1.697   1.386  1.00  0.00     0.226 C 
ATOM     53  O   UNL     1      -9.336   0.663   1.086  1.00  0.00    -0.275 OA
BRANCH  52  54
ATOM     54  N   UNL     1     -10.712   1.841   2.552  1.00  0.00    -0.311 N 
ATOM     55  C   UNL     1     -12.158   1.583   2.534  1.00  0.00     0.153 C 
BRANCH  54  56
ATOM     56  C   UNL     1     -10.134   2.229   3.772  1.00  0.00     0.102 C 
ATOM     57  C   UNL     1      -9.462   1.411   4.598  1.00  0.00     0.043 C 
BRANCH  56  58
ATOM     58  C   UNL     1     -10.194   3.665   4.236  1.00  0.00     0.268 C 
ATOM     59  O   UNL     1     -10.108   4.619   3.474  1.00  0.00    -0.268 OA
ATOM     60  N   UNL     1     -10.421   3.787   5.586  1.00  0.00    -0.339 N 
ATOM     61  H   UNL     1     -10.470   2.947   6.150  1.00  0.00     0.164 HD
BRANCH  60  62
ATOM     62  C   UNL     1     -10.577   5.089   6.235  1.00  0.00     0.168 CG0
ATOM     63  C   UNL     1     -12.035   5.529   6.235  1.00  0.00     0.041 C 
ATOM     64  G   UNL     1      -9.692   6.131   5.521  1.00  0.00     0.000 G0
ENDBRANCH  60  62
ENDBRANCH  56  58
ENDBRANCH  54  56
ENDBRANCH  52  54
ENDBRANCH  51  52
ENDBRANCH  50  51
ENDBRANCH  49  50
BRANCH  49  65
ATOM     65  C   UNL     1     -10.802   2.900  -3.237  1.00  0.00     0.326 C 
ATOM     66  O   UNL     1     -10.544   3.511  -4.264  1.00  0.00    -0.250 OA
BRANCH  65  67
ATOM     67  O   UNL     1     -12.021   2.339  -3.079  1.00  0.00    -0.480 OA
ATOM     68  H   UNL     1     -12.296   2.632  -2.184  1.00  0.00     0.296 HD
ENDBRANCH  65  67
ENDBRANCH  49  65
ENDBRANCH  47  49
ENDBRANCH  43  45
ENDBRANCH   1  43
BRANCH   1  69
ATOM     69  C   UNL     1      -8.805  -2.105  -1.883  1.00  0.00    -0.001 C 
ATOM     70  C   UNL     1      -8.376  -3.372  -1.745  1.00  0.00     0.001 C 
BRANCH  70  71
ATOM     71  C   UNL     1      -8.939  -4.401  -0.869  1.00  0.00    -0.055 C 
ATOM     72  C   UNL     1      -8.486  -4.460   0.402  1.00  0.00    -0.018 C 
ATOM     73  C   UNL     1      -9.989  -5.316  -1.443  1.00  0.00     0.044 C 
BRANCH  72  74
ATOM     74  C   UNL     1      -8.885  -5.408   1.523  1.00  0.00     0.038 C 
ATOM     75  C   UNL     1      -9.945  -4.691   2.367  1.00  0.00     0.015 C 
BRANCH  74  76
ATOM     76  C   UNL     1      -7.604  -5.828   2.303  1.00  0.00     0.128 C 
BRANCH  76  77
ATOM     77  O   UNL     1      -7.964  -6.350   3.593  1.00  0.00    -0.381 OA
ATOM     78  C   UNL     1      -7.173  -5.837   4.658  1.00  0.00     0.195 C 
ENDBRANCH  76  77
BRANCH  76  79
ATOM     79  C   UNL     1      -6.668  -6.776   1.512  1.00  0.00     0.068 C 
BRANCH  79  80
ATOM     80  C   UNL     1      -7.303  -7.799   0.601  1.00  0.00    -0.045 A 
ATOM     81  C   UNL     1      -7.957  -8.923   1.122  1.00  0.00     0.004 A 
ATOM     82  C   UNL     1      -7.223  -7.651  -0.792  1.00  0.00     0.004 A 
ATOM     83  C   UNL     1      -8.530  -9.871   0.272  1.00  0.00     0.000 A 
ATOM     84  C   UNL     1      -7.796  -8.600  -1.641  1.00  0.00     0.000 A 
ATOM     85  C   UNL     1      -8.451  -9.709  -1.109  1.00  0.00     0.000 A 
ENDBRANCH  79  80
ENDBRANCH  76  79
ENDBRANCH  74  76
ENDBRANCH  72  74
ENDBRANCH  70  71
ENDBRANCH   1  69
TORSDOF 17
ENDMDL
MODEL 42
REMARK VINA RESULT:    -6.295      4.551      9.549
REMARK INTER + INTRA:         -25.677
REMARK INTER:                 -17.738
REMARK INTRA:                  -7.939
REMARK UNBOUND:                -6.869
REMARK SMILES C=C1C(=O)N[C@H](C)C(=O)N[C@@H](CC(C)C)C(=O)N[C@@H](C(=O)O)[C@H](C)C(=O)N[C@@H](CCCN=C(N)N)C(=O)N[C@@H](/C=C/C(C)=C/[C@H](C)[C@H](Cc2ccccc2)OC)[C@H](C)C(=O)N[C@@H](C(=O)O)CCC(=O)N1C
REMARK SMILES IDX 39 1 38 2 37 3 36 4 28 6 27 7 25 8 26 9 23 11 24 12 19 13
REMARK SMILES IDX 18 14 16 15 17 16 11 18 10 19 8 20 9 21 12 24 13 25 14 26
REMARK SMILES IDX 15 27 20 28 21 29 22 30 29 32 30 33 31 34 32 35 33 36 34 37
REMARK SMILES IDX 35 38 57 43 58 44 59 45 60 46 61 47 62 49 66 50 67 51 68 52
REMARK SMILES IDX 69 53 70 54 71 55 2 56 1 57 3 58 4 59 5 60 6 62 7 63 63 65
REMARK SMILES IDX 64 66 65 67 40 69 41 70 42 71 44 72 43 73 45 74 46 75 47 76
REMARK SMILES IDX 55 77 56 78 48 79 49 80 50 81 54 82 51 83 53 84 52 85
REMARK H PARENT 38 5 27 10 18 17 10 22 22 31 34 39 34 40 35 41 35 42 61 48
REMARK H PARENT 5 61 65 68
REMARK Flexibility Score:  369.900
ROOT
ATOM      1  C   UNL     1      -1.419  -0.432 -10.087  1.00  0.00     0.117 C 
ENDROOT
BRANCH   1   2
ATOM      2  N   UNL     1      -2.754  -0.321 -10.675  1.00  0.00    -0.347 N 
ATOM      3  O   UNL     1      -2.874  -2.427 -11.580  1.00  0.00    -0.273 OA
ATOM      4  C   UNL     1      -3.414  -1.363 -11.298  1.00  0.00     0.243 C 
ATOM      5  H   UNL     1      -3.262   0.546 -10.588  1.00  0.00     0.164 HD
BRANCH   4   6
ATOM      6  C   UNL     1      -4.851  -1.005 -11.756  1.00  0.00     0.171 C 
BRANCH   6   7
ATOM      7  N   UNL     1      -5.825  -1.347 -10.708  1.00  0.00    -0.344 N 
ATOM      8  C   UNL     1      -6.366  -2.613 -10.637  1.00  0.00     0.226 C 
ATOM      9  O   UNL     1      -6.088  -3.495 -11.441  1.00  0.00    -0.275 OA
ATOM     10  H   UNL     1      -6.131  -0.626 -10.067  1.00  0.00     0.164 HD
BRANCH   8  11
ATOM     11  C   UNL     1      -7.313  -2.824  -9.469  1.00  0.00     0.109 C 
ATOM     12  C   UNL     1      -8.577  -1.985  -9.657  1.00  0.00     0.021 C 
BRANCH  11  13
ATOM     13  C   UNL     1      -7.560  -4.332  -9.264  1.00  0.00     0.204 C 
BRANCH  13  14
ATOM     14  N   UNL     1      -6.395  -5.009  -8.688  1.00  0.00    -0.340 N 
ATOM     15  C   UNL     1      -6.184  -6.366  -8.805  1.00  0.00     0.243 C 
ATOM     16  O   UNL     1      -6.930  -7.097  -9.454  1.00  0.00    -0.273 OA
ATOM     17  H   UNL     1      -5.823  -4.492  -8.015  1.00  0.00     0.164 HD
BRANCH  15  18
ATOM     18  C   UNL     1      -5.006  -6.886  -7.944  1.00  0.00     0.171 C 
BRANCH  18  19
ATOM     19  N   UNL     1      -5.590  -7.721  -6.897  1.00  0.00    -0.343 N 
ATOM     20  C   UNL     1      -5.290  -7.532  -5.561  1.00  0.00     0.242 CG0
ATOM     21  O   UNL     1      -4.420  -6.742  -5.203  1.00  0.00    -0.273 OA
ATOM     22  H   UNL     1      -6.228  -8.466  -7.152  1.00  0.00     0.164 HD
ATOM     23  G   UNL     1      -6.062  -8.457  -4.598  1.00  0.00     0.000 G0
ENDBRANCH  18  19
BRANCH  18  24
ATOM     24  C   UNL     1      -4.013  -7.676  -8.805  1.00  0.00     0.038 C 
BRANCH  24  25
ATOM     25  C   UNL     1      -4.330  -9.180  -8.938  1.00  0.00    -0.015 C 
ATOM     26  C   UNL     1      -3.288 -10.061  -8.248  1.00  0.00     0.007 C 
ATOM     27  C   UNL     1      -4.425  -9.558 -10.419  1.00  0.00     0.007 C 
ENDBRANCH  24  25
ENDBRANCH  18  24
ENDBRANCH  15  18
ENDBRANCH  13  14
BRANCH  13  28
ATOM     28  C   UNL     1      -8.755  -4.630  -8.353  1.00  0.00     0.327 C 
ATOM     29  O   UNL     1      -8.881  -4.280  -7.189  1.00  0.00    -0.250 OA
BRANCH  28  30
ATOM     30  O   UNL     1      -9.663  -5.449  -8.921  1.00  0.00    -0.480 OA
ATOM     31  H   UNL     1      -9.952  -4.968  -9.724  1.00  0.00     0.296 HD
ENDBRANCH  28  30
ENDBRANCH  13  28
ENDBRANCH  11  13
ENDBRANCH   8  11
ENDBRANCH   6   7
BRANCH   6  32
ATOM     32  C   UNL     1      -4.914   0.488 -12.096  1.00  0.00     0.037 C 
BRANCH  32  33
ATOM     33  C   UNL     1      -6.091   1.190 -11.404  1.00  0.00     0.026 C 
BRANCH  33  34
ATOM     34  C   UNL     1      -7.274   1.416 -12.346  1.00  0.00     0.146 C 
BRANCH  34  35
ATOM     35  N   UNL     1      -8.160   2.411 -11.758  1.00  0.00    -0.254 NA
ATOM     36  C   UNL     1      -8.116   3.612 -12.202  1.00  0.00     0.185 C 
ATOM     37  N   UNL     1      -8.931   4.535 -11.671  1.00  0.00    -0.370 N 
ATOM     38  N   UNL     1      -7.339   4.126 -13.172  1.00  0.00    -0.370 N 
ATOM     39  H   UNL     1      -9.557   4.222 -10.939  1.00  0.00     0.159 HD
ATOM     40  H   UNL     1      -9.081   5.444 -12.075  1.00  0.00     0.159 HD
ATOM     41  H   UNL     1      -7.298   5.118 -13.335  1.00  0.00     0.159 HD
ATOM     42  H   UNL     1      -6.664   3.548 -13.649  1.00  0.00     0.159 HD
ENDBRANCH  34  35
ENDBRANCH  33  34
ENDBRANCH  32  33
ENDBRANCH   6  32
ENDBRANCH   4   6
ENDBRANCH   1   2
BRANCH   1  43
ATOM     43  C   UNL     1      -1.556  -0.399  -8.537  1.00  0.00     0.102 C 
ATOM     44  C   UNL     1      -1.854  -1.776  -7.920  1.00  0.00     0.020 C 
BRANCH  43  45
ATOM     45  C   UNL     1      -2.522   0.703  -8.094  1.00  0.00     0.225 C 
ATOM     46  O   UNL     1      -3.739   0.550  -8.049  1.00  0.00    -0.275 OA
ATOM     47  N   UNL     1      -1.947   1.926  -7.832  1.00  0.00    -0.342 N 
ATOM     48  H   UNL     1      -0.944   1.994  -7.726  1.00  0.00     0.164 HD
BRANCH  47  49
ATOM     49  C   UNL     1      -2.744   3.064  -7.365  1.00  0.00     0.192 C 
BRANCH  49  50
ATOM     50  C   UNL     1      -3.197   3.902  -8.563  1.00  0.00     0.047 C 
BRANCH  50  51
ATOM     51  C   UNL     1      -2.079   4.089  -9.598  1.00  0.00     0.103 C 
BRANCH  51  52
ATOM     52  C   UNL     1      -1.796   5.563  -9.877  1.00  0.00     0.226 C 
ATOM     53  O   UNL     1      -0.919   6.148  -9.238  1.00  0.00    -0.275 OA
BRANCH  52  54
ATOM     54  N   UNL     1      -2.525   6.154 -10.926  1.00  0.00    -0.311 N 
ATOM     55  C   UNL     1      -3.083   5.338 -12.012  1.00  0.00     0.153 C 
BRANCH  54  56
ATOM     56  C   UNL     1      -2.752   7.540 -10.970  1.00  0.00     0.102 C 
ATOM     57  C   UNL     1      -3.732   8.180 -10.311  1.00  0.00     0.043 C 
BRANCH  56  58
ATOM     58  C   UNL     1      -1.841   8.449 -11.761  1.00  0.00     0.268 C 
ATOM     59  O   UNL     1      -0.870   8.045 -12.387  1.00  0.00    -0.268 OA
ATOM     60  N   UNL     1      -2.253   9.760 -11.760  1.00  0.00    -0.339 N 
ATOM     61  H   UNL     1      -3.063  10.016 -11.207  1.00  0.00     0.164 HD
BRANCH  60  62
ATOM     62  C   UNL     1      -1.551  10.798 -12.514  1.00  0.00     0.168 CG0
ATOM     63  C   UNL     1      -2.384  12.071 -12.597  1.00  0.00     0.041 C 
ATOM     64  G   UNL     1      -1.214  10.273 -13.925  1.00  0.00     0.000 G0
ENDBRANCH  60  62
ENDBRANCH  56  58
ENDBRANCH  54  56
ENDBRANCH  52  54
ENDBRANCH  51  52
ENDBRANCH  50  51
ENDBRANCH  49  50
BRANCH  49  65
ATOM     65  C   UNL     1      -1.950   3.951  -6.394  1.00  0.00     0.326 C 
ATOM     66  O   UNL     1      -0.884   3.657  -5.872  1.00  0.00    -0.250 OA
BRANCH  65  67
ATOM     67  O   UNL     1      -2.549   5.121  -6.080  1.00  0.00    -0.480 OA
ATOM     68  H   UNL     1      -1.871   5.594  -5.551  1.00  0.00     0.296 HD
ENDBRANCH  65  67
ENDBRANCH  49  65
ENDBRANCH  47  49
ENDBRANCH  43  45
ENDBRANCH   1  43
BRANCH   1  69
ATOM     69  C   UNL     1      -0.566   0.621 -10.771  1.00  0.00    -0.001 C 
ATOM     70  C   UNL     1      -0.633   1.020 -12.053  1.00  0.00     0.001 C 
BRANCH  70  71
ATOM     71  C   UNL     1       0.182   2.053 -12.697  1.00  0.00    -0.055 C 
ATOM     72  C   UNL     1      -0.002   3.331 -12.305  1.00  0.00    -0.018 C 
ATOM     73  C   UNL     1       1.172   1.615 -13.744  1.00  0.00     0.044 C 
BRANCH  72  74
ATOM     74  C   UNL     1       0.694   4.596 -12.788  1.00  0.00     0.038 C 
ATOM     75  C   UNL     1       0.014   5.015 -14.096  1.00  0.00     0.015 C 
BRANCH  74  76
ATOM     76  C   UNL     1       2.221   4.313 -12.906  1.00  0.00     0.128 C 
BRANCH  76  77
ATOM     77  O   UNL     1       2.785   5.101 -13.968  1.00  0.00    -0.381 OA
ATOM     78  C   UNL     1       4.206   5.090 -13.995  1.00  0.00     0.195 C 
ENDBRANCH  76  77
BRANCH  76  79
ATOM     79  C   UNL     1       2.995   4.463 -11.572  1.00  0.00     0.068 C 
BRANCH  79  80
ATOM     80  C   UNL     1       2.671   3.501 -10.455  1.00  0.00    -0.045 A 
ATOM     81  C   UNL     1       3.156   2.186 -10.472  1.00  0.00     0.004 A 
ATOM     82  C   UNL     1       1.851   3.903  -9.390  1.00  0.00     0.004 A 
ATOM     83  C   UNL     1       2.841   1.298  -9.442  1.00  0.00     0.000 A 
ATOM     84  C   UNL     1       1.536   3.013  -8.361  1.00  0.00     0.000 A 
ATOM     85  C   UNL     1       2.032   1.712  -8.386  1.00  0.00     0.000 A 
ENDBRANCH  79  80
ENDBRANCH  76  79
ENDBRANCH  74  76
ENDBRANCH  72  74
ENDBRANCH  70  71
ENDBRANCH   1  69
TORSDOF 17
ENDMDL
MODEL 43
REMARK VINA RESULT:    -6.293      8.698     15.394
REMARK INTER + INTRA:         -25.671
REMARK INTER:                 -18.176
REMARK INTRA:                  -7.495
REMARK UNBOUND:                -6.869
REMARK SMILES C=C1C(=O)N[C@H](C)C(=O)N[C@@H](CC(C)C)C(=O)N[C@@H](C(=O)O)[C@H](C)C(=O)N[C@@H](CCCN=C(N)N)C(=O)N[C@@H](/C=C/C(C)=C/[C@H](C)[C@H](Cc2ccccc2)OC)[C@H](C)C(=O)N[C@@H](C(=O)O)CCC(=O)N1C
REMARK SMILES IDX 39 1 38 2 37 3 36 4 28 6 27 7 25 8 26 9 23 11 24 12 19 13
REMARK SMILES IDX 18 14 16 15 17 16 11 18 10 19 8 20 9 21 12 24 13 25 14 26
REMARK SMILES IDX 15 27 20 28 21 29 22 30 29 32 30 33 31 34 32 35 33 36 34 37
REMARK SMILES IDX 35 38 57 43 58 44 59 45 60 46 61 47 62 49 66 50 67 51 68 52
REMARK SMILES IDX 69 53 70 54 71 55 2 56 1 57 3 58 4 59 5 60 6 62 7 63 63 65
REMARK SMILES IDX 64 66 65 67 40 69 41 70 42 71 44 72 43 73 45 74 46 75 47 76
REMARK SMILES IDX 55 77 56 78 48 79 49 80 50 81 54 82 51 83 53 84 52 85
REMARK H PARENT 38 5 27 10 18 17 10 22 22 31 34 39 34 40 35 41 35 42 61 48
REMARK H PARENT 5 61 65 68
REMARK Flexibility Score:  369.900
ROOT
ATOM      1  C   UNL     1     -13.161  -3.649   4.536  1.00  0.00     0.117 C 
ENDROOT
BRANCH   1   2
ATOM      2  N   UNL     1     -13.072  -2.488   3.648  1.00  0.00    -0.347 N 
ATOM      3  O   UNL     1     -10.979  -1.779   4.270  1.00  0.00    -0.273 OA
ATOM      4  C   UNL     1     -11.947  -1.697   3.521  1.00  0.00     0.243 C 
ATOM      5  H   UNL     1     -13.851  -2.264   3.048  1.00  0.00     0.164 HD
BRANCH   4   6
ATOM      6  C   UNL     1     -12.085  -0.586   2.449  1.00  0.00     0.171 C 
BRANCH   6   7
ATOM      7  N   UNL     1     -11.397   0.639   2.887  1.00  0.00    -0.344 N 
ATOM      8  C   UNL     1     -12.117   1.757   3.252  1.00  0.00     0.226 C 
ATOM      9  O   UNL     1     -13.341   1.797   3.209  1.00  0.00    -0.275 OA
ATOM     10  H   UNL     1     -10.386   0.667   2.871  1.00  0.00     0.164 HD
BRANCH   8  11
ATOM     11  C   UNL     1     -11.266   2.920   3.732  1.00  0.00     0.109 C 
ATOM     12  C   UNL     1     -11.729   4.218   3.071  1.00  0.00     0.021 C 
BRANCH  11  13
ATOM     13  C   UNL     1     -11.244   2.949   5.273  1.00  0.00     0.204 C 
BRANCH  13  14
ATOM     14  N   UNL     1     -12.595   2.945   5.844  1.00  0.00    -0.340 N 
ATOM     15  C   UNL     1     -13.148   4.045   6.463  1.00  0.00     0.243 C 
ATOM     16  O   UNL     1     -12.570   5.128   6.526  1.00  0.00    -0.273 OA
ATOM     17  H   UNL     1     -13.065   2.044   5.960  1.00  0.00     0.164 HD
BRANCH  15  18
ATOM     18  C   UNL     1     -14.493   3.746   7.169  1.00  0.00     0.171 C 
BRANCH  18  19
ATOM     19  N   UNL     1     -15.321   4.941   7.017  1.00  0.00    -0.343 N 
ATOM     20  C   UNL     1     -15.872   5.589   8.106  1.00  0.00     0.242 CG0
ATOM     21  O   UNL     1     -15.804   5.116   9.238  1.00  0.00    -0.273 OA
ATOM     22  H   UNL     1     -15.503   5.305   6.089  1.00  0.00     0.164 HD
ATOM     23  G   UNL     1     -16.648   6.875   7.756  1.00  0.00     0.000 G0
ENDBRANCH  18  19
BRANCH  18  24
ATOM     24  C   UNL     1     -15.167   2.514   6.552  1.00  0.00     0.038 C 
BRANCH  24  25
ATOM     25  C   UNL     1     -15.898   1.605   7.562  1.00  0.00    -0.015 C 
ATOM     26  C   UNL     1     -17.392   1.918   7.657  1.00  0.00     0.007 C 
ATOM     27  C   UNL     1     -15.253   1.748   8.943  1.00  0.00     0.007 C 
ENDBRANCH  24  25
ENDBRANCH  18  24
ENDBRANCH  15  18
ENDBRANCH  13  14
BRANCH  13  28
ATOM     28  C   UNL     1     -10.488   1.767   5.888  1.00  0.00     0.327 C 
ATOM     29  O   UNL     1      -9.433   1.297   5.490  1.00  0.00    -0.250 OA
BRANCH  28  30
ATOM     30  O   UNL     1     -11.163   1.173   6.893  1.00  0.00    -0.480 OA
ATOM     31  H   UNL     1     -11.351   1.901   7.521  1.00  0.00     0.296 HD
ENDBRANCH  28  30
ENDBRANCH  13  28
ENDBRANCH  11  13
ENDBRANCH   8  11
ENDBRANCH   6   7
BRANCH   6  32
ATOM     32  C   UNL     1     -11.509  -1.092   1.122  1.00  0.00     0.037 C 
BRANCH  32  33
ATOM     33  C   UNL     1     -10.750   0.007   0.363  1.00  0.00     0.026 C 
BRANCH  33  34
ATOM     34  C   UNL     1      -9.758  -0.562  -0.652  1.00  0.00     0.146 C 
BRANCH  34  35
ATOM     35  N   UNL     1      -8.418  -0.499  -0.085  1.00  0.00    -0.254 NA
ATOM     36  C   UNL     1      -7.716   0.554  -0.281  1.00  0.00     0.185 C 
ATOM     37  N   UNL     1      -6.482   0.624   0.241  1.00  0.00    -0.370 N 
ATOM     38  N   UNL     1      -8.036   1.667  -0.965  1.00  0.00    -0.370 N 
ATOM     39  H   UNL     1      -6.171  -0.174   0.781  1.00  0.00     0.159 HD
ATOM     40  H   UNL     1      -5.942   1.472   0.281  1.00  0.00     0.159 HD
ATOM     41  H   UNL     1      -7.345   2.371  -1.166  1.00  0.00     0.159 HD
ATOM     42  H   UNL     1      -8.929   1.747  -1.426  1.00  0.00     0.159 HD
ENDBRANCH  34  35
ENDBRANCH  33  34
ENDBRANCH  32  33
ENDBRANCH   6  32
ENDBRANCH   4   6
ENDBRANCH   1   2
BRANCH   1  43
ATOM     43  C   UNL     1     -13.291  -4.930   3.664  1.00  0.00     0.102 C 
ATOM     44  C   UNL     1     -14.538  -5.769   3.990  1.00  0.00     0.020 C 
BRANCH  43  45
ATOM     45  C   UNL     1     -11.985  -5.732   3.666  1.00  0.00     0.225 C 
ATOM     46  O   UNL     1     -11.005  -5.415   4.333  1.00  0.00    -0.275 OA
ATOM     47  N   UNL     1     -11.941  -6.794   2.792  1.00  0.00    -0.342 N 
ATOM     48  H   UNL     1     -12.794  -7.130   2.369  1.00  0.00     0.164 HD
BRANCH  47  49
ATOM     49  C   UNL     1     -10.769  -7.671   2.712  1.00  0.00     0.192 C 
BRANCH  49  50
ATOM     50  C   UNL     1     -10.109  -7.524   1.338  1.00  0.00     0.047 C 
BRANCH  50  51
ATOM     51  C   UNL     1      -9.460  -6.146   1.149  1.00  0.00     0.103 C 
BRANCH  51  52
ATOM     52  C   UNL     1     -10.192  -5.307   0.103  1.00  0.00     0.226 C 
ATOM     53  O   UNL     1     -11.178  -4.645   0.433  1.00  0.00    -0.275 OA
BRANCH  52  54
ATOM     54  N   UNL     1      -9.631  -5.284  -1.187  1.00  0.00    -0.311 N 
ATOM     55  C   UNL     1      -8.726  -4.203  -1.600  1.00  0.00     0.153 C 
BRANCH  54  56
ATOM     56  C   UNL     1      -9.908  -6.294  -2.124  1.00  0.00     0.102 C 
ATOM     57  C   UNL     1     -11.135  -6.614  -2.568  1.00  0.00     0.043 C 
BRANCH  56  58
ATOM     58  C   UNL     1      -8.793  -7.092  -2.757  1.00  0.00     0.268 C 
ATOM     59  O   UNL     1      -8.372  -6.877  -3.886  1.00  0.00    -0.268 OA
ATOM     60  N   UNL     1      -8.258  -8.036  -1.912  1.00  0.00    -0.339 N 
ATOM     61  H   UNL     1      -8.671  -8.159  -0.995  1.00  0.00     0.164 HD
BRANCH  60  62
ATOM     62  C   UNL     1      -7.127  -8.877  -2.301  1.00  0.00     0.168 CG0
ATOM     63  C   UNL     1      -6.659  -9.738  -1.134  1.00  0.00     0.041 C 
ATOM     64  G   UNL     1      -5.977  -7.989  -2.820  1.00  0.00     0.000 G0
ENDBRANCH  60  62
ENDBRANCH  56  58
ENDBRANCH  54  56
ENDBRANCH  52  54
ENDBRANCH  51  52
ENDBRANCH  50  51
ENDBRANCH  49  50
BRANCH  49  65
ATOM     65  C   UNL     1     -11.147  -9.143   2.940  1.00  0.00     0.326 C 
ATOM     66  O   UNL     1     -12.261  -9.554   3.227  1.00  0.00    -0.250 OA
BRANCH  65  67
ATOM     67  O   UNL     1     -10.113 -10.010   2.858  1.00  0.00    -0.480 OA
ATOM     68  H   UNL     1     -10.430 -10.689   2.224  1.00  0.00     0.296 HD
ENDBRANCH  65  67
ENDBRANCH  49  65
ENDBRANCH  47  49
ENDBRANCH  43  45
ENDBRANCH   1  43
BRANCH   1  69
ATOM     69  C   UNL     1     -14.254  -3.331   5.540  1.00  0.00    -0.001 C 
ATOM     70  C   UNL     1     -15.339  -2.560   5.350  1.00  0.00     0.001 C 
BRANCH  70  71
ATOM     71  C   UNL     1     -16.398  -2.278   6.321  1.00  0.00    -0.055 C 
ATOM     72  C   UNL     1     -16.314  -2.870   7.531  1.00  0.00    -0.018 C 
ATOM     73  C   UNL     1     -17.502  -1.342   5.904  1.00  0.00     0.044 C 
BRANCH  72  74
ATOM     74  C   UNL     1     -17.255  -2.762   8.723  1.00  0.00     0.038 C 
ATOM     75  C   UNL     1     -16.942  -1.437   9.428  1.00  0.00     0.015 C 
BRANCH  74  76
ATOM     76  C   UNL     1     -17.085  -4.030   9.611  1.00  0.00     0.128 C 
BRANCH  76  77
ATOM     77  O   UNL     1     -17.959  -5.074   9.148  1.00  0.00    -0.381 OA
ATOM     78  C   UNL     1     -19.278  -4.629   8.862  1.00  0.00     0.195 C 
ENDBRANCH  76  77
BRANCH  76  79
ATOM     79  C   UNL     1     -15.616  -4.501   9.763  1.00  0.00     0.068 C 
BRANCH  79  80
ATOM     80  C   UNL     1     -15.250  -5.861   9.219  1.00  0.00    -0.045 A 
ATOM     81  C   UNL     1     -15.353  -7.008  10.017  1.00  0.00     0.004 A 
ATOM     82  C   UNL     1     -14.772  -5.992   7.907  1.00  0.00     0.004 A 
ATOM     83  C   UNL     1     -14.998  -8.261   9.511  1.00  0.00     0.000 A 
ATOM     84  C   UNL     1     -14.417  -7.245   7.402  1.00  0.00     0.000 A 
ATOM     85  C   UNL     1     -14.532  -8.379   8.204  1.00  0.00     0.000 A 
ENDBRANCH  79  80
ENDBRANCH  76  79
ENDBRANCH  74  76
ENDBRANCH  72  74
ENDBRANCH  70  71
ENDBRANCH   1  69
TORSDOF 17
ENDMDL
MODEL 44
REMARK VINA RESULT:    -6.280      7.016     13.747
REMARK INTER + INTRA:         -25.632
REMARK INTER:                 -16.966
REMARK INTRA:                  -8.666
REMARK UNBOUND:                -6.869
REMARK SMILES C=C1C(=O)N[C@H](C)C(=O)N[C@@H](CC(C)C)C(=O)N[C@@H](C(=O)O)[C@H](C)C(=O)N[C@@H](CCCN=C(N)N)C(=O)N[C@@H](/C=C/C(C)=C/[C@H](C)[C@H](Cc2ccccc2)OC)[C@H](C)C(=O)N[C@@H](C(=O)O)CCC(=O)N1C
REMARK SMILES IDX 39 1 38 2 37 3 36 4 28 6 27 7 25 8 26 9 23 11 24 12 19 13
REMARK SMILES IDX 18 14 16 15 17 16 11 18 10 19 8 20 9 21 12 24 13 25 14 26
REMARK SMILES IDX 15 27 20 28 21 29 22 30 29 32 30 33 31 34 32 35 33 36 34 37
REMARK SMILES IDX 35 38 57 43 58 44 59 45 60 46 61 47 62 49 66 50 67 51 68 52
REMARK SMILES IDX 69 53 70 54 71 55 2 56 1 57 3 58 4 59 5 60 6 62 7 63 63 65
REMARK SMILES IDX 64 66 65 67 40 69 41 70 42 71 44 72 43 73 45 74 46 75 47 76
REMARK SMILES IDX 55 77 56 78 48 79 49 80 50 81 54 82 51 83 53 84 52 85
REMARK H PARENT 38 5 27 10 18 17 10 22 22 31 34 39 34 40 35 41 35 42 61 48
REMARK H PARENT 5 61 65 68
REMARK Flexibility Score:  369.900
ROOT
ATOM      1  C   UNL     1     -11.169  -4.003   3.630  1.00  0.00     0.117 C 
ENDROOT
BRANCH   1   2
ATOM      2  N   UNL     1     -11.187  -2.757   2.863  1.00  0.00    -0.347 N 
ATOM      3  O   UNL     1     -10.014  -1.458   4.349  1.00  0.00    -0.273 OA
ATOM      4  C   UNL     1     -10.527  -1.604   3.244  1.00  0.00     0.243 C 
ATOM      5  H   UNL     1     -11.664  -2.730   1.975  1.00  0.00     0.164 HD
BRANCH   4   6
ATOM      6  C   UNL     1     -10.636  -0.454   2.212  1.00  0.00     0.171 C 
BRANCH   6   7
ATOM      7  N   UNL     1     -10.088   0.793   2.771  1.00  0.00    -0.344 N 
ATOM      8  C   UNL     1     -10.897   1.892   2.963  1.00  0.00     0.226 C 
ATOM      9  O   UNL     1     -12.085   1.897   2.662  1.00  0.00    -0.275 OA
ATOM     10  H   UNL     1      -9.097   0.848   2.969  1.00  0.00     0.164 HD
BRANCH   8  11
ATOM     11  C   UNL     1     -10.198   3.080   3.598  1.00  0.00     0.109 C 
ATOM     12  C   UNL     1     -10.506   4.354   2.812  1.00  0.00     0.021 C 
BRANCH  11  13
ATOM     13  C   UNL     1     -10.541   3.146   5.100  1.00  0.00     0.204 C 
BRANCH  13  14
ATOM     14  N   UNL     1     -11.968   3.396   5.329  1.00  0.00    -0.340 N 
ATOM     15  C   UNL     1     -12.432   4.468   6.060  1.00  0.00     0.243 C 
ATOM     16  O   UNL     1     -11.682   5.327   6.521  1.00  0.00    -0.273 OA
ATOM     17  H   UNL     1     -12.629   2.647   5.106  1.00  0.00     0.164 HD
BRANCH  15  18
ATOM     18  C   UNL     1     -13.953   4.412   6.343  1.00  0.00     0.171 C 
BRANCH  18  19
ATOM     19  N   UNL     1     -14.416   5.796   6.422  1.00  0.00    -0.343 N 
ATOM     20  C   UNL     1     -15.005   6.304   7.564  1.00  0.00     0.242 CG0
ATOM     21  O   UNL     1     -15.287   5.582   8.518  1.00  0.00    -0.273 OA
ATOM     22  H   UNL     1     -14.309   6.403   5.617  1.00  0.00     0.164 HD
ATOM     23  G   UNL     1     -15.355   7.804   7.487  1.00  0.00     0.000 G0
ENDBRANCH  18  19
BRANCH  18  24
ATOM     24  C   UNL     1     -14.681   3.638   5.238  1.00  0.00     0.038 C 
BRANCH  24  25
ATOM     25  C   UNL     1     -15.595   2.501   5.743  1.00  0.00    -0.015 C 
ATOM     26  C   UNL     1     -17.080   2.816   5.554  1.00  0.00     0.007 C 
ATOM     27  C   UNL     1     -15.310   2.230   7.222  1.00  0.00     0.007 C 
ENDBRANCH  24  25
ENDBRANCH  18  24
ENDBRANCH  15  18
ENDBRANCH  13  14
BRANCH  13  28
ATOM     28  C   UNL     1     -10.177   1.866   5.859  1.00  0.00     0.327 C 
ATOM     29  O   UNL     1     -10.804   1.371   6.783  1.00  0.00    -0.250 OA
BRANCH  28  30
ATOM     30  O   UNL     1      -8.986   1.353   5.489  1.00  0.00    -0.480 OA
ATOM     31  H   UNL     1      -9.207   0.727   4.769  1.00  0.00     0.296 HD
ENDBRANCH  28  30
ENDBRANCH  13  28
ENDBRANCH  11  13
ENDBRANCH   8  11
ENDBRANCH   6   7
BRANCH   6  32
ATOM     32  C   UNL     1      -9.891  -0.853   0.933  1.00  0.00     0.037 C 
BRANCH  32  33
ATOM     33  C   UNL     1     -10.847  -1.330  -0.169  1.00  0.00     0.026 C 
BRANCH  33  34
ATOM     34  C   UNL     1     -10.189  -2.330  -1.122  1.00  0.00     0.146 C 
BRANCH  34  35
ATOM     35  N   UNL     1      -8.920  -1.779  -1.577  1.00  0.00    -0.254 NA
ATOM     36  C   UNL     1      -7.838  -2.385  -1.259  1.00  0.00     0.185 C 
ATOM     37  N   UNL     1      -6.663  -1.890  -1.678  1.00  0.00    -0.370 N 
ATOM     38  N   UNL     1      -7.679  -3.505  -0.531  1.00  0.00    -0.370 N 
ATOM     39  H   UNL     1      -6.700  -1.051  -2.243  1.00  0.00     0.159 HD
ATOM     40  H   UNL     1      -5.795  -2.393  -1.620  1.00  0.00     0.159 HD
ATOM     41  H   UNL     1      -6.767  -3.806  -0.231  1.00  0.00     0.159 HD
ATOM     42  H   UNL     1      -8.478  -3.977  -0.137  1.00  0.00     0.159 HD
ENDBRANCH  34  35
ENDBRANCH  33  34
ENDBRANCH  32  33
ENDBRANCH   6  32
ENDBRANCH   4   6
ENDBRANCH   1   2
BRANCH   1  43
ATOM     43  C   UNL     1     -11.037  -5.193   2.637  1.00  0.00     0.102 C 
ATOM     44  C   UNL     1     -11.502  -6.536   3.226  1.00  0.00     0.020 C 
BRANCH  43  45
ATOM     45  C   UNL     1      -9.638  -5.239   2.015  1.00  0.00     0.225 C 
ATOM     46  O   UNL     1      -8.913  -4.253   1.922  1.00  0.00    -0.275 OA
ATOM     47  N   UNL     1      -9.270  -6.449   1.474  1.00  0.00    -0.342 N 
ATOM     48  H   UNL     1      -9.805  -7.278   1.691  1.00  0.00     0.164 HD
BRANCH  47  49
ATOM     49  C   UNL     1      -7.946  -6.651   0.877  1.00  0.00     0.192 C 
BRANCH  49  50
ATOM     50  C   UNL     1      -7.960  -7.911   0.008  1.00  0.00     0.047 C 
BRANCH  50  51
ATOM     51  C   UNL     1      -9.165  -7.950  -0.942  1.00  0.00     0.103 C 
BRANCH  51  52
ATOM     52  C   UNL     1      -8.752  -7.756  -2.400  1.00  0.00     0.226 C 
ATOM     53  O   UNL     1      -8.554  -8.740  -3.114  1.00  0.00    -0.275 OA
BRANCH  52  54
ATOM     54  N   UNL     1      -8.698  -6.428  -2.865  1.00  0.00    -0.311 N 
ATOM     55  C   UNL     1      -9.909  -5.599  -2.927  1.00  0.00     0.153 C 
BRANCH  54  56
ATOM     56  C   UNL     1      -7.488  -5.846  -3.279  1.00  0.00     0.102 C 
ATOM     57  C   UNL     1      -6.282  -6.129  -2.760  1.00  0.00     0.043 C 
BRANCH  56  58
ATOM     58  C   UNL     1      -7.456  -4.853  -4.416  1.00  0.00     0.268 C 
ATOM     59  O   UNL     1      -7.413  -3.642  -4.247  1.00  0.00    -0.268 OA
ATOM     60  N   UNL     1      -7.412  -5.450  -5.654  1.00  0.00    -0.339 N 
ATOM     61  H   UNL     1      -7.462  -6.460  -5.709  1.00  0.00     0.164 HD
BRANCH  60  62
ATOM     62  C   UNL     1      -7.313  -4.675  -6.889  1.00  0.00     0.168 CG0
ATOM     63  C   UNL     1      -8.692  -4.254  -7.383  1.00  0.00     0.041 C 
ATOM     64  G   UNL     1      -6.578  -5.504  -7.963  1.00  0.00     0.000 G0
ENDBRANCH  60  62
ENDBRANCH  56  58
ENDBRANCH  54  56
ENDBRANCH  52  54
ENDBRANCH  51  52
ENDBRANCH  50  51
ENDBRANCH  49  50
BRANCH  49  65
ATOM     65  C   UNL     1      -6.855  -6.785   1.950  1.00  0.00     0.326 C 
ATOM     66  O   UNL     1      -6.611  -7.795   2.594  1.00  0.00    -0.250 OA
BRANCH  65  67
ATOM     67  O   UNL     1      -6.173  -5.647   2.206  1.00  0.00    -0.480 OA
ATOM     68  H   UNL     1      -5.275  -5.964   2.446  1.00  0.00     0.296 HD
ENDBRANCH  65  67
ENDBRANCH  49  65
ENDBRANCH  47  49
ENDBRANCH  43  45
ENDBRANCH   1  43
BRANCH   1  69
ATOM     69  C   UNL     1     -12.371  -3.949   4.555  1.00  0.00    -0.001 C 
ATOM     70  C   UNL     1     -12.471  -4.460   5.795  1.00  0.00     0.001 C 
BRANCH  70  71
ATOM     71  C   UNL     1     -13.629  -4.383   6.687  1.00  0.00    -0.055 C 
ATOM     72  C   UNL     1     -14.737  -3.765   6.226  1.00  0.00    -0.018 C 
ATOM     73  C   UNL     1     -13.506  -5.005   8.054  1.00  0.00     0.044 C 
BRANCH  72  74
ATOM     74  C   UNL     1     -16.074  -3.541   6.918  1.00  0.00     0.038 C 
ATOM     75  C   UNL     1     -16.952  -4.760   6.613  1.00  0.00     0.015 C 
BRANCH  74  76
ATOM     76  C   UNL     1     -16.661  -2.178   6.443  1.00  0.00     0.128 C 
BRANCH  76  77
ATOM     77  O   UNL     1     -17.433  -1.583   7.499  1.00  0.00    -0.381 OA
ATOM     78  C   UNL     1     -18.353  -0.598   7.048  1.00  0.00     0.195 C 
ENDBRANCH  76  77
BRANCH  76  79
ATOM     79  C   UNL     1     -15.606  -1.210   5.852  1.00  0.00     0.068 C 
BRANCH  79  80
ATOM     80  C   UNL     1     -15.655  -0.930   4.370  1.00  0.00    -0.045 A 
ATOM     81  C   UNL     1     -16.826  -0.460   3.762  1.00  0.00     0.004 A 
ATOM     82  C   UNL     1     -14.527  -1.165   3.568  1.00  0.00     0.004 A 
ATOM     83  C   UNL     1     -16.868  -0.217   2.388  1.00  0.00     0.000 A 
ATOM     84  C   UNL     1     -14.570  -0.922   2.194  1.00  0.00     0.000 A 
ATOM     85  C   UNL     1     -15.739  -0.447   1.604  1.00  0.00     0.000 A 
ENDBRANCH  79  80
ENDBRANCH  76  79
ENDBRANCH  74  76
ENDBRANCH  72  74
ENDBRANCH  70  71
ENDBRANCH   1  69
TORSDOF 17
ENDMDL
MODEL 45
REMARK VINA RESULT:    -6.262      5.557     16.020
REMARK INTER + INTRA:         -25.578
REMARK INTER:                 -18.276
REMARK INTRA:                  -7.302
REMARK UNBOUND:                -6.869
REMARK SMILES C=C1C(=O)N[C@H](C)C(=O)N[C@@H](CC(C)C)C(=O)N[C@@H](C(=O)O)[C@H](C)C(=O)N[C@@H](CCCN=C(N)N)C(=O)N[C@@H](/C=C/C(C)=C/[C@H](C)[C@H](Cc2ccccc2)OC)[C@H](C)C(=O)N[C@@H](C(=O)O)CCC(=O)N1C
REMARK SMILES IDX 39 1 38 2 37 3 36 4 28 6 27 7 25 8 26 9 23 11 24 12 19 13
REMARK SMILES IDX 18 14 16 15 17 16 11 18 10 19 8 20 9 21 12 24 13 25 14 26
REMARK SMILES IDX 15 27 20 28 21 29 22 30 29 32 30 33 31 34 32 35 33 36 34 37
REMARK SMILES IDX 35 38 57 43 58 44 59 45 60 46 61 47 62 49 66 50 67 51 68 52
REMARK SMILES IDX 69 53 70 54 71 55 2 56 1 57 3 58 4 59 5 60 6 62 7 63 63 65
REMARK SMILES IDX 64 66 65 67 40 69 41 70 42 71 44 72 43 73 45 74 46 75 47 76
REMARK SMILES IDX 55 77 56 78 48 79 49 80 50 81 54 82 51 83 53 84 52 85
REMARK H PARENT 38 5 27 10 18 17 10 22 22 31 34 39 34 40 35 41 35 42 61 48
REMARK H PARENT 5 61 65 68
REMARK Flexibility Score:  369.900
ROOT
ATOM      1  C   UNL     1     -11.214  -4.021   1.281  1.00  0.00     0.117 C 
ENDROOT
BRANCH   1   2
ATOM      2  N   UNL     1     -10.862  -4.629  -0.003  1.00  0.00    -0.347 N 
ATOM      3  O   UNL     1     -10.472  -6.760   0.756  1.00  0.00    -0.273 OA
ATOM      4  C   UNL     1     -10.607  -5.975  -0.177  1.00  0.00     0.243 C 
ATOM      5  H   UNL     1     -10.847  -4.056  -0.833  1.00  0.00     0.164 HD
BRANCH   4   6
ATOM      6  C   UNL     1     -10.343  -6.374  -1.651  1.00  0.00     0.171 C 
BRANCH   6   7
ATOM      7  N   UNL     1      -9.424  -5.416  -2.287  1.00  0.00    -0.344 N 
ATOM      8  C   UNL     1      -9.639  -4.987  -3.579  1.00  0.00     0.226 C 
ATOM      9  O   UNL     1     -10.574  -5.389  -4.261  1.00  0.00    -0.275 OA
ATOM     10  H   UNL     1      -8.603  -5.113  -1.778  1.00  0.00     0.164 HD
BRANCH   8  11
ATOM     11  C   UNL     1      -8.635  -3.960  -4.071  1.00  0.00     0.109 C 
ATOM     12  C   UNL     1      -7.891  -3.342  -2.888  1.00  0.00     0.021 C 
BRANCH  11  13
ATOM     13  C   UNL     1      -7.730  -4.590  -5.149  1.00  0.00     0.204 C 
BRANCH  13  14
ATOM     14  N   UNL     1      -6.787  -3.619  -5.713  1.00  0.00    -0.340 N 
ATOM     15  C   UNL     1      -6.212  -3.770  -6.957  1.00  0.00     0.243 C 
ATOM     16  O   UNL     1      -6.498  -4.701  -7.708  1.00  0.00    -0.273 OA
ATOM     17  H   UNL     1      -6.394  -2.911  -5.087  1.00  0.00     0.164 HD
BRANCH  15  18
ATOM     18  C   UNL     1      -5.096  -2.738  -7.252  1.00  0.00     0.171 C 
BRANCH  18  19
ATOM     19  N   UNL     1      -5.183  -1.717  -6.209  1.00  0.00    -0.343 N 
ATOM     20  C   UNL     1      -5.212  -0.369  -6.510  1.00  0.00     0.242 CG0
ATOM     21  O   UNL     1      -5.031   0.038  -7.655  1.00  0.00    -0.273 OA
ATOM     22  H   UNL     1      -5.219  -2.001  -5.237  1.00  0.00     0.164 HD
ATOM     23  G   UNL     1      -5.386   0.553  -5.285  1.00  0.00     0.000 G0
ENDBRANCH  18  19
BRANCH  18  24
ATOM     24  C   UNL     1      -3.720  -3.416  -7.260  1.00  0.00     0.038 C 
BRANCH  24  25
ATOM     25  C   UNL     1      -2.772  -2.935  -8.379  1.00  0.00    -0.015 C 
ATOM     26  C   UNL     1      -1.928  -1.733  -7.955  1.00  0.00     0.007 C 
ATOM     27  C   UNL     1      -3.586  -2.579  -9.626  1.00  0.00     0.007 C 
ENDBRANCH  24  25
ENDBRANCH  18  24
ENDBRANCH  15  18
ENDBRANCH  13  14
BRANCH  13  28
ATOM     28  C   UNL     1      -6.908  -5.773  -4.630  1.00  0.00     0.327 C 
ATOM     29  O   UNL     1      -6.120  -5.752  -3.697  1.00  0.00    -0.250 OA
BRANCH  28  30
ATOM     30  O   UNL     1      -7.038  -6.880  -5.389  1.00  0.00    -0.480 OA
ATOM     31  H   UNL     1      -7.206  -6.536  -6.291  1.00  0.00     0.296 HD
ENDBRANCH  28  30
ENDBRANCH  13  28
ENDBRANCH  11  13
ENDBRANCH   8  11
ENDBRANCH   6   7
BRANCH   6  32
ATOM     32  C   UNL     1      -9.769  -7.794  -1.694  1.00  0.00     0.037 C 
BRANCH  32  33
ATOM     33  C   UNL     1      -8.238  -7.797  -1.794  1.00  0.00     0.026 C 
BRANCH  33  34
ATOM     34  C   UNL     1      -7.563  -8.052  -0.446  1.00  0.00     0.146 C 
BRANCH  34  35
ATOM     35  N   UNL     1      -7.756  -9.449  -0.081  1.00  0.00    -0.254 NA
ATOM     36  C   UNL     1      -8.351  -9.720   1.021  1.00  0.00     0.185 C 
ATOM     37  N   UNL     1      -8.538 -11.004   1.364  1.00  0.00    -0.370 N 
ATOM     38  N   UNL     1      -8.847  -8.876   1.942  1.00  0.00    -0.370 N 
ATOM     39  H   UNL     1      -8.200 -11.702   0.714  1.00  0.00     0.159 HD
ATOM     40  H   UNL     1      -9.141 -11.296   2.114  1.00  0.00     0.159 HD
ATOM     41  H   UNL     1      -9.169  -9.211   2.836  1.00  0.00     0.159 HD
ATOM     42  H   UNL     1      -8.763  -7.879   1.823  1.00  0.00     0.159 HD
ENDBRANCH  34  35
ENDBRANCH  33  34
ENDBRANCH  32  33
ENDBRANCH   6  32
ENDBRANCH   4   6
ENDBRANCH   1   2
BRANCH   1  43
ATOM     43  C   UNL     1     -12.755  -4.123   1.471  1.00  0.00     0.102 C 
ATOM     44  C   UNL     1     -13.468  -2.761   1.429  1.00  0.00     0.020 C 
BRANCH  43  45
ATOM     45  C   UNL     1     -13.103  -4.969   2.700  1.00  0.00     0.225 C 
ATOM     46  O   UNL     1     -14.163  -4.862   3.310  1.00  0.00    -0.275 OA
ATOM     47  N   UNL     1     -12.105  -5.806   3.145  1.00  0.00    -0.342 N 
ATOM     48  H   UNL     1     -11.308  -5.993   2.553  1.00  0.00     0.164 HD
BRANCH  47  49
ATOM     49  C   UNL     1     -12.308  -6.700   4.289  1.00  0.00     0.192 C 
BRANCH  49  50
ATOM     50  C   UNL     1     -11.247  -6.420   5.356  1.00  0.00     0.047 C 
BRANCH  50  51
ATOM     51  C   UNL     1     -11.486  -5.087   6.079  1.00  0.00     0.103 C 
BRANCH  51  52
ATOM     52  C   UNL     1     -12.046  -5.290   7.485  1.00  0.00     0.226 C 
ATOM     53  O   UNL     1     -11.306  -5.156   8.461  1.00  0.00    -0.275 OA
BRANCH  52  54
ATOM     54  N   UNL     1     -13.426  -5.550   7.579  1.00  0.00    -0.311 N 
ATOM     55  C   UNL     1     -14.412  -4.594   7.058  1.00  0.00     0.153 C 
BRANCH  54  56
ATOM     56  C   UNL     1     -13.910  -6.729   8.168  1.00  0.00     0.102 C 
ATOM     57  C   UNL     1     -13.815  -7.954   7.625  1.00  0.00     0.043 C 
BRANCH  56  58
ATOM     58  C   UNL     1     -14.561  -6.705   9.531  1.00  0.00     0.268 C 
ATOM     59  O   UNL     1     -14.468  -5.758  10.301  1.00  0.00    -0.268 OA
ATOM     60  N   UNL     1     -15.318  -7.823   9.789  1.00  0.00    -0.339 N 
ATOM     61  H   UNL     1     -15.335  -8.568   9.103  1.00  0.00     0.164 HD
BRANCH  60  62
ATOM     62  C   UNL     1     -16.084  -7.977  11.025  1.00  0.00     0.168 CG0
ATOM     63  C   UNL     1     -17.546  -7.603  10.812  1.00  0.00     0.041 C 
ATOM     64  G   UNL     1     -15.454  -7.110  12.135  1.00  0.00     0.000 G0
ENDBRANCH  60  62
ENDBRANCH  56  58
ENDBRANCH  54  56
ENDBRANCH  52  54
ENDBRANCH  51  52
ENDBRANCH  50  51
ENDBRANCH  49  50
BRANCH  49  65
ATOM     65  C   UNL     1     -12.234  -8.178   3.873  1.00  0.00     0.326 C 
ATOM     66  O   UNL     1     -12.389  -9.134   4.618  1.00  0.00    -0.250 OA
BRANCH  65  67
ATOM     67  O   UNL     1     -11.913  -8.383   2.576  1.00  0.00    -0.480 OA
ATOM     68  H   UNL     1     -11.597  -7.504   2.274  1.00  0.00     0.296 HD
ENDBRANCH  65  67
ENDBRANCH  49  65
ENDBRANCH  47  49
ENDBRANCH  43  45
ENDBRANCH   1  43
BRANCH   1  69
ATOM     69  C   UNL     1     -10.563  -2.650   1.294  1.00  0.00    -0.001 C 
ATOM     70  C   UNL     1     -10.022  -1.993   0.254  1.00  0.00     0.001 C 
BRANCH  70  71
ATOM     71  C   UNL     1      -9.415  -0.660   0.274  1.00  0.00    -0.055 C 
ATOM     72  C   UNL     1      -9.797   0.188   1.252  1.00  0.00    -0.018 C 
ATOM     73  C   UNL     1      -8.402  -0.333  -0.791  1.00  0.00     0.044 C 
BRANCH  72  74
ATOM     74  C   UNL     1      -9.341   1.615   1.522  1.00  0.00     0.038 C 
ATOM     75  C   UNL     1      -9.135   1.746   3.036  1.00  0.00     0.015 C 
BRANCH  74  76
ATOM     76  C   UNL     1     -10.386   2.598   0.918  1.00  0.00     0.128 C 
BRANCH  76  77
ATOM     77  O   UNL     1     -10.417   3.814   1.685  1.00  0.00    -0.381 OA
ATOM     78  C   UNL     1      -9.680   4.878   1.099  1.00  0.00     0.195 C 
ENDBRANCH  76  77
BRANCH  76  79
ATOM     79  C   UNL     1     -10.208   2.852  -0.600  1.00  0.00     0.068 C 
BRANCH  79  80
ATOM     80  C   UNL     1     -11.268   2.321  -1.535  1.00  0.00    -0.045 A 
ATOM     81  C   UNL     1     -10.925   1.538  -2.645  1.00  0.00     0.004 A 
ATOM     82  C   UNL     1     -12.619   2.631  -1.320  1.00  0.00     0.004 A 
ATOM     83  C   UNL     1     -11.911   1.063  -3.513  1.00  0.00     0.000 A 
ATOM     84  C   UNL     1     -13.604   2.156  -2.189  1.00  0.00     0.000 A 
ATOM     85  C   UNL     1     -13.250   1.371  -3.284  1.00  0.00     0.000 A 
ENDBRANCH  79  80
ENDBRANCH  76  79
ENDBRANCH  74  76
ENDBRANCH  72  74
ENDBRANCH  70  71
ENDBRANCH   1  69
TORSDOF 17
ENDMDL
MODEL 46
REMARK VINA RESULT:    -6.253      5.385     10.587
REMARK INTER + INTRA:         -25.549
REMARK INTER:                 -18.405
REMARK INTRA:                  -7.144
REMARK UNBOUND:                -6.869
REMARK SMILES C=C1C(=O)N[C@H](C)C(=O)N[C@@H](CC(C)C)C(=O)N[C@@H](C(=O)O)[C@H](C)C(=O)N[C@@H](CCCN=C(N)N)C(=O)N[C@@H](/C=C/C(C)=C/[C@H](C)[C@H](Cc2ccccc2)OC)[C@H](C)C(=O)N[C@@H](C(=O)O)CCC(=O)N1C
REMARK SMILES IDX 39 1 38 2 37 3 36 4 28 6 27 7 25 8 26 9 23 11 24 12 19 13
REMARK SMILES IDX 18 14 16 15 17 16 11 18 10 19 8 20 9 21 12 24 13 25 14 26
REMARK SMILES IDX 15 27 20 28 21 29 22 30 29 32 30 33 31 34 32 35 33 36 34 37
REMARK SMILES IDX 35 38 57 43 58 44 59 45 60 46 61 47 62 49 66 50 67 51 68 52
REMARK SMILES IDX 69 53 70 54 71 55 2 56 1 57 3 58 4 59 5 60 6 62 7 63 63 65
REMARK SMILES IDX 64 66 65 67 40 69 41 70 42 71 44 72 43 73 45 74 46 75 47 76
REMARK SMILES IDX 55 77 56 78 48 79 49 80 50 81 54 82 51 83 53 84 52 85
REMARK H PARENT 38 5 27 10 18 17 10 22 22 31 34 39 34 40 35 41 35 42 61 48
REMARK H PARENT 5 61 65 68
REMARK Flexibility Score:  369.900
ROOT
ATOM      1  C   UNL     1      -9.144  -6.466  -0.636  1.00  0.00     0.117 C 
ENDROOT
BRANCH   1   2
ATOM      2  N   UNL     1     -10.026  -5.370  -0.235  1.00  0.00    -0.347 N 
ATOM      3  O   UNL     1      -8.403  -3.886   0.423  1.00  0.00    -0.273 OA
ATOM      4  C   UNL     1      -9.580  -4.129   0.178  1.00  0.00     0.243 C 
ATOM      5  H   UNL     1     -11.026  -5.489  -0.304  1.00  0.00     0.164 HD
BRANCH   4   6
ATOM      6  C   UNL     1     -10.721  -3.120   0.462  1.00  0.00     0.171 C 
BRANCH   6   7
ATOM      7  N   UNL     1     -10.840  -2.872   1.908  1.00  0.00    -0.344 N 
ATOM      8  C   UNL     1     -11.384  -3.825   2.742  1.00  0.00     0.226 C 
ATOM      9  O   UNL     1     -11.810  -4.897   2.330  1.00  0.00    -0.275 OA
ATOM     10  H   UNL     1     -10.562  -1.971   2.276  1.00  0.00     0.164 HD
BRANCH   8  11
ATOM     11  C   UNL     1     -11.387  -3.442   4.211  1.00  0.00     0.109 C 
ATOM     12  C   UNL     1     -10.142  -2.620   4.543  1.00  0.00     0.021 C 
BRANCH  11  13
ATOM     13  C   UNL     1     -12.725  -2.766   4.571  1.00  0.00     0.204 C 
BRANCH  13  14
ATOM     14  N   UNL     1     -13.232  -3.206   5.875  1.00  0.00    -0.340 N 
ATOM     15  C   UNL     1     -14.258  -4.116   6.010  1.00  0.00     0.243 C 
ATOM     16  O   UNL     1     -14.781  -4.671   5.045  1.00  0.00    -0.273 OA
ATOM     17  H   UNL     1     -12.950  -2.676   6.704  1.00  0.00     0.164 HD
BRANCH  15  18
ATOM     18  C   UNL     1     -14.761  -4.268   7.467  1.00  0.00     0.171 C 
BRANCH  18  19
ATOM     19  N   UNL     1     -15.787  -3.246   7.665  1.00  0.00    -0.343 N 
ATOM     20  C   UNL     1     -16.411  -3.066   8.884  1.00  0.00     0.242 CG0
ATOM     21  O   UNL     1     -16.229  -3.841   9.820  1.00  0.00    -0.273 OA
ATOM     22  H   UNL     1     -16.056  -2.655   6.887  1.00  0.00     0.164 HD
ATOM     23  G   UNL     1     -17.407  -1.889   8.922  1.00  0.00     0.000 G0
ENDBRANCH  18  19
BRANCH  18  24
ATOM     24  C   UNL     1     -15.319  -5.677   7.702  1.00  0.00     0.038 C 
BRANCH  24  25
ATOM     25  C   UNL     1     -14.344  -6.649   8.400  1.00  0.00    -0.015 C 
ATOM     26  C   UNL     1     -13.337  -5.925   9.294  1.00  0.00     0.007 C 
ATOM     27  C   UNL     1     -13.599  -7.474   7.348  1.00  0.00     0.007 C 
ENDBRANCH  24  25
ENDBRANCH  18  24
ENDBRANCH  15  18
ENDBRANCH  13  14
BRANCH  13  28
ATOM     28  C   UNL     1     -12.638  -1.237   4.611  1.00  0.00     0.327 C 
ATOM     29  O   UNL     1     -12.457  -0.499   3.655  1.00  0.00    -0.250 OA
BRANCH  28  30
ATOM     30  O   UNL     1     -12.664  -0.738   5.863  1.00  0.00    -0.480 OA
ATOM     31  H   UNL     1     -13.102  -1.437   6.392  1.00  0.00     0.296 HD
ENDBRANCH  28  30
ENDBRANCH  13  28
ENDBRANCH  11  13
ENDBRANCH   8  11
ENDBRANCH   6   7
BRANCH   6  32
ATOM     32  C   UNL     1     -10.441  -1.817  -0.295  1.00  0.00     0.037 C 
BRANCH  32  33
ATOM     33  C   UNL     1     -10.092  -0.660   0.652  1.00  0.00     0.026 C 
BRANCH  33  34
ATOM     34  C   UNL     1      -9.084   0.314   0.040  1.00  0.00     0.146 C 
BRANCH  34  35
ATOM     35  N   UNL     1      -8.106  -0.444  -0.728  1.00  0.00    -0.254 NA
ATOM     36  C   UNL     1      -6.862  -0.183  -0.566  1.00  0.00     0.185 C 
ATOM     37  N   UNL     1      -5.952  -0.879  -1.266  1.00  0.00    -0.370 N 
ATOM     38  N   UNL     1      -6.288   0.728   0.239  1.00  0.00    -0.370 N 
ATOM     39  H   UNL     1      -6.307  -1.593  -1.889  1.00  0.00     0.159 HD
ATOM     40  H   UNL     1      -4.966  -0.857  -1.071  1.00  0.00     0.159 HD
ATOM     41  H   UNL     1      -5.304   0.934   0.174  1.00  0.00     0.159 HD
ATOM     42  H   UNL     1      -6.853   1.334   0.812  1.00  0.00     0.159 HD
ENDBRANCH  34  35
ENDBRANCH  33  34
ENDBRANCH  32  33
ENDBRANCH   6  32
ENDBRANCH   4   6
ENDBRANCH   1   2
BRANCH   1  43
ATOM     43  C   UNL     1      -9.708  -7.106  -1.937  1.00  0.00     0.102 C 
ATOM     44  C   UNL     1      -8.963  -8.381  -2.365  1.00  0.00     0.020 C 
BRANCH  43  45
ATOM     45  C   UNL     1      -9.843  -6.062  -3.050  1.00  0.00     0.225 C 
ATOM     46  O   UNL     1     -10.880  -5.888  -3.684  1.00  0.00    -0.275 OA
ATOM     47  N   UNL     1      -8.690  -5.382  -3.368  1.00  0.00    -0.342 N 
ATOM     48  H   UNL     1      -7.896  -5.425  -2.744  1.00  0.00     0.164 HD
BRANCH  47  49
ATOM     49  C   UNL     1      -8.677  -4.329  -4.388  1.00  0.00     0.192 C 
BRANCH  49  50
ATOM     50  C   UNL     1      -7.405  -4.445  -5.231  1.00  0.00     0.047 C 
BRANCH  50  51
ATOM     51  C   UNL     1      -6.826  -5.866  -5.218  1.00  0.00     0.103 C 
BRANCH  51  52
ATOM     52  C   UNL     1      -6.328  -6.296  -6.597  1.00  0.00     0.226 C 
ATOM     53  O   UNL     1      -7.038  -7.012  -7.306  1.00  0.00    -0.275 OA
BRANCH  52  54
ATOM     54  N   UNL     1      -5.090  -5.769  -7.008  1.00  0.00    -0.311 N 
ATOM     55  C   UNL     1      -3.828  -6.407  -6.610  1.00  0.00     0.153 C 
BRANCH  54  56
ATOM     56  C   UNL     1      -5.013  -4.623  -7.816  1.00  0.00     0.102 C 
ATOM     57  C   UNL     1      -5.563  -4.504  -9.035  1.00  0.00     0.043 C 
BRANCH  56  58
ATOM     58  C   UNL     1      -4.314  -3.376  -7.328  1.00  0.00     0.268 C 
ATOM     59  O   UNL     1      -4.806  -2.609  -6.511  1.00  0.00    -0.268 OA
ATOM     60  N   UNL     1      -3.049  -3.229  -7.843  1.00  0.00    -0.339 N 
ATOM     61  H   UNL     1      -2.718  -3.903  -8.523  1.00  0.00     0.164 HD
BRANCH  60  62
ATOM     62  C   UNL     1      -2.173  -2.124  -7.455  1.00  0.00     0.168 CG0
ATOM     63  C   UNL     1      -1.817  -1.260  -8.658  1.00  0.00     0.041 C 
ATOM     64  G   UNL     1      -0.899  -2.683  -6.788  1.00  0.00     0.000 G0
ENDBRANCH  60  62
ENDBRANCH  56  58
ENDBRANCH  54  56
ENDBRANCH  52  54
ENDBRANCH  51  52
ENDBRANCH  50  51
ENDBRANCH  49  50
BRANCH  49  65
ATOM     65  C   UNL     1      -8.744  -2.929  -3.758  1.00  0.00     0.326 C 
ATOM     66  O   UNL     1      -7.782  -2.252  -3.426  1.00  0.00    -0.250 OA
BRANCH  65  67
ATOM     67  O   UNL     1      -9.995  -2.476  -3.521  1.00  0.00    -0.480 OA
ATOM     68  H   UNL     1     -10.261  -2.949  -2.703  1.00  0.00     0.296 HD
ENDBRANCH  65  67
ENDBRANCH  49  65
ENDBRANCH  47  49
ENDBRANCH  43  45
ENDBRANCH   1  43
BRANCH   1  69
ATOM     69  C   UNL     1      -8.966  -7.338   0.593  1.00  0.00    -0.001 C 
ATOM     70  C   UNL     1      -9.927  -7.956   1.303  1.00  0.00     0.001 C 
BRANCH  70  71
ATOM     71  C   UNL     1      -9.741  -8.813   2.475  1.00  0.00    -0.055 C 
ATOM     72  C   UNL     1     -10.406  -8.486   3.603  1.00  0.00    -0.018 C 
ATOM     73  C   UNL     1      -8.828 -10.003   2.337  1.00  0.00     0.044 C 
BRANCH  72  74
ATOM     74  C   UNL     1     -10.409  -9.184   4.956  1.00  0.00     0.038 C 
ATOM     75  C   UNL     1     -11.770  -9.873   5.107  1.00  0.00     0.015 C 
BRANCH  74  76
ATOM     76  C   UNL     1     -10.081  -8.136   6.061  1.00  0.00     0.128 C 
BRANCH  76  77
ATOM     77  O   UNL     1      -8.821  -8.452   6.677  1.00  0.00    -0.381 OA
ATOM     78  C   UNL     1      -8.773  -9.754   7.244  1.00  0.00     0.195 C 
ENDBRANCH  76  77
BRANCH  76  79
ATOM     79  C   UNL     1     -10.161  -6.666   5.578  1.00  0.00     0.068 C 
BRANCH  79  80
ATOM     80  C   UNL     1      -9.166  -5.681   6.143  1.00  0.00    -0.045 A 
ATOM     81  C   UNL     1      -7.962  -5.410   5.479  1.00  0.00     0.004 A 
ATOM     82  C   UNL     1      -9.421  -5.040   7.364  1.00  0.00     0.004 A 
ATOM     83  C   UNL     1      -7.041  -4.508   6.015  1.00  0.00     0.000 A 
ATOM     84  C   UNL     1      -8.499  -4.139   7.900  1.00  0.00     0.000 A 
ATOM     85  C   UNL     1      -7.310  -3.872   7.225  1.00  0.00     0.000 A 
ENDBRANCH  79  80
ENDBRANCH  76  79
ENDBRANCH  74  76
ENDBRANCH  72  74
ENDBRANCH  70  71
ENDBRANCH   1  69
TORSDOF 17
ENDMDL
MODEL 47
REMARK VINA RESULT:    -6.224      8.377     17.178
REMARK INTER + INTRA:         -25.463
REMARK INTER:                 -17.596
REMARK INTRA:                  -7.867
REMARK UNBOUND:                -6.869
REMARK SMILES C=C1C(=O)N[C@H](C)C(=O)N[C@@H](CC(C)C)C(=O)N[C@@H](C(=O)O)[C@H](C)C(=O)N[C@@H](CCCN=C(N)N)C(=O)N[C@@H](/C=C/C(C)=C/[C@H](C)[C@H](Cc2ccccc2)OC)[C@H](C)C(=O)N[C@@H](C(=O)O)CCC(=O)N1C
REMARK SMILES IDX 39 1 38 2 37 3 36 4 28 6 27 7 25 8 26 9 23 11 24 12 19 13
REMARK SMILES IDX 18 14 16 15 17 16 11 18 10 19 8 20 9 21 12 24 13 25 14 26
REMARK SMILES IDX 15 27 20 28 21 29 22 30 29 32 30 33 31 34 32 35 33 36 34 37
REMARK SMILES IDX 35 38 57 43 58 44 59 45 60 46 61 47 62 49 66 50 67 51 68 52
REMARK SMILES IDX 69 53 70 54 71 55 2 56 1 57 3 58 4 59 5 60 6 62 7 63 63 65
REMARK SMILES IDX 64 66 65 67 40 69 41 70 42 71 44 72 43 73 45 74 46 75 47 76
REMARK SMILES IDX 55 77 56 78 48 79 49 80 50 81 54 82 51 83 53 84 52 85
REMARK H PARENT 38 5 27 10 18 17 10 22 22 31 34 39 34 40 35 41 35 42 61 48
REMARK H PARENT 5 61 65 68
REMARK Flexibility Score:  369.900
ROOT
ATOM      1  C   UNL     1     -11.483  -2.025   3.525  1.00  0.00     0.117 C 
ENDROOT
BRANCH   1   2
ATOM      2  N   UNL     1     -11.681  -2.520   2.162  1.00  0.00    -0.347 N 
ATOM      3  O   UNL     1      -9.544  -2.184   1.394  1.00  0.00    -0.273 OA
ATOM      4  C   UNL     1     -10.668  -2.646   1.230  1.00  0.00     0.243 C 
ATOM      5  H   UNL     1     -12.594  -2.842   1.880  1.00  0.00     0.164 HD
BRANCH   4   6
ATOM      6  C   UNL     1     -11.128  -3.277  -0.108  1.00  0.00     0.171 C 
BRANCH   6   7
ATOM      7  N   UNL     1     -10.188  -2.936  -1.188  1.00  0.00    -0.344 N 
ATOM      8  C   UNL     1     -10.344  -1.776  -1.916  1.00  0.00     0.226 C 
ATOM      9  O   UNL     1     -11.269  -0.995  -1.723  1.00  0.00    -0.275 OA
ATOM     10  H   UNL     1      -9.451  -3.589  -1.422  1.00  0.00     0.164 HD
BRANCH   8  11
ATOM     11  C   UNL     1      -9.263  -1.539  -2.956  1.00  0.00     0.109 C 
ATOM     12  C   UNL     1      -9.896  -1.182  -4.301  1.00  0.00     0.021 C 
BRANCH  11  13
ATOM     13  C   UNL     1      -8.245  -0.510  -2.425  1.00  0.00     0.204 C 
BRANCH  13  14
ATOM     14  N   UNL     1      -8.864   0.458  -1.514  1.00  0.00    -0.340 N 
ATOM     15  C   UNL     1      -8.394   1.744  -1.357  1.00  0.00     0.243 C 
ATOM     16  O   UNL     1      -7.457   2.190  -2.017  1.00  0.00    -0.273 OA
ATOM     17  H   UNL     1      -9.542   0.109  -0.831  1.00  0.00     0.164 HD
BRANCH  15  18
ATOM     18  C   UNL     1      -9.070   2.512  -0.195  1.00  0.00     0.171 C 
BRANCH  18  19
ATOM     19  N   UNL     1      -9.744   3.664  -0.792  1.00  0.00    -0.343 N 
ATOM     20  C   UNL     1      -9.365   4.961  -0.501  1.00  0.00     0.242 CG0
ATOM     21  O   UNL     1      -8.536   5.209   0.371  1.00  0.00    -0.273 OA
ATOM     22  H   UNL     1     -10.515   3.513  -1.433  1.00  0.00     0.164 HD
ATOM     23  G   UNL     1     -10.138   6.041  -1.285  1.00  0.00     0.000 G0
ENDBRANCH  18  19
BRANCH  18  24
ATOM     24  C   UNL     1     -10.059   1.607   0.550  1.00  0.00     0.038 C 
BRANCH  24  25
ATOM     25  C   UNL     1      -9.896   1.600   2.084  1.00  0.00    -0.015 C 
ATOM     26  C   UNL     1     -10.022   2.997   2.693  1.00  0.00     0.007 C 
ATOM     27  C   UNL     1      -8.539   0.997   2.455  1.00  0.00     0.007 C 
ENDBRANCH  24  25
ENDBRANCH  18  24
ENDBRANCH  15  18
ENDBRANCH  13  14
BRANCH  13  28
ATOM     28  C   UNL     1      -7.072  -1.152  -1.677  1.00  0.00     0.327 C 
ATOM     29  O   UNL     1      -5.890  -0.879  -1.818  1.00  0.00    -0.250 OA
BRANCH  28  30
ATOM     30  O   UNL     1      -7.447  -2.178  -0.887  1.00  0.00    -0.480 OA
ATOM     31  H   UNL     1      -7.643  -2.906  -1.513  1.00  0.00     0.296 HD
ENDBRANCH  28  30
ENDBRANCH  13  28
ENDBRANCH  11  13
ENDBRANCH   8  11
ENDBRANCH   6   7
BRANCH   6  32
ATOM     32  C   UNL     1     -11.237  -4.796   0.063  1.00  0.00     0.037 C 
BRANCH  32  33
ATOM     33  C   UNL     1     -10.505  -5.558  -1.051  1.00  0.00     0.026 C 
BRANCH  33  34
ATOM     34  C   UNL     1      -9.223  -6.228  -0.557  1.00  0.00     0.146 C 
BRANCH  34  35
ATOM     35  N   UNL     1      -8.199  -5.208  -0.376  1.00  0.00    -0.254 NA
ATOM     36  C   UNL     1      -7.239  -5.439   0.440  1.00  0.00     0.185 C 
ATOM     37  N   UNL     1      -6.288  -4.508   0.611  1.00  0.00    -0.370 N 
ATOM     38  N   UNL     1      -7.016  -6.529   1.196  1.00  0.00    -0.370 N 
ATOM     39  H   UNL     1      -6.380  -3.660   0.067  1.00  0.00     0.159 HD
ATOM     40  H   UNL     1      -5.422  -4.679   1.092  1.00  0.00     0.159 HD
ATOM     41  H   UNL     1      -6.300  -6.534   1.904  1.00  0.00     0.159 HD
ATOM     42  H   UNL     1      -7.661  -7.304   1.181  1.00  0.00     0.159 HD
ENDBRANCH  34  35
ENDBRANCH  33  34
ENDBRANCH  32  33
ENDBRANCH   6  32
ENDBRANCH   4   6
ENDBRANCH   1   2
BRANCH   1  43
ATOM     43  C   UNL     1     -11.959  -3.119   4.523  1.00  0.00     0.102 C 
ATOM     44  C   UNL     1     -10.941  -3.417   5.637  1.00  0.00     0.020 C 
BRANCH  43  45
ATOM     45  C   UNL     1     -12.450  -4.366   3.781  1.00  0.00     0.225 C 
ATOM     46  O   UNL     1     -13.512  -4.405   3.165  1.00  0.00    -0.275 OA
ATOM     47  N   UNL     1     -11.665  -5.487   3.922  1.00  0.00    -0.342 N 
ATOM     48  H   UNL     1     -10.732  -5.400   4.298  1.00  0.00     0.164 HD
BRANCH  47  49
ATOM     49  C   UNL     1     -11.993  -6.742   3.239  1.00  0.00     0.192 C 
BRANCH  49  50
ATOM     50  C   UNL     1     -12.634  -7.716   4.231  1.00  0.00     0.047 C 
BRANCH  50  51
ATOM     51  C   UNL     1     -11.650  -8.174   5.316  1.00  0.00     0.103 C 
BRANCH  51  52
ATOM     52  C   UNL     1     -12.023  -7.634   6.695  1.00  0.00     0.226 C 
ATOM     53  O   UNL     1     -12.230  -6.427   6.842  1.00  0.00    -0.275 OA
BRANCH  52  54
ATOM     54  N   UNL     1     -12.184  -8.585   7.719  1.00  0.00    -0.311 N 
ATOM     55  C   UNL     1     -11.243  -9.705   7.865  1.00  0.00     0.153 C 
BRANCH  54  56
ATOM     56  C   UNL     1     -13.241  -8.499   8.640  1.00  0.00     0.102 C 
ATOM     57  C   UNL     1     -14.538  -8.379   8.312  1.00  0.00     0.043 C 
BRANCH  56  58
ATOM     58  C   UNL     1     -12.983  -8.584  10.126  1.00  0.00     0.268 C 
ATOM     59  O   UNL     1     -12.324  -7.755  10.740  1.00  0.00    -0.268 OA
ATOM     60  N   UNL     1     -13.617  -9.646  10.725  1.00  0.00    -0.339 N 
ATOM     61  H   UNL     1     -14.136 -10.294  10.144  1.00  0.00     0.164 HD
BRANCH  60  62
ATOM     62  C   UNL     1     -13.553  -9.879  12.167  1.00  0.00     0.168 CG0
ATOM     63  C   UNL     1     -13.787 -11.349  12.494  1.00  0.00     0.041 C 
ATOM     64  G   UNL     1     -14.590  -8.989  12.882  1.00  0.00     0.000 G0
ENDBRANCH  60  62
ENDBRANCH  56  58
ENDBRANCH  54  56
ENDBRANCH  52  54
ENDBRANCH  51  52
ENDBRANCH  50  51
ENDBRANCH  49  50
BRANCH  49  65
ATOM     65  C   UNL     1     -10.745  -7.393   2.622  1.00  0.00     0.326 C 
ATOM     66  O   UNL     1     -10.733  -8.425   1.965  1.00  0.00    -0.250 OA
BRANCH  65  67
ATOM     67  O   UNL     1      -9.583  -6.765   2.904  1.00  0.00    -0.480 OA
ATOM     68  H   UNL     1      -8.929  -7.219   2.331  1.00  0.00     0.296 HD
ENDBRANCH  65  67
ENDBRANCH  49  65
ENDBRANCH  47  49
ENDBRANCH  43  45
ENDBRANCH   1  43
BRANCH   1  69
ATOM     69  C   UNL     1     -12.131  -0.654   3.575  1.00  0.00    -0.001 C 
ATOM     70  C   UNL     1     -12.564   0.005   4.665  1.00  0.00     0.001 C 
BRANCH  70  71
ATOM     71  C   UNL     1     -13.169   1.338   4.703  1.00  0.00    -0.055 C 
ATOM     72  C   UNL     1     -13.328   1.921   5.911  1.00  0.00    -0.018 C 
ATOM     73  C   UNL     1     -13.563   1.969   3.393  1.00  0.00     0.044 C 
BRANCH  72  74
ATOM     74  C   UNL     1     -13.915   3.282   6.253  1.00  0.00     0.038 C 
ATOM     75  C   UNL     1     -15.069   3.536   5.276  1.00  0.00     0.015 C 
BRANCH  74  76
ATOM     76  C   UNL     1     -12.777   4.344   6.210  1.00  0.00     0.128 C 
BRANCH  76  77
ATOM     77  O   UNL     1     -11.656   3.894   6.989  1.00  0.00    -0.381 OA
ATOM     78  C   UNL     1     -10.414   3.976   6.303  1.00  0.00     0.195 C 
ENDBRANCH  76  77
BRANCH  76  79
ATOM     79  C   UNL     1     -12.376   4.779   4.778  1.00  0.00     0.068 C 
BRANCH  79  80
ATOM     80  C   UNL     1     -12.622   6.214   4.380  1.00  0.00    -0.045 A 
ATOM     81  C   UNL     1     -13.079   7.154   5.313  1.00  0.00     0.004 A 
ATOM     82  C   UNL     1     -12.423   6.624   3.053  1.00  0.00     0.004 A 
ATOM     83  C   UNL     1     -13.318   8.476   4.933  1.00  0.00     0.000 A 
ATOM     84  C   UNL     1     -12.663   7.947   2.674  1.00  0.00     0.000 A 
ATOM     85  C   UNL     1     -13.109   8.872   3.614  1.00  0.00     0.000 A 
ENDBRANCH  79  80
ENDBRANCH  76  79
ENDBRANCH  74  76
ENDBRANCH  72  74
ENDBRANCH  70  71
ENDBRANCH   1  69
TORSDOF 17
ENDMDL
MODEL 48
REMARK VINA RESULT:    -6.200      5.412     14.233
REMARK INTER + INTRA:         -25.392
REMARK INTER:                 -18.015
REMARK INTRA:                  -7.377
REMARK UNBOUND:                -6.869
REMARK SMILES C=C1C(=O)N[C@H](C)C(=O)N[C@@H](CC(C)C)C(=O)N[C@@H](C(=O)O)[C@H](C)C(=O)N[C@@H](CCCN=C(N)N)C(=O)N[C@@H](/C=C/C(C)=C/[C@H](C)[C@H](Cc2ccccc2)OC)[C@H](C)C(=O)N[C@@H](C(=O)O)CCC(=O)N1C
REMARK SMILES IDX 39 1 38 2 37 3 36 4 28 6 27 7 25 8 26 9 23 11 24 12 19 13
REMARK SMILES IDX 18 14 16 15 17 16 11 18 10 19 8 20 9 21 12 24 13 25 14 26
REMARK SMILES IDX 15 27 20 28 21 29 22 30 29 32 30 33 31 34 32 35 33 36 34 37
REMARK SMILES IDX 35 38 57 43 58 44 59 45 60 46 61 47 62 49 66 50 67 51 68 52
REMARK SMILES IDX 69 53 70 54 71 55 2 56 1 57 3 58 4 59 5 60 6 62 7 63 63 65
REMARK SMILES IDX 64 66 65 67 40 69 41 70 42 71 44 72 43 73 45 74 46 75 47 76
REMARK SMILES IDX 55 77 56 78 48 79 49 80 50 81 54 82 51 83 53 84 52 85
REMARK H PARENT 38 5 27 10 18 17 10 22 22 31 34 39 34 40 35 41 35 42 61 48
REMARK H PARENT 5 61 65 68
REMARK Flexibility Score:  369.900
ROOT
ATOM      1  C   UNL     1      -9.966  -1.733  -1.573  1.00  0.00     0.117 C 
ENDROOT
BRANCH   1   2
ATOM      2  N   UNL     1      -9.663  -2.524  -2.766  1.00  0.00    -0.347 N 
ATOM      3  O   UNL     1      -7.373  -2.411  -2.644  1.00  0.00    -0.273 OA
ATOM      4  C   UNL     1      -8.386  -2.878  -3.156  1.00  0.00     0.243 C 
ATOM      5  H   UNL     1     -10.421  -2.885  -3.325  1.00  0.00     0.164 HD
BRANCH   4   6
ATOM      6  C   UNL     1      -8.347  -3.791  -4.408  1.00  0.00     0.171 C 
BRANCH   6   7
ATOM      7  N   UNL     1      -8.192  -2.984  -5.629  1.00  0.00    -0.344 N 
ATOM      8  C   UNL     1      -8.897  -3.295  -6.771  1.00  0.00     0.226 C 
ATOM      9  O   UNL     1      -9.657  -4.254  -6.837  1.00  0.00    -0.275 OA
ATOM     10  H   UNL     1      -7.522  -2.225  -5.633  1.00  0.00     0.164 HD
BRANCH   8  11
ATOM     11  C   UNL     1      -8.670  -2.337  -7.927  1.00  0.00     0.109 C 
ATOM     12  C   UNL     1      -7.788  -1.172  -7.479  1.00  0.00     0.021 C 
BRANCH  11  13
ATOM     13  C   UNL     1      -8.146  -3.113  -9.152  1.00  0.00     0.204 C 
BRANCH  13  14
ATOM     14  N   UNL     1      -7.372  -4.296  -8.766  1.00  0.00    -0.340 N 
ATOM     15  C   UNL     1      -6.001  -4.364  -8.886  1.00  0.00     0.243 C 
ATOM     16  O   UNL     1      -5.323  -3.413  -9.269  1.00  0.00    -0.273 OA
ATOM     17  H   UNL     1      -7.881  -5.166  -8.586  1.00  0.00     0.164 HD
BRANCH  15  18
ATOM     18  C   UNL     1      -5.426  -5.777  -8.616  1.00  0.00     0.171 C 
BRANCH  18  19
ATOM     19  N   UNL     1      -4.285  -5.600  -7.719  1.00  0.00    -0.343 N 
ATOM     20  C   UNL     1      -3.041  -6.125  -8.011  1.00  0.00     0.242 CG0
ATOM     21  O   UNL     1      -2.867  -6.875  -8.968  1.00  0.00    -0.273 OA
ATOM     22  H   UNL     1      -4.407  -5.084  -6.855  1.00  0.00     0.164 HD
ATOM     23  G   UNL     1      -1.944  -5.768  -6.986  1.00  0.00     0.000 G0
ENDBRANCH  18  19
BRANCH  18  24
ATOM     24  C   UNL     1      -6.493  -6.686  -7.995  1.00  0.00     0.038 C 
BRANCH  24  25
ATOM     25  C   UNL     1      -6.425  -8.161  -8.445  1.00  0.00    -0.015 C 
ATOM     26  C   UNL     1      -5.534  -9.009  -7.538  1.00  0.00     0.007 C 
ATOM     27  C   UNL     1      -5.913  -8.236  -9.886  1.00  0.00     0.007 C 
ENDBRANCH  24  25
ENDBRANCH  18  24
ENDBRANCH  15  18
ENDBRANCH  13  14
BRANCH  13  28
ATOM     28  C   UNL     1      -9.262  -3.586 -10.089  1.00  0.00     0.327 C 
ATOM     29  O   UNL     1      -9.155  -4.417 -10.978  1.00  0.00    -0.250 OA
BRANCH  28  30
ATOM     30  O   UNL     1     -10.413  -2.902  -9.928  1.00  0.00    -0.480 OA
ATOM     31  H   UNL     1     -10.619  -2.996  -8.975  1.00  0.00     0.296 HD
ENDBRANCH  28  30
ENDBRANCH  13  28
ENDBRANCH  11  13
ENDBRANCH   8  11
ENDBRANCH   6   7
BRANCH   6  32
ATOM     32  C   UNL     1      -7.195  -4.793  -4.264  1.00  0.00     0.037 C 
BRANCH  32  33
ATOM     33  C   UNL     1      -7.695  -6.242  -4.183  1.00  0.00     0.026 C 
BRANCH  33  34
ATOM     34  C   UNL     1      -8.815  -6.418  -3.157  1.00  0.00     0.146 C 
BRANCH  34  35
ATOM     35  N   UNL     1      -8.236  -6.885  -1.905  1.00  0.00    -0.254 NA
ATOM     36  C   UNL     1      -8.509  -8.072  -1.507  1.00  0.00     0.185 C 
ATOM     37  N   UNL     1      -7.977  -8.515  -0.358  1.00  0.00    -0.370 N 
ATOM     38  N   UNL     1      -9.288  -9.001  -2.091  1.00  0.00    -0.370 N 
ATOM     39  H   UNL     1      -7.369  -7.876   0.137  1.00  0.00     0.159 HD
ATOM     40  H   UNL     1      -8.000  -9.478  -0.069  1.00  0.00     0.159 HD
ATOM     41  H   UNL     1      -9.536  -9.849  -1.610  1.00  0.00     0.159 HD
ATOM     42  H   UNL     1      -9.766  -8.799  -2.955  1.00  0.00     0.159 HD
ENDBRANCH  34  35
ENDBRANCH  33  34
ENDBRANCH  32  33
ENDBRANCH   6  32
ENDBRANCH   4   6
ENDBRANCH   1   2
BRANCH   1  43
ATOM     43  C   UNL     1     -11.109  -2.439  -0.788  1.00  0.00     0.102 C 
ATOM     44  C   UNL     1     -11.578  -1.653   0.448  1.00  0.00     0.020 C 
BRANCH  43  45
ATOM     45  C   UNL     1     -10.758  -3.901  -0.499  1.00  0.00     0.225 C 
ATOM     46  O   UNL     1     -11.162  -4.836  -1.183  1.00  0.00    -0.275 OA
ATOM     47  N   UNL     1     -10.027  -4.119   0.647  1.00  0.00    -0.342 N 
ATOM     48  H   UNL     1      -9.578  -3.341   1.110  1.00  0.00     0.164 HD
BRANCH  47  49
ATOM     49  C   UNL     1      -9.587  -5.464   1.031  1.00  0.00     0.192 C 
BRANCH  49  50
ATOM     50  C   UNL     1     -10.545  -6.038   2.078  1.00  0.00     0.047 C 
BRANCH  50  51
ATOM     51  C   UNL     1     -11.356  -4.944   2.788  1.00  0.00     0.103 C 
BRANCH  51  52
ATOM     52  C   UNL     1     -11.239  -5.039   4.308  1.00  0.00     0.226 C 
ATOM     53  O   UNL     1     -10.604  -4.182   4.925  1.00  0.00    -0.275 OA
BRANCH  52  54
ATOM     54  N   UNL     1     -11.947  -6.086   4.927  1.00  0.00    -0.311 N 
ATOM     55  C   UNL     1     -11.267  -7.322   5.334  1.00  0.00     0.153 C 
BRANCH  54  56
ATOM     56  C   UNL     1     -13.325  -5.987   5.183  1.00  0.00     0.102 C 
ATOM     57  C   UNL     1     -14.265  -5.756   4.252  1.00  0.00     0.043 C 
BRANCH  56  58
ATOM     58  C   UNL     1     -13.871  -6.186   6.577  1.00  0.00     0.268 C 
ATOM     59  O   UNL     1     -14.189  -7.281   7.021  1.00  0.00    -0.268 OA
ATOM     60  N   UNL     1     -13.910  -5.026   7.313  1.00  0.00    -0.339 N 
ATOM     61  H   UNL     1     -13.638  -4.158   6.869  1.00  0.00     0.164 HD
BRANCH  60  62
ATOM     62  C   UNL     1     -14.345  -5.004   8.709  1.00  0.00     0.168 CG0
ATOM     63  C   UNL     1     -15.663  -4.254   8.859  1.00  0.00     0.041 C 
ATOM     64  G   UNL     1     -13.249  -4.360   9.582  1.00  0.00     0.000 G0
ENDBRANCH  60  62
ENDBRANCH  56  58
ENDBRANCH  54  56
ENDBRANCH  52  54
ENDBRANCH  51  52
ENDBRANCH  50  51
ENDBRANCH  49  50
BRANCH  49  65
ATOM     65  C   UNL     1      -8.160  -5.453   1.599  1.00  0.00     0.326 C 
ATOM     66  O   UNL     1      -7.860  -5.244   2.766  1.00  0.00    -0.250 OA
BRANCH  65  67
ATOM     67  O   UNL     1      -7.186  -5.640   0.681  1.00  0.00    -0.480 OA
ATOM     68  H   UNL     1      -6.440  -6.002   1.205  1.00  0.00     0.296 HD
ENDBRANCH  65  67
ENDBRANCH  49  65
ENDBRANCH  47  49
ENDBRANCH  43  45
ENDBRANCH   1  43
BRANCH   1  69
ATOM     69  C   UNL     1     -10.174  -0.308  -2.050  1.00  0.00    -0.001 C 
ATOM     70  C   UNL     1     -10.906   0.103  -3.101  1.00  0.00     0.001 C 
BRANCH  70  71
ATOM     71  C   UNL     1     -11.118   1.483  -3.540  1.00  0.00    -0.055 C 
ATOM     72  C   UNL     1     -10.030   2.269  -3.685  1.00  0.00    -0.018 C 
ATOM     73  C   UNL     1     -12.532   1.927  -3.806  1.00  0.00     0.044 C 
BRANCH  72  74
ATOM     74  C   UNL     1      -9.945   3.724  -4.124  1.00  0.00     0.038 C 
ATOM     75  C   UNL     1      -9.627   3.727  -5.624  1.00  0.00     0.015 C 
BRANCH  74  76
ATOM     76  C   UNL     1      -8.897   4.455  -3.234  1.00  0.00     0.128 C 
BRANCH  76  77
ATOM     77  O   UNL     1      -8.697   5.796  -3.712  1.00  0.00    -0.381 OA
ATOM     78  C   UNL     1      -9.752   6.686  -3.376  1.00  0.00     0.195 C 
ENDBRANCH  76  77
BRANCH  76  79
ATOM     79  C   UNL     1      -9.212   4.401  -1.718  1.00  0.00     0.068 C 
BRANCH  79  80
ATOM     80  C   UNL     1      -8.725   3.204  -0.937  1.00  0.00    -0.045 A 
ATOM     81  C   UNL     1      -9.465   2.693   0.138  1.00  0.00     0.004 A 
ATOM     82  C   UNL     1      -7.502   2.598  -1.262  1.00  0.00     0.004 A 
ATOM     83  C   UNL     1      -9.001   1.594   0.863  1.00  0.00     0.000 A 
ATOM     84  C   UNL     1      -7.038   1.499  -0.535  1.00  0.00     0.000 A 
ATOM     85  C   UNL     1      -7.788   0.997   0.526  1.00  0.00     0.000 A 
ENDBRANCH  79  80
ENDBRANCH  76  79
ENDBRANCH  74  76
ENDBRANCH  72  74
ENDBRANCH  70  71
ENDBRANCH   1  69
TORSDOF 17
ENDMDL
MODEL 49
REMARK VINA RESULT:    -6.186      5.059      9.800
REMARK INTER + INTRA:         -25.352
REMARK INTER:                 -17.608
REMARK INTRA:                  -7.744
REMARK UNBOUND:                -6.869
REMARK SMILES C=C1C(=O)N[C@H](C)C(=O)N[C@@H](CC(C)C)C(=O)N[C@@H](C(=O)O)[C@H](C)C(=O)N[C@@H](CCCN=C(N)N)C(=O)N[C@@H](/C=C/C(C)=C/[C@H](C)[C@H](Cc2ccccc2)OC)[C@H](C)C(=O)N[C@@H](C(=O)O)CCC(=O)N1C
REMARK SMILES IDX 39 1 38 2 37 3 36 4 28 6 27 7 25 8 26 9 23 11 24 12 19 13
REMARK SMILES IDX 18 14 16 15 17 16 11 18 10 19 8 20 9 21 12 24 13 25 14 26
REMARK SMILES IDX 15 27 20 28 21 29 22 30 29 32 30 33 31 34 32 35 33 36 34 37
REMARK SMILES IDX 35 38 57 43 58 44 59 45 60 46 61 47 62 49 66 50 67 51 68 52
REMARK SMILES IDX 69 53 70 54 71 55 2 56 1 57 3 58 4 59 5 60 6 62 7 63 63 65
REMARK SMILES IDX 64 66 65 67 40 69 41 70 42 71 44 72 43 73 45 74 46 75 47 76
REMARK SMILES IDX 55 77 56 78 48 79 49 80 50 81 54 82 51 83 53 84 52 85
REMARK H PARENT 38 5 27 10 18 17 10 22 22 31 34 39 34 40 35 41 35 42 61 48
REMARK H PARENT 5 61 65 68
REMARK Flexibility Score:  369.900
ROOT
ATOM      1  C   UNL     1      -2.416  -0.097  -8.881  1.00  0.00     0.117 C 
ENDROOT
BRANCH   1   2
ATOM      2  N   UNL     1      -3.784  -0.266  -9.372  1.00  0.00    -0.347 N 
ATOM      3  O   UNL     1      -3.524  -2.343 -10.314  1.00  0.00    -0.273 OA
ATOM      4  C   UNL     1      -4.254  -1.419  -9.971  1.00  0.00     0.243 C 
ATOM      5  H   UNL     1      -4.455   0.474  -9.231  1.00  0.00     0.164 HD
BRANCH   4   6
ATOM      6  C   UNL     1      -5.763  -1.369 -10.321  1.00  0.00     0.171 C 
BRANCH   6   7
ATOM      7  N   UNL     1      -6.577  -1.633  -9.124  1.00  0.00    -0.344 N 
ATOM      8  C   UNL     1      -7.603  -2.552  -9.161  1.00  0.00     0.226 C 
ATOM      9  O   UNL     1      -7.901  -3.169 -10.177  1.00  0.00    -0.275 OA
ATOM     10  H   UNL     1      -6.405  -1.094  -8.284  1.00  0.00     0.164 HD
BRANCH   8  11
ATOM     11  C   UNL     1      -8.312  -2.752  -7.833  1.00  0.00     0.109 C 
ATOM     12  C   UNL     1      -9.826  -2.776  -8.044  1.00  0.00     0.021 C 
BRANCH  11  13
ATOM     13  C   UNL     1      -7.738  -3.990  -7.116  1.00  0.00     0.204 C 
BRANCH  13  14
ATOM     14  N   UNL     1      -6.776  -4.715  -7.952  1.00  0.00    -0.340 N 
ATOM     15  C   UNL     1      -6.668  -6.089  -7.948  1.00  0.00     0.243 C 
ATOM     16  O   UNL     1      -7.414  -6.808  -7.286  1.00  0.00    -0.273 OA
ATOM     17  H   UNL     1      -6.033  -4.178  -8.405  1.00  0.00     0.164 HD
BRANCH  15  18
ATOM     18  C   UNL     1      -5.451  -6.616  -8.747  1.00  0.00     0.171 C 
BRANCH  18  19
ATOM     19  N   UNL     1      -5.988  -7.361  -9.884  1.00  0.00    -0.343 N 
ATOM     20  C   UNL     1      -5.540  -8.629 -10.202  1.00  0.00     0.242 CG0
ATOM     21  O   UNL     1      -4.580  -9.135  -9.627  1.00  0.00    -0.273 OA
ATOM     22  H   UNL     1      -6.705  -6.937 -10.463  1.00  0.00     0.164 HD
ATOM     23  G   UNL     1      -6.280  -9.287 -11.386  1.00  0.00     0.000 G0
ENDBRANCH  18  19
BRANCH  18  24
ATOM     24  C   UNL     1      -4.561  -5.455  -9.206  1.00  0.00     0.038 C 
BRANCH  24  25
ATOM     25  C   UNL     1      -3.172  -5.404  -8.535  1.00  0.00    -0.015 C 
ATOM     26  C   UNL     1      -2.542  -6.789  -8.387  1.00  0.00     0.007 C 
ATOM     27  C   UNL     1      -3.288  -4.741  -7.160  1.00  0.00     0.007 C 
ENDBRANCH  24  25
ENDBRANCH  18  24
ENDBRANCH  15  18
ENDBRANCH  13  14
BRANCH  13  28
ATOM     28  C   UNL     1      -7.030  -3.651  -5.800  1.00  0.00     0.327 C 
ATOM     29  O   UNL     1      -7.040  -4.324  -4.780  1.00  0.00    -0.250 OA
BRANCH  28  30
ATOM     30  O   UNL     1      -6.454  -2.432  -5.809  1.00  0.00    -0.480 OA
ATOM     31  H   UNL     1      -6.893  -1.963  -6.548  1.00  0.00     0.296 HD
ENDBRANCH  28  30
ENDBRANCH  13  28
ENDBRANCH  11  13
ENDBRANCH   8  11
ENDBRANCH   6   7
BRANCH   6  32
ATOM     32  C   UNL     1      -6.096   0.003 -10.917  1.00  0.00     0.037 C 
BRANCH  32  33
ATOM     33  C   UNL     1      -6.971   0.846  -9.979  1.00  0.00     0.026 C 
BRANCH  33  34
ATOM     34  C   UNL     1      -6.594   2.328 -10.001  1.00  0.00     0.146 C 
BRANCH  34  35
ATOM     35  N   UNL     1      -7.670   3.077 -10.635  1.00  0.00    -0.254 NA
ATOM     36  C   UNL     1      -7.474   3.562 -11.805  1.00  0.00     0.185 C 
ATOM     37  N   UNL     1      -8.460   4.249 -12.401  1.00  0.00    -0.370 N 
ATOM     38  N   UNL     1      -6.376   3.488 -12.577  1.00  0.00    -0.370 N 
ATOM     39  H   UNL     1      -9.327   4.340 -11.885  1.00  0.00     0.159 HD
ATOM     40  H   UNL     1      -8.450   4.508 -13.373  1.00  0.00     0.159 HD
ATOM     41  H   UNL     1      -6.295   4.030 -13.421  1.00  0.00     0.159 HD
ATOM     42  H   UNL     1      -5.549   3.013 -12.249  1.00  0.00     0.159 HD
ENDBRANCH  34  35
ENDBRANCH  33  34
ENDBRANCH  32  33
ENDBRANCH   6  32
ENDBRANCH   4   6
ENDBRANCH   1   2
BRANCH   1  43
ATOM     43  C   UNL     1      -2.454  -0.017  -7.328  1.00  0.00     0.102 C 
ATOM     44  C   UNL     1      -3.419  -1.027  -6.686  1.00  0.00     0.020 C 
BRANCH  43  45
ATOM     45  C   UNL     1      -2.660   1.426  -6.856  1.00  0.00     0.225 C 
ATOM     46  O   UNL     1      -3.752   1.869  -6.511  1.00  0.00    -0.275 OA
ATOM     47  N   UNL     1      -1.552   2.238  -6.932  1.00  0.00    -0.342 N 
ATOM     48  H   UNL     1      -0.639   1.828  -7.070  1.00  0.00     0.164 HD
BRANCH  47  49
ATOM     49  C   UNL     1      -1.592   3.633  -6.481  1.00  0.00     0.192 C 
BRANCH  49  50
ATOM     50  C   UNL     1      -1.679   4.563  -7.694  1.00  0.00     0.047 C 
BRANCH  50  51
ATOM     51  C   UNL     1      -3.123   4.979  -8.007  1.00  0.00     0.103 C 
BRANCH  51  52
ATOM     52  C   UNL     1      -3.202   6.395  -8.572  1.00  0.00     0.226 C 
ATOM     53  O   UNL     1      -2.165   6.998  -8.855  1.00  0.00    -0.275 OA
BRANCH  52  54
ATOM     54  N   UNL     1      -4.492   6.905  -8.808  1.00  0.00    -0.311 N 
ATOM     55  C   UNL     1      -5.562   6.043  -9.330  1.00  0.00     0.153 C 
BRANCH  54  56
ATOM     56  C   UNL     1      -4.808   8.249  -8.550  1.00  0.00     0.102 C 
ATOM     57  C   UNL     1      -5.222   8.728  -7.365  1.00  0.00     0.043 C 
BRANCH  56  58
ATOM     58  C   UNL     1      -4.653   9.301  -9.623  1.00  0.00     0.268 C 
ATOM     59  O   UNL     1      -4.256   9.052 -10.753  1.00  0.00    -0.268 OA
ATOM     60  N   UNL     1      -5.065  10.549  -9.219  1.00  0.00    -0.339 N 
ATOM     61  H   UNL     1      -5.371  10.675  -8.262  1.00  0.00     0.164 HD
BRANCH  60  62
ATOM     62  C   UNL     1      -5.059  11.701 -10.120  1.00  0.00     0.168 CG0
ATOM     63  C   UNL     1      -3.831  12.572  -9.887  1.00  0.00     0.041 C 
ATOM     64  G   UNL     1      -6.353  12.517  -9.924  1.00  0.00     0.000 G0
ENDBRANCH  60  62
ENDBRANCH  56  58
ENDBRANCH  54  56
ENDBRANCH  52  54
ENDBRANCH  51  52
ENDBRANCH  50  51
ENDBRANCH  49  50
BRANCH  49  65
ATOM     65  C   UNL     1      -0.352   3.995  -5.649  1.00  0.00     0.326 C 
ATOM     66  O   UNL     1      -0.290   3.995  -4.429  1.00  0.00    -0.250 OA
BRANCH  65  67
ATOM     67  O   UNL     1       0.716   4.395  -6.374  1.00  0.00    -0.480 OA
ATOM     68  H   UNL     1       1.430   3.785  -6.089  1.00  0.00     0.296 HD
ENDBRANCH  65  67
ENDBRANCH  49  65
ENDBRANCH  47  49
ENDBRANCH  43  45
ENDBRANCH   1  43
BRANCH   1  69
ATOM     69  C   UNL     1      -1.825   1.063  -9.661  1.00  0.00    -0.001 C 
ATOM     70  C   UNL     1      -2.478   1.930 -10.456  1.00  0.00     0.001 C 
BRANCH  70  71
ATOM     71  C   UNL     1      -1.900   3.059 -11.187  1.00  0.00    -0.055 C 
ATOM     72  C   UNL     1      -0.568   3.052 -11.403  1.00  0.00    -0.018 C 
ATOM     73  C   UNL     1      -2.834   4.145 -11.654  1.00  0.00     0.044 C 
BRANCH  72  74
ATOM     74  C   UNL     1       0.297   4.075 -12.125  1.00  0.00     0.038 C 
ATOM     75  C   UNL     1       1.183   3.304 -13.111  1.00  0.00     0.015 C 
BRANCH  74  76
ATOM     76  C   UNL     1       1.073   4.912 -11.066  1.00  0.00     0.128 C 
BRANCH  76  77
ATOM     77  O   UNL     1       0.443   6.193 -10.896  1.00  0.00    -0.381 OA
ATOM     78  C   UNL     1      -0.205   6.671 -12.067  1.00  0.00     0.195 C 
ENDBRANCH  76  77
BRANCH  76  79
ATOM     79  C   UNL     1       1.301   4.173  -9.724  1.00  0.00     0.068 C 
BRANCH  79  80
ATOM     80  C   UNL     1       2.453   3.201  -9.638  1.00  0.00    -0.045 A 
ATOM     81  C   UNL     1       3.730   3.554 -10.093  1.00  0.00     0.004 A 
ATOM     82  C   UNL     1       2.253   1.911  -9.124  1.00  0.00     0.004 A 
ATOM     83  C   UNL     1       4.787   2.644 -10.024  1.00  0.00     0.000 A 
ATOM     84  C   UNL     1       3.311   1.002  -9.055  1.00  0.00     0.000 A 
ATOM     85  C   UNL     1       4.577   1.369  -9.504  1.00  0.00     0.000 A 
ENDBRANCH  79  80
ENDBRANCH  76  79
ENDBRANCH  74  76
ENDBRANCH  72  74
ENDBRANCH  70  71
ENDBRANCH   1  69
TORSDOF 17
ENDMDL
MODEL 50
REMARK VINA RESULT:    -6.141      6.842     17.196
REMARK INTER + INTRA:         -25.215
REMARK INTER:                 -17.637
REMARK INTRA:                  -7.579
REMARK UNBOUND:                -6.869
REMARK SMILES C=C1C(=O)N[C@H](C)C(=O)N[C@@H](CC(C)C)C(=O)N[C@@H](C(=O)O)[C@H](C)C(=O)N[C@@H](CCCN=C(N)N)C(=O)N[C@@H](/C=C/C(C)=C/[C@H](C)[C@H](Cc2ccccc2)OC)[C@H](C)C(=O)N[C@@H](C(=O)O)CCC(=O)N1C
REMARK SMILES IDX 39 1 38 2 37 3 36 4 28 6 27 7 25 8 26 9 23 11 24 12 19 13
REMARK SMILES IDX 18 14 16 15 17 16 11 18 10 19 8 20 9 21 12 24 13 25 14 26
REMARK SMILES IDX 15 27 20 28 21 29 22 30 29 32 30 33 31 34 32 35 33 36 34 37
REMARK SMILES IDX 35 38 57 43 58 44 59 45 60 46 61 47 62 49 66 50 67 51 68 52
REMARK SMILES IDX 69 53 70 54 71 55 2 56 1 57 3 58 4 59 5 60 6 62 7 63 63 65
REMARK SMILES IDX 64 66 65 67 40 69 41 70 42 71 44 72 43 73 45 74 46 75 47 76
REMARK SMILES IDX 55 77 56 78 48 79 49 80 50 81 54 82 51 83 53 84 52 85
REMARK H PARENT 38 5 27 10 18 17 10 22 22 31 34 39 34 40 35 41 35 42 61 48
REMARK H PARENT 5 61 65 68
REMARK Flexibility Score:  369.900
ROOT
ATOM      1  C   UNL     1     -12.285  -1.921   4.400  1.00  0.00     0.117 C 
ENDROOT
BRANCH   1   2
ATOM      2  N   UNL     1     -11.922  -2.013   2.985  1.00  0.00    -0.347 N 
ATOM      3  O   UNL     1     -10.812  -4.020   3.076  1.00  0.00    -0.273 OA
ATOM      4  C   UNL     1     -11.292  -3.103   2.417  1.00  0.00     0.243 C 
ATOM      5  H   UNL     1     -12.183  -1.267   2.358  1.00  0.00     0.164 HD
BRANCH   4   6
ATOM      6  C   UNL     1     -11.100  -2.984   0.884  1.00  0.00     0.171 C 
BRANCH   6   7
ATOM      7  N   UNL     1     -10.661  -4.270   0.319  1.00  0.00    -0.344 N 
ATOM      8  C   UNL     1      -9.374  -4.429  -0.147  1.00  0.00     0.226 C 
ATOM      9  O   UNL     1      -8.551  -3.522  -0.138  1.00  0.00    -0.275 OA
ATOM     10  H   UNL     1     -11.332  -5.023   0.233  1.00  0.00     0.164 HD
BRANCH   8  11
ATOM     11  C   UNL     1      -9.059  -5.828  -0.648  1.00  0.00     0.109 C 
ATOM     12  C   UNL     1      -9.725  -6.871   0.250  1.00  0.00     0.021 C 
BRANCH  11  13
ATOM     13  C   UNL     1      -9.416  -5.939  -2.144  1.00  0.00     0.204 C 
BRANCH  13  14
ATOM     14  N   UNL     1      -8.773  -4.891  -2.943  1.00  0.00    -0.340 N 
ATOM     15  C   UNL     1      -9.318  -4.400  -4.110  1.00  0.00     0.243 C 
ATOM     16  O   UNL     1     -10.414  -4.764  -4.532  1.00  0.00    -0.273 OA
ATOM     17  H   UNL     1      -7.800  -4.655  -2.733  1.00  0.00     0.164 HD
BRANCH  15  18
ATOM     18  C   UNL     1      -8.368  -3.455  -4.887  1.00  0.00     0.171 C 
BRANCH  18  19
ATOM     19  N   UNL     1      -7.803  -4.239  -5.983  1.00  0.00    -0.343 N 
ATOM     20  C   UNL     1      -6.545  -3.979  -6.491  1.00  0.00     0.242 CG0
ATOM     21  O   UNL     1      -5.897  -2.997  -6.136  1.00  0.00    -0.273 OA
ATOM     22  H   UNL     1      -8.348  -4.990  -6.390  1.00  0.00     0.164 HD
ATOM     23  G   UNL     1      -6.088  -4.960  -7.591  1.00  0.00     0.000 G0
ENDBRANCH  18  19
BRANCH  18  24
ATOM     24  C   UNL     1      -9.129  -2.229  -5.406  1.00  0.00     0.038 C 
BRANCH  24  25
ATOM     25  C   UNL     1      -9.077  -0.997  -4.477  1.00  0.00    -0.015 C 
ATOM     26  C   UNL     1     -10.414  -0.727  -3.787  1.00  0.00     0.007 C 
ATOM     27  C   UNL     1      -8.653   0.235  -5.281  1.00  0.00     0.007 C 
ENDBRANCH  24  25
ENDBRANCH  18  24
ENDBRANCH  15  18
ENDBRANCH  13  14
BRANCH  13  28
ATOM     28  C   UNL     1      -9.022  -7.285  -2.760  1.00  0.00     0.327 C 
ATOM     29  O   UNL     1      -7.887  -7.662  -3.008  1.00  0.00    -0.250 OA
BRANCH  28  30
ATOM     30  O   UNL     1     -10.084  -8.025  -3.138  1.00  0.00    -0.480 OA
ATOM     31  H   UNL     1     -10.707  -7.374  -3.523  1.00  0.00     0.296 HD
ENDBRANCH  28  30
ENDBRANCH  13  28
ENDBRANCH  11  13
ENDBRANCH   8  11
ENDBRANCH   6   7
BRANCH   6  32
ATOM     32  C   UNL     1     -12.417  -2.527   0.246  1.00  0.00     0.037 C 
BRANCH  32  33
ATOM     33  C   UNL     1     -12.259  -1.210  -0.527  1.00  0.00     0.026 C 
BRANCH  33  34
ATOM     34  C   UNL     1     -12.892  -0.024   0.203  1.00  0.00     0.146 C 
BRANCH  34  35
ATOM     35  N   UNL     1     -13.873  -0.527   1.154  1.00  0.00    -0.254 NA
ATOM     36  C   UNL     1     -15.060  -0.047   1.124  1.00  0.00     0.185 C 
ATOM     37  N   UNL     1     -15.974  -0.507   1.993  1.00  0.00    -0.370 N 
ATOM     38  N   UNL     1     -15.569   0.899   0.314  1.00  0.00    -0.370 N 
ATOM     39  H   UNL     1     -15.669  -1.230   2.632  1.00  0.00     0.159 HD
ATOM     40  H   UNL     1     -16.958  -0.312   1.921  1.00  0.00     0.159 HD
ATOM     41  H   UNL     1     -16.481   1.292   0.481  1.00  0.00     0.159 HD
ATOM     42  H   UNL     1     -14.989   1.345  -0.379  1.00  0.00     0.159 HD
ENDBRANCH  34  35
ENDBRANCH  33  34
ENDBRANCH  32  33
ENDBRANCH   6  32
ENDBRANCH   4   6
ENDBRANCH   1   2
BRANCH   1  43
ATOM     43  C   UNL     1     -13.703  -2.534   4.588  1.00  0.00     0.102 C 
ATOM     44  C   UNL     1     -14.697  -1.578   5.270  1.00  0.00     0.020 C 
BRANCH  43  45
ATOM     45  C   UNL     1     -13.621  -3.916   5.243  1.00  0.00     0.225 C 
ATOM     46  O   UNL     1     -14.578  -4.682   5.313  1.00  0.00    -0.275 OA
ATOM     47  N   UNL     1     -12.419  -4.219   5.840  1.00  0.00    -0.342 N 
ATOM     48  H   UNL     1     -11.606  -3.652   5.644  1.00  0.00     0.164 HD
BRANCH  47  49
ATOM     49  C   UNL     1     -12.185  -5.520   6.474  1.00  0.00     0.192 C 
BRANCH  49  50
ATOM     50  C   UNL     1     -11.399  -5.325   7.773  1.00  0.00     0.047 C 
BRANCH  50  51
ATOM     51  C   UNL     1     -11.253  -6.631   8.566  1.00  0.00     0.103 C 
BRANCH  51  52
ATOM     52  C   UNL     1     -12.392  -6.824   9.566  1.00  0.00     0.226 C 
ATOM     53  O   UNL     1     -12.663  -5.925  10.364  1.00  0.00    -0.275 OA
BRANCH  52  54
ATOM     54  N   UNL     1     -13.125  -8.021   9.457  1.00  0.00    -0.311 N 
ATOM     55  C   UNL     1     -13.452  -8.590   8.143  1.00  0.00     0.153 C 
BRANCH  54  56
ATOM     56  C   UNL     1     -13.565  -8.716  10.596  1.00  0.00     0.102 C 
ATOM     57  C   UNL     1     -12.798  -9.519  11.350  1.00  0.00     0.043 C 
BRANCH  56  58
ATOM     58  C   UNL     1     -14.983  -8.566  11.096  1.00  0.00     0.268 C 
ATOM     59  O   UNL     1     -15.521  -9.376  11.838  1.00  0.00    -0.268 OA
ATOM     60  N   UNL     1     -15.579  -7.397  10.685  1.00  0.00    -0.339 N 
ATOM     61  H   UNL     1     -15.070  -6.783  10.061  1.00  0.00     0.164 HD
BRANCH  60  62
ATOM     62  C   UNL     1     -16.929  -7.022  11.106  1.00  0.00     0.168 CG0
ATOM     63  C   UNL     1     -17.917  -7.153   9.954  1.00  0.00     0.041 C 
ATOM     64  G   UNL     1     -16.917  -5.580  11.654  1.00  0.00     0.000 G0
ENDBRANCH  60  62
ENDBRANCH  56  58
ENDBRANCH  54  56
ENDBRANCH  52  54
ENDBRANCH  51  52
ENDBRANCH  50  51
ENDBRANCH  49  50
BRANCH  49  65
ATOM     65  C   UNL     1     -11.410  -6.471   5.547  1.00  0.00     0.326 C 
ATOM     66  O   UNL     1     -11.796  -7.568   5.172  1.00  0.00    -0.250 OA
BRANCH  65  67
ATOM     67  O   UNL     1     -10.182  -6.034   5.191  1.00  0.00    -0.480 OA
ATOM     68  H   UNL     1     -10.041  -6.438   4.307  1.00  0.00     0.296 HD
ENDBRANCH  65  67
ENDBRANCH  49  65
ENDBRANCH  47  49
ENDBRANCH  43  45
ENDBRANCH   1  43
BRANCH   1  69
ATOM     69  C   UNL     1     -12.050  -0.477   4.804  1.00  0.00    -0.001 C 
ATOM     70  C   UNL     1     -11.305   0.441   4.163  1.00  0.00     0.001 C 
BRANCH  70  71
ATOM     71  C   UNL     1     -11.104   1.838   4.552  1.00  0.00    -0.055 C 
ATOM     72  C   UNL     1     -11.556   2.794   3.714  1.00  0.00    -0.018 C 
ATOM     73  C   UNL     1     -10.413   2.109   5.863  1.00  0.00     0.044 C 
BRANCH  72  74
ATOM     74  C   UNL     1     -11.491   4.308   3.855  1.00  0.00     0.038 C 
ATOM     75  C   UNL     1     -12.852   4.773   4.386  1.00  0.00     0.015 C 
BRANCH  74  76
ATOM     76  C   UNL     1     -11.080   4.922   2.484  1.00  0.00     0.128 C 
BRANCH  76  77
ATOM     77  O   UNL     1     -11.270   6.347   2.508  1.00  0.00    -0.381 OA
ATOM     78  C   UNL     1     -10.760   7.010   1.359  1.00  0.00     0.195 C 
ENDBRANCH  76  77
BRANCH  76  79
ATOM     79  C   UNL     1      -9.663   4.514   2.011  1.00  0.00     0.068 C 
BRANCH  79  80
ATOM     80  C   UNL     1      -9.545   3.360   1.044  1.00  0.00    -0.045 A 
ATOM     81  C   UNL     1     -10.061   3.451  -0.255  1.00  0.00     0.004 A 
ATOM     82  C   UNL     1      -8.938   2.160   1.446  1.00  0.00     0.004 A 
ATOM     83  C   UNL     1      -9.961   2.374  -1.138  1.00  0.00     0.000 A 
ATOM     84  C   UNL     1      -8.839   1.083   0.562  1.00  0.00     0.000 A 
ATOM     85  C   UNL     1      -9.349   1.191  -0.730  1.00  0.00     0.000 A 
ENDBRANCH  79  80
ENDBRANCH  76  79
ENDBRANCH  74  76
ENDBRANCH  72  74
ENDBRANCH  70  71
ENDBRANCH   1  69
TORSDOF 17
ENDMDL
