MODEL 1
REMARK VINA RESULT:    -6.469      0.000      0.000
REMARK INTER + INTRA:         -16.698
REMARK INTER:                 -13.088
REMARK INTRA:                  -3.611
REMARK UNBOUND:                -3.611
REMARK SMILES CC[C@@H](C)[C@@H](NC(=O)[C@@H](O)Cc1ccc(O)c(Cl)c1)C(=O)N1[C@H](C(=O)NCCCCN=C(N)N)C[C@H]2CC[C@H](OS(=O)(=O)O)C[C@@H]21
REMARK SMILES IDX 22 1 36 2 46 3 35 4 23 5 45 6 37 7 39 8 38 9 20 10 21 11
REMARK SMILES IDX 5 12 6 13 7 14 8 15 9 17 11 18 12 19 17 20 19 21 15 22 14 23
REMARK SMILES IDX 13 24 18 25 16 26 10 28 3 30 4 31 2 32 1 33 24 34 25 35
REMARK SMILES IDX 26 36 27 38 28 39 29 40 30 41 31 42 32 43 33 44 34 45 40 50
REMARK SMILES IDX 41 51 42 52 43 53 44 54
REMARK H PARENT 6 16 16 27 10 29 26 37 33 46 33 47 34 48 34 49 44 55
ROOT
ATOM      1  N   UNL     1      -7.221  -2.296  -1.385  1.00  0.00    -0.326 N 
ATOM      2  C   UNL     1      -5.655  -0.568  -1.706  1.00  0.00     0.014 C 
ATOM      3  C   UNL     1      -6.461  -1.298  -0.627  1.00  0.00     0.091 C 
ATOM      4  C   UNL     1      -6.605  -0.572  -2.893  1.00  0.00     0.041 C 
ATOM      5  C   UNL     1      -7.102  -2.028  -2.839  1.00  0.00     0.175 C 
ATOM      6  C   UNL     1      -5.493  -1.788   0.449  1.00  0.00     0.059 C 
ATOM      7  C   UNL     1      -5.123   0.753  -1.184  1.00  0.00     0.008 C 
ATOM      8  C   UNL     1      -4.266  -0.872   0.645  1.00  0.00     0.143 C 
ATOM      9  C   UNL     1      -4.563   0.587   0.244  1.00  0.00     0.034 C 
ENDROOT
BRANCH   1  10
ATOM     10  C   UNL     1      -8.138  -3.235  -0.944  1.00  0.00     0.246 C 
ATOM     11  O   UNL     1      -7.848  -4.435  -1.008  1.00  0.00    -0.272 OA
BRANCH  10  12
ATOM     12  C   UNL     1      -9.492  -2.761  -0.341  1.00  0.00     0.174 C 
BRANCH  12  13
ATOM     13  N   UNL     1      -9.583  -3.170   1.060  1.00  0.00    -0.342 N 
ATOM     14  C   UNL     1      -9.527  -2.316   2.138  1.00  0.00     0.249 C 
ATOM     15  O   UNL     1      -9.420  -1.100   2.040  1.00  0.00    -0.272 OA
ATOM     16  H   UNL     1      -9.517  -4.156   1.303  1.00  0.00     0.164 HD
BRANCH  14  17
ATOM     17  C   UNL     1      -9.634  -3.053   3.490  1.00  0.00     0.207 C 
BRANCH  17  18
ATOM     18  C   UNL     1     -10.976  -2.747   4.162  1.00  0.00     0.077 C 
BRANCH  18  19
ATOM     19  C   UNL     1     -12.031  -3.770   3.804  1.00  0.00    -0.043 A 
ATOM     20  C   UNL     1     -14.229  -4.735   4.153  1.00  0.00     0.083 A 
ATOM     21  C   UNL     1     -13.276  -3.760   4.451  1.00  0.00     0.028 A 
ATOM     22  C   UNL     1     -13.944  -5.724   3.211  1.00  0.00     0.134 A 
ATOM     23  C   UNL     1     -12.715  -5.746   2.563  1.00  0.00     0.048 A 
ATOM     24  C   UNL     1     -11.759  -4.772   2.860  1.00  0.00     0.008 A 
ATOM     25  Cl  UNL     1     -15.753  -4.706   4.959  1.00  0.00    -0.080 Cl
BRANCH  22  26
ATOM     26  O   UNL     1     -14.842  -6.707   2.894  1.00  0.00    -0.506 OA
ATOM     27  H   UNL     1     -14.772  -7.386   3.590  1.00  0.00     0.293 HD
ENDBRANCH  22  26
ENDBRANCH  18  19
ENDBRANCH  17  18
BRANCH  17  28
ATOM     28  O   UNL     1      -8.563  -2.678   4.371  1.00  0.00    -0.383 OA
ATOM     29  H   UNL     1      -8.263  -1.790   4.071  1.00  0.00     0.211 HD
ENDBRANCH  17  28
ENDBRANCH  14  17
ENDBRANCH  12  13
BRANCH  12  30
ATOM     30  C   UNL     1     -10.716  -3.226  -1.175  1.00  0.00     0.018 C 
ATOM     31  C   UNL     1     -10.599  -2.748  -2.630  1.00  0.00     0.010 C 
BRANCH  30  32
ATOM     32  C   UNL     1     -12.076  -2.789  -0.579  1.00  0.00     0.002 C 
ATOM     33  C   UNL     1     -12.634  -1.479  -1.122  1.00  0.00     0.004 C 
ENDBRANCH  30  32
ENDBRANCH  12  30
ENDBRANCH  10  12
ENDBRANCH   1  10
BRANCH   5  34
ATOM     34  C   UNL     1      -6.090  -3.003  -3.497  1.00  0.00     0.242 C 
ATOM     35  O   UNL     1      -5.620  -3.968  -2.896  1.00  0.00    -0.273 OA
ATOM     36  N   UNL     1      -5.715  -2.679  -4.782  1.00  0.00    -0.354 N 
ATOM     37  H   UNL     1      -6.046  -1.801  -5.184  1.00  0.00     0.163 HD
BRANCH  36  38
ATOM     38  C   UNL     1      -4.954  -3.585  -5.617  1.00  0.00     0.116 C 
BRANCH  38  39
ATOM     39  C   UNL     1      -4.621  -2.910  -6.946  1.00  0.00     0.023 C 
BRANCH  39  40
ATOM     40  C   UNL     1      -3.218  -2.313  -6.960  1.00  0.00     0.026 C 
BRANCH  40  41
ATOM     41  C   UNL     1      -2.448  -2.706  -5.699  1.00  0.00     0.146 C 
BRANCH  41  42
ATOM     42  N   UNL     1      -2.169  -1.518  -4.903  1.00  0.00    -0.254 NA
ATOM     43  C   UNL     1      -2.368  -1.543  -3.638  1.00  0.00     0.185 C 
ATOM     44  N   UNL     1      -2.819  -2.537  -2.852  1.00  0.00    -0.370 N 
ATOM     45  N   UNL     1      -2.108  -0.436  -2.923  1.00  0.00    -0.370 N 
ATOM     46  H   UNL     1      -3.157  -2.344  -1.925  1.00  0.00     0.159 HD
ATOM     47  H   UNL     1      -3.052  -3.451  -3.230  1.00  0.00     0.159 HD
ATOM     48  H   UNL     1      -1.754   0.359  -3.438  1.00  0.00     0.159 HD
ATOM     49  H   UNL     1      -2.010  -0.446  -1.923  1.00  0.00     0.159 HD
ENDBRANCH  41  42
ENDBRANCH  40  41
ENDBRANCH  39  40
ENDBRANCH  38  39
ENDBRANCH  36  38
ENDBRANCH   5  34
BRANCH   8  50
ATOM     50  O   UNL     1      -3.171  -1.344  -0.140  1.00  0.00    -0.245 OA
BRANCH  50  51
ATOM     51  S   UNL     1      -1.859  -1.958   0.600  1.00  0.00     0.397 S 
ATOM     52  O   UNL     1      -2.267  -3.139   1.326  1.00  0.00    -0.169 OA
ATOM     53  O   UNL     1      -1.118  -0.891   1.240  1.00  0.00    -0.169 OA
BRANCH  51  54
ATOM     54  O   UNL     1      -0.990  -2.489  -0.645  1.00  0.00    -0.264 OA
ATOM     55  H   UNL     1      -1.581  -2.537  -1.423  1.00  0.00     0.236 HD
ENDBRANCH  51  54
ENDBRANCH  50  51
ENDBRANCH   8  50
TORSDOF 19
ENDMDL
MODEL 2
REMARK VINA RESULT:    -6.315     17.148     20.685
REMARK INTER + INTRA:         -16.387
REMARK INTER:                 -11.574
REMARK INTRA:                  -4.813
REMARK UNBOUND:                -3.611
REMARK SMILES CC[C@@H](C)[C@@H](NC(=O)[C@@H](O)Cc1ccc(O)c(Cl)c1)C(=O)N1[C@H](C(=O)NCCCCN=C(N)N)C[C@H]2CC[C@H](OS(=O)(=O)O)C[C@@H]21
REMARK SMILES IDX 22 1 36 2 46 3 35 4 23 5 45 6 37 7 39 8 38 9 20 10 21 11
REMARK SMILES IDX 5 12 6 13 7 14 8 15 9 17 11 18 12 19 17 20 19 21 15 22 14 23
REMARK SMILES IDX 13 24 18 25 16 26 10 28 3 30 4 31 2 32 1 33 24 34 25 35
REMARK SMILES IDX 26 36 27 38 28 39 29 40 30 41 31 42 32 43 33 44 34 45 40 50
REMARK SMILES IDX 41 51 42 52 43 53 44 54
REMARK H PARENT 6 16 16 27 10 29 26 37 33 46 33 47 34 48 34 49 44 55
ROOT
ATOM      1  N   UNL     1     -11.609   9.065  16.118  1.00  0.00    -0.326 N 
ATOM      2  C   UNL     1     -10.395   7.054  16.277  1.00  0.00     0.014 C 
ATOM      3  C   UNL     1     -11.769   7.623  15.911  1.00  0.00     0.091 C 
ATOM      4  C   UNL     1      -9.943   7.971  17.404  1.00  0.00     0.041 C 
ATOM      5  C   UNL     1     -10.327   9.340  16.812  1.00  0.00     0.175 C 
ATOM      6  C   UNL     1     -12.140   7.128  14.515  1.00  0.00     0.059 C 
ATOM      7  C   UNL     1     -10.473   5.560  16.521  1.00  0.00     0.008 C 
ATOM      8  C   UNL     1     -11.578   5.729  14.181  1.00  0.00     0.143 C 
ATOM      9  C   UNL     1     -11.350   4.879  15.448  1.00  0.00     0.034 C 
ENDROOT
BRANCH   1  10
ATOM     10  C   UNL     1     -12.526  10.091  15.964  1.00  0.00     0.246 C 
ATOM     11  O   UNL     1     -12.454  11.078  16.703  1.00  0.00    -0.272 OA
BRANCH  10  12
ATOM     12  C   UNL     1     -13.598   9.999  14.839  1.00  0.00     0.174 C 
BRANCH  12  13
ATOM     13  N   UNL     1     -13.485  11.152  13.947  1.00  0.00    -0.342 N 
ATOM     14  C   UNL     1     -12.665  11.221  12.843  1.00  0.00     0.249 C 
ATOM     15  O   UNL     1     -11.951  10.300  12.466  1.00  0.00    -0.272 OA
ATOM     16  H   UNL     1     -13.895  12.042  14.220  1.00  0.00     0.164 HD
BRANCH  14  17
ATOM     17  C   UNL     1     -12.757  12.579  12.116  1.00  0.00     0.207 C 
BRANCH  17  18
ATOM     18  C   UNL     1     -12.392  13.722  13.068  1.00  0.00     0.077 C 
BRANCH  18  19
ATOM     19  C   UNL     1     -10.944  13.655  13.498  1.00  0.00    -0.043 A 
ATOM     20  C   UNL     1      -9.275  13.550  15.255  1.00  0.00     0.083 A 
ATOM     21  C   UNL     1     -10.612  13.562  14.859  1.00  0.00     0.028 A 
ATOM     22  C   UNL     1      -8.262  13.633  14.298  1.00  0.00     0.134 A 
ATOM     23  C   UNL     1      -8.576  13.726  12.947  1.00  0.00     0.048 A 
ATOM     24  C   UNL     1      -9.915  13.739  12.548  1.00  0.00     0.008 A 
ATOM     25  Cl  UNL     1      -8.887  13.435  16.931  1.00  0.00    -0.080 Cl
BRANCH  22  26
ATOM     26  O   UNL     1      -6.937  13.636  14.639  1.00  0.00    -0.506 OA
ATOM     27  H   UNL     1      -6.457  14.044  13.895  1.00  0.00     0.293 HD
ENDBRANCH  22  26
ENDBRANCH  18  19
ENDBRANCH  17  18
BRANCH  17  28
ATOM     28  O   UNL     1     -14.077  12.798  11.593  1.00  0.00    -0.383 OA
ATOM     29  H   UNL     1     -14.084  12.394  10.695  1.00  0.00     0.211 HD
ENDBRANCH  17  28
ENDBRANCH  14  17
ENDBRANCH  12  13
BRANCH  12  30
ATOM     30  C   UNL     1     -15.036   9.818  15.394  1.00  0.00     0.018 C 
ATOM     31  C   UNL     1     -15.900  11.050  15.085  1.00  0.00     0.010 C 
BRANCH  30  32
ATOM     32  C   UNL     1     -15.083   9.501  16.908  1.00  0.00     0.002 C 
ATOM     33  C   UNL     1     -15.775  10.548  17.771  1.00  0.00     0.004 C 
ENDBRANCH  30  32
ENDBRANCH  12  30
ENDBRANCH  10  12
ENDBRANCH   1  10
BRANCH   5  34
ATOM     34  C   UNL     1      -9.257   9.851  15.810  1.00  0.00     0.242 C 
ATOM     35  O   UNL     1      -9.557  10.367  14.734  1.00  0.00    -0.273 OA
ATOM     36  N   UNL     1      -7.951   9.635  16.188  1.00  0.00    -0.354 N 
ATOM     37  H   UNL     1      -7.767   9.094  17.034  1.00  0.00     0.163 HD
BRANCH  36  38
ATOM     38  C   UNL     1      -6.834  10.233  15.486  1.00  0.00     0.116 C 
BRANCH  38  39
ATOM     39  C   UNL     1      -5.988   9.142  14.834  1.00  0.00     0.023 C 
BRANCH  39  40
ATOM     40  C   UNL     1      -6.837   8.078  14.147  1.00  0.00     0.026 C 
BRANCH  40  41
ATOM     41  C   UNL     1      -6.674   8.152  12.629  1.00  0.00     0.146 C 
BRANCH  41  42
ATOM     42  N   UNL     1      -7.316   9.357  12.122  1.00  0.00    -0.254 NA
ATOM     43  C   UNL     1      -8.586   9.379  11.965  1.00  0.00     0.185 C 
ATOM     44  N   UNL     1      -9.504   8.423  12.199  1.00  0.00    -0.370 N 
ATOM     45  N   UNL     1      -9.159  10.498  11.492  1.00  0.00    -0.370 N 
ATOM     46  H   UNL     1     -10.426   8.490  11.804  1.00  0.00     0.159 HD
ATOM     47  H   UNL     1      -9.245   7.515  12.572  1.00  0.00     0.159 HD
ATOM     48  H   UNL     1      -8.538  11.272  11.297  1.00  0.00     0.159 HD
ATOM     49  H   UNL     1     -10.145  10.677  11.564  1.00  0.00     0.159 HD
ENDBRANCH  41  42
ENDBRANCH  40  41
ENDBRANCH  39  40
ENDBRANCH  38  39
ENDBRANCH  36  38
ENDBRANCH   5  34
BRANCH   8  50
ATOM     50  O   UNL     1     -10.335   5.852  13.488  1.00  0.00    -0.245 OA
BRANCH  50  51
ATOM     51  S   UNL     1     -10.009   4.858  12.243  1.00  0.00     0.397 S 
ATOM     52  O   UNL     1      -9.211   5.590  11.285  1.00  0.00    -0.169 OA
ATOM     53  O   UNL     1     -11.214   4.158  11.851  1.00  0.00    -0.169 OA
BRANCH  51  54
ATOM     54  O   UNL     1      -9.013   3.791  12.918  1.00  0.00    -0.264 OA
ATOM     55  H   UNL     1      -9.550   3.195  13.479  1.00  0.00     0.236 HD
ENDBRANCH  51  54
ENDBRANCH  50  51
ENDBRANCH   8  50
TORSDOF 19
ENDMDL
MODEL 3
REMARK VINA RESULT:    -6.211      3.135      4.646
REMARK INTER + INTRA:         -16.177
REMARK INTER:                 -12.146
REMARK INTRA:                  -4.031
REMARK UNBOUND:                -3.611
REMARK SMILES CC[C@@H](C)[C@@H](NC(=O)[C@@H](O)Cc1ccc(O)c(Cl)c1)C(=O)N1[C@H](C(=O)NCCCCN=C(N)N)C[C@H]2CC[C@H](OS(=O)(=O)O)C[C@@H]21
REMARK SMILES IDX 22 1 36 2 46 3 35 4 23 5 45 6 37 7 39 8 38 9 20 10 21 11
REMARK SMILES IDX 5 12 6 13 7 14 8 15 9 17 11 18 12 19 17 20 19 21 15 22 14 23
REMARK SMILES IDX 13 24 18 25 16 26 10 28 3 30 4 31 2 32 1 33 24 34 25 35
REMARK SMILES IDX 26 36 27 38 28 39 29 40 30 41 31 42 32 43 33 44 34 45 40 50
REMARK SMILES IDX 41 51 42 52 43 53 44 54
REMARK H PARENT 6 16 16 27 10 29 26 37 33 46 33 47 34 48 34 49 44 55
ROOT
ATOM      1  N   UNL     1      -3.730  -2.060  -0.664  1.00  0.00    -0.326 N 
ATOM      2  C   UNL     1      -2.974   0.015  -1.479  1.00  0.00     0.014 C 
ATOM      3  C   UNL     1      -2.747  -1.014  -0.367  1.00  0.00     0.091 C 
ATOM      4  C   UNL     1      -4.475  -0.065  -1.708  1.00  0.00     0.041 C 
ATOM      5  C   UNL     1      -4.669  -1.592  -1.713  1.00  0.00     0.175 C 
ATOM      6  C   UNL     1      -1.267  -1.392  -0.354  1.00  0.00     0.059 C 
ATOM      7  C   UNL     1      -2.346   1.348  -1.120  1.00  0.00     0.008 C 
ATOM      8  C   UNL     1      -0.328  -0.244  -0.783  1.00  0.00     0.143 C 
ATOM      9  C   UNL     1      -0.945   1.142  -0.508  1.00  0.00     0.034 C 
ENDROOT
BRANCH   1  10
ATOM     10  C   UNL     1      -4.004  -3.237   0.012  1.00  0.00     0.246 C 
ATOM     11  O   UNL     1      -3.201  -4.173  -0.060  1.00  0.00    -0.272 OA
BRANCH  10  12
ATOM     12  C   UNL     1      -5.293  -3.341   0.879  1.00  0.00     0.174 C 
BRANCH  12  13
ATOM     13  N   UNL     1      -6.477  -3.249   0.025  1.00  0.00    -0.342 N 
ATOM     14  C   UNL     1      -6.809  -4.146  -0.965  1.00  0.00     0.249 C 
ATOM     15  O   UNL     1      -6.155  -5.149  -1.224  1.00  0.00    -0.272 OA
ATOM     16  H   UNL     1      -7.027  -2.394   0.018  1.00  0.00     0.164 HD
BRANCH  14  17
ATOM     17  C   UNL     1      -8.110  -3.765  -1.702  1.00  0.00     0.207 C 
BRANCH  17  18
ATOM     18  C   UNL     1      -9.330  -4.316  -0.956  1.00  0.00     0.077 C 
BRANCH  18  19
ATOM     19  C   UNL     1     -10.215  -3.207  -0.432  1.00  0.00    -0.043 A 
ATOM     20  C   UNL     1     -12.128  -1.740  -0.701  1.00  0.00     0.083 A 
ATOM     21  C   UNL     1     -11.341  -2.796  -1.162  1.00  0.00     0.028 A 
ATOM     22  C   UNL     1     -11.796  -1.089   0.488  1.00  0.00     0.134 A 
ATOM     23  C   UNL     1     -10.684  -1.487   1.221  1.00  0.00     0.048 A 
ATOM     24  C   UNL     1      -9.893  -2.542   0.761  1.00  0.00     0.008 A 
ATOM     25  Cl  UNL     1     -13.507  -1.248  -1.612  1.00  0.00    -0.080 Cl
BRANCH  22  26
ATOM     26  O   UNL     1     -12.531  -0.042   0.975  1.00  0.00    -0.506 OA
ATOM     27  H   UNL     1     -13.046  -0.388   1.728  1.00  0.00     0.293 HD
ENDBRANCH  22  26
ENDBRANCH  18  19
ENDBRANCH  17  18
BRANCH  17  28
ATOM     28  O   UNL     1      -8.108  -4.268  -3.048  1.00  0.00    -0.383 OA
ATOM     29  H   UNL     1      -8.527  -5.157  -3.007  1.00  0.00     0.211 HD
ENDBRANCH  17  28
ENDBRANCH  14  17
ENDBRANCH  12  13
BRANCH  12  30
ATOM     30  C   UNL     1      -5.318  -2.311   2.040  1.00  0.00     0.018 C 
ATOM     31  C   UNL     1      -5.635  -3.002   3.376  1.00  0.00     0.010 C 
BRANCH  30  32
ATOM     32  C   UNL     1      -6.296  -1.134   1.806  1.00  0.00     0.002 C 
ATOM     33  C   UNL     1      -7.278  -0.867   2.939  1.00  0.00     0.004 C 
ENDBRANCH  30  32
ENDBRANCH  12  30
ENDBRANCH  10  12
ENDBRANCH   1  10
BRANCH   5  34
ATOM     34  C   UNL     1      -4.308  -2.210  -3.090  1.00  0.00     0.242 C 
ATOM     35  O   UNL     1      -3.144  -2.372  -3.454  1.00  0.00    -0.273 OA
ATOM     36  N   UNL     1      -5.383  -2.514  -3.895  1.00  0.00    -0.354 N 
ATOM     37  H   UNL     1      -6.319  -2.246  -3.588  1.00  0.00     0.163 HD
BRANCH  36  38
ATOM     38  C   UNL     1      -5.244  -3.288  -5.111  1.00  0.00     0.116 C 
BRANCH  38  39
ATOM     39  C   UNL     1      -5.014  -2.354  -6.297  1.00  0.00     0.023 C 
BRANCH  39  40
ATOM     40  C   UNL     1      -4.086  -2.960  -7.344  1.00  0.00     0.026 C 
BRANCH  40  41
ATOM     41  C   UNL     1      -2.884  -2.049  -7.596  1.00  0.00     0.146 C 
BRANCH  41  42
ATOM     42  N   UNL     1      -1.655  -2.745  -7.238  1.00  0.00    -0.254 NA
ATOM     43  C   UNL     1      -0.975  -2.350  -6.229  1.00  0.00     0.185 C 
ATOM     44  N   UNL     1      -1.203  -1.337  -5.374  1.00  0.00    -0.370 N 
ATOM     45  N   UNL     1       0.158  -3.003  -5.918  1.00  0.00    -0.370 N 
ATOM     46  H   UNL     1      -0.468  -0.989  -4.782  1.00  0.00     0.159 HD
ATOM     47  H   UNL     1      -2.025  -0.746  -5.455  1.00  0.00     0.159 HD
ATOM     48  H   UNL     1       0.399  -3.787  -6.508  1.00  0.00     0.159 HD
ATOM     49  H   UNL     1       0.611  -2.912  -5.026  1.00  0.00     0.159 HD
ENDBRANCH  41  42
ENDBRANCH  40  41
ENDBRANCH  39  40
ENDBRANCH  38  39
ENDBRANCH  36  38
ENDBRANCH   5  34
BRANCH   8  50
ATOM     50  O   UNL     1      -0.039  -0.343  -2.178  1.00  0.00    -0.245 OA
BRANCH  50  51
ATOM     51  S   UNL     1       1.104  -1.380  -2.690  1.00  0.00     0.397 S 
ATOM     52  O   UNL     1       0.469  -2.652  -2.950  1.00  0.00    -0.169 OA
ATOM     53  O   UNL     1       2.272  -1.273  -1.840  1.00  0.00    -0.169 OA
BRANCH  51  54
ATOM     54  O   UNL     1       1.483  -0.777  -4.132  1.00  0.00    -0.264 OA
ATOM     55  H   UNL     1       1.471   0.199  -4.059  1.00  0.00     0.236 HD
ENDBRANCH  51  54
ENDBRANCH  50  51
ENDBRANCH   8  50
TORSDOF 19
ENDMDL
MODEL 4
REMARK VINA RESULT:    -6.070      3.085      5.173
REMARK INTER + INTRA:         -15.891
REMARK INTER:                 -11.864
REMARK INTRA:                  -4.027
REMARK UNBOUND:                -3.611
REMARK SMILES CC[C@@H](C)[C@@H](NC(=O)[C@@H](O)Cc1ccc(O)c(Cl)c1)C(=O)N1[C@H](C(=O)NCCCCN=C(N)N)C[C@H]2CC[C@H](OS(=O)(=O)O)C[C@@H]21
REMARK SMILES IDX 22 1 36 2 46 3 35 4 23 5 45 6 37 7 39 8 38 9 20 10 21 11
REMARK SMILES IDX 5 12 6 13 7 14 8 15 9 17 11 18 12 19 17 20 19 21 15 22 14 23
REMARK SMILES IDX 13 24 18 25 16 26 10 28 3 30 4 31 2 32 1 33 24 34 25 35
REMARK SMILES IDX 26 36 27 38 28 39 29 40 30 41 31 42 32 43 33 44 34 45 40 50
REMARK SMILES IDX 41 51 42 52 43 53 44 54
REMARK H PARENT 6 16 16 27 10 29 26 37 33 46 33 47 34 48 34 49 44 55
ROOT
ATOM      1  N   UNL     1      -3.189  -1.264  -0.982  1.00  0.00    -0.326 N 
ATOM      2  C   UNL     1      -2.217   0.870  -0.771  1.00  0.00     0.014 C 
ATOM      3  C   UNL     1      -2.111  -0.573  -0.268  1.00  0.00     0.091 C 
ATOM      4  C   UNL     1      -3.715   1.049  -0.962  1.00  0.00     0.041 C 
ATOM      5  C   UNL     1      -4.060  -0.277  -1.665  1.00  0.00     0.175 C 
ATOM      6  C   UNL     1      -0.677  -1.054  -0.479  1.00  0.00     0.059 C 
ATOM      7  C   UNL     1      -1.465   1.818   0.142  1.00  0.00     0.008 C 
ATOM      8  C   UNL     1       0.379   0.066  -0.360  1.00  0.00     0.143 C 
ATOM      9  C   UNL     1      -0.101   1.220   0.544  1.00  0.00     0.034 C 
ENDROOT
BRANCH   1  10
ATOM     10  C   UNL     1      -3.590  -2.588  -0.917  1.00  0.00     0.246 C 
ATOM     11  O   UNL     1      -3.036  -3.420  -1.643  1.00  0.00    -0.272 OA
BRANCH  10  12
ATOM     12  C   UNL     1      -4.696  -3.005   0.096  1.00  0.00     0.174 C 
BRANCH  12  13
ATOM     13  N   UNL     1      -5.998  -3.030  -0.570  1.00  0.00    -0.342 N 
ATOM     14  C   UNL     1      -6.516  -4.107  -1.253  1.00  0.00     0.249 C 
ATOM     15  O   UNL     1      -5.947  -5.187  -1.356  1.00  0.00    -0.272 OA
ATOM     16  H   UNL     1      -6.512  -2.163  -0.703  1.00  0.00     0.164 HD
BRANCH  14  17
ATOM     17  C   UNL     1      -7.904  -3.816  -1.860  1.00  0.00     0.207 C 
BRANCH  17  18
ATOM     18  C   UNL     1      -9.006  -4.456  -1.009  1.00  0.00     0.077 C 
BRANCH  18  19
ATOM     19  C   UNL     1      -9.967  -3.424  -0.464  1.00  0.00    -0.043 A 
ATOM     20  C   UNL     1     -11.937  -2.035  -0.735  1.00  0.00     0.083 A 
ATOM     21  C   UNL     1     -11.080  -3.023  -1.219  1.00  0.00     0.028 A 
ATOM     22  C   UNL     1     -11.687  -1.440   0.503  1.00  0.00     0.134 A 
ATOM     23  C   UNL     1     -10.589  -1.827   1.261  1.00  0.00     0.048 A 
ATOM     24  C   UNL     1      -9.728  -2.815   0.778  1.00  0.00     0.008 A 
ATOM     25  Cl  UNL     1     -13.299  -1.556  -1.678  1.00  0.00    -0.080 Cl
BRANCH  22  26
ATOM     26  O   UNL     1     -12.493  -0.459   1.014  1.00  0.00    -0.506 OA
ATOM     27  H   UNL     1     -12.602  -0.653   1.964  1.00  0.00     0.293 HD
ENDBRANCH  22  26
ENDBRANCH  18  19
ENDBRANCH  17  18
BRANCH  17  28
ATOM     28  O   UNL     1      -7.994  -4.310  -3.206  1.00  0.00    -0.383 OA
ATOM     29  H   UNL     1      -8.519  -5.141  -3.157  1.00  0.00     0.211 HD
ENDBRANCH  17  28
ENDBRANCH  14  17
ENDBRANCH  12  13
BRANCH  12  30
ATOM     30  C   UNL     1      -4.701  -2.125   1.375  1.00  0.00     0.018 C 
ATOM     31  C   UNL     1      -3.661  -2.628   2.388  1.00  0.00     0.010 C 
BRANCH  30  32
ATOM     32  C   UNL     1      -6.091  -2.016   2.048  1.00  0.00     0.002 C 
ATOM     33  C   UNL     1      -6.440  -3.146   3.008  1.00  0.00     0.004 C 
ENDBRANCH  30  32
ENDBRANCH  12  30
ENDBRANCH  10  12
ENDBRANCH   1  10
BRANCH   5  34
ATOM     34  C   UNL     1      -3.742  -0.219  -3.183  1.00  0.00     0.242 C 
ATOM     35  O   UNL     1      -4.465   0.371  -3.985  1.00  0.00    -0.273 OA
ATOM     36  N   UNL     1      -2.624  -0.921  -3.574  1.00  0.00    -0.354 N 
ATOM     37  H   UNL     1      -2.133  -1.489  -2.882  1.00  0.00     0.163 HD
BRANCH  36  38
ATOM     38  C   UNL     1      -2.061  -0.801  -4.903  1.00  0.00     0.116 C 
BRANCH  38  39
ATOM     39  C   UNL     1      -1.757  -2.188  -5.464  1.00  0.00     0.023 C 
BRANCH  39  40
ATOM     40  C   UNL     1      -2.367  -2.404  -6.846  1.00  0.00     0.026 C 
BRANCH  40  41
ATOM     41  C   UNL     1      -3.893  -2.337  -6.781  1.00  0.00     0.146 C 
BRANCH  41  42
ATOM     42  N   UNL     1      -4.423  -3.620  -6.340  1.00  0.00    -0.254 NA
ATOM     43  C   UNL     1      -5.197  -3.669  -5.321  1.00  0.00     0.185 C 
ATOM     44  N   UNL     1      -5.644  -2.680  -4.526  1.00  0.00    -0.370 N 
ATOM     45  N   UNL     1      -5.672  -4.862  -4.927  1.00  0.00    -0.370 N 
ATOM     46  H   UNL     1      -6.042  -2.886  -3.626  1.00  0.00     0.159 HD
ATOM     47  H   UNL     1      -5.392  -1.710  -4.689  1.00  0.00     0.159 HD
ATOM     48  H   UNL     1      -5.390  -5.661  -5.479  1.00  0.00     0.159 HD
ATOM     49  H   UNL     1      -6.454  -4.957  -4.304  1.00  0.00     0.159 HD
ENDBRANCH  41  42
ENDBRANCH  40  41
ENDBRANCH  39  40
ENDBRANCH  38  39
ENDBRANCH  36  38
ENDBRANCH   5  34
BRANCH   8  50
ATOM     50  O   UNL     1       0.678   0.597  -1.652  1.00  0.00    -0.245 OA
BRANCH  50  51
ATOM     51  S   UNL     1       1.853  -0.084  -2.546  1.00  0.00     0.397 S 
ATOM     52  O   UNL     1       1.253  -0.591  -3.760  1.00  0.00    -0.169 OA
ATOM     53  O   UNL     1       2.685  -0.918  -1.704  1.00  0.00    -0.169 OA
BRANCH  51  54
ATOM     54  O   UNL     1       2.721   1.196  -2.989  1.00  0.00    -0.264 OA
ATOM     55  H   UNL     1       3.147   0.986  -3.845  1.00  0.00     0.236 HD
ENDBRANCH  51  54
ENDBRANCH  50  51
ENDBRANCH   8  50
TORSDOF 19
ENDMDL
MODEL 5
REMARK VINA RESULT:    -5.952     17.510     21.387
REMARK INTER + INTRA:         -15.653
REMARK INTER:                 -10.088
REMARK INTRA:                  -5.564
REMARK UNBOUND:                -3.611
REMARK SMILES CC[C@@H](C)[C@@H](NC(=O)[C@@H](O)Cc1ccc(O)c(Cl)c1)C(=O)N1[C@H](C(=O)NCCCCN=C(N)N)C[C@H]2CC[C@H](OS(=O)(=O)O)C[C@@H]21
REMARK SMILES IDX 22 1 36 2 46 3 35 4 23 5 45 6 37 7 39 8 38 9 20 10 21 11
REMARK SMILES IDX 5 12 6 13 7 14 8 15 9 17 11 18 12 19 17 20 19 21 15 22 14 23
REMARK SMILES IDX 13 24 18 25 16 26 10 28 3 30 4 31 2 32 1 33 24 34 25 35
REMARK SMILES IDX 26 36 27 38 28 39 29 40 30 41 31 42 32 43 33 44 34 45 40 50
REMARK SMILES IDX 41 51 42 52 43 53 44 54
REMARK H PARENT 6 16 16 27 10 29 26 37 33 46 33 47 34 48 34 49 44 55
ROOT
ATOM      1  N   UNL     1       9.407   9.022   5.544  1.00  0.00    -0.326 N 
ATOM      2  C   UNL     1       8.192   8.032   7.301  1.00  0.00     0.014 C 
ATOM      3  C   UNL     1       9.564   8.039   6.621  1.00  0.00     0.091 C 
ATOM      4  C   UNL     1       7.240   8.261   6.138  1.00  0.00     0.041 C 
ATOM      5  C   UNL     1       7.978   9.394   5.400  1.00  0.00     0.175 C 
ATOM      6  C   UNL     1      10.630   8.294   7.685  1.00  0.00     0.059 C 
ATOM      7  C   UNL     1       8.024   6.800   8.168  1.00  0.00     0.008 C 
ATOM      8  C   UNL     1      10.268   7.727   9.075  1.00  0.00     0.143 C 
ATOM      9  C   UNL     1       9.308   6.524   8.978  1.00  0.00     0.034 C 
ENDROOT
BRANCH   1  10
ATOM     10  C   UNL     1      10.312   9.437   4.583  1.00  0.00     0.246 C 
ATOM     11  O   UNL     1      11.102  10.348   4.854  1.00  0.00    -0.272 OA
BRANCH  10  12
ATOM     12  C   UNL     1      10.345   8.723   3.201  1.00  0.00     0.174 C 
BRANCH  12  13
ATOM     13  N   UNL     1       9.079   8.933   2.500  1.00  0.00    -0.342 N 
ATOM     14  C   UNL     1       8.764  10.047   1.754  1.00  0.00     0.249 C 
ATOM     15  O   UNL     1       9.531  10.983   1.569  1.00  0.00    -0.272 OA
ATOM     16  H   UNL     1       8.291   8.318   2.688  1.00  0.00     0.164 HD
BRANCH  14  17
ATOM     17  C   UNL     1       7.343   9.979   1.154  1.00  0.00     0.207 C 
BRANCH  17  18
ATOM     18  C   UNL     1       6.741   8.585   1.358  1.00  0.00     0.077 C 
BRANCH  18  19
ATOM     19  C   UNL     1       5.668   8.587   2.423  1.00  0.00    -0.043 A 
ATOM     20  C   UNL     1       4.259   7.386   3.991  1.00  0.00     0.083 A 
ATOM     21  C   UNL     1       5.284   7.388   3.044  1.00  0.00     0.028 A 
ATOM     22  C   UNL     1       3.612   8.577   4.322  1.00  0.00     0.134 A 
ATOM     23  C   UNL     1       3.983   9.772   3.716  1.00  0.00     0.048 A 
ATOM     24  C   UNL     1       5.007   9.777   2.766  1.00  0.00     0.008 A 
ATOM     25  Cl  UNL     1       3.801   5.903   4.742  1.00  0.00    -0.080 Cl
BRANCH  22  26
ATOM     26  O   UNL     1       2.595   8.623   5.237  1.00  0.00    -0.506 OA
ATOM     27  H   UNL     1       2.475   7.714   5.568  1.00  0.00     0.293 HD
ENDBRANCH  22  26
ENDBRANCH  18  19
ENDBRANCH  17  18
BRANCH  17  28
ATOM     28  O   UNL     1       7.358  10.291  -0.248  1.00  0.00    -0.383 OA
ATOM     29  H   UNL     1       8.043  10.989  -0.364  1.00  0.00     0.211 HD
ENDBRANCH  17  28
ENDBRANCH  14  17
ENDBRANCH  12  13
BRANCH  12  30
ATOM     30  C   UNL     1      10.718   7.220   3.311  1.00  0.00     0.018 C 
ATOM     31  C   UNL     1      11.728   6.827   2.221  1.00  0.00     0.010 C 
BRANCH  30  32
ATOM     32  C   UNL     1       9.496   6.271   3.270  1.00  0.00     0.002 C 
ATOM     33  C   UNL     1       9.371   5.319   4.453  1.00  0.00     0.004 C 
ENDBRANCH  30  32
ENDBRANCH  12  30
ENDBRANCH  10  12
ENDBRANCH   1  10
BRANCH   5  34
ATOM     34  C   UNL     1       7.700  10.775   6.051  1.00  0.00     0.242 C 
ATOM     35  O   UNL     1       8.527  11.345   6.762  1.00  0.00    -0.273 OA
ATOM     36  N   UNL     1       6.445  11.290   5.819  1.00  0.00    -0.354 N 
ATOM     37  H   UNL     1       5.762  10.716   5.322  1.00  0.00     0.163 HD
BRANCH  36  38
ATOM     38  C   UNL     1       6.091  12.652   6.164  1.00  0.00     0.116 C 
BRANCH  38  39
ATOM     39  C   UNL     1       4.726  12.676   6.848  1.00  0.00     0.023 C 
BRANCH  39  40
ATOM     40  C   UNL     1       4.199  11.276   7.146  1.00  0.00     0.026 C 
BRANCH  40  41
ATOM     41  C   UNL     1       4.473  10.891   8.599  1.00  0.00     0.146 C 
BRANCH  41  42
ATOM     42  N   UNL     1       5.827  11.285   8.966  1.00  0.00    -0.254 NA
ATOM     43  C   UNL     1       6.569  10.469   9.616  1.00  0.00     0.185 C 
ATOM     44  N   UNL     1       6.310   9.223  10.053  1.00  0.00    -0.370 N 
ATOM     45  N   UNL     1       7.813  10.852   9.949  1.00  0.00    -0.370 N 
ATOM     46  H   UNL     1       6.889   8.795  10.756  1.00  0.00     0.159 HD
ATOM     47  H   UNL     1       5.418   8.771   9.876  1.00  0.00     0.159 HD
ATOM     48  H   UNL     1       8.092  11.776   9.649  1.00  0.00     0.159 HD
ATOM     49  H   UNL     1       8.523  10.204  10.239  1.00  0.00     0.159 HD
ENDBRANCH  41  42
ENDBRANCH  40  41
ENDBRANCH  39  40
ENDBRANCH  38  39
ENDBRANCH  36  38
ENDBRANCH   5  34
BRANCH   8  50
ATOM     50  O   UNL     1       9.650   8.738   9.871  1.00  0.00    -0.245 OA
BRANCH  50  51
ATOM     51  S   UNL     1       9.751   8.657  11.492  1.00  0.00     0.397 S 
ATOM     52  O   UNL     1      10.917   7.871  11.828  1.00  0.00    -0.169 OA
ATOM     53  O   UNL     1       8.448   8.357  12.047  1.00  0.00    -0.169 OA
BRANCH  51  54
ATOM     54  O   UNL     1      10.119  10.173  11.882  1.00  0.00    -0.264 OA
ATOM     55  H   UNL     1      10.740  10.513  11.205  1.00  0.00     0.236 HD
ENDBRANCH  51  54
ENDBRANCH  50  51
ENDBRANCH   8  50
TORSDOF 19
ENDMDL
MODEL 6
REMARK VINA RESULT:    -5.888      2.526      4.416
REMARK INTER + INTRA:         -15.522
REMARK INTER:                 -11.528
REMARK INTRA:                  -3.994
REMARK UNBOUND:                -3.611
REMARK SMILES CC[C@@H](C)[C@@H](NC(=O)[C@@H](O)Cc1ccc(O)c(Cl)c1)C(=O)N1[C@H](C(=O)NCCCCN=C(N)N)C[C@H]2CC[C@H](OS(=O)(=O)O)C[C@@H]21
REMARK SMILES IDX 22 1 36 2 46 3 35 4 23 5 45 6 37 7 39 8 38 9 20 10 21 11
REMARK SMILES IDX 5 12 6 13 7 14 8 15 9 17 11 18 12 19 17 20 19 21 15 22 14 23
REMARK SMILES IDX 13 24 18 25 16 26 10 28 3 30 4 31 2 32 1 33 24 34 25 35
REMARK SMILES IDX 26 36 27 38 28 39 29 40 30 41 31 42 32 43 33 44 34 45 40 50
REMARK SMILES IDX 41 51 42 52 43 53 44 54
REMARK H PARENT 6 16 16 27 10 29 26 37 33 46 33 47 34 48 34 49 44 55
ROOT
ATOM      1  N   UNL     1      -7.131  -2.472  -1.496  1.00  0.00    -0.326 N 
ATOM      2  C   UNL     1      -5.589  -0.770  -2.016  1.00  0.00     0.014 C 
ATOM      3  C   UNL     1      -6.291  -1.463  -0.845  1.00  0.00     0.091 C 
ATOM      4  C   UNL     1      -6.651  -0.796  -3.105  1.00  0.00     0.041 C 
ATOM      5  C   UNL     1      -7.153  -2.244  -2.963  1.00  0.00     0.175 C 
ATOM      6  C   UNL     1      -5.227  -1.935   0.145  1.00  0.00     0.059 C 
ATOM      7  C   UNL     1      -4.997   0.557  -1.586  1.00  0.00     0.008 C 
ATOM      8  C   UNL     1      -3.979  -1.027   0.195  1.00  0.00     0.143 C 
ATOM      9  C   UNL     1      -4.301   0.424  -0.215  1.00  0.00     0.034 C 
ENDROOT
BRANCH   1  10
ATOM     10  C   UNL     1      -8.008  -3.389  -0.943  1.00  0.00     0.246 C 
ATOM     11  O   UNL     1      -7.768  -4.596  -1.058  1.00  0.00    -0.272 OA
BRANCH  10  12
ATOM     12  C   UNL     1      -9.249  -2.883  -0.153  1.00  0.00     0.174 C 
BRANCH  12  13
ATOM     13  N   UNL     1      -8.967  -2.895   1.282  1.00  0.00    -0.342 N 
ATOM     14  C   UNL     1      -8.867  -1.776   2.078  1.00  0.00     0.249 C 
ATOM     15  O   UNL     1      -9.035  -0.633   1.671  1.00  0.00    -0.272 OA
ATOM     16  H   UNL     1      -8.652  -3.754   1.726  1.00  0.00     0.164 HD
BRANCH  14  17
ATOM     17  C   UNL     1      -8.543  -2.117   3.547  1.00  0.00     0.207 C 
BRANCH  17  18
ATOM     18  C   UNL     1      -7.056  -2.452   3.703  1.00  0.00     0.077 C 
BRANCH  18  19
ATOM     19  C   UNL     1      -6.233  -1.224   4.022  1.00  0.00    -0.043 A 
ATOM     20  C   UNL     1      -6.083   1.047   4.861  1.00  0.00     0.083 A 
ATOM     21  C   UNL     1      -6.835  -0.103   4.614  1.00  0.00     0.028 A 
ATOM     22  C   UNL     1      -4.731   1.084   4.518  1.00  0.00     0.134 A 
ATOM     23  C   UNL     1      -4.123  -0.019   3.932  1.00  0.00     0.048 A 
ATOM     24  C   UNL     1      -4.873  -1.171   3.681  1.00  0.00     0.008 A 
ATOM     25  Cl  UNL     1      -6.840   2.415   5.589  1.00  0.00    -0.080 Cl
BRANCH  22  26
ATOM     26  O   UNL     1      -3.957   2.192   4.732  1.00  0.00    -0.506 OA
ATOM     27  H   UNL     1      -4.559   2.960   4.731  1.00  0.00     0.293 HD
ENDBRANCH  22  26
ENDBRANCH  18  19
ENDBRANCH  17  18
BRANCH  17  28
ATOM     28  O   UNL     1      -9.332  -3.225   4.008  1.00  0.00    -0.383 OA
ATOM     29  H   UNL     1      -8.707  -3.977   4.118  1.00  0.00     0.211 HD
ENDBRANCH  17  28
ENDBRANCH  14  17
ENDBRANCH  12  13
BRANCH  12  30
ATOM     30  C   UNL     1     -10.545  -3.661  -0.508  1.00  0.00     0.018 C 
ATOM     31  C   UNL     1     -11.698  -2.693  -0.814  1.00  0.00     0.010 C 
BRANCH  30  32
ATOM     32  C   UNL     1     -10.977  -4.677   0.577  1.00  0.00     0.002 C 
ATOM     33  C   UNL     1     -12.230  -4.303   1.358  1.00  0.00     0.004 C 
ENDBRANCH  30  32
ENDBRANCH  12  30
ENDBRANCH  10  12
ENDBRANCH   1  10
BRANCH   5  34
ATOM     34  C   UNL     1      -6.218  -3.248  -3.689  1.00  0.00     0.242 C 
ATOM     35  O   UNL     1      -5.945  -4.352  -3.219  1.00  0.00    -0.273 OA
ATOM     36  N   UNL     1      -5.674  -2.792  -4.869  1.00  0.00    -0.354 N 
ATOM     37  H   UNL     1      -5.842  -1.824  -5.146  1.00  0.00     0.163 HD
BRANCH  36  38
ATOM     38  C   UNL     1      -4.959  -3.663  -5.779  1.00  0.00     0.116 C 
BRANCH  38  39
ATOM     39  C   UNL     1      -3.480  -3.287  -5.802  1.00  0.00     0.023 C 
BRANCH  39  40
ATOM     40  C   UNL     1      -3.234  -1.926  -6.444  1.00  0.00     0.026 C 
BRANCH  40  41
ATOM     41  C   UNL     1      -1.844  -1.400  -6.086  1.00  0.00     0.146 C 
BRANCH  41  42
ATOM     42  N   UNL     1      -1.940  -0.479  -4.961  1.00  0.00    -0.254 NA
ATOM     43  C   UNL     1      -1.531  -0.847  -3.805  1.00  0.00     0.185 C 
ATOM     44  N   UNL     1      -0.987  -2.012  -3.410  1.00  0.00    -0.370 N 
ATOM     45  N   UNL     1      -1.632   0.015  -2.780  1.00  0.00    -0.370 N 
ATOM     46  H   UNL     1      -0.939  -2.251  -2.434  1.00  0.00     0.159 HD
ATOM     47  H   UNL     1      -0.825  -2.773  -4.062  1.00  0.00     0.159 HD
ATOM     48  H   UNL     1      -2.025   0.922  -2.994  1.00  0.00     0.159 HD
ATOM     49  H   UNL     1      -1.129  -0.102  -1.919  1.00  0.00     0.159 HD
ENDBRANCH  41  42
ENDBRANCH  40  41
ENDBRANCH  39  40
ENDBRANCH  38  39
ENDBRANCH  36  38
ENDBRANCH   5  34
BRANCH   8  50
ATOM     50  O   UNL     1      -2.970  -1.533  -0.680  1.00  0.00    -0.245 OA
BRANCH  50  51
ATOM     51  S   UNL     1      -1.795  -2.486  -0.084  1.00  0.00     0.397 S 
ATOM     52  O   UNL     1      -2.226  -2.974   1.206  1.00  0.00    -0.169 OA
ATOM     53  O   UNL     1      -0.510  -1.843  -0.262  1.00  0.00    -0.169 OA
BRANCH  51  54
ATOM     54  O   UNL     1      -1.856  -3.752  -1.074  1.00  0.00    -0.264 OA
ATOM     55  H   UNL     1      -1.993  -4.552  -0.527  1.00  0.00     0.236 HD
ENDBRANCH  51  54
ENDBRANCH  50  51
ENDBRANCH   8  50
TORSDOF 19
ENDMDL
MODEL 7
REMARK VINA RESULT:    -5.780      2.832      4.385
REMARK INTER + INTRA:         -15.304
REMARK INTER:                 -10.500
REMARK INTRA:                  -4.804
REMARK UNBOUND:                -3.611
REMARK SMILES CC[C@@H](C)[C@@H](NC(=O)[C@@H](O)Cc1ccc(O)c(Cl)c1)C(=O)N1[C@H](C(=O)NCCCCN=C(N)N)C[C@H]2CC[C@H](OS(=O)(=O)O)C[C@@H]21
REMARK SMILES IDX 22 1 36 2 46 3 35 4 23 5 45 6 37 7 39 8 38 9 20 10 21 11
REMARK SMILES IDX 5 12 6 13 7 14 8 15 9 17 11 18 12 19 17 20 19 21 15 22 14 23
REMARK SMILES IDX 13 24 18 25 16 26 10 28 3 30 4 31 2 32 1 33 24 34 25 35
REMARK SMILES IDX 26 36 27 38 28 39 29 40 30 41 31 42 32 43 33 44 34 45 40 50
REMARK SMILES IDX 41 51 42 52 43 53 44 54
REMARK H PARENT 6 16 16 27 10 29 26 37 33 46 33 47 34 48 34 49 44 55
ROOT
ATOM      1  N   UNL     1      -8.157  -2.810  -1.019  1.00  0.00    -0.326 N 
ATOM      2  C   UNL     1      -6.555  -1.089  -0.894  1.00  0.00     0.014 C 
ATOM      3  C   UNL     1      -7.545  -1.897  -0.050  1.00  0.00     0.091 C 
ATOM      4  C   UNL     1      -7.272  -0.972  -2.230  1.00  0.00     0.041 C 
ATOM      5  C   UNL     1      -7.774  -2.418  -2.398  1.00  0.00     0.175 C 
ATOM      6  C   UNL     1      -6.792  -2.497   1.136  1.00  0.00     0.059 C 
ATOM      7  C   UNL     1      -6.124   0.170  -0.168  1.00  0.00     0.008 C 
ATOM      8  C   UNL     1      -5.619  -1.625   1.633  1.00  0.00     0.143 C 
ATOM      9  C   UNL     1      -5.834  -0.131   1.318  1.00  0.00     0.034 C 
ENDROOT
BRANCH   1  10
ATOM     10  C   UNL     1      -9.140  -3.768  -0.839  1.00  0.00     0.246 C 
ATOM     11  O   UNL     1      -8.819  -4.960  -0.798  1.00  0.00    -0.272 OA
BRANCH  10  12
ATOM     12  C   UNL     1     -10.619  -3.322  -0.649  1.00  0.00     0.174 C 
BRANCH  12  13
ATOM     13  N   UNL     1     -10.742  -1.885  -0.892  1.00  0.00    -0.342 N 
ATOM     14  C   UNL     1     -11.902  -1.242  -1.263  1.00  0.00     0.249 C 
ATOM     15  O   UNL     1     -12.979  -1.808  -1.406  1.00  0.00    -0.272 OA
ATOM     16  H   UNL     1      -9.904  -1.313  -0.964  1.00  0.00     0.164 HD
BRANCH  14  17
ATOM     17  C   UNL     1     -11.704   0.276  -1.461  1.00  0.00     0.207 C 
BRANCH  17  18
ATOM     18  C   UNL     1     -12.186   1.044  -0.226  1.00  0.00     0.077 C 
BRANCH  18  19
ATOM     19  C   UNL     1     -11.110   1.136   0.833  1.00  0.00    -0.043 A 
ATOM     20  C   UNL     1      -8.987   2.023   1.602  1.00  0.00     0.083 A 
ATOM     21  C   UNL     1     -10.002   1.978   0.646  1.00  0.00     0.028 A 
ATOM     22  C   UNL     1      -9.070   1.229   2.747  1.00  0.00     0.134 A 
ATOM     23  C   UNL     1     -10.161   0.391   2.944  1.00  0.00     0.048 A 
ATOM     24  C   UNL     1     -11.178   0.342   1.988  1.00  0.00     0.008 A 
ATOM     25  Cl  UNL     1      -7.634   3.063   1.354  1.00  0.00    -0.080 Cl
BRANCH  22  26
ATOM     26  O   UNL     1      -8.095   1.232   3.707  1.00  0.00    -0.506 OA
ATOM     27  H   UNL     1      -7.609   0.392   3.615  1.00  0.00     0.293 HD
ENDBRANCH  22  26
ENDBRANCH  18  19
ENDBRANCH  17  18
BRANCH  17  28
ATOM     28  O   UNL     1     -12.414   0.743  -2.620  1.00  0.00    -0.383 OA
ATOM     29  H   UNL     1     -13.250   1.141  -2.284  1.00  0.00     0.211 HD
ENDBRANCH  17  28
ENDBRANCH  14  17
ENDBRANCH  12  13
BRANCH  12  30
ATOM     30  C   UNL     1     -11.200  -3.741   0.729  1.00  0.00     0.018 C 
ATOM     31  C   UNL     1     -10.304  -3.243   1.874  1.00  0.00     0.010 C 
BRANCH  30  32
ATOM     32  C   UNL     1     -11.439  -5.265   0.864  1.00  0.00     0.002 C 
ATOM     33  C   UNL     1     -12.400  -5.677   1.972  1.00  0.00     0.004 C 
ENDBRANCH  30  32
ENDBRANCH  12  30
ENDBRANCH  10  12
ENDBRANCH   1  10
BRANCH   5  34
ATOM     34  C   UNL     1      -6.660  -3.350  -2.946  1.00  0.00     0.242 C 
ATOM     35  O   UNL     1      -6.163  -4.250  -2.269  1.00  0.00    -0.273 OA
ATOM     36  N   UNL     1      -6.231  -3.062  -4.222  1.00  0.00    -0.354 N 
ATOM     37  H   UNL     1      -6.596  -2.229  -4.687  1.00  0.00     0.163 HD
BRANCH  36  38
ATOM     38  C   UNL     1      -5.362  -3.951  -4.965  1.00  0.00     0.116 C 
BRANCH  38  39
ATOM     39  C   UNL     1      -4.515  -3.146  -5.948  1.00  0.00     0.023 C 
BRANCH  39  40
ATOM     40  C   UNL     1      -3.947  -1.876  -5.324  1.00  0.00     0.026 C 
BRANCH  40  41
ATOM     41  C   UNL     1      -2.710  -2.192  -4.482  1.00  0.00     0.146 C 
BRANCH  41  42
ATOM     42  N   UNL     1      -2.600  -1.233  -3.391  1.00  0.00    -0.254 NA
ATOM     43  C   UNL     1      -2.950  -1.577  -2.209  1.00  0.00     0.185 C 
ATOM     44  N   UNL     1      -3.436  -2.747  -1.755  1.00  0.00    -0.370 N 
ATOM     45  N   UNL     1      -2.844  -0.677  -1.217  1.00  0.00    -0.370 N 
ATOM     46  H   UNL     1      -3.895  -2.800  -0.862  1.00  0.00     0.159 HD
ATOM     47  H   UNL     1      -3.567  -3.543  -2.371  1.00  0.00     0.159 HD
ATOM     48  H   UNL     1      -2.477   0.230  -1.472  1.00  0.00     0.159 HD
ATOM     49  H   UNL     1      -2.869  -0.932  -0.246  1.00  0.00     0.159 HD
ENDBRANCH  41  42
ENDBRANCH  40  41
ENDBRANCH  39  40
ENDBRANCH  38  39
ENDBRANCH  36  38
ENDBRANCH   5  34
BRANCH   8  50
ATOM     50  O   UNL     1      -4.400  -2.046   1.021  1.00  0.00    -0.245 OA
BRANCH  50  51
ATOM     51  S   UNL     1      -3.045  -2.147   1.915  1.00  0.00     0.397 S 
ATOM     52  O   UNL     1      -3.336  -2.957   3.077  1.00  0.00    -0.169 OA
ATOM     53  O   UNL     1      -2.443  -0.835   2.036  1.00  0.00    -0.169 OA
BRANCH  51  54
ATOM     54  O   UNL     1      -2.093  -3.046   0.982  1.00  0.00    -0.264 OA
ATOM     55  H   UNL     1      -1.220  -2.605   0.934  1.00  0.00     0.236 HD
ENDBRANCH  51  54
ENDBRANCH  50  51
ENDBRANCH   8  50
TORSDOF 19
ENDMDL
MODEL 8
REMARK VINA RESULT:    -5.663     15.706     20.703
REMARK INTER + INTRA:         -15.067
REMARK INTER:                 -10.389
REMARK INTRA:                  -4.678
REMARK UNBOUND:                -3.611
REMARK SMILES CC[C@@H](C)[C@@H](NC(=O)[C@@H](O)Cc1ccc(O)c(Cl)c1)C(=O)N1[C@H](C(=O)NCCCCN=C(N)N)C[C@H]2CC[C@H](OS(=O)(=O)O)C[C@@H]21
REMARK SMILES IDX 22 1 36 2 46 3 35 4 23 5 45 6 37 7 39 8 38 9 20 10 21 11
REMARK SMILES IDX 5 12 6 13 7 14 8 15 9 17 11 18 12 19 17 20 19 21 15 22 14 23
REMARK SMILES IDX 13 24 18 25 16 26 10 28 3 30 4 31 2 32 1 33 24 34 25 35
REMARK SMILES IDX 26 36 27 38 28 39 29 40 30 41 31 42 32 43 33 44 34 45 40 50
REMARK SMILES IDX 41 51 42 52 43 53 44 54
REMARK H PARENT 6 16 16 27 10 29 26 37 33 46 33 47 34 48 34 49 44 55
ROOT
ATOM      1  N   UNL     1       5.363   8.745   8.256  1.00  0.00    -0.326 N 
ATOM      2  C   UNL     1       7.251   7.610   9.087  1.00  0.00     0.014 C 
ATOM      3  C   UNL     1       6.573   8.982   9.049  1.00  0.00     0.091 C 
ATOM      4  C   UNL     1       6.915   7.033   7.720  1.00  0.00     0.041 C 
ATOM      5  C   UNL     1       5.423   7.403   7.628  1.00  0.00     0.175 C 
ATOM      6  C   UNL     1       6.413   9.482  10.484  1.00  0.00     0.059 C 
ATOM      7  C   UNL     1       8.703   7.733   9.505  1.00  0.00     0.008 C 
ATOM      8  C   UNL     1       7.533   9.007  11.435  1.00  0.00     0.143 C 
ATOM      9  C   UNL     1       8.848   8.718  10.684  1.00  0.00     0.034 C 
ENDROOT
BRANCH   1  10
ATOM     10  C   UNL     1       4.367   9.627   7.871  1.00  0.00     0.246 C 
ATOM     11  O   UNL     1       3.303   9.643   8.499  1.00  0.00    -0.272 OA
BRANCH  10  12
ATOM     12  C   UNL     1       4.624  10.605   6.688  1.00  0.00     0.174 C 
BRANCH  12  13
ATOM     13  N   UNL     1       5.267   9.894   5.584  1.00  0.00    -0.342 N 
ATOM     14  C   UNL     1       4.626   9.457   4.446  1.00  0.00     0.249 C 
ATOM     15  O   UNL     1       3.437   9.642   4.219  1.00  0.00    -0.272 OA
ATOM     16  H   UNL     1       6.210   9.533   5.699  1.00  0.00     0.164 HD
BRANCH  14  17
ATOM     17  C   UNL     1       5.574   8.723   3.474  1.00  0.00     0.207 C 
BRANCH  17  18
ATOM     18  C   UNL     1       6.453   9.728   2.722  1.00  0.00     0.077 C 
BRANCH  18  19
ATOM     19  C   UNL     1       7.787   9.929   3.405  1.00  0.00    -0.043 A 
ATOM     20  C   UNL     1       9.476   9.186   4.980  1.00  0.00     0.083 A 
ATOM     21  C   UNL     1       8.268   8.974   4.314  1.00  0.00     0.028 A 
ATOM     22  C   UNL     1      10.208  10.350   4.744  1.00  0.00     0.134 A 
ATOM     23  C   UNL     1       9.743  11.304   3.846  1.00  0.00     0.048 A 
ATOM     24  C   UNL     1       8.534  11.096   3.180  1.00  0.00     0.008 A 
ATOM     25  Cl  UNL     1      10.050   8.001   6.094  1.00  0.00    -0.080 Cl
BRANCH  22  26
ATOM     26  O   UNL     1      11.392  10.607   5.381  1.00  0.00    -0.506 OA
ATOM     27  H   UNL     1      11.173  10.806   6.310  1.00  0.00     0.293 HD
ENDBRANCH  22  26
ENDBRANCH  18  19
ENDBRANCH  17  18
BRANCH  17  28
ATOM     28  O   UNL     1       4.835   7.935   2.527  1.00  0.00    -0.383 OA
ATOM     29  H   UNL     1       5.506   7.490   1.961  1.00  0.00     0.211 HD
ENDBRANCH  17  28
ENDBRANCH  14  17
ENDBRANCH  12  13
BRANCH  12  30
ATOM     30  C   UNL     1       5.413  11.871   7.117  1.00  0.00     0.018 C 
ATOM     31  C   UNL     1       4.571  13.139   6.903  1.00  0.00     0.010 C 
BRANCH  30  32
ATOM     32  C   UNL     1       6.784  12.018   6.412  1.00  0.00     0.002 C 
ATOM     33  C   UNL     1       8.000  11.771   7.295  1.00  0.00     0.004 C 
ENDBRANCH  30  32
ENDBRANCH  12  30
ENDBRANCH  10  12
ENDBRANCH   1  10
BRANCH   5  34
ATOM     34  C   UNL     1       4.534   6.393   8.402  1.00  0.00     0.242 C 
ATOM     35  O   UNL     1       3.891   6.714   9.401  1.00  0.00    -0.273 OA
ATOM     36  N   UNL     1       4.559   5.103   7.922  1.00  0.00    -0.354 N 
ATOM     37  H   UNL     1       5.204   4.872   7.165  1.00  0.00     0.163 HD
BRANCH  36  38
ATOM     38  C   UNL     1       3.634   4.088   8.383  1.00  0.00     0.116 C 
BRANCH  38  39
ATOM     39  C   UNL     1       3.025   3.361   7.187  1.00  0.00     0.023 C 
BRANCH  39  40
ATOM     40  C   UNL     1       1.742   4.022   6.694  1.00  0.00     0.026 C 
BRANCH  40  41
ATOM     41  C   UNL     1       2.021   4.906   5.478  1.00  0.00     0.146 C 
BRANCH  41  42
ATOM     42  N   UNL     1       2.197   6.288   5.904  1.00  0.00    -0.254 NA
ATOM     43  C   UNL     1       1.243   7.127   5.743  1.00  0.00     0.185 C 
ATOM     44  N   UNL     1       0.017   6.953   5.216  1.00  0.00    -0.370 N 
ATOM     45  N   UNL     1       1.428   8.397   6.138  1.00  0.00    -0.370 N 
ATOM     46  H   UNL     1      -0.534   7.743   4.930  1.00  0.00     0.159 HD
ATOM     47  H   UNL     1      -0.294   6.047   4.879  1.00  0.00     0.159 HD
ATOM     48  H   UNL     1       2.323   8.612   6.555  1.00  0.00     0.159 HD
ATOM     49  H   UNL     1       0.669   9.043   6.266  1.00  0.00     0.159 HD
ENDBRANCH  41  42
ENDBRANCH  40  41
ENDBRANCH  39  40
ENDBRANCH  38  39
ENDBRANCH  36  38
ENDBRANCH   5  34
BRANCH   8  50
ATOM     50  O   UNL     1       7.128   7.819  12.115  1.00  0.00    -0.245 OA
BRANCH  50  51
ATOM     51  S   UNL     1       6.632   7.907  13.661  1.00  0.00     0.397 S 
ATOM     52  O   UNL     1       7.577   7.176  14.475  1.00  0.00    -0.169 OA
ATOM     53  O   UNL     1       5.209   7.648  13.731  1.00  0.00    -0.169 OA
BRANCH  51  54
ATOM     54  O   UNL     1       6.870   9.460  14.002  1.00  0.00    -0.264 OA
ATOM     55  H   UNL     1       6.079   9.955  13.706  1.00  0.00     0.236 HD
ENDBRANCH  51  54
ENDBRANCH  50  51
ENDBRANCH   8  50
TORSDOF 19
ENDMDL
MODEL 9
REMARK VINA RESULT:    -5.533     17.595     22.028
REMARK INTER + INTRA:         -14.805
REMARK INTER:                  -9.277
REMARK INTRA:                  -5.528
REMARK UNBOUND:                -3.611
REMARK SMILES CC[C@@H](C)[C@@H](NC(=O)[C@@H](O)Cc1ccc(O)c(Cl)c1)C(=O)N1[C@H](C(=O)NCCCCN=C(N)N)C[C@H]2CC[C@H](OS(=O)(=O)O)C[C@@H]21
REMARK SMILES IDX 22 1 36 2 46 3 35 4 23 5 45 6 37 7 39 8 38 9 20 10 21 11
REMARK SMILES IDX 5 12 6 13 7 14 8 15 9 17 11 18 12 19 17 20 19 21 15 22 14 23
REMARK SMILES IDX 13 24 18 25 16 26 10 28 3 30 4 31 2 32 1 33 24 34 25 35
REMARK SMILES IDX 26 36 27 38 28 39 29 40 30 41 31 42 32 43 33 44 34 45 40 50
REMARK SMILES IDX 41 51 42 52 43 53 44 54
REMARK H PARENT 6 16 16 27 10 29 26 37 33 46 33 47 34 48 34 49 44 55
ROOT
ATOM      1  N   UNL     1       6.173   7.395   2.506  1.00  0.00    -0.326 N 
ATOM      2  C   UNL     1       6.396   6.263   4.558  1.00  0.00     0.014 C 
ATOM      3  C   UNL     1       6.970   6.342   3.141  1.00  0.00     0.091 C 
ATOM      4  C   UNL     1       4.920   6.557   4.338  1.00  0.00     0.041 C 
ATOM      5  C   UNL     1       5.022   7.752   3.372  1.00  0.00     0.175 C 
ATOM      6  C   UNL     1       8.482   6.539   3.242  1.00  0.00     0.059 C 
ATOM      7  C   UNL     1       6.803   4.969   5.237  1.00  0.00     0.008 C 
ATOM      8  C   UNL     1       9.114   5.869   4.481  1.00  0.00     0.143 C 
ATOM      9  C   UNL     1       8.291   4.659   4.969  1.00  0.00     0.034 C 
ENDROOT
BRANCH   1  10
ATOM     10  C   UNL     1       6.226   7.893   1.216  1.00  0.00     0.246 C 
ATOM     11  O   UNL     1       5.189   7.937   0.545  1.00  0.00    -0.272 OA
BRANCH  10  12
ATOM     12  C   UNL     1       7.576   8.425   0.654  1.00  0.00     0.174 C 
BRANCH  12  13
ATOM     13  N   UNL     1       7.961   9.649   1.356  1.00  0.00    -0.342 N 
ATOM     14  C   UNL     1       9.219   9.916   1.848  1.00  0.00     0.249 C 
ATOM     15  O   UNL     1      10.173   9.159   1.726  1.00  0.00    -0.272 OA
ATOM     16  H   UNL     1       7.242  10.298   1.669  1.00  0.00     0.164 HD
BRANCH  14  17
ATOM     17  C   UNL     1       9.304  11.285   2.555  1.00  0.00     0.207 C 
BRANCH  17  18
ATOM     18  C   UNL     1      10.756  11.610   2.920  1.00  0.00     0.077 C 
BRANCH  18  19
ATOM     19  C   UNL     1      11.409  12.502   1.888  1.00  0.00    -0.043 A 
ATOM     20  C   UNL     1      11.496  13.395  -0.365  1.00  0.00     0.083 A 
ATOM     21  C   UNL     1      10.863  12.611   0.599  1.00  0.00     0.028 A 
ATOM     22  C   UNL     1      12.674  14.073  -0.051  1.00  0.00     0.134 A 
ATOM     23  C   UNL     1      13.225  13.974   1.221  1.00  0.00     0.048 A 
ATOM     24  C   UNL     1      12.595  13.188   2.188  1.00  0.00     0.008 A 
ATOM     25  Cl  UNL     1      10.810  13.516  -1.943  1.00  0.00    -0.080 Cl
BRANCH  22  26
ATOM     26  O   UNL     1      13.336  14.846  -0.967  1.00  0.00    -0.506 OA
ATOM     27  H   UNL     1      12.863  15.697  -1.009  1.00  0.00     0.293 HD
ENDBRANCH  22  26
ENDBRANCH  18  19
ENDBRANCH  17  18
BRANCH  17  28
ATOM     28  O   UNL     1       8.498  11.305   3.745  1.00  0.00    -0.383 OA
ATOM     29  H   UNL     1       8.789  10.534   4.283  1.00  0.00     0.211 HD
ENDBRANCH  17  28
ENDBRANCH  14  17
ENDBRANCH  12  13
BRANCH  12  30
ATOM     30  C   UNL     1       7.554   8.609  -0.887  1.00  0.00     0.018 C 
ATOM     31  C   UNL     1       8.818   8.013  -1.527  1.00  0.00     0.010 C 
BRANCH  30  32
ATOM     32  C   UNL     1       7.374  10.080  -1.336  1.00  0.00     0.002 C 
ATOM     33  C   UNL     1       8.574  10.697  -2.041  1.00  0.00     0.004 C 
ENDBRANCH  30  32
ENDBRANCH  12  30
ENDBRANCH  10  12
ENDBRANCH   1  10
BRANCH   5  34
ATOM     34  C   UNL     1       5.293   9.079   4.130  1.00  0.00     0.242 C 
ATOM     35  O   UNL     1       6.313   9.743   3.948  1.00  0.00    -0.273 OA
ATOM     36  N   UNL     1       4.338   9.430   5.057  1.00  0.00    -0.354 N 
ATOM     37  H   UNL     1       3.576   8.778   5.248  1.00  0.00     0.163 HD
BRANCH  36  38
ATOM     38  C   UNL     1       4.319  10.730   5.694  1.00  0.00     0.116 C 
BRANCH  38  39
ATOM     39  C   UNL     1       4.088  10.570   7.195  1.00  0.00     0.023 C 
BRANCH  39  40
ATOM     40  C   UNL     1       4.869  11.590   8.017  1.00  0.00     0.026 C 
BRANCH  40  41
ATOM     41  C   UNL     1       6.365  11.278   7.989  1.00  0.00     0.146 C 
BRANCH  41  42
ATOM     42  N   UNL     1       6.576   9.856   8.226  1.00  0.00    -0.254 NA
ATOM     43  C   UNL     1       7.330   9.187   7.436  1.00  0.00     0.185 C 
ATOM     44  N   UNL     1       8.014   9.587   6.348  1.00  0.00    -0.370 N 
ATOM     45  N   UNL     1       7.508   7.877   7.669  1.00  0.00    -0.370 N 
ATOM     46  H   UNL     1       8.364   8.914   5.687  1.00  0.00     0.159 HD
ATOM     47  H   UNL     1       8.002  10.553   6.036  1.00  0.00     0.159 HD
ATOM     48  H   UNL     1       7.034   7.496   8.477  1.00  0.00     0.159 HD
ATOM     49  H   UNL     1       8.253   7.346   7.252  1.00  0.00     0.159 HD
ENDBRANCH  41  42
ENDBRANCH  40  41
ENDBRANCH  39  40
ENDBRANCH  38  39
ENDBRANCH  36  38
ENDBRANCH   5  34
BRANCH   8  50
ATOM     50  O   UNL     1       9.215   6.810   5.550  1.00  0.00    -0.245 OA
BRANCH  50  51
ATOM     51  S   UNL     1      10.652   7.493   5.886  1.00  0.00     0.397 S 
ATOM     52  O   UNL     1      11.690   6.583   5.457  1.00  0.00    -0.169 OA
ATOM     53  O   UNL     1      10.628   8.040   7.227  1.00  0.00    -0.169 OA
BRANCH  51  54
ATOM     54  O   UNL     1      10.690   8.721   4.849  1.00  0.00    -0.264 OA
ATOM     55  H   UNL     1      11.253   9.422   5.237  1.00  0.00     0.236 HD
ENDBRANCH  51  54
ENDBRANCH  50  51
ENDBRANCH   8  50
TORSDOF 19
ENDMDL
MODEL 10
REMARK VINA RESULT:    -5.511      4.217      9.584
REMARK INTER + INTRA:         -14.759
REMARK INTER:                 -10.322
REMARK INTRA:                  -4.437
REMARK UNBOUND:                -3.611
REMARK SMILES CC[C@@H](C)[C@@H](NC(=O)[C@@H](O)Cc1ccc(O)c(Cl)c1)C(=O)N1[C@H](C(=O)NCCCCN=C(N)N)C[C@H]2CC[C@H](OS(=O)(=O)O)C[C@@H]21
REMARK SMILES IDX 22 1 36 2 46 3 35 4 23 5 45 6 37 7 39 8 38 9 20 10 21 11
REMARK SMILES IDX 5 12 6 13 7 14 8 15 9 17 11 18 12 19 17 20 19 21 15 22 14 23
REMARK SMILES IDX 13 24 18 25 16 26 10 28 3 30 4 31 2 32 1 33 24 34 25 35
REMARK SMILES IDX 26 36 27 38 28 39 29 40 30 41 31 42 32 43 33 44 34 45 40 50
REMARK SMILES IDX 41 51 42 52 43 53 44 54
REMARK H PARENT 6 16 16 27 10 29 26 37 33 46 33 47 34 48 34 49 44 55
ROOT
ATOM      1  N   UNL     1      -6.551  -2.398  -1.397  1.00  0.00    -0.326 N 
ATOM      2  C   UNL     1      -8.763  -1.637  -1.137  1.00  0.00     0.014 C 
ATOM      3  C   UNL     1      -7.934  -2.871  -1.507  1.00  0.00     0.091 C 
ATOM      4  C   UNL     1      -7.933  -0.494  -1.701  1.00  0.00     0.041 C 
ATOM      5  C   UNL     1      -6.529  -0.923  -1.237  1.00  0.00     0.175 C 
ATOM      6  C   UNL     1      -8.375  -4.033  -0.619  1.00  0.00     0.059 C 
ATOM      7  C   UNL     1     -10.204  -1.800  -1.582  1.00  0.00     0.008 C 
ATOM      8  C   UNL     1      -9.867  -3.982  -0.225  1.00  0.00     0.143 C 
ATOM      9  C   UNL     1     -10.715  -3.220  -1.263  1.00  0.00     0.034 C 
ENDROOT
BRANCH   1  10
ATOM     10  C   UNL     1      -5.363  -3.069  -1.631  1.00  0.00     0.246 C 
ATOM     11  O   UNL     1      -4.905  -3.806  -0.752  1.00  0.00    -0.272 OA
BRANCH  10  12
ATOM     12  C   UNL     1      -4.654  -2.916  -3.008  1.00  0.00     0.174 C 
BRANCH  12  13
ATOM     13  N   UNL     1      -3.856  -1.690  -3.025  1.00  0.00    -0.342 N 
ATOM     14  C   UNL     1      -2.559  -1.585  -2.575  1.00  0.00     0.249 C 
ATOM     15  O   UNL     1      -1.912  -2.526  -2.133  1.00  0.00    -0.272 OA
ATOM     16  H   UNL     1      -4.307  -0.798  -3.217  1.00  0.00     0.164 HD
BRANCH  14  17
ATOM     17  C   UNL     1      -1.996  -0.154  -2.709  1.00  0.00     0.207 C 
BRANCH  17  18
ATOM     18  C   UNL     1      -1.811   0.481  -1.327  1.00  0.00     0.077 C 
BRANCH  18  19
ATOM     19  C   UNL     1      -0.372   0.416  -0.867  1.00  0.00    -0.043 A 
ATOM     20  C   UNL     1       1.266   0.413   0.922  1.00  0.00     0.083 A 
ATOM     21  C   UNL     1      -0.065   0.423   0.502  1.00  0.00     0.028 A 
ATOM     22  C   UNL     1       2.295   0.397  -0.020  1.00  0.00     0.134 A 
ATOM     23  C   UNL     1       2.005   0.390  -1.379  1.00  0.00     0.048 A 
ATOM     24  C   UNL     1       0.674   0.402  -1.803  1.00  0.00     0.008 A 
ATOM     25  Cl  UNL     1       1.623   0.422   2.609  1.00  0.00    -0.080 Cl
BRANCH  22  26
ATOM     26  O   UNL     1       3.614   0.398   0.344  1.00  0.00    -0.506 OA
ATOM     27  H   UNL     1       3.637   0.361   1.318  1.00  0.00     0.293 HD
ENDBRANCH  22  26
ENDBRANCH  18  19
ENDBRANCH  17  18
BRANCH  17  28
ATOM     28  O   UNL     1      -2.866   0.672  -3.500  1.00  0.00    -0.383 OA
ATOM     29  H   UNL     1      -3.491   0.058  -3.948  1.00  0.00     0.211 HD
ENDBRANCH  17  28
ENDBRANCH  14  17
ENDBRANCH  12  13
BRANCH  12  30
ATOM     30  C   UNL     1      -5.641  -2.996  -4.204  1.00  0.00     0.018 C 
ATOM     31  C   UNL     1      -6.174  -4.427  -4.377  1.00  0.00     0.010 C 
BRANCH  30  32
ATOM     32  C   UNL     1      -5.044  -2.485  -5.538  1.00  0.00     0.002 C 
ATOM     33  C   UNL     1      -4.381  -3.549  -6.404  1.00  0.00     0.004 C 
ENDBRANCH  30  32
ENDBRANCH  12  30
ENDBRANCH  10  12
ENDBRANCH   1  10
BRANCH   5  34
ATOM     34  C   UNL     1      -6.272  -0.535   0.244  1.00  0.00     0.242 C 
ATOM     35  O   UNL     1      -6.380  -1.345   1.165  1.00  0.00    -0.273 OA
ATOM     36  N   UNL     1      -5.969   0.791   0.457  1.00  0.00    -0.354 N 
ATOM     37  H   UNL     1      -6.012   1.438  -0.331  1.00  0.00     0.163 HD
BRANCH  36  38
ATOM     38  C   UNL     1      -5.492   1.279   1.735  1.00  0.00     0.116 C 
BRANCH  38  39
ATOM     39  C   UNL     1      -3.997   1.578   1.651  1.00  0.00     0.023 C 
BRANCH  39  40
ATOM     40  C   UNL     1      -3.244   1.138   2.902  1.00  0.00     0.026 C 
BRANCH  40  41
ATOM     41  C   UNL     1      -3.404  -0.365   3.130  1.00  0.00     0.146 C 
BRANCH  41  42
ATOM     42  N   UNL     1      -2.606  -1.099   2.157  1.00  0.00    -0.254 NA
ATOM     43  C   UNL     1      -3.020  -2.229   1.721  1.00  0.00     0.185 C 
ATOM     44  N   UNL     1      -4.140  -2.913   2.018  1.00  0.00    -0.370 N 
ATOM     45  N   UNL     1      -2.268  -2.892   0.827  1.00  0.00    -0.370 N 
ATOM     46  H   UNL     1      -4.219  -3.890   1.793  1.00  0.00     0.159 HD
ATOM     47  H   UNL     1      -4.830  -2.550   2.669  1.00  0.00     0.159 HD
ATOM     48  H   UNL     1      -1.409  -2.440   0.542  1.00  0.00     0.159 HD
ATOM     49  H   UNL     1      -2.624  -3.647   0.270  1.00  0.00     0.159 HD
ENDBRANCH  41  42
ENDBRANCH  40  41
ENDBRANCH  39  40
ENDBRANCH  38  39
ENDBRANCH  36  38
ENDBRANCH   5  34
BRANCH   8  50
ATOM     50  O   UNL     1     -10.018  -3.341   1.042  1.00  0.00    -0.245 OA
BRANCH  50  51
ATOM     51  S   UNL     1     -11.279  -3.729   1.993  1.00  0.00     0.397 S 
ATOM     52  O   UNL     1     -10.830  -3.692   3.367  1.00  0.00    -0.169 OA
ATOM     53  O   UNL     1     -11.962  -4.884   1.448  1.00  0.00    -0.169 OA
BRANCH  51  54
ATOM     54  O   UNL     1     -12.241  -2.453   1.812  1.00  0.00    -0.264 OA
ATOM     55  H   UNL     1     -12.468  -2.383   0.862  1.00  0.00     0.236 HD
ENDBRANCH  51  54
ENDBRANCH  50  51
ENDBRANCH   8  50
TORSDOF 19
ENDMDL
