MODEL 1
REMARK VINA RESULT:    -6.029      0.000      0.000
REMARK INTER + INTRA:         -24.708
REMARK INTER:                 -17.306
REMARK INTRA:                  -7.402
REMARK UNBOUND:                -7.402
REMARK SMILES CCCCCC(=O)N[C@H](CC(=O)O)C(=O)N[C@H]1C(=O)N[C@H](CCCN=C(N)N)C(=O)N[C@@H]2CC[C@H](O)N(C2=O)[C@@H](CC(C)C)C(=O)N(C)[C@@H](Cc2ccccc2)C(=O)N[C@H](C(C)C)C(=O)O[C@@H]1C
REMARK SMILES IDX 30 1 31 2 29 3 32 5 35 6 37 7 34 8 38 9 33 10 39 11 36 12
REMARK SMILES IDX 40 14 41 15 42 16 43 17 44 18 45 19 46 20 47 21 48 22 49 23
REMARK SMILES IDX 50 24 51 25 52 26 56 27 53 28 55 29 54 30 57 31 58 32 59 33
REMARK SMILES IDX 60 35 61 36 62 37 63 38 64 39 65 40 66 41 67 42 68 43 21 45
REMARK SMILES IDX 20 46 18 47 19 48 17 50 16 52 14 53 15 54 9 56 8 57 6 58
REMARK SMILES IDX 7 59 5 61 4 62 3 63 2 64 1 65 10 66 11 67 12 68 13 69 22 71
REMARK SMILES IDX 23 72 24 73 25 74 26 75 27 76 28 77
REMARK H PARENT 31 4 36 13 59 34 20 49 16 55 8 60 13 70 27 78 27 79 28 80
REMARK H PARENT 28 81
REMARK Flexibility Score:  259.900
ROOT
ATOM      1  O   UNL     1      10.058  -2.097   2.490  1.00  0.00    -0.273 OA
ATOM      2  N   UNL     1       8.090  -2.553   3.562  1.00  0.00    -0.343 N 
ATOM      3  C   UNL     1       9.164  -2.897   2.771  1.00  0.00     0.243 C 
ATOM      4  H   UNL     1       7.381  -3.241   3.784  1.00  0.00     0.164 HD
ENDROOT
BRANCH   2   5
ATOM      5  C   UNL     1       7.906  -1.176   4.007  1.00  0.00     0.171 C 
ATOM      6  C   UNL     1       5.827   0.129   5.550  1.00  0.00     0.214 C 
ATOM      7  N   UNL     1       5.724   0.090   4.110  1.00  0.00    -0.303 N 
ATOM      8  C   UNL     1       7.262   0.141   6.051  1.00  0.00     0.057 C 
ATOM      9  C   UNL     1       6.655  -0.561   3.317  1.00  0.00     0.247 C 
ATOM     10  C   UNL     1       7.997  -1.075   5.529  1.00  0.00     0.040 C 
ATOM     11  O   UNL     1       6.515  -0.664   2.091  1.00  0.00    -0.272 OA
BRANCH   6  12
ATOM     12  O   UNL     1       5.136  -0.988   6.061  1.00  0.00    -0.373 OA
ATOM     13  H   UNL     1       5.778  -1.503   6.595  1.00  0.00     0.213 HD
ENDBRANCH   6  12
BRANCH   7  14
ATOM     14  C   UNL     1       4.495   0.651   3.510  1.00  0.00     0.177 C 
BRANCH  14  15
ATOM     15  C   UNL     1       3.345  -0.355   3.308  1.00  0.00     0.038 C 
BRANCH  15  16
ATOM     16  C   UNL     1       1.971   0.150   2.815  1.00  0.00    -0.015 C 
ATOM     17  C   UNL     1       0.840  -0.187   3.792  1.00  0.00     0.007 C 
ATOM     18  C   UNL     1       1.640  -0.488   1.460  1.00  0.00     0.007 C 
ENDBRANCH  15  16
ENDBRANCH  14  15
BRANCH  14  19
ATOM     19  C   UNL     1       4.324   2.153   3.926  1.00  0.00     0.245 C 
ATOM     20  O   UNL     1       5.131   2.963   3.440  1.00  0.00    -0.272 OA
BRANCH  19  21
ATOM     21  N   UNL     1       3.414   2.592   4.871  1.00  0.00    -0.332 N 
ATOM     22  C   UNL     1       3.010   1.859   6.057  1.00  0.00     0.147 C 
BRANCH  21  23
ATOM     23  C   UNL     1       2.780   3.923   4.660  1.00  0.00     0.178 C 
BRANCH  23  24
ATOM     24  C   UNL     1       1.267   3.878   4.365  1.00  0.00     0.070 C 
BRANCH  24  25
ATOM     25  C   UNL     1       0.850   3.537   2.954  1.00  0.00    -0.045 A 
ATOM     26  C   UNL     1       1.743   3.690   1.885  1.00  0.00     0.004 A 
ATOM     27  C   UNL     1      -0.445   3.064   2.693  1.00  0.00     0.004 A 
ATOM     28  C   UNL     1       1.344   3.389   0.581  1.00  0.00     0.000 A 
ATOM     29  C   UNL     1      -0.841   2.762   1.389  1.00  0.00     0.000 A 
ATOM     30  C   UNL     1       0.053   2.928   0.334  1.00  0.00     0.000 A 
ENDBRANCH  24  25
ENDBRANCH  23  24
BRANCH  23  31
ATOM     31  C   UNL     1       3.207   4.970   5.716  1.00  0.00     0.243 C 
ATOM     32  O   UNL     1       4.265   5.594   5.676  1.00  0.00    -0.273 OA
ATOM     33  N   UNL     1       2.374   5.012   6.821  1.00  0.00    -0.341 N 
ATOM     34  H   UNL     1       1.510   4.465   6.799  1.00  0.00     0.164 HD
BRANCH  33  35
ATOM     35  C   UNL     1       2.649   5.841   7.998  1.00  0.00     0.194 C 
BRANCH  35  36
ATOM     36  C   UNL     1       2.181   5.214   9.341  1.00  0.00     0.017 C 
ATOM     37  C   UNL     1       3.372   4.670  10.149  1.00  0.00     0.010 C 
ATOM     38  C   UNL     1       1.188   4.060   9.155  1.00  0.00     0.010 C 
ENDBRANCH  35  36
BRANCH  35  39
ATOM     39  C   UNL     1       2.142   7.301   7.832  1.00  0.00     0.329 C 
ATOM     40  O   UNL     1       2.865   8.252   7.558  1.00  0.00    -0.250 OA
BRANCH  39  41
ATOM     41  O   UNL     1       0.782   7.394   7.939  1.00  0.00    -0.458 OA
BRANCH  41  42
ATOM     42  C   UNL     1       0.271   8.566   8.618  1.00  0.00     0.205 CG0
ATOM     43  C   UNL     1      -0.817   9.168   7.730  1.00  0.00     0.056 C 
ATOM     44  G   UNL     1       1.439   9.542   8.861  1.00  0.00     0.000 G0
ENDBRANCH  41  42
ENDBRANCH  39  41
ENDBRANCH  35  39
ENDBRANCH  33  35
ENDBRANCH  23  31
ENDBRANCH  21  23
ENDBRANCH  19  21
ENDBRANCH  14  19
ENDBRANCH   7  14
ENDBRANCH   2   5
BRANCH   3  45
ATOM     45  C   UNL     1       9.181  -4.351   2.281  1.00  0.00     0.171 C 
BRANCH  45  46
ATOM     46  N   UNL     1       9.756  -4.309   0.943  1.00  0.00    -0.342 N 
ATOM     47  C   UNL     1      10.681  -5.226   0.510  1.00  0.00     0.247 C 
ATOM     48  O   UNL     1      11.037  -6.189   1.191  1.00  0.00    -0.273 OA
ATOM     49  H   UNL     1       9.447  -3.560   0.326  1.00  0.00     0.164 HD
BRANCH  47  50
ATOM     50  C   UNL     1      11.267  -4.951  -0.882  1.00  0.00     0.212 CG0
ATOM     51  G   UNL     1      12.363  -6.003  -1.144  1.00  0.00     0.000 G0
BRANCH  50  52
ATOM     52  N   UNL     1      10.140  -5.048  -1.805  1.00  0.00    -0.339 N 
ATOM     53  C   UNL     1      10.286  -5.168  -3.166  1.00  0.00     0.243 C 
ATOM     54  O   UNL     1      11.383  -5.150  -3.718  1.00  0.00    -0.273 OA
ATOM     55  H   UNL     1       9.203  -4.957  -1.418  1.00  0.00     0.164 HD
BRANCH  53  56
ATOM     56  C   UNL     1       8.954  -5.166  -3.942  1.00  0.00     0.182 C 
BRANCH  56  57
ATOM     57  N   UNL     1       8.010  -4.204  -3.366  1.00  0.00    -0.344 N 
ATOM     58  C   UNL     1       7.911  -2.910  -3.815  1.00  0.00     0.220 C 
ATOM     59  O   UNL     1       8.653  -2.448  -4.677  1.00  0.00    -0.275 OA
ATOM     60  H   UNL     1       7.312  -4.571  -2.725  1.00  0.00     0.164 HD
BRANCH  58  61
ATOM     61  C   UNL     1       6.828  -2.110  -3.115  1.00  0.00     0.100 C 
BRANCH  61  62
ATOM     62  C   UNL     1       5.863  -1.410  -4.071  1.00  0.00     0.010 C 
BRANCH  62  63
ATOM     63  C   UNL     1       4.595  -0.870  -3.398  1.00  0.00     0.000 C 
BRANCH  63  64
ATOM     64  C   UNL     1       4.829   0.344  -2.501  1.00  0.00    -0.003 C 
ATOM     65  C   UNL     1       3.764   0.449  -1.420  1.00  0.00     0.004 C 
ENDBRANCH  63  64
ENDBRANCH  62  63
ENDBRANCH  61  62
ENDBRANCH  58  61
ENDBRANCH  56  57
BRANCH  56  66
ATOM     66  C   UNL     1       8.360  -6.570  -4.038  1.00  0.00     0.157 C 
BRANCH  66  67
ATOM     67  C   UNL     1       6.874  -6.548  -3.824  1.00  0.00     0.305 C 
ATOM     68  O   UNL     1       6.022  -6.207  -4.631  1.00  0.00    -0.252 OA
BRANCH  67  69
ATOM     69  O   UNL     1       6.524  -7.010  -2.609  1.00  0.00    -0.481 OA
ATOM     70  H   UNL     1       5.998  -6.286  -2.208  1.00  0.00     0.296 HD
ENDBRANCH  67  69
ENDBRANCH  66  67
ENDBRANCH  56  66
ENDBRANCH  53  56
ENDBRANCH  50  52
ENDBRANCH  47  50
ENDBRANCH  45  46
BRANCH  45  71
ATOM     71  C   UNL     1       7.760  -4.926   2.268  1.00  0.00     0.037 C 
BRANCH  71  72
ATOM     72  C   UNL     1       7.302  -5.296   0.855  1.00  0.00     0.026 C 
BRANCH  72  73
ATOM     73  C   UNL     1       6.377  -4.230   0.270  1.00  0.00     0.146 C 
BRANCH  73  74
ATOM     74  N   UNL     1       5.789  -4.771  -0.952  1.00  0.00    -0.254 NA
ATOM     75  C   UNL     1       4.708  -4.234  -1.385  1.00  0.00     0.185 C 
ATOM     76  N   UNL     1       4.144  -4.709  -2.507  1.00  0.00    -0.370 N 
ATOM     77  N   UNL     1       4.006  -3.211  -0.867  1.00  0.00    -0.370 N 
ATOM     78  H   UNL     1       4.605  -5.486  -2.958  1.00  0.00     0.159 HD
ATOM     79  H   UNL     1       3.229  -4.439  -2.824  1.00  0.00     0.159 HD
ATOM     80  H   UNL     1       4.315  -2.752  -0.023  1.00  0.00     0.159 HD
ATOM     81  H   UNL     1       3.232  -2.799  -1.360  1.00  0.00     0.159 HD
ENDBRANCH  73  74
ENDBRANCH  72  73
ENDBRANCH  71  72
ENDBRANCH  45  71
ENDBRANCH   3  45
TORSDOF 20
ENDMDL
MODEL 2
REMARK VINA RESULT:    -5.956      4.590     13.237
REMARK INTER + INTRA:         -24.501
REMARK INTER:                 -18.137
REMARK INTRA:                  -6.363
REMARK UNBOUND:                -7.402
REMARK SMILES CCCCCC(=O)N[C@H](CC(=O)O)C(=O)N[C@H]1C(=O)N[C@H](CCCN=C(N)N)C(=O)N[C@@H]2CC[C@H](O)N(C2=O)[C@@H](CC(C)C)C(=O)N(C)[C@@H](Cc2ccccc2)C(=O)N[C@H](C(C)C)C(=O)O[C@@H]1C
REMARK SMILES IDX 30 1 31 2 29 3 32 5 35 6 37 7 34 8 38 9 33 10 39 11 36 12
REMARK SMILES IDX 40 14 41 15 42 16 43 17 44 18 45 19 46 20 47 21 48 22 49 23
REMARK SMILES IDX 50 24 51 25 52 26 56 27 53 28 55 29 54 30 57 31 58 32 59 33
REMARK SMILES IDX 60 35 61 36 62 37 63 38 64 39 65 40 66 41 67 42 68 43 21 45
REMARK SMILES IDX 20 46 18 47 19 48 17 50 16 52 14 53 15 54 9 56 8 57 6 58
REMARK SMILES IDX 7 59 5 61 4 62 3 63 2 64 1 65 10 66 11 67 12 68 13 69 22 71
REMARK SMILES IDX 23 72 24 73 25 74 26 75 27 76 28 77
REMARK H PARENT 31 4 36 13 59 34 20 49 16 55 8 60 13 70 27 78 27 79 28 80
REMARK H PARENT 28 81
REMARK Flexibility Score:  259.900
ROOT
ATOM      1  O   UNL     1       3.703   0.839   2.525  1.00  0.00    -0.273 OA
ATOM      2  N   UNL     1       5.542   0.715   3.879  1.00  0.00    -0.343 N 
ATOM      3  C   UNL     1       4.661   1.393   3.065  1.00  0.00     0.243 C 
ATOM      4  H   UNL     1       6.310   1.207   4.318  1.00  0.00     0.164 HD
ENDROOT
BRANCH   2   5
ATOM      5  C   UNL     1       5.442  -0.732   4.038  1.00  0.00     0.171 C 
ATOM      6  C   UNL     1       6.279  -2.538   6.146  1.00  0.00     0.214 C 
ATOM      7  N   UNL     1       7.181  -2.254   5.054  1.00  0.00    -0.303 N 
ATOM      8  C   UNL     1       4.813  -2.463   5.750  1.00  0.00     0.057 C 
ATOM      9  C   UNL     1       6.864  -1.362   4.042  1.00  0.00     0.247 C 
ATOM     10  C   UNL     1       4.503  -1.093   5.188  1.00  0.00     0.040 C 
ATOM     11  O   UNL     1       7.676  -1.058   3.158  1.00  0.00    -0.272 OA
BRANCH   6  12
ATOM     12  O   UNL     1       6.557  -1.625   7.182  1.00  0.00    -0.373 OA
ATOM     13  H   UNL     1       6.122  -0.779   6.944  1.00  0.00     0.213 HD
ENDBRANCH   6  12
BRANCH   7  14
ATOM     14  C   UNL     1       8.534  -2.845   5.131  1.00  0.00     0.177 C 
BRANCH  14  15
ATOM     15  C   UNL     1       9.464  -2.220   6.189  1.00  0.00     0.038 C 
BRANCH  15  16
ATOM     16  C   UNL     1      10.042  -0.807   5.955  1.00  0.00    -0.015 C 
ATOM     17  C   UNL     1      10.781  -0.692   4.619  1.00  0.00     0.007 C 
ATOM     18  C   UNL     1      11.024  -0.456   7.080  1.00  0.00     0.007 C 
ENDBRANCH  15  16
ENDBRANCH  14  15
BRANCH  14  19
ATOM     19  C   UNL     1       8.485  -4.365   4.750  1.00  0.00     0.245 C 
ATOM     20  O   UNL     1       7.649  -4.701   3.894  1.00  0.00    -0.272 OA
BRANCH  19  21
ATOM     21  N   UNL     1       9.230  -5.343   5.385  1.00  0.00    -0.332 N 
ATOM     22  C   UNL     1       8.779  -6.152   6.504  1.00  0.00     0.147 C 
BRANCH  21  23
ATOM     23  C   UNL     1      10.615  -5.590   4.897  1.00  0.00     0.178 C 
BRANCH  23  24
ATOM     24  C   UNL     1      11.729  -5.166   5.875  1.00  0.00     0.070 C 
BRANCH  24  25
ATOM     25  C   UNL     1      12.674  -4.081   5.413  1.00  0.00    -0.045 A 
ATOM     26  C   UNL     1      13.441  -3.357   6.335  1.00  0.00     0.004 A 
ATOM     27  C   UNL     1      12.792  -3.779   4.048  1.00  0.00     0.004 A 
ATOM     28  C   UNL     1      14.299  -2.344   5.901  1.00  0.00     0.000 A 
ATOM     29  C   UNL     1      13.650  -2.767   3.616  1.00  0.00     0.000 A 
ATOM     30  C   UNL     1      14.401  -2.048   4.543  1.00  0.00     0.000 A 
ENDBRANCH  24  25
ENDBRANCH  23  24
BRANCH  23  31
ATOM     31  C   UNL     1      10.794  -6.996   4.275  1.00  0.00     0.243 C 
ATOM     32  O   UNL     1       9.874  -7.663   3.808  1.00  0.00    -0.273 OA
ATOM     33  N   UNL     1      12.061  -7.524   4.458  1.00  0.00    -0.341 N 
ATOM     34  H   UNL     1      12.785  -6.922   4.858  1.00  0.00     0.164 HD
BRANCH  33  35
ATOM     35  C   UNL     1      12.424  -8.886   4.058  1.00  0.00     0.194 C 
BRANCH  35  36
ATOM     36  C   UNL     1      13.121  -9.712   5.176  1.00  0.00     0.017 C 
ATOM     37  C   UNL     1      12.311  -9.677   6.484  1.00  0.00     0.010 C 
ATOM     38  C   UNL     1      14.536  -9.218   5.499  1.00  0.00     0.010 C 
ENDBRANCH  35  36
BRANCH  35  39
ATOM     39  C   UNL     1      13.222  -8.925   2.725  1.00  0.00     0.329 C 
ATOM     40  O   UNL     1      13.657  -7.931   2.156  1.00  0.00    -0.250 OA
BRANCH  39  41
ATOM     41  O   UNL     1      13.461 -10.203   2.299  1.00  0.00    -0.458 OA
BRANCH  41  42
ATOM     42  C   UNL     1      14.323 -10.343   1.144  1.00  0.00     0.205 CG0
ATOM     43  C   UNL     1      13.440 -10.749  -0.034  1.00  0.00     0.056 C 
ATOM     44  G   UNL     1      15.403 -11.396   1.462  1.00  0.00     0.000 G0
ENDBRANCH  41  42
ENDBRANCH  39  41
ENDBRANCH  35  39
ENDBRANCH  33  35
ENDBRANCH  23  31
ENDBRANCH  21  23
ENDBRANCH  19  21
ENDBRANCH  14  19
ENDBRANCH   7  14
ENDBRANCH   2   5
BRANCH   3  45
ATOM     45  C   UNL     1       4.943   2.892   2.897  1.00  0.00     0.171 C 
BRANCH  45  46
ATOM     46  N   UNL     1       4.125   3.562   3.900  1.00  0.00    -0.342 N 
ATOM     47  C   UNL     1       4.608   4.580   4.683  1.00  0.00     0.247 C 
ATOM     48  O   UNL     1       5.738   5.050   4.546  1.00  0.00    -0.273 OA
ATOM     49  H   UNL     1       3.165   3.242   4.007  1.00  0.00     0.164 HD
BRANCH  47  50
ATOM     50  C   UNL     1       3.643   5.079   5.768  1.00  0.00     0.212 CG0
ATOM     51  G   UNL     1       3.198   6.503   5.379  1.00  0.00     0.000 G0
BRANCH  50  52
ATOM     52  N   UNL     1       2.546   4.116   5.786  1.00  0.00    -0.339 N 
ATOM     53  C   UNL     1       2.162   3.429   6.912  1.00  0.00     0.243 C 
ATOM     54  O   UNL     1       2.750   3.534   7.985  1.00  0.00    -0.273 OA
ATOM     55  H   UNL     1       2.090   3.902   4.901  1.00  0.00     0.164 HD
BRANCH  53  56
ATOM     56  C   UNL     1       1.036   2.403   6.668  1.00  0.00     0.182 C 
BRANCH  56  57
ATOM     57  N   UNL     1       0.480   2.544   5.319  1.00  0.00    -0.344 N 
ATOM     58  C   UNL     1       0.566   1.545   4.380  1.00  0.00     0.220 C 
ATOM     59  O   UNL     1       1.176   0.500   4.577  1.00  0.00    -0.275 OA
ATOM     60  H   UNL     1      -0.118   3.348   5.149  1.00  0.00     0.164 HD
BRANCH  58  61
ATOM     61  C   UNL     1      -0.129   1.885   3.074  1.00  0.00     0.100 C 
BRANCH  61  62
ATOM     62  C   UNL     1       0.402   1.105   1.872  1.00  0.00     0.010 C 
BRANCH  62  63
ATOM     63  C   UNL     1       0.469   1.921   0.574  1.00  0.00     0.000 C 
BRANCH  63  64
ATOM     64  C   UNL     1       1.728   1.676  -0.256  1.00  0.00    -0.003 C 
ATOM     65  C   UNL     1       1.672   2.422  -1.581  1.00  0.00     0.004 C 
ENDBRANCH  63  64
ENDBRANCH  62  63
ENDBRANCH  61  62
ENDBRANCH  58  61
ENDBRANCH  56  57
BRANCH  56  66
ATOM     66  C   UNL     1      -0.041   2.487   7.748  1.00  0.00     0.157 C 
BRANCH  66  67
ATOM     67  C   UNL     1      -0.825   1.209   7.834  1.00  0.00     0.305 C 
ATOM     68  O   UNL     1      -1.558   0.740   6.977  1.00  0.00    -0.252 OA
BRANCH  67  69
ATOM     69  O   UNL     1      -0.605   0.550   8.988  1.00  0.00    -0.481 OA
ATOM     70  H   UNL     1       0.372   0.502   9.065  1.00  0.00     0.296 HD
ENDBRANCH  67  69
ENDBRANCH  66  67
ENDBRANCH  56  66
ENDBRANCH  53  56
ENDBRANCH  50  52
ENDBRANCH  47  50
ENDBRANCH  45  46
BRANCH  45  71
ATOM     71  C   UNL     1       4.583   3.347   1.478  1.00  0.00     0.037 C 
BRANCH  71  72
ATOM     72  C   UNL     1       5.560   4.397   0.945  1.00  0.00     0.026 C 
BRANCH  72  73
ATOM     73  C   UNL     1       4.835   5.497   0.173  1.00  0.00     0.146 C 
BRANCH  73  74
ATOM     74  N   UNL     1       3.436   5.101   0.038  1.00  0.00    -0.254 NA
ATOM     75  C   UNL     1       2.540   6.007   0.180  1.00  0.00     0.185 C 
ATOM     76  N   UNL     1       1.245   5.673   0.060  1.00  0.00    -0.370 N 
ATOM     77  N   UNL     1       2.697   7.316   0.445  1.00  0.00    -0.370 N 
ATOM     78  H   UNL     1       1.039   4.703  -0.132  1.00  0.00     0.159 HD
ATOM     79  H   UNL     1       0.490   6.291   0.300  1.00  0.00     0.159 HD
ATOM     80  H   UNL     1       3.618   7.711   0.557  1.00  0.00     0.159 HD
ATOM     81  H   UNL     1       1.920   7.956   0.419  1.00  0.00     0.159 HD
ENDBRANCH  73  74
ENDBRANCH  72  73
ENDBRANCH  71  72
ENDBRANCH  45  71
ENDBRANCH   3  45
TORSDOF 20
ENDMDL
MODEL 3
REMARK VINA RESULT:    -5.954      4.557      8.929
REMARK INTER + INTRA:         -24.495
REMARK INTER:                 -18.142
REMARK INTRA:                  -6.353
REMARK UNBOUND:                -7.402
REMARK SMILES CCCCCC(=O)N[C@H](CC(=O)O)C(=O)N[C@H]1C(=O)N[C@H](CCCN=C(N)N)C(=O)N[C@@H]2CC[C@H](O)N(C2=O)[C@@H](CC(C)C)C(=O)N(C)[C@@H](Cc2ccccc2)C(=O)N[C@H](C(C)C)C(=O)O[C@@H]1C
REMARK SMILES IDX 30 1 31 2 29 3 32 5 35 6 37 7 34 8 38 9 33 10 39 11 36 12
REMARK SMILES IDX 40 14 41 15 42 16 43 17 44 18 45 19 46 20 47 21 48 22 49 23
REMARK SMILES IDX 50 24 51 25 52 26 56 27 53 28 55 29 54 30 57 31 58 32 59 33
REMARK SMILES IDX 60 35 61 36 62 37 63 38 64 39 65 40 66 41 67 42 68 43 21 45
REMARK SMILES IDX 20 46 18 47 19 48 17 50 16 52 14 53 15 54 9 56 8 57 6 58
REMARK SMILES IDX 7 59 5 61 4 62 3 63 2 64 1 65 10 66 11 67 12 68 13 69 22 71
REMARK SMILES IDX 23 72 24 73 25 74 26 75 27 76 28 77
REMARK H PARENT 31 4 36 13 59 34 20 49 16 55 8 60 13 70 27 78 27 79 28 80
REMARK H PARENT 28 81
REMARK Flexibility Score:  259.900
ROOT
ATOM      1  O   UNL     1      13.187  -4.975   0.761  1.00  0.00    -0.273 OA
ATOM      2  N   UNL     1      11.263  -6.160   0.409  1.00  0.00    -0.343 N 
ATOM      3  C   UNL     1      12.634  -6.026   0.434  1.00  0.00     0.243 C 
ATOM      4  H   UNL     1      10.843  -7.044   0.149  1.00  0.00     0.164 HD
ENDROOT
BRANCH   2   5
ATOM      5  C   UNL     1      10.400  -5.010   0.658  1.00  0.00     0.171 C 
ATOM      6  C   UNL     1       7.560  -4.764   1.186  1.00  0.00     0.214 C 
ATOM      7  N   UNL     1       8.037  -4.698  -0.175  1.00  0.00    -0.303 N 
ATOM      8  C   UNL     1       8.567  -4.249   2.202  1.00  0.00     0.057 C 
ATOM      9  C   UNL     1       9.374  -4.859  -0.502  1.00  0.00     0.247 C 
ATOM     10  C   UNL     1       9.857  -5.031   2.086  1.00  0.00     0.040 C 
ATOM     11  O   UNL     1       9.763  -4.889  -1.677  1.00  0.00    -0.272 OA
BRANCH   6  12
ATOM     12  O   UNL     1       7.224  -6.104   1.461  1.00  0.00    -0.373 OA
ATOM     13  H   UNL     1       6.305  -6.240   1.146  1.00  0.00     0.213 HD
ENDBRANCH   6  12
BRANCH   7  14
ATOM     14  C   UNL     1       7.016  -4.598  -1.240  1.00  0.00     0.177 C 
BRANCH  14  15
ATOM     15  C   UNL     1       6.895  -5.834  -2.152  1.00  0.00     0.038 C 
BRANCH  15  16
ATOM     16  C   UNL     1       6.938  -5.655  -3.685  1.00  0.00    -0.015 C 
ATOM     17  C   UNL     1       7.974  -6.566  -4.351  1.00  0.00     0.007 C 
ATOM     18  C   UNL     1       7.286  -4.201  -4.029  1.00  0.00     0.007 C 
ENDBRANCH  15  16
ENDBRANCH  14  15
BRANCH  14  19
ATOM     19  C   UNL     1       5.822  -3.701  -0.764  1.00  0.00     0.245 C 
ATOM     20  O   UNL     1       4.708  -4.246  -0.689  1.00  0.00    -0.272 OA
BRANCH  19  21
ATOM     21  N   UNL     1       5.922  -2.339  -0.539  1.00  0.00    -0.332 N 
ATOM     22  C   UNL     1       6.825  -1.435  -1.228  1.00  0.00     0.147 C 
BRANCH  21  23
ATOM     23  C   UNL     1       5.043  -1.740   0.503  1.00  0.00     0.178 C 
BRANCH  23  24
ATOM     24  C   UNL     1       5.791  -1.018   1.642  1.00  0.00     0.070 C 
BRANCH  24  25
ATOM     25  C   UNL     1       5.514  -1.484   3.052  1.00  0.00    -0.045 A 
ATOM     26  C   UNL     1       4.243  -1.332   3.621  1.00  0.00     0.004 A 
ATOM     27  C   UNL     1       6.533  -2.073   3.816  1.00  0.00     0.004 A 
ATOM     28  C   UNL     1       3.999  -1.750   4.931  1.00  0.00     0.000 A 
ATOM     29  C   UNL     1       6.287  -2.491   5.125  1.00  0.00     0.000 A 
ATOM     30  C   UNL     1       5.021  -2.326   5.682  1.00  0.00     0.000 A 
ENDBRANCH  24  25
ENDBRANCH  23  24
BRANCH  23  31
ATOM     31  C   UNL     1       3.849  -0.956  -0.092  1.00  0.00     0.243 C 
ATOM     32  O   UNL     1       3.238  -1.297  -1.102  1.00  0.00    -0.273 OA
ATOM     33  N   UNL     1       3.641   0.274   0.508  1.00  0.00    -0.341 N 
ATOM     34  H   UNL     1       4.185   0.505   1.343  1.00  0.00     0.164 HD
BRANCH  33  35
ATOM     35  C   UNL     1       2.644   1.237   0.032  1.00  0.00     0.194 C 
BRANCH  35  36
ATOM     36  C   UNL     1       2.990   2.719   0.350  1.00  0.00     0.017 C 
ATOM     37  C   UNL     1       4.307   2.830   1.137  1.00  0.00     0.010 C 
ATOM     38  C   UNL     1       1.905   3.431   1.168  1.00  0.00     0.010 C 
ENDBRANCH  35  36
BRANCH  35  39
ATOM     39  C   UNL     1       1.200   0.870   0.475  1.00  0.00     0.329 C 
ATOM     40  O   UNL     1       0.875   0.638   1.633  1.00  0.00    -0.250 OA
BRANCH  39  41
ATOM     41  O   UNL     1       0.310   0.920  -0.562  1.00  0.00    -0.458 OA
BRANCH  41  42
ATOM     42  C   UNL     1      -0.857   1.754  -0.366  1.00  0.00     0.205 CG0
ATOM     43  C   UNL     1      -2.083   0.904  -0.693  1.00  0.00     0.056 C 
ATOM     44  G   UNL     1      -0.737   2.991  -1.278  1.00  0.00     0.000 G0
ENDBRANCH  41  42
ENDBRANCH  39  41
ENDBRANCH  35  39
ENDBRANCH  33  35
ENDBRANCH  23  31
ENDBRANCH  21  23
ENDBRANCH  19  21
ENDBRANCH  14  19
ENDBRANCH   7  14
ENDBRANCH   2   5
BRANCH   3  45
ATOM     45  C   UNL     1      13.424  -7.283   0.047  1.00  0.00     0.171 C 
BRANCH  45  46
ATOM     46  N   UNL     1      13.855  -7.880   1.305  1.00  0.00    -0.342 N 
ATOM     47  C   UNL     1      13.851  -9.236   1.516  1.00  0.00     0.247 C 
ATOM     48  O   UNL     1      13.554 -10.048   0.639  1.00  0.00    -0.273 OA
ATOM     49  H   UNL     1      14.163  -7.245   2.040  1.00  0.00     0.164 HD
BRANCH  47  50
ATOM     50  C   UNL     1      14.219  -9.673   2.941  1.00  0.00     0.212 CG0
ATOM     51  G   UNL     1      15.665  -9.211   3.213  1.00  0.00     0.000 G0
BRANCH  50  52
ATOM     52  N   UNL     1      13.236  -9.032   3.811  1.00  0.00    -0.339 N 
ATOM     53  C   UNL     1      13.545  -8.505   5.041  1.00  0.00     0.243 C 
ATOM     54  O   UNL     1      14.668  -8.580   5.530  1.00  0.00    -0.273 OA
ATOM     55  H   UNL     1      12.263  -9.038   3.510  1.00  0.00     0.164 HD
BRANCH  53  56
ATOM     56  C   UNL     1      12.327  -7.960   5.814  1.00  0.00     0.182 C 
BRANCH  56  57
ATOM     57  N   UNL     1      12.500  -6.540   6.135  1.00  0.00    -0.344 N 
ATOM     58  C   UNL     1      12.523  -5.564   5.168  1.00  0.00     0.220 C 
ATOM     59  O   UNL     1      12.474  -5.817   3.969  1.00  0.00    -0.275 OA
ATOM     60  H   UNL     1      12.442  -6.279   7.116  1.00  0.00     0.164 HD
BRANCH  58  61
ATOM     61  C   UNL     1      12.653  -4.161   5.732  1.00  0.00     0.100 C 
BRANCH  61  62
ATOM     62  C   UNL     1      11.998  -3.085   4.866  1.00  0.00     0.010 C 
BRANCH  62  63
ATOM     63  C   UNL     1      10.482  -2.958   5.063  1.00  0.00     0.000 C 
BRANCH  63  64
ATOM     64  C   UNL     1      10.072  -2.423   6.434  1.00  0.00    -0.003 C 
ATOM     65  C   UNL     1      10.663  -1.045   6.693  1.00  0.00     0.004 C 
ENDBRANCH  63  64
ENDBRANCH  62  63
ENDBRANCH  61  62
ENDBRANCH  58  61
ENDBRANCH  56  57
BRANCH  56  66
ATOM     66  C   UNL     1      12.029  -8.799   7.055  1.00  0.00     0.157 C 
BRANCH  66  67
ATOM     67  C   UNL     1      12.336  -8.039   8.313  1.00  0.00     0.305 C 
ATOM     68  O   UNL     1      13.407  -7.996   8.900  1.00  0.00    -0.252 OA
BRANCH  67  69
ATOM     69  O   UNL     1      11.284  -7.320   8.746  1.00  0.00    -0.481 OA
ATOM     70  H   UNL     1      10.623  -7.988   9.027  1.00  0.00     0.296 HD
ENDBRANCH  67  69
ENDBRANCH  66  67
ENDBRANCH  56  66
ENDBRANCH  53  56
ENDBRANCH  50  52
ENDBRANCH  47  50
ENDBRANCH  45  46
BRANCH  45  71
ATOM     71  C   UNL     1      14.617  -6.912  -0.841  1.00  0.00     0.037 C 
BRANCH  71  72
ATOM     72  C   UNL     1      14.420  -7.367  -2.289  1.00  0.00     0.026 C 
BRANCH  72  73
ATOM     73  C   UNL     1      14.501  -6.192  -3.261  1.00  0.00     0.146 C 
BRANCH  73  74
ATOM     74  N   UNL     1      14.101  -4.987  -2.541  1.00  0.00    -0.254 NA
ATOM     75  C   UNL     1      12.928  -4.519  -2.761  1.00  0.00     0.185 C 
ATOM     76  N   UNL     1      12.531  -3.412  -2.112  1.00  0.00    -0.370 N 
ATOM     77  N   UNL     1      11.974  -4.984  -3.586  1.00  0.00    -0.370 N 
ATOM     78  H   UNL     1      13.194  -2.992  -1.476  1.00  0.00     0.159 HD
ATOM     79  H   UNL     1      11.691  -2.909  -2.338  1.00  0.00     0.159 HD
ATOM     80  H   UNL     1      12.131  -5.814  -4.137  1.00  0.00     0.159 HD
ATOM     81  H   UNL     1      11.045  -4.596  -3.590  1.00  0.00     0.159 HD
ENDBRANCH  73  74
ENDBRANCH  72  73
ENDBRANCH  71  72
ENDBRANCH  45  71
ENDBRANCH   3  45
TORSDOF 20
ENDMDL
MODEL 4
REMARK VINA RESULT:    -5.700      5.268      9.750
REMARK INTER + INTRA:         -23.764
REMARK INTER:                 -17.374
REMARK INTRA:                  -6.390
REMARK UNBOUND:                -7.402
REMARK SMILES CCCCCC(=O)N[C@H](CC(=O)O)C(=O)N[C@H]1C(=O)N[C@H](CCCN=C(N)N)C(=O)N[C@@H]2CC[C@H](O)N(C2=O)[C@@H](CC(C)C)C(=O)N(C)[C@@H](Cc2ccccc2)C(=O)N[C@H](C(C)C)C(=O)O[C@@H]1C
REMARK SMILES IDX 30 1 31 2 29 3 32 5 35 6 37 7 34 8 38 9 33 10 39 11 36 12
REMARK SMILES IDX 40 14 41 15 42 16 43 17 44 18 45 19 46 20 47 21 48 22 49 23
REMARK SMILES IDX 50 24 51 25 52 26 56 27 53 28 55 29 54 30 57 31 58 32 59 33
REMARK SMILES IDX 60 35 61 36 62 37 63 38 64 39 65 40 66 41 67 42 68 43 21 45
REMARK SMILES IDX 20 46 18 47 19 48 17 50 16 52 14 53 15 54 9 56 8 57 6 58
REMARK SMILES IDX 7 59 5 61 4 62 3 63 2 64 1 65 10 66 11 67 12 68 13 69 22 71
REMARK SMILES IDX 23 72 24 73 25 74 26 75 27 76 28 77
REMARK H PARENT 31 4 36 13 59 34 20 49 16 55 8 60 13 70 27 78 27 79 28 80
REMARK H PARENT 28 81
REMARK Flexibility Score:  259.900
ROOT
ATOM      1  O   UNL     1      10.660  -2.899   2.645  1.00  0.00    -0.273 OA
ATOM      2  N   UNL     1      10.046  -4.321   0.962  1.00  0.00    -0.343 N 
ATOM      3  C   UNL     1      10.873  -3.919   1.989  1.00  0.00     0.243 C 
ATOM      4  H   UNL     1      10.245  -5.174   0.454  1.00  0.00     0.164 HD
ENDROOT
BRANCH   2   5
ATOM      5  C   UNL     1       8.936  -3.479   0.530  1.00  0.00     0.171 C 
ATOM      6  C   UNL     1       6.228  -4.080  -0.313  1.00  0.00     0.214 C 
ATOM      7  N   UNL     1       7.279  -4.004  -1.301  1.00  0.00    -0.303 N 
ATOM      8  C   UNL     1       6.465  -3.179   0.889  1.00  0.00     0.057 C 
ATOM      9  C   UNL     1       8.602  -3.772  -0.961  1.00  0.00     0.247 C 
ATOM     10  C   UNL     1       7.787  -3.526   1.537  1.00  0.00     0.040 C 
ATOM     11  O   UNL     1       9.509  -3.795  -1.803  1.00  0.00    -0.272 OA
BRANCH   6  12
ATOM     12  O   UNL     1       6.115  -5.424   0.094  1.00  0.00    -0.373 OA
ATOM     13  H   UNL     1       6.744  -5.943  -0.451  1.00  0.00     0.213 HD
ENDBRANCH   6  12
BRANCH   7  14
ATOM     14  C   UNL     1       6.913  -4.333  -2.695  1.00  0.00     0.177 C 
BRANCH  14  15
ATOM     15  C   UNL     1       7.188  -5.788  -3.119  1.00  0.00     0.038 C 
BRANCH  15  16
ATOM     16  C   UNL     1       7.906  -6.068  -4.458  1.00  0.00    -0.015 C 
ATOM     17  C   UNL     1       8.467  -4.795  -5.098  1.00  0.00     0.007 C 
ATOM     18  C   UNL     1       6.925  -6.710  -5.448  1.00  0.00     0.007 C 
ENDBRANCH  15  16
ENDBRANCH  14  15
BRANCH  14  19
ATOM     19  C   UNL     1       5.687  -3.470  -3.153  1.00  0.00     0.245 C 
ATOM     20  O   UNL     1       4.638  -4.083  -3.414  1.00  0.00    -0.272 OA
BRANCH  19  21
ATOM     21  N   UNL     1       5.746  -2.107  -3.384  1.00  0.00    -0.332 N 
ATOM     22  C   UNL     1       6.909  -1.384  -3.866  1.00  0.00     0.147 C 
BRANCH  21  23
ATOM     23  C   UNL     1       4.524  -1.301  -3.110  1.00  0.00     0.178 C 
BRANCH  23  24
ATOM     24  C   UNL     1       4.676  -0.266  -1.977  1.00  0.00     0.070 C 
BRANCH  24  25
ATOM     25  C   UNL     1       3.699  -0.357  -0.827  1.00  0.00    -0.045 A 
ATOM     26  C   UNL     1       3.235   0.800  -0.187  1.00  0.00     0.004 A 
ATOM     27  C   UNL     1       3.247  -1.607  -0.380  1.00  0.00     0.004 A 
ATOM     28  C   UNL     1       2.346   0.707   0.886  1.00  0.00     0.000 A 
ATOM     29  C   UNL     1       2.357  -1.698   0.692  1.00  0.00     0.000 A 
ATOM     30  C   UNL     1       1.910  -0.541   1.326  1.00  0.00     0.000 A 
ENDBRANCH  24  25
ENDBRANCH  23  24
BRANCH  23  31
ATOM     31  C   UNL     1       3.853  -0.766  -4.397  1.00  0.00     0.243 C 
ATOM     32  O   UNL     1       3.979  -1.282  -5.504  1.00  0.00    -0.273 OA
ATOM     33  N   UNL     1       3.239   0.464  -4.229  1.00  0.00    -0.341 N 
ATOM     34  H   UNL     1       3.170   0.847  -3.283  1.00  0.00     0.164 HD
BRANCH  33  35
ATOM     35  C   UNL     1       2.643   1.216  -5.337  1.00  0.00     0.194 C 
BRANCH  35  36
ATOM     36  C   UNL     1       3.270   2.621  -5.561  1.00  0.00     0.017 C 
ATOM     37  C   UNL     1       3.867   2.748  -6.974  1.00  0.00     0.010 C 
ATOM     38  C   UNL     1       4.385   2.952  -4.561  1.00  0.00     0.010 C 
ENDBRANCH  35  36
BRANCH  35  39
ATOM     39  C   UNL     1       1.092   1.281  -5.248  1.00  0.00     0.329 C 
ATOM     40  O   UNL     1       0.470   1.424  -4.202  1.00  0.00    -0.250 OA
BRANCH  39  41
ATOM     41  O   UNL     1       0.499   1.248  -6.480  1.00  0.00    -0.458 OA
BRANCH  41  42
ATOM     42  C   UNL     1      -0.885   1.666  -6.537  1.00  0.00     0.205 CG0
ATOM     43  C   UNL     1      -1.660   0.576  -7.274  1.00  0.00     0.056 C 
ATOM     44  G   UNL     1      -0.958   3.029  -7.254  1.00  0.00     0.000 G0
ENDBRANCH  41  42
ENDBRANCH  39  41
ENDBRANCH  35  39
ENDBRANCH  33  35
ENDBRANCH  23  31
ENDBRANCH  21  23
ENDBRANCH  19  21
ENDBRANCH  14  19
ENDBRANCH   7  14
ENDBRANCH   2   5
BRANCH   3  45
ATOM     45  C   UNL     1      12.066  -4.842   2.271  1.00  0.00     0.171 C 
BRANCH  45  46
ATOM     46  N   UNL     1      12.117  -4.987   3.720  1.00  0.00    -0.342 N 
ATOM     47  C   UNL     1      12.318  -6.199   4.332  1.00  0.00     0.247 C 
ATOM     48  O   UNL     1      12.543  -7.235   3.705  1.00  0.00    -0.273 OA
ATOM     49  H   UNL     1      11.992  -4.144   4.277  1.00  0.00     0.164 HD
BRANCH  47  50
ATOM     50  C   UNL     1      12.217  -6.179   5.863  1.00  0.00     0.212 CG0
ATOM     51  G   UNL     1      12.918  -4.899   6.362  1.00  0.00     0.000 G0
BRANCH  50  52
ATOM     52  N   UNL     1      10.787  -6.206   6.159  1.00  0.00    -0.339 N 
ATOM     53  C   UNL     1      10.039  -5.075   6.381  1.00  0.00     0.243 C 
ATOM     54  O   UNL     1      10.531  -3.950   6.399  1.00  0.00    -0.273 OA
ATOM     55  H   UNL     1      10.344  -7.116   6.268  1.00  0.00     0.164 HD
BRANCH  53  56
ATOM     56  C   UNL     1       8.572  -5.357   6.760  1.00  0.00     0.182 C 
BRANCH  56  57
ATOM     57  N   UNL     1       7.843  -4.109   7.011  1.00  0.00    -0.344 N 
ATOM     58  C   UNL     1       7.043  -3.520   6.062  1.00  0.00     0.220 C 
ATOM     59  O   UNL     1       6.940  -3.954   4.920  1.00  0.00    -0.275 OA
ATOM     60  H   UNL     1       7.821  -3.774   7.971  1.00  0.00     0.164 HD
BRANCH  58  61
ATOM     61  C   UNL     1       6.342  -2.270   6.559  1.00  0.00     0.100 C 
BRANCH  61  62
ATOM     62  C   UNL     1       6.687  -1.012   5.762  1.00  0.00     0.010 C 
BRANCH  62  63
ATOM     63  C   UNL     1       5.547   0.012   5.681  1.00  0.00     0.000 C 
BRANCH  63  64
ATOM     64  C   UNL     1       4.362  -0.435   4.826  1.00  0.00    -0.003 C 
ATOM     65  C   UNL     1       4.821  -1.237   3.618  1.00  0.00     0.004 C 
ENDBRANCH  63  64
ENDBRANCH  62  63
ENDBRANCH  61  62
ENDBRANCH  58  61
ENDBRANCH  56  57
BRANCH  56  66
ATOM     66  C   UNL     1       8.473  -6.328   7.935  1.00  0.00     0.157 C 
BRANCH  66  67
ATOM     67  C   UNL     1       7.044  -6.557   8.334  1.00  0.00     0.305 C 
ATOM     68  O   UNL     1       6.348  -5.823   9.018  1.00  0.00    -0.252 OA
BRANCH  67  69
ATOM     69  O   UNL     1       6.539  -7.686   7.802  1.00  0.00    -0.481 OA
ATOM     70  H   UNL     1       5.939  -7.381   7.089  1.00  0.00     0.296 HD
ENDBRANCH  67  69
ENDBRANCH  66  67
ENDBRANCH  56  66
ENDBRANCH  53  56
ENDBRANCH  50  52
ENDBRANCH  47  50
ENDBRANCH  45  46
BRANCH  45  71
ATOM     71  C   UNL     1      13.358  -4.229   1.719  1.00  0.00     0.037 C 
BRANCH  71  72
ATOM     72  C   UNL     1      13.499  -4.446   0.210  1.00  0.00     0.026 C 
BRANCH  72  73
ATOM     73  C   UNL     1      13.241  -5.902  -0.173  1.00  0.00     0.146 C 
BRANCH  73  74
ATOM     74  N   UNL     1      12.039  -5.940  -1.000  1.00  0.00    -0.254 NA
ATOM     75  C   UNL     1      12.161  -6.323  -2.218  1.00  0.00     0.185 C 
ATOM     76  N   UNL     1      11.073  -6.370  -3.003  1.00  0.00    -0.370 N 
ATOM     77  N   UNL     1      13.269  -6.709  -2.874  1.00  0.00    -0.370 N 
ATOM     78  H   UNL     1      10.197  -6.088  -2.588  1.00  0.00     0.159 HD
ATOM     79  H   UNL     1      11.114  -6.518  -3.996  1.00  0.00     0.159 HD
ATOM     80  H   UNL     1      14.163  -6.728  -2.407  1.00  0.00     0.159 HD
ATOM     81  H   UNL     1      13.225  -7.100  -3.801  1.00  0.00     0.159 HD
ENDBRANCH  73  74
ENDBRANCH  72  73
ENDBRANCH  71  72
ENDBRANCH  45  71
ENDBRANCH   3  45
TORSDOF 20
ENDMDL
MODEL 5
REMARK VINA RESULT:    -5.674      4.977      9.484
REMARK INTER + INTRA:         -23.691
REMARK INTER:                 -16.119
REMARK INTRA:                  -7.573
REMARK UNBOUND:                -7.402
REMARK SMILES CCCCCC(=O)N[C@H](CC(=O)O)C(=O)N[C@H]1C(=O)N[C@H](CCCN=C(N)N)C(=O)N[C@@H]2CC[C@H](O)N(C2=O)[C@@H](CC(C)C)C(=O)N(C)[C@@H](Cc2ccccc2)C(=O)N[C@H](C(C)C)C(=O)O[C@@H]1C
REMARK SMILES IDX 30 1 31 2 29 3 32 5 35 6 37 7 34 8 38 9 33 10 39 11 36 12
REMARK SMILES IDX 40 14 41 15 42 16 43 17 44 18 45 19 46 20 47 21 48 22 49 23
REMARK SMILES IDX 50 24 51 25 52 26 56 27 53 28 55 29 54 30 57 31 58 32 59 33
REMARK SMILES IDX 60 35 61 36 62 37 63 38 64 39 65 40 66 41 67 42 68 43 21 45
REMARK SMILES IDX 20 46 18 47 19 48 17 50 16 52 14 53 15 54 9 56 8 57 6 58
REMARK SMILES IDX 7 59 5 61 4 62 3 63 2 64 1 65 10 66 11 67 12 68 13 69 22 71
REMARK SMILES IDX 23 72 24 73 25 74 26 75 27 76 28 77
REMARK H PARENT 31 4 36 13 59 34 20 49 16 55 8 60 13 70 27 78 27 79 28 80
REMARK H PARENT 28 81
REMARK Flexibility Score:  259.900
ROOT
ATOM      1  O   UNL     1      12.892  -6.468   2.930  1.00  0.00    -0.273 OA
ATOM      2  N   UNL     1      11.404  -6.582   1.197  1.00  0.00    -0.343 N 
ATOM      3  C   UNL     1      12.536  -6.986   1.871  1.00  0.00     0.243 C 
ATOM      4  H   UNL     1      11.134  -7.040   0.336  1.00  0.00     0.164 HD
ENDROOT
BRANCH   2   5
ATOM      5  C   UNL     1      10.637  -5.429   1.658  1.00  0.00     0.171 C 
ATOM      6  C   UNL     1       7.791  -4.910   1.843  1.00  0.00     0.214 C 
ATOM      7  N   UNL     1       8.503  -4.542   0.642  1.00  0.00    -0.303 N 
ATOM      8  C   UNL     1       8.653  -4.858   3.094  1.00  0.00     0.057 C 
ATOM      9  C   UNL     1       9.852  -4.807   0.468  1.00  0.00     0.247 C 
ATOM     10  C   UNL     1       9.854  -5.764   2.927  1.00  0.00     0.040 C 
ATOM     11  O   UNL     1      10.436  -4.567  -0.597  1.00  0.00    -0.272 OA
BRANCH   6  12
ATOM     12  O   UNL     1       7.273  -6.207   1.656  1.00  0.00    -0.373 OA
ATOM     13  H   UNL     1       6.296  -6.123   1.615  1.00  0.00     0.213 HD
ENDBRANCH   6  12
BRANCH   7  14
ATOM     14  C   UNL     1       7.701  -3.995  -0.472  1.00  0.00     0.177 C 
BRANCH  14  15
ATOM     15  C   UNL     1       6.454  -4.819  -0.849  1.00  0.00     0.038 C 
BRANCH  15  16
ATOM     16  C   UNL     1       6.285  -5.322  -2.300  1.00  0.00    -0.015 C 
ATOM     17  C   UNL     1       7.534  -5.079  -3.152  1.00  0.00     0.007 C 
ATOM     18  C   UNL     1       5.103  -4.604  -2.964  1.00  0.00     0.007 C 
ENDBRANCH  15  16
ENDBRANCH  14  15
BRANCH  14  19
ATOM     19  C   UNL     1       7.794  -2.430  -0.492  1.00  0.00     0.245 C 
ATOM     20  O   UNL     1       7.953  -1.894  -1.602  1.00  0.00    -0.272 OA
BRANCH  19  21
ATOM     21  N   UNL     1       7.822  -1.645   0.646  1.00  0.00    -0.332 N 
ATOM     22  C   UNL     1       8.936  -0.816   1.071  1.00  0.00     0.147 C 
BRANCH  21  23
ATOM     23  C   UNL     1       6.619  -1.649   1.524  1.00  0.00     0.178 C 
BRANCH  23  24
ATOM     24  C   UNL     1       6.773  -0.850   2.834  1.00  0.00     0.070 C 
BRANCH  24  25
ATOM     25  C   UNL     1       7.077  -1.636   4.088  1.00  0.00    -0.045 A 
ATOM     26  C   UNL     1       6.115  -2.480   4.657  1.00  0.00     0.004 A 
ATOM     27  C   UNL     1       8.333  -1.526   4.705  1.00  0.00     0.004 A 
ATOM     28  C   UNL     1       6.398  -3.190   5.826  1.00  0.00     0.000 A 
ATOM     29  C   UNL     1       8.614  -2.237   5.873  1.00  0.00     0.000 A 
ATOM     30  C   UNL     1       7.645  -3.066   6.434  1.00  0.00     0.000 A 
ENDBRANCH  24  25
ENDBRANCH  23  24
BRANCH  23  31
ATOM     31  C   UNL     1       5.306  -1.384   0.750  1.00  0.00     0.243 C 
ATOM     32  O   UNL     1       4.502  -2.260   0.441  1.00  0.00    -0.273 OA
ATOM     33  N   UNL     1       5.199  -0.091   0.268  1.00  0.00    -0.341 N 
ATOM     34  H   UNL     1       5.903   0.594   0.555  1.00  0.00     0.164 HD
BRANCH  33  35
ATOM     35  C   UNL     1       4.099   0.353  -0.592  1.00  0.00     0.194 C 
BRANCH  35  36
ATOM     36  C   UNL     1       4.492   0.533  -2.085  1.00  0.00     0.017 C 
ATOM     37  C   UNL     1       4.280  -0.766  -2.880  1.00  0.00     0.010 C 
ATOM     38  C   UNL     1       5.954   0.955  -2.278  1.00  0.00     0.010 C 
ENDBRANCH  35  36
BRANCH  35  39
ATOM     39  C   UNL     1       3.368   1.604  -0.029  1.00  0.00     0.329 C 
ATOM     40  O   UNL     1       3.312   1.889   1.161  1.00  0.00    -0.250 OA
BRANCH  39  41
ATOM     41  O   UNL     1       2.865   2.402  -1.020  1.00  0.00    -0.458 OA
BRANCH  41  42
ATOM     42  C   UNL     1       1.789   3.294  -0.641  1.00  0.00     0.205 CG0
ATOM     43  C   UNL     1       0.476   2.575  -0.943  1.00  0.00     0.056 C 
ATOM     44  G   UNL     1       1.938   4.608  -1.433  1.00  0.00     0.000 G0
ENDBRANCH  41  42
ENDBRANCH  39  41
ENDBRANCH  35  39
ENDBRANCH  33  35
ENDBRANCH  23  31
ENDBRANCH  21  23
ENDBRANCH  19  21
ENDBRANCH  14  19
ENDBRANCH   7  14
ENDBRANCH   2   5
BRANCH   3  45
ATOM     45  C   UNL     1      13.311  -8.140   1.220  1.00  0.00     0.171 C 
BRANCH  45  46
ATOM     46  N   UNL     1      13.791  -8.962   2.322  1.00  0.00    -0.342 N 
ATOM     47  C   UNL     1      13.551 -10.312   2.393  1.00  0.00     0.247 C 
ATOM     48  O   UNL     1      12.979 -10.936   1.499  1.00  0.00    -0.273 OA
ATOM     49  H   UNL     1      14.319  -8.495   3.057  1.00  0.00     0.164 HD
BRANCH  47  50
ATOM     50  C   UNL     1      14.025 -10.989   3.687  1.00  0.00     0.212 CG0
ATOM     51  G   UNL     1      15.487 -10.565   3.928  1.00  0.00     0.000 G0
BRANCH  50  52
ATOM     52  N   UNL     1      13.111 -10.526   4.727  1.00  0.00    -0.339 N 
ATOM     53  C   UNL     1      13.323  -9.390   5.469  1.00  0.00     0.243 C 
ATOM     54  O   UNL     1      14.333  -8.701   5.350  1.00  0.00    -0.273 OA
ATOM     55  H   UNL     1      12.311 -11.115   4.950  1.00  0.00     0.164 HD
BRANCH  53  56
ATOM     56  C   UNL     1      12.267  -9.150   6.566  1.00  0.00     0.182 C 
BRANCH  56  57
ATOM     57  N   UNL     1      11.660  -7.822   6.432  1.00  0.00    -0.344 N 
ATOM     58  C   UNL     1      10.311  -7.611   6.581  1.00  0.00     0.220 C 
ATOM     59  O   UNL     1       9.513  -8.523   6.764  1.00  0.00    -0.275 OA
ATOM     60  H   UNL     1      12.294  -7.029   6.383  1.00  0.00     0.164 HD
BRANCH  58  61
ATOM     61  C   UNL     1       9.914  -6.151   6.458  1.00  0.00     0.100 C 
BRANCH  61  62
ATOM     62  C   UNL     1      11.024  -5.175   6.849  1.00  0.00     0.010 C 
BRANCH  62  63
ATOM     63  C   UNL     1      11.615  -4.393   5.669  1.00  0.00     0.000 C 
BRANCH  63  64
ATOM     64  C   UNL     1      12.277  -3.073   6.061  1.00  0.00    -0.003 C 
ATOM     65  C   UNL     1      13.433  -2.733   5.132  1.00  0.00     0.004 C 
ENDBRANCH  63  64
ENDBRANCH  62  63
ENDBRANCH  61  62
ENDBRANCH  58  61
ENDBRANCH  56  57
BRANCH  56  66
ATOM     66  C   UNL     1      12.846  -9.381   7.961  1.00  0.00     0.157 C 
BRANCH  66  67
ATOM     67  C   UNL     1      13.034  -8.084   8.694  1.00  0.00     0.305 C 
ATOM     68  O   UNL     1      12.340  -7.646   9.598  1.00  0.00    -0.252 OA
BRANCH  67  69
ATOM     69  O   UNL     1      14.130  -7.418   8.282  1.00  0.00    -0.481 OA
ATOM     70  H   UNL     1      14.321  -7.778   7.390  1.00  0.00     0.296 HD
ENDBRANCH  67  69
ENDBRANCH  66  67
ENDBRANCH  56  66
ENDBRANCH  53  56
ENDBRANCH  50  52
ENDBRANCH  47  50
ENDBRANCH  45  46
BRANCH  45  71
ATOM     71  C   UNL     1      14.468  -7.596   0.374  1.00  0.00     0.037 C 
BRANCH  71  72
ATOM     72  C   UNL     1      14.593  -8.325  -0.966  1.00  0.00     0.026 C 
BRANCH  72  73
ATOM     73  C   UNL     1      13.273  -8.317  -1.734  1.00  0.00     0.146 C 
BRANCH  73  74
ATOM     74  N   UNL     1      12.774  -6.945  -1.751  1.00  0.00    -0.254 NA
ATOM     75  C   UNL     1      12.998  -6.240  -2.798  1.00  0.00     0.185 C 
ATOM     76  N   UNL     1      12.551  -4.975  -2.845  1.00  0.00    -0.370 N 
ATOM     77  N   UNL     1      13.646  -6.582  -3.925  1.00  0.00    -0.370 N 
ATOM     78  H   UNL     1      12.057  -4.634  -2.032  1.00  0.00     0.159 HD
ATOM     79  H   UNL     1      12.810  -4.322  -3.563  1.00  0.00     0.159 HD
ATOM     80  H   UNL     1      14.034  -7.507  -4.034  1.00  0.00     0.159 HD
ATOM     81  H   UNL     1      13.659  -5.979  -4.731  1.00  0.00     0.159 HD
ENDBRANCH  73  74
ENDBRANCH  72  73
ENDBRANCH  71  72
ENDBRANCH  45  71
ENDBRANCH   3  45
TORSDOF 20
ENDMDL
MODEL 6
REMARK VINA RESULT:    -5.629      5.708      9.906
REMARK INTER + INTRA:         -23.560
REMARK INTER:                 -16.647
REMARK INTRA:                  -6.913
REMARK UNBOUND:                -7.402
REMARK SMILES CCCCCC(=O)N[C@H](CC(=O)O)C(=O)N[C@H]1C(=O)N[C@H](CCCN=C(N)N)C(=O)N[C@@H]2CC[C@H](O)N(C2=O)[C@@H](CC(C)C)C(=O)N(C)[C@@H](Cc2ccccc2)C(=O)N[C@H](C(C)C)C(=O)O[C@@H]1C
REMARK SMILES IDX 30 1 31 2 29 3 32 5 35 6 37 7 34 8 38 9 33 10 39 11 36 12
REMARK SMILES IDX 40 14 41 15 42 16 43 17 44 18 45 19 46 20 47 21 48 22 49 23
REMARK SMILES IDX 50 24 51 25 52 26 56 27 53 28 55 29 54 30 57 31 58 32 59 33
REMARK SMILES IDX 60 35 61 36 62 37 63 38 64 39 65 40 66 41 67 42 68 43 21 45
REMARK SMILES IDX 20 46 18 47 19 48 17 50 16 52 14 53 15 54 9 56 8 57 6 58
REMARK SMILES IDX 7 59 5 61 4 62 3 63 2 64 1 65 10 66 11 67 12 68 13 69 22 71
REMARK SMILES IDX 23 72 24 73 25 74 26 75 27 76 28 77
REMARK H PARENT 31 4 36 13 59 34 20 49 16 55 8 60 13 70 27 78 27 79 28 80
REMARK H PARENT 28 81
REMARK Flexibility Score:  259.900
ROOT
ATOM      1  O   UNL     1      11.086  -4.245   2.914  1.00  0.00    -0.273 OA
ATOM      2  N   UNL     1       9.908  -5.496   1.405  1.00  0.00    -0.343 N 
ATOM      3  C   UNL     1      10.895  -5.323   2.351  1.00  0.00     0.243 C 
ATOM      4  H   UNL     1       9.770  -6.402   0.973  1.00  0.00     0.164 HD
ENDROOT
BRANCH   2   5
ATOM      5  C   UNL     1       9.118  -4.361   0.940  1.00  0.00     0.171 C 
ATOM      6  C   UNL     1       6.496  -4.162  -0.281  1.00  0.00     0.214 C 
ATOM      7  N   UNL     1       7.663  -4.289  -1.122  1.00  0.00    -0.303 N 
ATOM      8  C   UNL     1       6.775  -3.451   1.034  1.00  0.00     0.057 C 
ATOM      9  C   UNL     1       8.939  -4.439  -0.603  1.00  0.00     0.247 C 
ATOM     10  C   UNL     1       7.861  -4.183   1.791  1.00  0.00     0.040 C 
ATOM     11  O   UNL     1       9.923  -4.634  -1.328  1.00  0.00    -0.272 OA
BRANCH   6  12
ATOM     12  O   UNL     1       5.994  -5.457  -0.043  1.00  0.00    -0.373 OA
ATOM     13  H   UNL     1       5.220  -5.360   0.552  1.00  0.00     0.213 HD
ENDBRANCH   6  12
BRANCH   7  14
ATOM     14  C   UNL     1       7.432  -4.401  -2.578  1.00  0.00     0.177 C 
BRANCH  14  15
ATOM     15  C   UNL     1       7.388  -5.840  -3.126  1.00  0.00     0.038 C 
BRANCH  15  16
ATOM     16  C   UNL     1       8.222  -6.205  -4.374  1.00  0.00    -0.015 C 
ATOM     17  C   UNL     1       9.145  -5.064  -4.814  1.00  0.00     0.007 C 
ATOM     18  C   UNL     1       7.287  -6.544  -5.542  1.00  0.00     0.007 C 
ENDBRANCH  15  16
ENDBRANCH  14  15
BRANCH  14  19
ATOM     19  C   UNL     1       6.543  -3.211  -3.080  1.00  0.00     0.245 C 
ATOM     20  O   UNL     1       7.140  -2.211  -3.513  1.00  0.00    -0.272 OA
BRANCH  19  21
ATOM     21  N   UNL     1       5.165  -3.175  -2.962  1.00  0.00    -0.332 N 
ATOM     22  C   UNL     1       4.273  -4.304  -3.153  1.00  0.00     0.147 C 
BRANCH  21  23
ATOM     23  C   UNL     1       4.530  -1.871  -2.622  1.00  0.00     0.178 C 
BRANCH  23  24
ATOM     24  C   UNL     1       5.210  -1.103  -1.471  1.00  0.00     0.070 C 
BRANCH  24  25
ATOM     25  C   UNL     1       4.419  -0.934  -0.194  1.00  0.00    -0.045 A 
ATOM     26  C   UNL     1       3.148  -1.506  -0.057  1.00  0.00     0.004 A 
ATOM     27  C   UNL     1       4.949  -0.195   0.874  1.00  0.00     0.004 A 
ATOM     28  C   UNL     1       2.416  -1.332   1.120  1.00  0.00     0.000 A 
ATOM     29  C   UNL     1       4.217  -0.022   2.050  1.00  0.00     0.000 A 
ATOM     30  C   UNL     1       2.950  -0.589   2.171  1.00  0.00     0.000 A 
ENDBRANCH  24  25
ENDBRANCH  23  24
BRANCH  23  31
ATOM     31  C   UNL     1       4.199  -1.017  -3.869  1.00  0.00     0.243 C 
ATOM     32  O   UNL     1       4.502  -1.332  -5.017  1.00  0.00    -0.273 OA
ATOM     33  N   UNL     1       3.691   0.234  -3.564  1.00  0.00    -0.341 N 
ATOM     34  H   UNL     1       3.464   0.440  -2.588  1.00  0.00     0.164 HD
BRANCH  33  35
ATOM     35  C   UNL     1       3.417   1.254  -4.580  1.00  0.00     0.194 C 
BRANCH  35  36
ATOM     36  C   UNL     1       3.793   2.699  -4.146  1.00  0.00     0.017 C 
ATOM     37  C   UNL     1       4.331   3.517  -5.332  1.00  0.00     0.010 C 
ATOM     38  C   UNL     1       4.856   2.741  -3.041  1.00  0.00     0.010 C 
ENDBRANCH  35  36
BRANCH  35  39
ATOM     39  C   UNL     1       1.966   1.173  -5.132  1.00  0.00     0.329 C 
ATOM     40  O   UNL     1       0.961   1.293  -4.441  1.00  0.00    -0.250 OA
BRANCH  39  41
ATOM     41  O   UNL     1       1.935   1.041  -6.493  1.00  0.00    -0.458 OA
BRANCH  41  42
ATOM     42  C   UNL     1       0.971   0.099  -7.023  1.00  0.00     0.205 CG0
ATOM     43  C   UNL     1       1.648  -1.269  -7.064  1.00  0.00     0.056 C 
ATOM     44  G   UNL     1       0.530   0.581  -8.419  1.00  0.00     0.000 G0
ENDBRANCH  41  42
ENDBRANCH  39  41
ENDBRANCH  35  39
ENDBRANCH  33  35
ENDBRANCH  23  31
ENDBRANCH  21  23
ENDBRANCH  19  21
ENDBRANCH  14  19
ENDBRANCH   7  14
ENDBRANCH   2   5
BRANCH   3  45
ATOM     45  C   UNL     1      11.725  -6.574   2.671  1.00  0.00     0.171 C 
BRANCH  45  46
ATOM     46  N   UNL     1      12.340  -6.318   3.967  1.00  0.00    -0.342 N 
ATOM     47  C   UNL     1      11.968  -6.990   5.103  1.00  0.00     0.247 C 
ATOM     48  O   UNL     1      11.144  -7.906   5.099  1.00  0.00    -0.273 OA
ATOM     49  H   UNL     1      13.067  -5.606   4.005  1.00  0.00     0.164 HD
BRANCH  47  50
ATOM     50  C   UNL     1      12.635  -6.500   6.396  1.00  0.00     0.212 CG0
ATOM     51  G   UNL     1      13.916  -7.332   6.606  1.00  0.00     0.000 G0
BRANCH  50  52
ATOM     52  N   UNL     1      12.898  -5.079   6.184  1.00  0.00    -0.339 N 
ATOM     53  C   UNL     1      11.975  -4.094   6.436  1.00  0.00     0.243 C 
ATOM     54  O   UNL     1      10.831  -4.339   6.811  1.00  0.00    -0.273 OA
ATOM     55  H   UNL     1      13.791  -4.821   5.769  1.00  0.00     0.164 HD
BRANCH  53  56
ATOM     56  C   UNL     1      12.449  -2.677   6.054  1.00  0.00     0.182 C 
BRANCH  56  57
ATOM     57  N   UNL     1      11.554  -2.071   5.064  1.00  0.00    -0.344 N 
ATOM     58  C   UNL     1      10.740  -1.005   5.362  1.00  0.00     0.220 C 
ATOM     59  O   UNL     1      10.651  -0.534   6.491  1.00  0.00    -0.275 OA
ATOM     60  H   UNL     1      11.671  -2.363   4.097  1.00  0.00     0.164 HD
BRANCH  58  61
ATOM     61  C   UNL     1       9.944  -0.505   4.171  1.00  0.00     0.100 C 
BRANCH  61  62
ATOM     62  C   UNL     1       8.740  -1.380   3.823  1.00  0.00     0.010 C 
BRANCH  62  63
ATOM     63  C   UNL     1       7.437  -0.958   4.512  1.00  0.00     0.000 C 
BRANCH  63  64
ATOM     64  C   UNL     1       6.322  -2.000   4.437  1.00  0.00    -0.003 C 
ATOM     65  C   UNL     1       6.631  -3.206   5.313  1.00  0.00     0.004 C 
ENDBRANCH  63  64
ENDBRANCH  62  63
ENDBRANCH  61  62
ENDBRANCH  58  61
ENDBRANCH  56  57
BRANCH  56  66
ATOM     66  C   UNL     1      13.905  -2.680   5.590  1.00  0.00     0.157 C 
BRANCH  66  67
ATOM     67  C   UNL     1      14.004  -2.456   4.109  1.00  0.00     0.305 C 
ATOM     68  O   UNL     1      14.296  -1.414   3.543  1.00  0.00    -0.252 OA
BRANCH  67  69
ATOM     69  O   UNL     1      13.777  -3.582   3.405  1.00  0.00    -0.481 OA
ATOM     70  H   UNL     1      12.997  -3.992   3.834  1.00  0.00     0.296 HD
ENDBRANCH  67  69
ENDBRANCH  66  67
ENDBRANCH  56  66
ENDBRANCH  53  56
ENDBRANCH  50  52
ENDBRANCH  47  50
ENDBRANCH  45  46
BRANCH  45  71
ATOM     71  C   UNL     1      12.778  -6.808   1.582  1.00  0.00     0.037 C 
BRANCH  71  72
ATOM     72  C   UNL     1      13.514  -8.137   1.769  1.00  0.00     0.026 C 
BRANCH  72  73
ATOM     73  C   UNL     1      14.491  -8.403   0.626  1.00  0.00     0.146 C 
BRANCH  73  74
ATOM     74  N   UNL     1      13.965  -7.754  -0.571  1.00  0.00    -0.254 NA
ATOM     75  C   UNL     1      13.394  -8.492  -1.451  1.00  0.00     0.185 C 
ATOM     76  N   UNL     1      12.898  -7.924  -2.562  1.00  0.00    -0.370 N 
ATOM     77  N   UNL     1      13.198  -9.822  -1.439  1.00  0.00    -0.370 N 
ATOM     78  H   UNL     1      13.010  -6.924  -2.654  1.00  0.00     0.159 HD
ATOM     79  H   UNL     1      12.571  -8.449  -3.353  1.00  0.00     0.159 HD
ATOM     80  H   UNL     1      13.515 -10.381  -0.662  1.00  0.00     0.159 HD
ATOM     81  H   UNL     1      12.632 -10.278  -2.135  1.00  0.00     0.159 HD
ENDBRANCH  73  74
ENDBRANCH  72  73
ENDBRANCH  71  72
ENDBRANCH  45  71
ENDBRANCH   3  45
TORSDOF 20
ENDMDL
MODEL 7
REMARK VINA RESULT:    -5.464      3.431      6.208
REMARK INTER + INTRA:         -23.088
REMARK INTER:                 -18.059
REMARK INTRA:                  -5.029
REMARK UNBOUND:                -7.402
REMARK SMILES CCCCCC(=O)N[C@H](CC(=O)O)C(=O)N[C@H]1C(=O)N[C@H](CCCN=C(N)N)C(=O)N[C@@H]2CC[C@H](O)N(C2=O)[C@@H](CC(C)C)C(=O)N(C)[C@@H](Cc2ccccc2)C(=O)N[C@H](C(C)C)C(=O)O[C@@H]1C
REMARK SMILES IDX 30 1 31 2 29 3 32 5 35 6 37 7 34 8 38 9 33 10 39 11 36 12
REMARK SMILES IDX 40 14 41 15 42 16 43 17 44 18 45 19 46 20 47 21 48 22 49 23
REMARK SMILES IDX 50 24 51 25 52 26 56 27 53 28 55 29 54 30 57 31 58 32 59 33
REMARK SMILES IDX 60 35 61 36 62 37 63 38 64 39 65 40 66 41 67 42 68 43 21 45
REMARK SMILES IDX 20 46 18 47 19 48 17 50 16 52 14 53 15 54 9 56 8 57 6 58
REMARK SMILES IDX 7 59 5 61 4 62 3 63 2 64 1 65 10 66 11 67 12 68 13 69 22 71
REMARK SMILES IDX 23 72 24 73 25 74 26 75 27 76 28 77
REMARK H PARENT 31 4 36 13 59 34 20 49 16 55 8 60 13 70 27 78 27 79 28 80
REMARK H PARENT 28 81
REMARK Flexibility Score:  259.900
ROOT
ATOM      1  O   UNL     1       9.152  -1.647   2.249  1.00  0.00    -0.273 OA
ATOM      2  N   UNL     1       7.084  -2.571   2.569  1.00  0.00    -0.343 N 
ATOM      3  C   UNL     1       8.284  -2.449   1.902  1.00  0.00     0.243 C 
ATOM      4  H   UNL     1       6.400  -3.252   2.264  1.00  0.00     0.164 HD
ENDROOT
BRANCH   2   5
ATOM      5  C   UNL     1       6.743  -1.660   3.656  1.00  0.00     0.171 C 
ATOM      6  C   UNL     1       4.514  -1.558   5.507  1.00  0.00     0.214 C 
ATOM      7  N   UNL     1       4.433  -0.839   4.257  1.00  0.00    -0.303 N 
ATOM      8  C   UNL     1       5.934  -1.685   6.037  1.00  0.00     0.057 C 
ATOM      9  C   UNL     1       5.439  -0.887   3.306  1.00  0.00     0.247 C 
ATOM     10  C   UNL     1       6.805  -2.371   5.007  1.00  0.00     0.040 C 
ATOM     11  O   UNL     1       5.325  -0.339   2.202  1.00  0.00    -0.272 OA
BRANCH   6  12
ATOM     12  O   UNL     1       3.947  -2.832   5.309  1.00  0.00    -0.373 OA
ATOM     13  H   UNL     1       3.435  -2.792   4.473  1.00  0.00     0.213 HD
ENDBRANCH   6  12
BRANCH   7  14
ATOM     14  C   UNL     1       3.156  -0.157   3.958  1.00  0.00     0.177 C 
BRANCH  14  15
ATOM     15  C   UNL     1       2.130  -1.000   3.174  1.00  0.00     0.038 C 
BRANCH  15  16
ATOM     16  C   UNL     1       1.688  -0.544   1.766  1.00  0.00    -0.015 C 
ATOM     17  C   UNL     1       2.381  -1.333   0.652  1.00  0.00     0.007 C 
ATOM     18  C   UNL     1       2.013   0.943   1.576  1.00  0.00     0.007 C 
ENDBRANCH  15  16
ENDBRANCH  14  15
BRANCH  14  19
ATOM     19  C   UNL     1       2.810   0.870   5.090  1.00  0.00     0.245 C 
ATOM     20  O   UNL     1       3.743   1.222   5.830  1.00  0.00    -0.272 OA
BRANCH  19  21
ATOM     21  N   UNL     1       1.527   1.307   5.369  1.00  0.00    -0.332 N 
ATOM     22  C   UNL     1       0.305   0.588   5.056  1.00  0.00     0.147 C 
BRANCH  21  23
ATOM     23  C   UNL     1       1.372   2.628   6.038  1.00  0.00     0.178 C 
BRANCH  23  24
ATOM     24  C   UNL     1       1.171   3.818   5.076  1.00  0.00     0.070 C 
BRANCH  24  25
ATOM     25  C   UNL     1       2.403   4.368   4.396  1.00  0.00    -0.045 A 
ATOM     26  C   UNL     1       3.570   4.630   5.126  1.00  0.00     0.004 A 
ATOM     27  C   UNL     1       2.393   4.630   3.017  1.00  0.00     0.004 A 
ATOM     28  C   UNL     1       4.698   5.155   4.492  1.00  0.00     0.000 A 
ATOM     29  C   UNL     1       3.522   5.153   2.385  1.00  0.00     0.000 A 
ATOM     30  C   UNL     1       4.673   5.418   3.124  1.00  0.00     0.000 A 
ENDBRANCH  24  25
ENDBRANCH  23  24
BRANCH  23  31
ATOM     31  C   UNL     1       0.395   2.588   7.237  1.00  0.00     0.243 C 
ATOM     32  O   UNL     1       0.645   2.041   8.308  1.00  0.00    -0.273 OA
ATOM     33  N   UNL     1      -0.870   3.064   6.936  1.00  0.00    -0.341 N 
ATOM     34  H   UNL     1      -1.019   3.504   6.024  1.00  0.00     0.164 HD
BRANCH  33  35
ATOM     35  C   UNL     1      -1.989   3.012   7.881  1.00  0.00     0.194 C 
BRANCH  35  36
ATOM     36  C   UNL     1      -2.971   1.831   7.639  1.00  0.00     0.017 C 
ATOM     37  C   UNL     1      -2.474   0.543   8.317  1.00  0.00     0.010 C 
ATOM     38  C   UNL     1      -3.181   1.516   6.153  1.00  0.00     0.010 C 
ENDBRANCH  35  36
BRANCH  35  39
ATOM     39  C   UNL     1      -2.734   4.371   8.001  1.00  0.00     0.329 C 
ATOM     40  O   UNL     1      -3.055   4.886   9.065  1.00  0.00    -0.250 OA
BRANCH  39  41
ATOM     41  O   UNL     1      -2.915   4.973   6.786  1.00  0.00    -0.458 OA
BRANCH  41  42
ATOM     42  C   UNL     1      -4.172   5.665   6.595  1.00  0.00     0.205 CG0
ATOM     43  C   UNL     1      -5.242   4.604   6.345  1.00  0.00     0.056 C 
ATOM     44  G   UNL     1      -4.021   6.641   5.412  1.00  0.00     0.000 G0
ENDBRANCH  41  42
ENDBRANCH  39  41
ENDBRANCH  35  39
ENDBRANCH  33  35
ENDBRANCH  23  31
ENDBRANCH  21  23
ENDBRANCH  19  21
ENDBRANCH  14  19
ENDBRANCH   7  14
ENDBRANCH   2   5
BRANCH   3  45
ATOM     45  C   UNL     1       8.472  -3.396   0.709  1.00  0.00     0.171 C 
BRANCH  45  46
ATOM     46  N   UNL     1       9.805  -3.964   0.864  1.00  0.00    -0.342 N 
ATOM     47  C   UNL     1      10.027  -5.157   1.504  1.00  0.00     0.247 C 
ATOM     48  O   UNL     1       9.116  -5.868   1.927  1.00  0.00    -0.273 OA
ATOM     49  H   UNL     1      10.585  -3.434   0.477  1.00  0.00     0.164 HD
BRANCH  47  50
ATOM     50  C   UNL     1      11.505  -5.535   1.681  1.00  0.00     0.212 CG0
ATOM     51  G   UNL     1      12.335  -4.620   0.758  1.00  0.00     0.000 G0
BRANCH  50  52
ATOM     52  N   UNL     1      11.791  -5.336   3.099  1.00  0.00    -0.339 N 
ATOM     53  C   UNL     1      11.952  -6.370   3.989  1.00  0.00     0.243 C 
ATOM     54  O   UNL     1      11.814  -7.547   3.669  1.00  0.00    -0.273 OA
ATOM     55  H   UNL     1      11.807  -4.380   3.449  1.00  0.00     0.164 HD
BRANCH  53  56
ATOM     56  C   UNL     1      12.160  -5.914   5.448  1.00  0.00     0.182 C 
BRANCH  56  57
ATOM     57  N   UNL     1      11.065  -6.379   6.306  1.00  0.00    -0.344 N 
ATOM     58  C   UNL     1      11.168  -7.504   7.087  1.00  0.00     0.220 C 
ATOM     59  O   UNL     1      12.151  -8.237   7.067  1.00  0.00    -0.275 OA
ATOM     60  H   UNL     1      10.277  -5.748   6.428  1.00  0.00     0.164 HD
BRANCH  58  61
ATOM     61  C   UNL     1       9.937  -7.762   7.936  1.00  0.00     0.100 C 
BRANCH  61  62
ATOM     62  C   UNL     1       8.619  -7.532   7.196  1.00  0.00     0.010 C 
BRANCH  62  63
ATOM     63  C   UNL     1       7.409  -7.330   8.117  1.00  0.00     0.000 C 
BRANCH  63  64
ATOM     64  C   UNL     1       6.958  -5.877   8.250  1.00  0.00    -0.003 C 
ATOM     65  C   UNL     1       7.600  -4.997   7.187  1.00  0.00     0.004 C 
ENDBRANCH  63  64
ENDBRANCH  62  63
ENDBRANCH  61  62
ENDBRANCH  58  61
ENDBRANCH  56  57
BRANCH  56  66
ATOM     66  C   UNL     1      12.363  -4.403   5.540  1.00  0.00     0.157 C 
BRANCH  66  67
ATOM     67  C   UNL     1      11.081  -3.702   5.886  1.00  0.00     0.305 C 
ATOM     68  O   UNL     1      10.140  -3.483   5.139  1.00  0.00    -0.252 OA
BRANCH  67  69
ATOM     69  O   UNL     1      11.024  -3.353   7.186  1.00  0.00    -0.481 OA
ATOM     70  H   UNL     1      10.825  -4.188   7.661  1.00  0.00     0.296 HD
ENDBRANCH  67  69
ENDBRANCH  66  67
ENDBRANCH  56  66
ENDBRANCH  53  56
ENDBRANCH  50  52
ENDBRANCH  47  50
ENDBRANCH  45  46
BRANCH  45  71
ATOM     71  C   UNL     1       8.335  -2.627  -0.610  1.00  0.00     0.037 C 
BRANCH  71  72
ATOM     72  C   UNL     1       6.899  -2.156  -0.854  1.00  0.00     0.026 C 
BRANCH  72  73
ATOM     73  C   UNL     1       6.325  -2.751  -2.138  1.00  0.00     0.146 C 
BRANCH  73  74
ATOM     74  N   UNL     1       6.853  -4.104  -2.279  1.00  0.00    -0.254 NA
ATOM     75  C   UNL     1       6.064  -5.084  -2.030  1.00  0.00     0.185 C 
ATOM     76  N   UNL     1       6.521  -6.341  -2.152  1.00  0.00    -0.370 N 
ATOM     77  N   UNL     1       4.777  -5.055  -1.645  1.00  0.00    -0.370 N 
ATOM     78  H   UNL     1       7.485  -6.452  -2.432  1.00  0.00     0.159 HD
ATOM     79  H   UNL     1       6.011  -7.148  -1.838  1.00  0.00     0.159 HD
ATOM     80  H   UNL     1       4.298  -4.176  -1.516  1.00  0.00     0.159 HD
ATOM     81  H   UNL     1       4.222  -5.893  -1.591  1.00  0.00     0.159 HD
ENDBRANCH  73  74
ENDBRANCH  72  73
ENDBRANCH  71  72
ENDBRANCH  45  71
ENDBRANCH   3  45
TORSDOF 20
ENDMDL
MODEL 8
REMARK VINA RESULT:    -5.461      4.241     13.084
REMARK INTER + INTRA:         -23.078
REMARK INTER:                 -16.505
REMARK INTRA:                  -6.573
REMARK UNBOUND:                -7.402
REMARK SMILES CCCCCC(=O)N[C@H](CC(=O)O)C(=O)N[C@H]1C(=O)N[C@H](CCCN=C(N)N)C(=O)N[C@@H]2CC[C@H](O)N(C2=O)[C@@H](CC(C)C)C(=O)N(C)[C@@H](Cc2ccccc2)C(=O)N[C@H](C(C)C)C(=O)O[C@@H]1C
REMARK SMILES IDX 30 1 31 2 29 3 32 5 35 6 37 7 34 8 38 9 33 10 39 11 36 12
REMARK SMILES IDX 40 14 41 15 42 16 43 17 44 18 45 19 46 20 47 21 48 22 49 23
REMARK SMILES IDX 50 24 51 25 52 26 56 27 53 28 55 29 54 30 57 31 58 32 59 33
REMARK SMILES IDX 60 35 61 36 62 37 63 38 64 39 65 40 66 41 67 42 68 43 21 45
REMARK SMILES IDX 20 46 18 47 19 48 17 50 16 52 14 53 15 54 9 56 8 57 6 58
REMARK SMILES IDX 7 59 5 61 4 62 3 63 2 64 1 65 10 66 11 67 12 68 13 69 22 71
REMARK SMILES IDX 23 72 24 73 25 74 26 75 27 76 28 77
REMARK H PARENT 31 4 36 13 59 34 20 49 16 55 8 60 13 70 27 78 27 79 28 80
REMARK H PARENT 28 81
REMARK Flexibility Score:  259.900
ROOT
ATOM      1  O   UNL     1       3.759   0.939   2.523  1.00  0.00    -0.273 OA
ATOM      2  N   UNL     1       5.533   0.824   3.963  1.00  0.00    -0.343 N 
ATOM      3  C   UNL     1       4.668   1.504   3.132  1.00  0.00     0.243 C 
ATOM      4  H   UNL     1       6.260   1.324   4.459  1.00  0.00     0.164 HD
ENDROOT
BRANCH   2   5
ATOM      5  C   UNL     1       5.477  -0.630   4.062  1.00  0.00     0.171 C 
ATOM      6  C   UNL     1       6.311  -2.492   6.123  1.00  0.00     0.214 C 
ATOM      7  N   UNL     1       7.235  -2.134   5.073  1.00  0.00    -0.303 N 
ATOM      8  C   UNL     1       4.856  -2.449   5.684  1.00  0.00     0.057 C 
ATOM      9  C   UNL     1       6.919  -1.213   4.087  1.00  0.00     0.247 C 
ATOM     10  C   UNL     1       4.516  -1.068   5.167  1.00  0.00     0.040 C 
ATOM     11  O   UNL     1       7.747  -0.847   3.242  1.00  0.00    -0.272 OA
BRANCH   6  12
ATOM     12  O   UNL     1       6.525  -1.613   7.203  1.00  0.00    -0.373 OA
ATOM     13  H   UNL     1       6.551  -2.159   8.017  1.00  0.00     0.213 HD
ENDBRANCH   6  12
BRANCH   7  14
ATOM     14  C   UNL     1       8.605  -2.683   5.169  1.00  0.00     0.177 C 
BRANCH  14  15
ATOM     15  C   UNL     1       9.488  -2.053   6.263  1.00  0.00     0.038 C 
BRANCH  15  16
ATOM     16  C   UNL     1      10.760  -1.275   5.860  1.00  0.00    -0.015 C 
ATOM     17  C   UNL     1      11.310  -0.419   7.005  1.00  0.00     0.007 C 
ATOM     18  C   UNL     1      10.450  -0.351   4.676  1.00  0.00     0.007 C 
ENDBRANCH  15  16
ENDBRANCH  14  15
BRANCH  14  19
ATOM     19  C   UNL     1       8.615  -4.194   4.754  1.00  0.00     0.245 C 
ATOM     20  O   UNL     1       7.783  -4.546   3.901  1.00  0.00    -0.272 OA
BRANCH  19  21
ATOM     21  N   UNL     1       9.408  -5.155   5.357  1.00  0.00    -0.332 N 
ATOM     22  C   UNL     1       9.057  -5.912   6.545  1.00  0.00     0.147 C 
BRANCH  21  23
ATOM     23  C   UNL     1      10.739  -5.437   4.754  1.00  0.00     0.178 C 
BRANCH  23  24
ATOM     24  C   UNL     1      11.943  -5.054   5.639  1.00  0.00     0.070 C 
BRANCH  24  25
ATOM     25  C   UNL     1      12.820  -3.922   5.156  1.00  0.00    -0.045 A 
ATOM     26  C   UNL     1      12.826  -3.544   3.807  1.00  0.00     0.004 A 
ATOM     27  C   UNL     1      13.646  -3.233   6.056  1.00  0.00     0.004 A 
ATOM     28  C   UNL     1      13.652  -2.508   3.366  1.00  0.00     0.000 A 
ATOM     29  C   UNL     1      14.470  -2.197   5.614  1.00  0.00     0.000 A 
ATOM     30  C   UNL     1      14.474  -1.837   4.268  1.00  0.00     0.000 A 
ENDBRANCH  24  25
ENDBRANCH  23  24
BRANCH  23  31
ATOM     31  C   UNL     1      10.825  -6.841   4.110  1.00  0.00     0.243 C 
ATOM     32  O   UNL     1       9.846  -7.517   3.803  1.00  0.00    -0.273 OA
ATOM     33  N   UNL     1      12.109  -7.357   4.076  1.00  0.00    -0.341 N 
ATOM     34  H   UNL     1      12.884  -6.748   4.349  1.00  0.00     0.164 HD
BRANCH  33  35
ATOM     35  C   UNL     1      12.412  -8.716   3.619  1.00  0.00     0.194 C 
BRANCH  35  36
ATOM     36  C   UNL     1      12.949  -9.656   4.735  1.00  0.00     0.017 C 
ATOM     37  C   UNL     1      11.948  -9.774   5.897  1.00  0.00     0.010 C 
ATOM     38  C   UNL     1      14.286  -9.190   5.327  1.00  0.00     0.010 C 
ENDBRANCH  35  36
BRANCH  35  39
ATOM     39  C   UNL     1      13.321  -8.734   2.358  1.00  0.00     0.329 C 
ATOM     40  O   UNL     1      13.771  -7.729   1.822  1.00  0.00    -0.250 OA
BRANCH  39  41
ATOM     41  O   UNL     1      13.637 -10.005   1.963  1.00  0.00    -0.458 OA
BRANCH  41  42
ATOM     42  C   UNL     1      13.967 -10.178   0.564  1.00  0.00     0.205 CG0
ATOM     43  C   UNL     1      12.898 -11.082  -0.046  1.00  0.00     0.056 C 
ATOM     44  G   UNL     1      15.380 -10.786   0.464  1.00  0.00     0.000 G0
ENDBRANCH  41  42
ENDBRANCH  39  41
ENDBRANCH  35  39
ENDBRANCH  33  35
ENDBRANCH  23  31
ENDBRANCH  21  23
ENDBRANCH  19  21
ENDBRANCH  14  19
ENDBRANCH   7  14
ENDBRANCH   2   5
BRANCH   3  45
ATOM     45  C   UNL     1       4.904   3.017   3.035  1.00  0.00     0.171 C 
BRANCH  45  46
ATOM     46  N   UNL     1       3.931   3.625   3.932  1.00  0.00    -0.342 N 
ATOM     47  C   UNL     1       4.276   4.584   4.852  1.00  0.00     0.247 C 
ATOM     48  O   UNL     1       5.412   5.050   4.937  1.00  0.00    -0.273 OA
ATOM     49  H   UNL     1       2.966   3.308   3.857  1.00  0.00     0.164 HD
BRANCH  47  50
ATOM     50  C   UNL     1       3.144   5.017   5.794  1.00  0.00     0.212 CG0
ATOM     51  G   UNL     1       3.029   6.553   5.711  1.00  0.00     0.000 G0
BRANCH  50  52
ATOM     52  N   UNL     1       1.951   4.323   5.317  1.00  0.00    -0.339 N 
ATOM     53  C   UNL     1       0.968   3.848   6.150  1.00  0.00     0.243 C 
ATOM     54  O   UNL     1       1.044   3.925   7.374  1.00  0.00    -0.273 OA
ATOM     55  H   UNL     1       1.884   4.129   4.319  1.00  0.00     0.164 HD
BRANCH  53  56
ATOM     56  C   UNL     1      -0.150   3.073   5.424  1.00  0.00     0.182 C 
BRANCH  56  57
ATOM     57  N   UNL     1      -0.299   3.537   4.041  1.00  0.00    -0.344 N 
ATOM     58  C   UNL     1       0.349   2.936   2.990  1.00  0.00     0.220 C 
ATOM     59  O   UNL     1       1.151   2.021   3.140  1.00  0.00    -0.275 OA
ATOM     60  H   UNL     1      -1.029   4.222   3.862  1.00  0.00     0.164 HD
BRANCH  58  61
ATOM     61  C   UNL     1       0.001   3.544   1.643  1.00  0.00     0.100 C 
BRANCH  61  62
ATOM     62  C   UNL     1       1.200   4.150   0.913  1.00  0.00     0.010 C 
BRANCH  62  63
ATOM     63  C   UNL     1       1.532   3.469  -0.421  1.00  0.00     0.000 C 
BRANCH  63  64
ATOM     64  C   UNL     1       1.780   1.965  -0.313  1.00  0.00    -0.003 C 
ATOM     65  C   UNL     1       3.014   1.548  -1.101  1.00  0.00     0.004 C 
ENDBRANCH  63  64
ENDBRANCH  62  63
ENDBRANCH  61  62
ENDBRANCH  58  61
ENDBRANCH  56  57
BRANCH  56  66
ATOM     66  C   UNL     1      -1.466   3.133   6.198  1.00  0.00     0.157 C 
BRANCH  66  67
ATOM     67  C   UNL     1      -2.175   1.810   6.170  1.00  0.00     0.305 C 
ATOM     68  O   UNL     1      -3.181   1.504   6.790  1.00  0.00    -0.252 OA
BRANCH  67  69
ATOM     69  O   UNL     1      -1.604   0.942   5.312  1.00  0.00    -0.481 OA
ATOM     70  H   UNL     1      -1.804   0.056   5.682  1.00  0.00     0.296 HD
ENDBRANCH  67  69
ENDBRANCH  66  67
ENDBRANCH  56  66
ENDBRANCH  53  56
ENDBRANCH  50  52
ENDBRANCH  47  50
ENDBRANCH  45  46
BRANCH  45  71
ATOM     71  C   UNL     1       4.718   3.495   1.591  1.00  0.00     0.037 C 
BRANCH  71  72
ATOM     72  C   UNL     1       5.783   4.514   1.179  1.00  0.00     0.026 C 
BRANCH  72  73
ATOM     73  C   UNL     1       6.957   3.842   0.470  1.00  0.00     0.146 C 
BRANCH  73  74
ATOM     74  N   UNL     1       6.592   2.451   0.221  1.00  0.00    -0.254 NA
ATOM     75  C   UNL     1       7.308   1.537   0.766  1.00  0.00     0.185 C 
ATOM     76  N   UNL     1       6.996   0.248   0.557  1.00  0.00    -0.370 N 
ATOM     77  N   UNL     1       8.384   1.669   1.560  1.00  0.00    -0.370 N 
ATOM     78  H   UNL     1       6.201   0.060  -0.037  1.00  0.00     0.159 HD
ATOM     79  H   UNL     1       7.590  -0.516   0.828  1.00  0.00     0.159 HD
ATOM     80  H   UNL     1       8.732   2.583   1.807  1.00  0.00     0.159 HD
ATOM     81  H   UNL     1       8.798   0.878   2.025  1.00  0.00     0.159 HD
ENDBRANCH  73  74
ENDBRANCH  72  73
ENDBRANCH  71  72
ENDBRANCH  45  71
ENDBRANCH   3  45
TORSDOF 20
ENDMDL
MODEL 9
REMARK VINA RESULT:    -5.458      4.321      7.066
REMARK INTER + INTRA:         -23.069
REMARK INTER:                 -14.845
REMARK INTRA:                  -8.224
REMARK UNBOUND:                -7.402
REMARK SMILES CCCCCC(=O)N[C@H](CC(=O)O)C(=O)N[C@H]1C(=O)N[C@H](CCCN=C(N)N)C(=O)N[C@@H]2CC[C@H](O)N(C2=O)[C@@H](CC(C)C)C(=O)N(C)[C@@H](Cc2ccccc2)C(=O)N[C@H](C(C)C)C(=O)O[C@@H]1C
REMARK SMILES IDX 30 1 31 2 29 3 32 5 35 6 37 7 34 8 38 9 33 10 39 11 36 12
REMARK SMILES IDX 40 14 41 15 42 16 43 17 44 18 45 19 46 20 47 21 48 22 49 23
REMARK SMILES IDX 50 24 51 25 52 26 56 27 53 28 55 29 54 30 57 31 58 32 59 33
REMARK SMILES IDX 60 35 61 36 62 37 63 38 64 39 65 40 66 41 67 42 68 43 21 45
REMARK SMILES IDX 20 46 18 47 19 48 17 50 16 52 14 53 15 54 9 56 8 57 6 58
REMARK SMILES IDX 7 59 5 61 4 62 3 63 2 64 1 65 10 66 11 67 12 68 13 69 22 71
REMARK SMILES IDX 23 72 24 73 25 74 26 75 27 76 28 77
REMARK H PARENT 31 4 36 13 59 34 20 49 16 55 8 60 13 70 27 78 27 79 28 80
REMARK H PARENT 28 81
REMARK Flexibility Score:  259.900
ROOT
ATOM      1  O   UNL     1       9.181  -3.562   5.549  1.00  0.00    -0.273 OA
ATOM      2  N   UNL     1      10.497  -1.696   5.430  1.00  0.00    -0.343 N 
ATOM      3  C   UNL     1      10.297  -3.046   5.620  1.00  0.00     0.243 C 
ATOM      4  H   UNL     1      11.431  -1.308   5.481  1.00  0.00     0.164 HD
ENDROOT
BRANCH   2   5
ATOM      5  C   UNL     1       9.364  -0.795   5.251  1.00  0.00     0.171 C 
ATOM      6  C   UNL     1       6.529  -1.258   4.863  1.00  0.00     0.214 C 
ATOM      7  N   UNL     1       7.394  -1.148   3.712  1.00  0.00    -0.303 N 
ATOM      8  C   UNL     1       7.007  -0.446   6.056  1.00  0.00     0.057 C 
ATOM      9  C   UNL     1       8.764  -0.978   3.827  1.00  0.00     0.247 C 
ATOM     10  C   UNL     1       8.407  -0.875   6.439  1.00  0.00     0.040 C 
ATOM     11  O   UNL     1       9.510  -0.972   2.839  1.00  0.00    -0.272 OA
BRANCH   6  12
ATOM     12  O   UNL     1       6.434  -2.622   5.202  1.00  0.00    -0.373 OA
ATOM     13  H   UNL     1       7.258  -3.054   4.889  1.00  0.00     0.213 HD
ENDBRANCH   6  12
BRANCH   7  14
ATOM     14  C   UNL     1       6.779  -1.373   2.387  1.00  0.00     0.177 C 
BRANCH  14  15
ATOM     15  C   UNL     1       6.730  -2.843   1.927  1.00  0.00     0.038 C 
BRANCH  15  16
ATOM     16  C   UNL     1       7.835  -3.386   0.993  1.00  0.00    -0.015 C 
ATOM     17  C   UNL     1       8.018  -2.523  -0.259  1.00  0.00     0.007 C 
ATOM     18  C   UNL     1       7.484  -4.811   0.548  1.00  0.00     0.007 C 
ENDBRANCH  15  16
ENDBRANCH  14  15
BRANCH  14  19
ATOM     19  C   UNL     1       5.670  -0.300   2.113  1.00  0.00     0.245 C 
ATOM     20  O   UNL     1       6.033   0.888   2.097  1.00  0.00    -0.272 OA
BRANCH  19  21
ATOM     21  N   UNL     1       4.322  -0.594   2.004  1.00  0.00    -0.332 N 
ATOM     22  C   UNL     1       3.492  -1.143   3.062  1.00  0.00     0.147 C 
BRANCH  21  23
ATOM     23  C   UNL     1       3.658  -0.342   0.696  1.00  0.00     0.178 C 
BRANCH  23  24
ATOM     24  C   UNL     1       3.091  -1.600   0.006  1.00  0.00     0.070 C 
BRANCH  24  25
ATOM     25  C   UNL     1       3.963  -2.268  -1.031  1.00  0.00    -0.045 A 
ATOM     26  C   UNL     1       4.116  -3.660  -1.051  1.00  0.00     0.004 A 
ATOM     27  C   UNL     1       4.639  -1.498  -1.990  1.00  0.00     0.004 A 
ATOM     28  C   UNL     1       4.938  -4.269  -2.003  1.00  0.00     0.000 A 
ATOM     29  C   UNL     1       5.458  -2.107  -2.941  1.00  0.00     0.000 A 
ATOM     30  C   UNL     1       5.609  -3.493  -2.945  1.00  0.00     0.000 A 
ENDBRANCH  24  25
ENDBRANCH  23  24
BRANCH  23  31
ATOM     31  C   UNL     1       2.698   0.871   0.730  1.00  0.00     0.243 C 
ATOM     32  O   UNL     1       3.070   2.041   0.748  1.00  0.00    -0.273 OA
ATOM     33  N   UNL     1       1.372   0.521   0.927  1.00  0.00    -0.341 N 
ATOM     34  H   UNL     1       1.124  -0.471   0.908  1.00  0.00     0.164 HD
BRANCH  33  35
ATOM     35  C   UNL     1       0.305   1.508   1.111  1.00  0.00     0.194 C 
BRANCH  35  36
ATOM     36  C   UNL     1      -0.069   1.770   2.597  1.00  0.00     0.017 C 
ATOM     37  C   UNL     1       0.412   3.157   3.059  1.00  0.00     0.010 C 
ATOM     38  C   UNL     1       0.523   0.734   3.560  1.00  0.00     0.010 C 
ENDBRANCH  35  36
BRANCH  35  39
ATOM     39  C   UNL     1      -0.948   1.203   0.242  1.00  0.00     0.329 C 
ATOM     40  O   UNL     1      -0.923   0.539  -0.787  1.00  0.00    -0.250 OA
BRANCH  39  41
ATOM     41  O   UNL     1      -2.098   1.685   0.802  1.00  0.00    -0.458 OA
BRANCH  41  42
ATOM     42  C   UNL     1      -2.907   2.545  -0.036  1.00  0.00     0.205 CG0
ATOM     43  C   UNL     1      -2.346   3.960   0.091  1.00  0.00     0.056 C 
ATOM     44  G   UNL     1      -4.373   2.448   0.430  1.00  0.00     0.000 G0
ENDBRANCH  41  42
ENDBRANCH  39  41
ENDBRANCH  35  39
ENDBRANCH  33  35
ENDBRANCH  23  31
ENDBRANCH  21  23
ENDBRANCH  19  21
ENDBRANCH  14  19
ENDBRANCH   7  14
ENDBRANCH   2   5
BRANCH   3  45
ATOM     45  C   UNL     1      11.563  -3.864   5.906  1.00  0.00     0.171 C 
BRANCH  45  46
ATOM     46  N   UNL     1      12.601  -3.292   5.059  1.00  0.00    -0.342 N 
ATOM     47  C   UNL     1      13.752  -2.748   5.572  1.00  0.00     0.247 C 
ATOM     48  O   UNL     1      14.024  -2.769   6.772  1.00  0.00    -0.273 OA
ATOM     49  H   UNL     1      12.442  -3.305   4.054  1.00  0.00     0.164 HD
BRANCH  47  50
ATOM     50  C   UNL     1      14.672  -2.081   4.539  1.00  0.00     0.212 CG0
ATOM     51  G   UNL     1      16.126  -2.283   5.009  1.00  0.00     0.000 G0
BRANCH  50  52
ATOM     52  N   UNL     1      14.378  -2.744   3.271  1.00  0.00    -0.339 N 
ATOM     53  C   UNL     1      14.221  -2.069   2.084  1.00  0.00     0.243 C 
ATOM     54  O   UNL     1      14.263  -0.844   2.009  1.00  0.00    -0.273 OA
ATOM     55  H   UNL     1      14.222  -3.749   3.288  1.00  0.00     0.164 HD
BRANCH  53  56
ATOM     56  C   UNL     1      13.830  -2.972   0.896  1.00  0.00     0.182 C 
BRANCH  56  57
ATOM     57  N   UNL     1      12.883  -2.292   0.007  1.00  0.00    -0.344 N 
ATOM     58  C   UNL     1      13.013  -2.311  -1.360  1.00  0.00     0.220 C 
ATOM     59  O   UNL     1      13.966  -2.834  -1.928  1.00  0.00    -0.275 OA
ATOM     60  H   UNL     1      12.030  -1.936   0.430  1.00  0.00     0.164 HD
BRANCH  58  61
ATOM     61  C   UNL     1      11.888  -1.592  -2.081  1.00  0.00     0.100 C 
BRANCH  61  62
ATOM     62  C   UNL     1      11.177  -2.453  -3.126  1.00  0.00     0.010 C 
BRANCH  62  63
ATOM     63  C   UNL     1      10.650  -3.788  -2.586  1.00  0.00     0.000 C 
BRANCH  63  64
ATOM     64  C   UNL     1       9.826  -4.590  -3.592  1.00  0.00    -0.003 C 
ATOM     65  C   UNL     1       8.750  -5.412  -2.897  1.00  0.00     0.004 C 
ENDBRANCH  63  64
ENDBRANCH  62  63
ENDBRANCH  61  62
ENDBRANCH  58  61
ENDBRANCH  56  57
BRANCH  56  66
ATOM     66  C   UNL     1      13.306  -4.326   1.371  1.00  0.00     0.157 C 
BRANCH  66  67
ATOM     67  C   UNL     1      11.804  -4.349   1.396  1.00  0.00     0.305 C 
ATOM     68  O   UNL     1      11.070  -5.039   0.705  1.00  0.00    -0.252 OA
BRANCH  67  69
ATOM     69  O   UNL     1      11.296  -3.530   2.336  1.00  0.00    -0.481 OA
ATOM     70  H   UNL     1      11.850  -3.686   3.130  1.00  0.00     0.296 HD
ENDBRANCH  67  69
ENDBRANCH  66  67
ENDBRANCH  56  66
ENDBRANCH  53  56
ENDBRANCH  50  52
ENDBRANCH  47  50
ENDBRANCH  45  46
BRANCH  45  71
ATOM     71  C   UNL     1      11.325  -5.345   5.587  1.00  0.00     0.037 C 
BRANCH  71  72
ATOM     72  C   UNL     1      12.186  -6.266   6.455  1.00  0.00     0.026 C 
BRANCH  72  73
ATOM     73  C   UNL     1      12.701  -7.464   5.660  1.00  0.00     0.146 C 
BRANCH  73  74
ATOM     74  N   UNL     1      12.648  -7.117   4.243  1.00  0.00    -0.254 NA
ATOM     75  C   UNL     1      12.213  -8.002   3.425  1.00  0.00     0.185 C 
ATOM     76  N   UNL     1      12.151  -7.712   2.116  1.00  0.00    -0.370 N 
ATOM     77  N   UNL     1      11.781  -9.250   3.681  1.00  0.00    -0.370 N 
ATOM     78  H   UNL     1      12.465  -6.794   1.835  1.00  0.00     0.159 HD
ATOM     79  H   UNL     1      11.961  -8.396   1.405  1.00  0.00     0.159 HD
ATOM     80  H   UNL     1      11.767  -9.604   4.626  1.00  0.00     0.159 HD
ATOM     81  H   UNL     1      11.351  -9.817   2.969  1.00  0.00     0.159 HD
ENDBRANCH  73  74
ENDBRANCH  72  73
ENDBRANCH  71  72
ENDBRANCH  45  71
ENDBRANCH   3  45
TORSDOF 20
ENDMDL
MODEL 10
REMARK VINA RESULT:    -5.433      4.086     12.280
REMARK INTER + INTRA:         -22.999
REMARK INTER:                 -17.242
REMARK INTRA:                  -5.758
REMARK UNBOUND:                -7.402
REMARK SMILES CCCCCC(=O)N[C@H](CC(=O)O)C(=O)N[C@H]1C(=O)N[C@H](CCCN=C(N)N)C(=O)N[C@@H]2CC[C@H](O)N(C2=O)[C@@H](CC(C)C)C(=O)N(C)[C@@H](Cc2ccccc2)C(=O)N[C@H](C(C)C)C(=O)O[C@@H]1C
REMARK SMILES IDX 30 1 31 2 29 3 32 5 35 6 37 7 34 8 38 9 33 10 39 11 36 12
REMARK SMILES IDX 40 14 41 15 42 16 43 17 44 18 45 19 46 20 47 21 48 22 49 23
REMARK SMILES IDX 50 24 51 25 52 26 56 27 53 28 55 29 54 30 57 31 58 32 59 33
REMARK SMILES IDX 60 35 61 36 62 37 63 38 64 39 65 40 66 41 67 42 68 43 21 45
REMARK SMILES IDX 20 46 18 47 19 48 17 50 16 52 14 53 15 54 9 56 8 57 6 58
REMARK SMILES IDX 7 59 5 61 4 62 3 63 2 64 1 65 10 66 11 67 12 68 13 69 22 71
REMARK SMILES IDX 23 72 24 73 25 74 26 75 27 76 28 77
REMARK H PARENT 31 4 36 13 59 34 20 49 16 55 8 60 13 70 27 78 27 79 28 80
REMARK H PARENT 28 81
REMARK Flexibility Score:  259.900
ROOT
ATOM      1  O   UNL     1       7.284  -2.289   2.106  1.00  0.00    -0.273 OA
ATOM      2  N   UNL     1       7.658  -4.302   1.087  1.00  0.00    -0.343 N 
ATOM      3  C   UNL     1       7.777  -3.417   2.137  1.00  0.00     0.243 C 
ATOM      4  H   UNL     1       8.064  -5.227   1.154  1.00  0.00     0.164 HD
ENDROOT
BRANCH   2   5
ATOM      5  C   UNL     1       7.035  -3.889  -0.166  1.00  0.00     0.171 C 
ATOM      6  C   UNL     1       6.586  -5.257  -2.682  1.00  0.00     0.214 C 
ATOM      7  N   UNL     1       7.799  -4.497  -2.494  1.00  0.00    -0.303 N 
ATOM      8  C   UNL     1       5.405  -4.710  -1.895  1.00  0.00     0.057 C 
ATOM      9  C   UNL     1       8.100  -3.862  -1.300  1.00  0.00     0.247 C 
ATOM     10  C   UNL     1       5.746  -4.668  -0.422  1.00  0.00     0.040 C 
ATOM     11  O   UNL     1       9.180  -3.285  -1.118  1.00  0.00    -0.272 OA
BRANCH   6  12
ATOM     12  O   UNL     1       6.850  -6.590  -2.309  1.00  0.00    -0.373 OA
ATOM     13  H   UNL     1       7.796  -6.634  -2.049  1.00  0.00     0.213 HD
ENDBRANCH   6  12
BRANCH   7  14
ATOM     14  C   UNL     1       8.794  -4.542  -3.586  1.00  0.00     0.177 C 
BRANCH  14  15
ATOM     15  C   UNL     1       9.692  -5.794  -3.606  1.00  0.00     0.038 C 
BRANCH  15  16
ATOM     16  C   UNL     1      11.040  -5.776  -2.853  1.00  0.00    -0.015 C 
ATOM     17  C   UNL     1      11.825  -4.483  -3.091  1.00  0.00     0.007 C 
ATOM     18  C   UNL     1      11.907  -6.956  -3.312  1.00  0.00     0.007 C 
ENDBRANCH  15  16
ENDBRANCH  14  15
BRANCH  14  19
ATOM     19  C   UNL     1       8.244  -3.800  -4.853  1.00  0.00     0.245 C 
ATOM     20  O   UNL     1       7.649  -4.495  -5.693  1.00  0.00    -0.272 OA
BRANCH  19  21
ATOM     21  N   UNL     1       8.481  -2.465  -5.129  1.00  0.00    -0.332 N 
ATOM     22  C   UNL     1       9.668  -1.723  -4.744  1.00  0.00     0.147 C 
BRANCH  21  23
ATOM     23  C   UNL     1       7.434  -1.712  -5.873  1.00  0.00     0.178 C 
BRANCH  23  24
ATOM     24  C   UNL     1       6.902  -0.459  -5.148  1.00  0.00     0.070 C 
BRANCH  24  25
ATOM     25  C   UNL     1       6.217  -0.672  -3.818  1.00  0.00    -0.045 A 
ATOM     26  C   UNL     1       4.905  -1.158  -3.756  1.00  0.00     0.004 A 
ATOM     27  C   UNL     1       6.889  -0.380  -2.621  1.00  0.00     0.004 A 
ATOM     28  C   UNL     1       4.273  -1.336  -2.523  1.00  0.00     0.000 A 
ATOM     29  C   UNL     1       6.256  -0.560  -1.390  1.00  0.00     0.000 A 
ATOM     30  C   UNL     1       4.948  -1.035  -1.342  1.00  0.00     0.000 A 
ENDBRANCH  24  25
ENDBRANCH  23  24
BRANCH  23  31
ATOM     31  C   UNL     1       7.787  -1.500  -7.364  1.00  0.00     0.243 C 
ATOM     32  O   UNL     1       8.911  -1.663  -7.834  1.00  0.00    -0.273 OA
ATOM     33  N   UNL     1       6.763  -0.928  -8.100  1.00  0.00    -0.341 N 
ATOM     34  H   UNL     1       5.851  -0.812  -7.652  1.00  0.00     0.164 HD
BRANCH  33  35
ATOM     35  C   UNL     1       6.913  -0.529  -9.502  1.00  0.00     0.194 C 
BRANCH  35  36
ATOM     36  C   UNL     1       5.805   0.437 -10.009  1.00  0.00     0.017 C 
ATOM     37  C   UNL     1       6.397   1.555 -10.884  1.00  0.00     0.010 C 
ATOM     38  C   UNL     1       5.023   1.108  -8.874  1.00  0.00     0.010 C 
ENDBRANCH  35  36
BRANCH  35  39
ATOM     39  C   UNL     1       7.103  -1.744 -10.452  1.00  0.00     0.329 C 
ATOM     40  O   UNL     1       6.373  -2.729 -10.462  1.00  0.00    -0.250 OA
BRANCH  39  41
ATOM     41  O   UNL     1       8.126  -1.556 -11.340  1.00  0.00    -0.458 OA
BRANCH  41  42
ATOM     42  C   UNL     1       7.825  -1.822 -12.731  1.00  0.00     0.205 CG0
ATOM     43  C   UNL     1       9.076  -2.435 -13.356  1.00  0.00     0.056 C 
ATOM     44  G   UNL     1       7.416  -0.499 -13.407  1.00  0.00     0.000 G0
ENDBRANCH  41  42
ENDBRANCH  39  41
ENDBRANCH  35  39
ENDBRANCH  33  35
ENDBRANCH  23  31
ENDBRANCH  21  23
ENDBRANCH  19  21
ENDBRANCH  14  19
ENDBRANCH   7  14
ENDBRANCH   2   5
BRANCH   3  45
ATOM     45  C   UNL     1       8.548  -3.942   3.355  1.00  0.00     0.171 C 
BRANCH  45  46
ATOM     46  N   UNL     1       7.762  -3.552   4.517  1.00  0.00    -0.342 N 
ATOM     47  C   UNL     1       7.716  -4.306   5.663  1.00  0.00     0.247 C 
ATOM     48  O   UNL     1       8.391  -5.324   5.820  1.00  0.00    -0.273 OA
ATOM     49  H   UNL     1       7.232  -2.685   4.451  1.00  0.00     0.164 HD
BRANCH  47  50
ATOM     50  C   UNL     1       6.738  -3.802   6.734  1.00  0.00     0.212 CG0
ATOM     51  G   UNL     1       7.511  -3.708   8.065  1.00  0.00     0.000 G0
BRANCH  50  52
ATOM     52  N   UNL     1       6.262  -2.509   6.250  1.00  0.00    -0.339 N 
ATOM     53  C   UNL     1       4.987  -2.301   5.783  1.00  0.00     0.243 C 
ATOM     54  O   UNL     1       4.161  -3.204   5.686  1.00  0.00    -0.273 OA
ATOM     55  H   UNL     1       6.934  -1.746   6.201  1.00  0.00     0.164 HD
BRANCH  53  56
ATOM     56  C   UNL     1       4.742  -0.876   5.245  1.00  0.00     0.182 C 
BRANCH  56  57
ATOM     57  N   UNL     1       4.469  -0.897   3.804  1.00  0.00    -0.344 N 
ATOM     58  C   UNL     1       3.193  -0.878   3.296  1.00  0.00     0.220 C 
ATOM     59  O   UNL     1       2.195  -0.915   4.008  1.00  0.00    -0.275 OA
ATOM     60  H   UNL     1       5.263  -0.764   3.183  1.00  0.00     0.164 HD
BRANCH  58  61
ATOM     61  C   UNL     1       3.150  -0.845   1.780  1.00  0.00     0.100 C 
BRANCH  61  62
ATOM     62  C   UNL     1       2.223   0.231   1.212  1.00  0.00     0.010 C 
BRANCH  62  63
ATOM     63  C   UNL     1       2.956   1.396   0.534  1.00  0.00     0.000 C 
BRANCH  63  64
ATOM     64  C   UNL     1       2.053   2.570   0.160  1.00  0.00    -0.003 C 
ATOM     65  C   UNL     1       1.018   2.167  -0.879  1.00  0.00     0.004 C 
ENDBRANCH  63  64
ENDBRANCH  62  63
ENDBRANCH  61  62
ENDBRANCH  58  61
ENDBRANCH  56  57
BRANCH  56  66
ATOM     66  C   UNL     1       5.893   0.063   5.600  1.00  0.00     0.157 C 
BRANCH  66  67
ATOM     67  C   UNL     1       5.383   1.396   6.068  1.00  0.00     0.305 C 
ATOM     68  O   UNL     1       4.658   2.160   5.450  1.00  0.00    -0.252 OA
BRANCH  67  69
ATOM     69  O   UNL     1       5.773   1.680   7.325  1.00  0.00    -0.481 OA
ATOM     70  H   UNL     1       6.319   2.491   7.240  1.00  0.00     0.296 HD
ENDBRANCH  67  69
ENDBRANCH  66  67
ENDBRANCH  56  66
ENDBRANCH  53  56
ENDBRANCH  50  52
ENDBRANCH  47  50
ENDBRANCH  45  46
BRANCH  45  71
ATOM     71  C   UNL     1       9.956  -3.339   3.396  1.00  0.00     0.037 C 
BRANCH  71  72
ATOM     72  C   UNL     1      11.044  -4.416   3.423  1.00  0.00     0.026 C 
BRANCH  72  73
ATOM     73  C   UNL     1      11.985  -4.233   4.612  1.00  0.00     0.146 C 
BRANCH  73  74
ATOM     74  N   UNL     1      11.566  -3.035   5.333  1.00  0.00    -0.254 NA
ATOM     75  C   UNL     1      11.054  -3.185   6.498  1.00  0.00     0.185 C 
ATOM     76  N   UNL     1      10.661  -2.101   7.187  1.00  0.00    -0.370 N 
ATOM     77  N   UNL     1      10.835  -4.320   7.185  1.00  0.00    -0.370 N 
ATOM     78  H   UNL     1      10.784  -1.205   6.738  1.00  0.00     0.159 HD
ATOM     79  H   UNL     1      10.124  -2.148   8.035  1.00  0.00     0.159 HD
ATOM     80  H   UNL     1      11.086  -5.214   6.792  1.00  0.00     0.159 HD
ATOM     81  H   UNL     1      10.532  -4.306   8.145  1.00  0.00     0.159 HD
ENDBRANCH  73  74
ENDBRANCH  72  73
ENDBRANCH  71  72
ENDBRANCH  45  71
ENDBRANCH   3  45
TORSDOF 20
ENDMDL
MODEL 11
REMARK VINA RESULT:    -5.433      5.191      8.756
REMARK INTER + INTRA:         -22.999
REMARK INTER:                 -16.031
REMARK INTRA:                  -6.968
REMARK UNBOUND:                -7.402
REMARK SMILES CCCCCC(=O)N[C@H](CC(=O)O)C(=O)N[C@H]1C(=O)N[C@H](CCCN=C(N)N)C(=O)N[C@@H]2CC[C@H](O)N(C2=O)[C@@H](CC(C)C)C(=O)N(C)[C@@H](Cc2ccccc2)C(=O)N[C@H](C(C)C)C(=O)O[C@@H]1C
REMARK SMILES IDX 30 1 31 2 29 3 32 5 35 6 37 7 34 8 38 9 33 10 39 11 36 12
REMARK SMILES IDX 40 14 41 15 42 16 43 17 44 18 45 19 46 20 47 21 48 22 49 23
REMARK SMILES IDX 50 24 51 25 52 26 56 27 53 28 55 29 54 30 57 31 58 32 59 33
REMARK SMILES IDX 60 35 61 36 62 37 63 38 64 39 65 40 66 41 67 42 68 43 21 45
REMARK SMILES IDX 20 46 18 47 19 48 17 50 16 52 14 53 15 54 9 56 8 57 6 58
REMARK SMILES IDX 7 59 5 61 4 62 3 63 2 64 1 65 10 66 11 67 12 68 13 69 22 71
REMARK SMILES IDX 23 72 24 73 25 74 26 75 27 76 28 77
REMARK H PARENT 31 4 36 13 59 34 20 49 16 55 8 60 13 70 27 78 27 79 28 80
REMARK H PARENT 28 81
REMARK Flexibility Score:  259.900
ROOT
ATOM      1  O   UNL     1       9.758  -2.034   2.912  1.00  0.00    -0.273 OA
ATOM      2  N   UNL     1       9.171   0.168   3.103  1.00  0.00    -0.343 N 
ATOM      3  C   UNL     1       9.831  -0.967   3.522  1.00  0.00     0.243 C 
ATOM      4  H   UNL     1       9.267   1.033   3.621  1.00  0.00     0.164 HD
ENDROOT
BRANCH   2   5
ATOM      5  C   UNL     1       8.253   0.118   1.970  1.00  0.00     0.171 C 
ATOM      6  C   UNL     1       6.320   2.008   0.923  1.00  0.00     0.214 C 
ATOM      7  N   UNL     1       5.901   1.033   1.903  1.00  0.00    -0.303 N 
ATOM      8  C   UNL     1       7.460   1.523   0.041  1.00  0.00     0.057 C 
ATOM      9  C   UNL     1       6.784   0.136   2.482  1.00  0.00     0.247 C 
ATOM     10  C   UNL     1       8.644   1.137   0.901  1.00  0.00     0.040 C 
ATOM     11  O   UNL     1       6.436  -0.638   3.383  1.00  0.00    -0.272 OA
BRANCH   6  12
ATOM     12  O   UNL     1       6.694   3.178   1.612  1.00  0.00    -0.373 OA
ATOM     13  H   UNL     1       6.989   2.904   2.506  1.00  0.00     0.213 HD
ENDBRANCH   6  12
BRANCH   7  14
ATOM     14  C   UNL     1       4.507   1.123   2.384  1.00  0.00     0.177 C 
BRANCH  14  15
ATOM     15  C   UNL     1       4.301   1.987   3.644  1.00  0.00     0.038 C 
BRANCH  15  16
ATOM     16  C   UNL     1       4.578   1.379   5.037  1.00  0.00    -0.015 C 
ATOM     17  C   UNL     1       3.728   0.135   5.311  1.00  0.00     0.007 C 
ATOM     18  C   UNL     1       4.276   2.417   6.125  1.00  0.00     0.007 C 
ENDBRANCH  15  16
ENDBRANCH  14  15
BRANCH  14  19
ATOM     19  C   UNL     1       3.509   1.026   1.179  1.00  0.00     0.245 C 
ATOM     20  O   UNL     1       3.567  -0.004   0.487  1.00  0.00    -0.272 OA
BRANCH  19  21
ATOM     21  N   UNL     1       2.666   2.052   0.790  1.00  0.00    -0.332 N 
ATOM     22  C   UNL     1       3.087   3.385   0.397  1.00  0.00     0.147 C 
BRANCH  21  23
ATOM     23  C   UNL     1       1.201   1.784   0.781  1.00  0.00     0.178 C 
BRANCH  23  24
ATOM     24  C   UNL     1       0.367   2.726   1.674  1.00  0.00     0.070 C 
BRANCH  24  25
ATOM     25  C   UNL     1       0.437   2.500   3.166  1.00  0.00    -0.045 A 
ATOM     26  C   UNL     1       0.790   3.542   4.034  1.00  0.00     0.004 A 
ATOM     27  C   UNL     1       0.153   1.236   3.705  1.00  0.00     0.004 A 
ATOM     28  C   UNL     1       0.869   3.321   5.410  1.00  0.00     0.000 A 
ATOM     29  C   UNL     1       0.232   1.017   5.081  1.00  0.00     0.000 A 
ATOM     30  C   UNL     1       0.593   2.059   5.932  1.00  0.00     0.000 A 
ENDBRANCH  24  25
ENDBRANCH  23  24
BRANCH  23  31
ATOM     31  C   UNL     1       0.636   1.567  -0.643  1.00  0.00     0.243 C 
ATOM     32  O   UNL     1       1.333   1.441  -1.647  1.00  0.00    -0.273 OA
ATOM     33  N   UNL     1      -0.738   1.712  -0.721  1.00  0.00    -0.341 N 
ATOM     34  H   UNL     1      -1.265   1.820   0.150  1.00  0.00     0.164 HD
BRANCH  33  35
ATOM     35  C   UNL     1      -1.476   1.667  -1.986  1.00  0.00     0.194 C 
BRANCH  35  36
ATOM     36  C   UNL     1      -2.159   3.009  -2.371  1.00  0.00     0.017 C 
ATOM     37  C   UNL     1      -1.336   3.775  -3.422  1.00  0.00     0.010 C 
ATOM     38  C   UNL     1      -2.364   3.948  -1.176  1.00  0.00     0.010 C 
ENDBRANCH  35  36
BRANCH  35  39
ATOM     39  C   UNL     1      -2.466   0.470  -2.059  1.00  0.00     0.329 C 
ATOM     40  O   UNL     1      -2.322  -0.577  -1.440  1.00  0.00    -0.250 OA
BRANCH  39  41
ATOM     41  O   UNL     1      -3.563   0.749  -2.826  1.00  0.00    -0.458 OA
BRANCH  41  42
ATOM     42  C   UNL     1      -3.508   0.315  -4.206  1.00  0.00     0.205 CG0
ATOM     43  C   UNL     1      -4.229   1.370  -5.042  1.00  0.00     0.056 C 
ATOM     44  G   UNL     1      -4.169  -1.073  -4.311  1.00  0.00     0.000 G0
ENDBRANCH  41  42
ENDBRANCH  39  41
ENDBRANCH  35  39
ENDBRANCH  33  35
ENDBRANCH  23  31
ENDBRANCH  21  23
ENDBRANCH  19  21
ENDBRANCH  14  19
ENDBRANCH   7  14
ENDBRANCH   2   5
BRANCH   3  45
ATOM     45  C   UNL     1      10.680  -0.803   4.790  1.00  0.00     0.171 C 
BRANCH  45  46
ATOM     46  N   UNL     1      11.215  -2.126   5.080  1.00  0.00    -0.342 N 
ATOM     47  C   UNL     1      12.322  -2.317   5.868  1.00  0.00     0.247 C 
ATOM     48  O   UNL     1      12.898  -1.394   6.446  1.00  0.00    -0.273 OA
ATOM     49  H   UNL     1      10.734  -2.924   4.667  1.00  0.00     0.164 HD
BRANCH  47  50
ATOM     50  C   UNL     1      12.812  -3.769   5.960  1.00  0.00     0.212 CG0
ATOM     51  G   UNL     1      13.441  -3.963   7.354  1.00  0.00     0.000 G0
BRANCH  50  52
ATOM     52  N   UNL     1      11.628  -4.595   5.741  1.00  0.00    -0.339 N 
ATOM     53  C   UNL     1      11.402  -5.781   6.396  1.00  0.00     0.243 C 
ATOM     54  O   UNL     1      12.211  -6.267   7.183  1.00  0.00    -0.273 OA
ATOM     55  H   UNL     1      10.974  -4.301   5.019  1.00  0.00     0.164 HD
BRANCH  53  56
ATOM     56  C   UNL     1      10.128  -6.519   5.937  1.00  0.00     0.182 C 
BRANCH  56  57
ATOM     57  N   UNL     1      10.462  -7.677   5.102  1.00  0.00    -0.344 N 
ATOM     58  C   UNL     1      10.563  -8.948   5.613  1.00  0.00     0.220 C 
ATOM     59  O   UNL     1      10.453  -9.193   6.809  1.00  0.00    -0.275 OA
ATOM     60  H   UNL     1      10.461  -7.534   4.096  1.00  0.00     0.164 HD
BRANCH  58  61
ATOM     61  C   UNL     1      10.859  -9.998   4.558  1.00  0.00     0.100 C 
BRANCH  61  62
ATOM     62  C   UNL     1      12.201  -9.801   3.853  1.00  0.00     0.010 C 
BRANCH  62  63
ATOM     63  C   UNL     1      13.407 -10.336   4.636  1.00  0.00     0.000 C 
BRANCH  63  64
ATOM     64  C   UNL     1      14.371  -9.253   5.119  1.00  0.00    -0.003 C 
ATOM     65  C   UNL     1      14.287  -9.067   6.627  1.00  0.00     0.004 C 
ENDBRANCH  63  64
ENDBRANCH  62  63
ENDBRANCH  61  62
ENDBRANCH  58  61
ENDBRANCH  56  57
BRANCH  56  66
ATOM     66  C   UNL     1       9.151  -5.571   5.245  1.00  0.00     0.157 C 
BRANCH  66  67
ATOM     67  C   UNL     1       9.145  -5.787   3.759  1.00  0.00     0.305 C 
ATOM     68  O   UNL     1       8.353  -6.464   3.120  1.00  0.00    -0.252 OA
BRANCH  67  69
ATOM     69  O   UNL     1      10.115  -5.091   3.136  1.00  0.00    -0.481 OA
ATOM     70  H   UNL     1       9.712  -4.804   2.289  1.00  0.00     0.296 HD
ENDBRANCH  67  69
ENDBRANCH  66  67
ENDBRANCH  56  66
ENDBRANCH  53  56
ENDBRANCH  50  52
ENDBRANCH  47  50
ENDBRANCH  45  46
BRANCH  45  71
ATOM     71  C   UNL     1       9.821  -0.275   5.944  1.00  0.00     0.037 C 
BRANCH  71  72
ATOM     72  C   UNL     1       8.817  -1.319   6.438  1.00  0.00     0.026 C 
BRANCH  72  73
ATOM     73  C   UNL     1       7.390  -0.774   6.424  1.00  0.00     0.146 C 
BRANCH  73  74
ATOM     74  N   UNL     1       6.539  -1.734   7.122  1.00  0.00    -0.254 NA
ATOM     75  C   UNL     1       6.018  -2.682   6.435  1.00  0.00     0.185 C 
ATOM     76  N   UNL     1       5.231  -3.581   7.048  1.00  0.00    -0.370 N 
ATOM     77  N   UNL     1       6.139  -2.939   5.121  1.00  0.00    -0.370 N 
ATOM     78  H   UNL     1       5.081  -3.457   8.039  1.00  0.00     0.159 HD
ATOM     79  H   UNL     1       4.677  -4.259   6.556  1.00  0.00     0.159 HD
ATOM     80  H   UNL     1       6.705  -2.347   4.532  1.00  0.00     0.159 HD
ATOM     81  H   UNL     1       5.774  -3.783   4.711  1.00  0.00     0.159 HD
ENDBRANCH  73  74
ENDBRANCH  72  73
ENDBRANCH  71  72
ENDBRANCH  45  71
ENDBRANCH   3  45
TORSDOF 20
ENDMDL
MODEL 12
REMARK VINA RESULT:    -5.421      3.650      6.079
REMARK INTER + INTRA:         -22.963
REMARK INTER:                 -15.442
REMARK INTRA:                  -7.521
REMARK UNBOUND:                -7.402
REMARK SMILES CCCCCC(=O)N[C@H](CC(=O)O)C(=O)N[C@H]1C(=O)N[C@H](CCCN=C(N)N)C(=O)N[C@@H]2CC[C@H](O)N(C2=O)[C@@H](CC(C)C)C(=O)N(C)[C@@H](Cc2ccccc2)C(=O)N[C@H](C(C)C)C(=O)O[C@@H]1C
REMARK SMILES IDX 30 1 31 2 29 3 32 5 35 6 37 7 34 8 38 9 33 10 39 11 36 12
REMARK SMILES IDX 40 14 41 15 42 16 43 17 44 18 45 19 46 20 47 21 48 22 49 23
REMARK SMILES IDX 50 24 51 25 52 26 56 27 53 28 55 29 54 30 57 31 58 32 59 33
REMARK SMILES IDX 60 35 61 36 62 37 63 38 64 39 65 40 66 41 67 42 68 43 21 45
REMARK SMILES IDX 20 46 18 47 19 48 17 50 16 52 14 53 15 54 9 56 8 57 6 58
REMARK SMILES IDX 7 59 5 61 4 62 3 63 2 64 1 65 10 66 11 67 12 68 13 69 22 71
REMARK SMILES IDX 23 72 24 73 25 74 26 75 27 76 28 77
REMARK H PARENT 31 4 36 13 59 34 20 49 16 55 8 60 13 70 27 78 27 79 28 80
REMARK H PARENT 28 81
REMARK Flexibility Score:  259.900
ROOT
ATOM      1  O   UNL     1       7.656  -3.462   3.896  1.00  0.00    -0.273 OA
ATOM      2  N   UNL     1       8.659  -2.876   5.866  1.00  0.00    -0.343 N 
ATOM      3  C   UNL     1       8.659  -3.443   4.610  1.00  0.00     0.243 C 
ATOM      4  H   UNL     1       9.507  -2.866   6.419  1.00  0.00     0.164 HD
ENDROOT
BRANCH   2   5
ATOM      5  C   UNL     1       7.422  -2.374   6.454  1.00  0.00     0.171 C 
ATOM      6  C   UNL     1       4.780  -1.897   5.360  1.00  0.00     0.214 C 
ATOM      7  N   UNL     1       5.755  -0.831   5.353  1.00  0.00    -0.303 N 
ATOM      8  C   UNL     1       4.956  -2.866   6.518  1.00  0.00     0.057 C 
ATOM      9  C   UNL     1       7.050  -1.007   5.813  1.00  0.00     0.247 C 
ATOM     10  C   UNL     1       6.348  -3.461   6.481  1.00  0.00     0.040 C 
ATOM     11  O   UNL     1       7.904  -0.115   5.724  1.00  0.00    -0.272 OA
BRANCH   6  12
ATOM     12  O   UNL     1       4.875  -2.577   4.130  1.00  0.00    -0.373 OA
ATOM     13  H   UNL     1       5.326  -3.430   4.307  1.00  0.00     0.213 HD
ENDBRANCH   6  12
BRANCH   7  14
ATOM     14  C   UNL     1       5.362   0.432   4.694  1.00  0.00     0.177 C 
BRANCH  14  15
ATOM     15  C   UNL     1       5.429   0.417   3.154  1.00  0.00     0.038 C 
BRANCH  15  16
ATOM     16  C   UNL     1       4.831   1.596   2.355  1.00  0.00    -0.015 C 
ATOM     17  C   UNL     1       3.752   1.144   1.366  1.00  0.00     0.007 C 
ATOM     18  C   UNL     1       5.940   2.302   1.565  1.00  0.00     0.007 C 
ENDBRANCH  15  16
ENDBRANCH  14  15
BRANCH  14  19
ATOM     19  C   UNL     1       4.278   1.177   5.547  1.00  0.00     0.245 C 
ATOM     20  O   UNL     1       4.642   1.618   6.650  1.00  0.00    -0.272 OA
BRANCH  19  21
ATOM     21  N   UNL     1       2.944   1.266   5.192  1.00  0.00    -0.332 N 
ATOM     22  C   UNL     1       2.144   0.185   4.644  1.00  0.00     0.147 C 
BRANCH  21  23
ATOM     23  C   UNL     1       2.262   2.577   5.372  1.00  0.00     0.178 C 
BRANCH  23  24
ATOM     24  C   UNL     1       1.700   3.195   4.075  1.00  0.00     0.070 C 
BRANCH  24  25
ATOM     25  C   UNL     1       2.621   4.096   3.287  1.00  0.00    -0.045 A 
ATOM     26  C   UNL     1       3.811   4.575   3.849  1.00  0.00     0.004 A 
ATOM     27  C   UNL     1       2.292   4.471   1.975  1.00  0.00     0.004 A 
ATOM     28  C   UNL     1       4.649   5.421   3.120  1.00  0.00     0.000 A 
ATOM     29  C   UNL     1       3.131   5.316   1.247  1.00  0.00     0.000 A 
ATOM     30  C   UNL     1       4.308   5.793   1.822  1.00  0.00     0.000 A 
ENDBRANCH  24  25
ENDBRANCH  23  24
BRANCH  23  31
ATOM     31  C   UNL     1       1.290   2.592   6.576  1.00  0.00     0.243 C 
ATOM     32  O   UNL     1       1.642   2.461   7.745  1.00  0.00    -0.273 OA
ATOM     33  N   UNL     1      -0.045   2.579   6.208  1.00  0.00    -0.341 N 
ATOM     34  H   UNL     1      -0.277   2.685   5.218  1.00  0.00     0.164 HD
BRANCH  33  35
ATOM     35  C   UNL     1      -1.139   2.472   7.178  1.00  0.00     0.194 C 
BRANCH  35  36
ATOM     36  C   UNL     1      -2.052   1.231   6.970  1.00  0.00     0.017 C 
ATOM     37  C   UNL     1      -2.377   0.545   8.308  1.00  0.00     0.010 C 
ATOM     38  C   UNL     1      -1.433   0.172   6.050  1.00  0.00     0.010 C 
ENDBRANCH  35  36
BRANCH  35  39
ATOM     39  C   UNL     1      -1.963   3.785   7.297  1.00  0.00     0.329 C 
ATOM     40  O   UNL     1      -1.514   4.839   7.732  1.00  0.00    -0.250 OA
BRANCH  39  41
ATOM     41  O   UNL     1      -3.223   3.657   6.781  1.00  0.00    -0.458 OA
BRANCH  41  42
ATOM     42  C   UNL     1      -4.279   4.348   7.490  1.00  0.00     0.205 CG0
ATOM     43  C   UNL     1      -4.803   3.397   8.564  1.00  0.00     0.056 C 
ATOM     44  G   UNL     1      -5.369   4.751   6.477  1.00  0.00     0.000 G0
ENDBRANCH  41  42
ENDBRANCH  39  41
ENDBRANCH  35  39
ENDBRANCH  33  35
ENDBRANCH  23  31
ENDBRANCH  21  23
ENDBRANCH  19  21
ENDBRANCH  14  19
ENDBRANCH   7  14
ENDBRANCH   2   5
BRANCH   3  45
ATOM     45  C   UNL     1      10.001  -4.030   4.154  1.00  0.00     0.171 C 
BRANCH  45  46
ATOM     46  N   UNL     1      11.025  -3.257   4.845  1.00  0.00    -0.342 N 
ATOM     47  C   UNL     1      12.221  -3.802   5.237  1.00  0.00     0.247 C 
ATOM     48  O   UNL     1      12.547  -4.960   4.971  1.00  0.00    -0.273 OA
ATOM     49  H   UNL     1      10.819  -2.278   5.035  1.00  0.00     0.164 HD
BRANCH  47  50
ATOM     50  C   UNL     1      13.121  -2.871   6.061  1.00  0.00     0.212 CG0
ATOM     51  G   UNL     1      14.585  -3.246   5.757  1.00  0.00     0.000 G0
BRANCH  50  52
ATOM     52  N   UNL     1      12.772  -1.517   5.638  1.00  0.00    -0.339 N 
ATOM     53  C   UNL     1      11.749  -0.791   6.197  1.00  0.00     0.243 C 
ATOM     54  O   UNL     1      11.010  -1.248   7.065  1.00  0.00    -0.273 OA
ATOM     55  H   UNL     1      13.277  -1.125   4.846  1.00  0.00     0.164 HD
BRANCH  53  56
ATOM     56  C   UNL     1      11.513   0.578   5.528  1.00  0.00     0.182 C 
BRANCH  56  57
ATOM     57  N   UNL     1      10.392   0.518   4.584  1.00  0.00    -0.344 N 
ATOM     58  C   UNL     1      10.454  -0.198   3.413  1.00  0.00     0.220 C 
ATOM     59  O   UNL     1      11.471  -0.773   3.040  1.00  0.00    -0.275 OA
ATOM     60  H   UNL     1       9.502   0.893   4.901  1.00  0.00     0.164 HD
BRANCH  58  61
ATOM     61  C   UNL     1       9.160  -0.168   2.621  1.00  0.00     0.100 C 
BRANCH  61  62
ATOM     62  C   UNL     1       9.294  -0.718   1.201  1.00  0.00     0.010 C 
BRANCH  62  63
ATOM     63  C   UNL     1       8.089  -0.425   0.298  1.00  0.00     0.000 C 
BRANCH  63  64
ATOM     64  C   UNL     1       6.941  -1.423   0.442  1.00  0.00    -0.003 C 
ATOM     65  C   UNL     1       5.915  -1.252  -0.669  1.00  0.00     0.004 C 
ENDBRANCH  63  64
ENDBRANCH  62  63
ENDBRANCH  61  62
ENDBRANCH  58  61
ENDBRANCH  56  57
BRANCH  56  66
ATOM     66  C   UNL     1      12.788   1.110   4.876  1.00  0.00     0.157 C 
BRANCH  66  67
ATOM     67  C   UNL     1      13.212   2.412   5.491  1.00  0.00     0.305 C 
ATOM     68  O   UNL     1      13.296   3.494   4.931  1.00  0.00    -0.252 OA
BRANCH  67  69
ATOM     69  O   UNL     1      13.462   2.298   6.809  1.00  0.00    -0.481 OA
ATOM     70  H   UNL     1      13.921   1.436   6.903  1.00  0.00     0.296 HD
ENDBRANCH  67  69
ENDBRANCH  66  67
ENDBRANCH  56  66
ENDBRANCH  53  56
ENDBRANCH  50  52
ENDBRANCH  47  50
ENDBRANCH  45  46
BRANCH  45  71
ATOM     71  C   UNL     1      10.142  -3.922   2.632  1.00  0.00     0.037 C 
BRANCH  71  72
ATOM     72  C   UNL     1       9.305  -4.974   1.900  1.00  0.00     0.026 C 
BRANCH  72  73
ATOM     73  C   UNL     1       8.827  -4.464   0.542  1.00  0.00     0.146 C 
BRANCH  73  74
ATOM     74  N   UNL     1       7.675  -5.267   0.143  1.00  0.00    -0.254 NA
ATOM     75  C   UNL     1       7.212  -5.103  -1.041  1.00  0.00     0.185 C 
ATOM     76  N   UNL     1       6.154  -5.828  -1.437  1.00  0.00    -0.370 N 
ATOM     77  N   UNL     1       7.639  -4.272  -2.008  1.00  0.00    -0.370 N 
ATOM     78  H   UNL     1       5.764  -6.475  -0.766  1.00  0.00     0.159 HD
ATOM     79  H   UNL     1       5.650  -5.653  -2.289  1.00  0.00     0.159 HD
ATOM     80  H   UNL     1       8.431  -3.667  -1.852  1.00  0.00     0.159 HD
ATOM     81  H   UNL     1       7.266  -4.313  -2.942  1.00  0.00     0.159 HD
ENDBRANCH  73  74
ENDBRANCH  72  73
ENDBRANCH  71  72
ENDBRANCH  45  71
ENDBRANCH   3  45
TORSDOF 20
ENDMDL
MODEL 13
REMARK VINA RESULT:    -5.349      4.048      8.385
REMARK INTER + INTRA:         -22.758
REMARK INTER:                 -16.244
REMARK INTRA:                  -6.515
REMARK UNBOUND:                -7.402
REMARK SMILES CCCCCC(=O)N[C@H](CC(=O)O)C(=O)N[C@H]1C(=O)N[C@H](CCCN=C(N)N)C(=O)N[C@@H]2CC[C@H](O)N(C2=O)[C@@H](CC(C)C)C(=O)N(C)[C@@H](Cc2ccccc2)C(=O)N[C@H](C(C)C)C(=O)O[C@@H]1C
REMARK SMILES IDX 30 1 31 2 29 3 32 5 35 6 37 7 34 8 38 9 33 10 39 11 36 12
REMARK SMILES IDX 40 14 41 15 42 16 43 17 44 18 45 19 46 20 47 21 48 22 49 23
REMARK SMILES IDX 50 24 51 25 52 26 56 27 53 28 55 29 54 30 57 31 58 32 59 33
REMARK SMILES IDX 60 35 61 36 62 37 63 38 64 39 65 40 66 41 67 42 68 43 21 45
REMARK SMILES IDX 20 46 18 47 19 48 17 50 16 52 14 53 15 54 9 56 8 57 6 58
REMARK SMILES IDX 7 59 5 61 4 62 3 63 2 64 1 65 10 66 11 67 12 68 13 69 22 71
REMARK SMILES IDX 23 72 24 73 25 74 26 75 27 76 28 77
REMARK H PARENT 31 4 36 13 59 34 20 49 16 55 8 60 13 70 27 78 27 79 28 80
REMARK H PARENT 28 81
REMARK Flexibility Score:  259.900
ROOT
ATOM      1  O   UNL     1       9.060  -5.623   1.498  1.00  0.00    -0.273 OA
ATOM      2  N   UNL     1       9.368  -4.561  -0.504  1.00  0.00    -0.343 N 
ATOM      3  C   UNL     1       9.798  -5.011   0.726  1.00  0.00     0.243 C 
ATOM      4  H   UNL     1      10.007  -4.073  -1.119  1.00  0.00     0.164 HD
ENDROOT
BRANCH   2   5
ATOM      5  C   UNL     1       7.968  -4.691  -0.894  1.00  0.00     0.171 C 
ATOM      6  C   UNL     1       6.515  -3.923  -3.283  1.00  0.00     0.214 C 
ATOM      7  N   UNL     1       6.604  -2.998  -2.177  1.00  0.00    -0.303 N 
ATOM      8  C   UNL     1       6.548  -5.381  -2.851  1.00  0.00     0.057 C 
ATOM      9  C   UNL     1       7.324  -3.281  -1.028  1.00  0.00     0.247 C 
ATOM     10  C   UNL     1       7.814  -5.656  -2.069  1.00  0.00     0.040 C 
ATOM     11  O   UNL     1       7.468  -2.450  -0.122  1.00  0.00    -0.272 OA
BRANCH   6  12
ATOM     12  O   UNL     1       7.580  -3.646  -4.163  1.00  0.00    -0.373 OA
ATOM     13  H   UNL     1       7.607  -4.375  -4.819  1.00  0.00     0.213 HD
ENDBRANCH   6  12
BRANCH   7  14
ATOM     14  C   UNL     1       6.012  -1.658  -2.375  1.00  0.00     0.177 C 
BRANCH  14  15
ATOM     15  C   UNL     1       6.386  -0.965  -3.699  1.00  0.00     0.038 C 
BRANCH  15  16
ATOM     16  C   UNL     1       7.415   0.187  -3.691  1.00  0.00    -0.015 C 
ATOM     17  C   UNL     1       6.988   1.360  -4.578  1.00  0.00     0.007 C 
ATOM     18  C   UNL     1       8.771  -0.326  -4.193  1.00  0.00     0.007 C 
ENDBRANCH  15  16
ENDBRANCH  14  15
BRANCH  14  19
ATOM     19  C   UNL     1       4.615  -1.572  -1.669  1.00  0.00     0.245 C 
ATOM     20  O   UNL     1       3.993  -2.638  -1.527  1.00  0.00    -0.272 OA
BRANCH  19  21
ATOM     21  N   UNL     1       4.006  -0.383  -1.308  1.00  0.00    -0.332 N 
ATOM     22  C   UNL     1       3.628   0.682  -2.220  1.00  0.00     0.147 C 
BRANCH  21  23
ATOM     23  C   UNL     1       3.717  -0.160   0.136  1.00  0.00     0.178 C 
BRANCH  23  24
ATOM     24  C   UNL     1       4.960  -0.155   1.049  1.00  0.00     0.070 C 
BRANCH  24  25
ATOM     25  C   UNL     1       4.719  -0.191   2.541  1.00  0.00    -0.045 A 
ATOM     26  C   UNL     1       4.191  -1.334   3.155  1.00  0.00     0.004 A 
ATOM     27  C   UNL     1       5.017   0.928   3.333  1.00  0.00     0.004 A 
ATOM     28  C   UNL     1       3.955  -1.353   4.531  1.00  0.00     0.000 A 
ATOM     29  C   UNL     1       4.782   0.906   4.709  1.00  0.00     0.000 A 
ATOM     30  C   UNL     1       4.248  -0.234   5.306  1.00  0.00     0.000 A 
ENDBRANCH  24  25
ENDBRANCH  23  24
BRANCH  23  31
ATOM     31  C   UNL     1       2.724   1.001   0.381  1.00  0.00     0.243 C 
ATOM     32  O   UNL     1       3.061   2.173   0.528  1.00  0.00    -0.273 OA
ATOM     33  N   UNL     1       1.425   0.579   0.606  1.00  0.00    -0.341 N 
ATOM     34  H   UNL     1       1.206  -0.411   0.474  1.00  0.00     0.164 HD
BRANCH  33  35
ATOM     35  C   UNL     1       0.341   1.494   0.976  1.00  0.00     0.194 C 
BRANCH  35  36
ATOM     36  C   UNL     1       0.005   1.499   2.494  1.00  0.00     0.017 C 
ATOM     37  C   UNL     1       0.258   2.883   3.118  1.00  0.00     0.010 C 
ATOM     38  C   UNL     1       0.819   0.478   3.297  1.00  0.00     0.010 C 
ENDBRANCH  35  36
BRANCH  35  39
ATOM     39  C   UNL     1      -0.929   1.300   0.101  1.00  0.00     0.329 C 
ATOM     40  O   UNL     1      -1.162   0.293  -0.557  1.00  0.00    -0.250 OA
BRANCH  39  41
ATOM     41  O   UNL     1      -1.804   2.345   0.216  1.00  0.00    -0.458 OA
BRANCH  41  42
ATOM     42  C   UNL     1      -3.211   2.014   0.134  1.00  0.00     0.205 CG0
ATOM     43  C   UNL     1      -3.691   2.414  -1.259  1.00  0.00     0.056 C 
ATOM     44  G   UNL     1      -3.959   2.766   1.254  1.00  0.00     0.000 G0
ENDBRANCH  41  42
ENDBRANCH  39  41
ENDBRANCH  35  39
ENDBRANCH  33  35
ENDBRANCH  23  31
ENDBRANCH  21  23
ENDBRANCH  19  21
ENDBRANCH  14  19
ENDBRANCH   7  14
ENDBRANCH   2   5
BRANCH   3  45
ATOM     45  C   UNL     1      11.267  -4.714   1.057  1.00  0.00     0.171 C 
BRANCH  45  46
ATOM     46  N   UNL     1      11.733  -5.854   1.835  1.00  0.00    -0.342 N 
ATOM     47  C   UNL     1      12.622  -6.772   1.337  1.00  0.00     0.247 C 
ATOM     48  O   UNL     1      13.146  -6.661   0.227  1.00  0.00    -0.273 OA
ATOM     49  H   UNL     1      11.367  -5.953   2.781  1.00  0.00     0.164 HD
BRANCH  47  50
ATOM     50  C   UNL     1      12.901  -7.971   2.254  1.00  0.00     0.212 CG0
ATOM     51  G   UNL     1      14.321  -7.799   2.830  1.00  0.00     0.000 G0
BRANCH  50  52
ATOM     52  N   UNL     1      11.856  -7.934   3.273  1.00  0.00    -0.339 N 
ATOM     53  C   UNL     1      12.095  -7.619   4.589  1.00  0.00     0.243 C 
ATOM     54  O   UNL     1      13.222  -7.396   5.022  1.00  0.00    -0.273 OA
ATOM     55  H   UNL     1      10.918  -8.218   2.999  1.00  0.00     0.164 HD
BRANCH  53  56
ATOM     56  C   UNL     1      10.853  -7.729   5.496  1.00  0.00     0.182 C 
BRANCH  56  57
ATOM     57  N   UNL     1      10.379  -6.402   5.902  1.00  0.00    -0.344 N 
ATOM     58  C   UNL     1       9.230  -5.844   5.396  1.00  0.00     0.220 C 
ATOM     59  O   UNL     1       8.562  -6.381   4.519  1.00  0.00    -0.275 OA
ATOM     60  H   UNL     1      10.844  -5.970   6.696  1.00  0.00     0.164 HD
BRANCH  58  61
ATOM     61  C   UNL     1       8.901  -4.492   6.001  1.00  0.00     0.100 C 
BRANCH  61  62
ATOM     62  C   UNL     1       7.711  -3.795   5.341  1.00  0.00     0.010 C 
BRANCH  62  63
ATOM     63  C   UNL     1       7.471  -2.362   5.834  1.00  0.00     0.000 C 
BRANCH  63  64
ATOM     64  C   UNL     1       7.916  -1.279   4.852  1.00  0.00    -0.003 C 
ATOM     65  C   UNL     1       7.968  -1.809   3.427  1.00  0.00     0.004 C 
ENDBRANCH  63  64
ENDBRANCH  62  63
ENDBRANCH  61  62
ENDBRANCH  58  61
ENDBRANCH  56  57
BRANCH  56  66
ATOM     66  C   UNL     1      11.113  -8.640   6.694  1.00  0.00     0.157 C 
BRANCH  66  67
ATOM     67  C   UNL     1      10.757  -7.958   7.984  1.00  0.00     0.305 C 
ATOM     68  O   UNL     1      11.496  -7.283   8.684  1.00  0.00    -0.252 OA
BRANCH  67  69
ATOM     69  O   UNL     1       9.459  -8.118   8.306  1.00  0.00    -0.481 OA
ATOM     70  H   UNL     1       9.041  -7.258   8.092  1.00  0.00     0.296 HD
ENDBRANCH  67  69
ENDBRANCH  66  67
ENDBRANCH  56  66
ENDBRANCH  53  56
ENDBRANCH  50  52
ENDBRANCH  47  50
ENDBRANCH  45  46
BRANCH  45  71
ATOM     71  C   UNL     1      11.382  -3.405   1.845  1.00  0.00     0.037 C 
BRANCH  71  72
ATOM     72  C   UNL     1      11.657  -3.651   3.331  1.00  0.00     0.026 C 
BRANCH  72  73
ATOM     73  C   UNL     1      12.976  -3.017   3.769  1.00  0.00     0.146 C 
BRANCH  73  74
ATOM     74  N   UNL     1      12.674  -2.009   4.781  1.00  0.00    -0.254 NA
ATOM     75  C   UNL     1      13.152  -2.180   5.958  1.00  0.00     0.185 C 
ATOM     76  N   UNL     1      12.892  -1.269   6.910  1.00  0.00    -0.370 N 
ATOM     77  N   UNL     1      13.918  -3.183   6.422  1.00  0.00    -0.370 N 
ATOM     78  H   UNL     1      12.315  -0.484   6.646  1.00  0.00     0.159 HD
ATOM     79  H   UNL     1      13.108  -1.407   7.882  1.00  0.00     0.159 HD
ATOM     80  H   UNL     1      14.197  -3.939   5.815  1.00  0.00     0.159 HD
ATOM     81  H   UNL     1      14.331  -3.152   7.339  1.00  0.00     0.159 HD
ENDBRANCH  73  74
ENDBRANCH  72  73
ENDBRANCH  71  72
ENDBRANCH  45  71
ENDBRANCH   3  45
TORSDOF 20
ENDMDL
MODEL 14
REMARK VINA RESULT:    -5.327      4.409     12.433
REMARK INTER + INTRA:         -22.695
REMARK INTER:                 -16.011
REMARK INTRA:                  -6.684
REMARK UNBOUND:                -7.402
REMARK SMILES CCCCCC(=O)N[C@H](CC(=O)O)C(=O)N[C@H]1C(=O)N[C@H](CCCN=C(N)N)C(=O)N[C@@H]2CC[C@H](O)N(C2=O)[C@@H](CC(C)C)C(=O)N(C)[C@@H](Cc2ccccc2)C(=O)N[C@H](C(C)C)C(=O)O[C@@H]1C
REMARK SMILES IDX 30 1 31 2 29 3 32 5 35 6 37 7 34 8 38 9 33 10 39 11 36 12
REMARK SMILES IDX 40 14 41 15 42 16 43 17 44 18 45 19 46 20 47 21 48 22 49 23
REMARK SMILES IDX 50 24 51 25 52 26 56 27 53 28 55 29 54 30 57 31 58 32 59 33
REMARK SMILES IDX 60 35 61 36 62 37 63 38 64 39 65 40 66 41 67 42 68 43 21 45
REMARK SMILES IDX 20 46 18 47 19 48 17 50 16 52 14 53 15 54 9 56 8 57 6 58
REMARK SMILES IDX 7 59 5 61 4 62 3 63 2 64 1 65 10 66 11 67 12 68 13 69 22 71
REMARK SMILES IDX 23 72 24 73 25 74 26 75 27 76 28 77
REMARK H PARENT 31 4 36 13 59 34 20 49 16 55 8 60 13 70 27 78 27 79 28 80
REMARK H PARENT 28 81
REMARK Flexibility Score:  259.900
ROOT
ATOM      1  O   UNL     1       6.693  -2.021   1.639  1.00  0.00    -0.273 OA
ATOM      2  N   UNL     1       6.942  -4.102   0.723  1.00  0.00    -0.343 N 
ATOM      3  C   UNL     1       7.037  -3.197   1.759  1.00  0.00     0.243 C 
ATOM      4  H   UNL     1       7.220  -5.065   0.862  1.00  0.00     0.164 HD
ENDROOT
BRANCH   2   5
ATOM      5  C   UNL     1       6.535  -3.666  -0.608  1.00  0.00     0.171 C 
ATOM      6  C   UNL     1       6.411  -5.023  -3.167  1.00  0.00     0.214 C 
ATOM      7  N   UNL     1       7.615  -4.316  -2.795  1.00  0.00    -0.303 N 
ATOM      8  C   UNL     1       5.150  -4.421  -2.567  1.00  0.00     0.057 C 
ATOM      9  C   UNL     1       7.759  -3.690  -1.568  1.00  0.00     0.247 C 
ATOM     10  C   UNL     1       5.266  -4.388  -1.058  1.00  0.00     0.040 C 
ATOM     11  O   UNL     1       8.824  -3.161  -1.222  1.00  0.00    -0.272 OA
BRANCH   6  12
ATOM     12  O   UNL     1       6.557  -6.364  -2.763  1.00  0.00    -0.373 OA
ATOM     13  H   UNL     1       7.330  -6.400  -2.159  1.00  0.00     0.213 HD
ENDBRANCH   6  12
BRANCH   7  14
ATOM     14  C   UNL     1       8.760  -4.408  -3.725  1.00  0.00     0.177 C 
BRANCH  14  15
ATOM     15  C   UNL     1       9.663  -5.642  -3.533  1.00  0.00     0.038 C 
BRANCH  15  16
ATOM     16  C   UNL     1      11.065  -5.470  -2.906  1.00  0.00    -0.015 C 
ATOM     17  C   UNL     1      12.028  -6.588  -3.314  1.00  0.00     0.007 C 
ATOM     18  C   UNL     1      10.952  -5.466  -1.377  1.00  0.00     0.007 C 
ENDBRANCH  15  16
ENDBRANCH  14  15
BRANCH  14  19
ATOM     19  C   UNL     1       8.396  -3.757  -5.103  1.00  0.00     0.245 C 
ATOM     20  O   UNL     1       7.841  -4.489  -5.939  1.00  0.00    -0.272 OA
BRANCH  19  21
ATOM     21  N   UNL     1       8.755  -2.471  -5.467  1.00  0.00    -0.332 N 
ATOM     22  C   UNL     1       9.949  -1.772  -5.026  1.00  0.00     0.147 C 
BRANCH  21  23
ATOM     23  C   UNL     1       7.843  -1.726  -6.379  1.00  0.00     0.178 C 
BRANCH  23  24
ATOM     24  C   UNL     1       6.716  -0.948  -5.670  1.00  0.00     0.070 C 
BRANCH  24  25
ATOM     25  C   UNL     1       7.101  -0.124  -4.464  1.00  0.00    -0.045 A 
ATOM     26  C   UNL     1       7.452   1.226  -4.598  1.00  0.00     0.004 A 
ATOM     27  C   UNL     1       7.118  -0.705  -3.187  1.00  0.00     0.004 A 
ATOM     28  C   UNL     1       7.823   1.975  -3.480  1.00  0.00     0.000 A 
ATOM     29  C   UNL     1       7.489   0.046  -2.070  1.00  0.00     0.000 A 
ATOM     30  C   UNL     1       7.844   1.385  -2.218  1.00  0.00     0.000 A 
ENDBRANCH  24  25
ENDBRANCH  23  24
BRANCH  23  31
ATOM     31  C   UNL     1       8.599  -0.929  -7.470  1.00  0.00     0.243 C 
ATOM     32  O   UNL     1       8.355   0.240  -7.759  1.00  0.00    -0.273 OA
ATOM     33  N   UNL     1       9.457  -1.707  -8.228  1.00  0.00    -0.341 N 
ATOM     34  H   UNL     1       9.615  -2.676  -7.941  1.00  0.00     0.164 HD
BRANCH  33  35
ATOM     35  C   UNL     1      10.186  -1.192  -9.390  1.00  0.00     0.194 C 
BRANCH  35  36
ATOM     36  C   UNL     1      10.804   0.219  -9.177  1.00  0.00     0.017 C 
ATOM     37  C   UNL     1      11.390   0.777 -10.486  1.00  0.00     0.010 C 
ATOM     38  C   UNL     1      11.923   0.237  -8.129  1.00  0.00     0.010 C 
ENDBRANCH  35  36
BRANCH  35  39
ATOM     39  C   UNL     1       9.354  -1.269 -10.700  1.00  0.00     0.329 C 
ATOM     40  O   UNL     1       8.379  -0.566 -10.937  1.00  0.00    -0.250 OA
BRANCH  39  41
ATOM     41  O   UNL     1       9.884  -2.152 -11.601  1.00  0.00    -0.458 OA
BRANCH  41  42
ATOM     42  C   UNL     1       9.829  -1.758 -12.993  1.00  0.00     0.205 CG0
ATOM     43  C   UNL     1       9.021  -2.821 -13.734  1.00  0.00     0.056 C 
ATOM     44  G   UNL     1      11.270  -1.634 -13.526  1.00  0.00     0.000 G0
ENDBRANCH  41  42
ENDBRANCH  39  41
ENDBRANCH  35  39
ENDBRANCH  33  35
ENDBRANCH  23  31
ENDBRANCH  21  23
ENDBRANCH  19  21
ENDBRANCH  14  19
ENDBRANCH   7  14
ENDBRANCH   2   5
BRANCH   3  45
ATOM     45  C   UNL     1       7.581  -3.763   3.078  1.00  0.00     0.171 C 
BRANCH  45  46
ATOM     46  N   UNL     1       7.174  -2.819   4.109  1.00  0.00    -0.342 N 
ATOM     47  C   UNL     1       7.016  -3.185   5.422  1.00  0.00     0.247 C 
ATOM     48  O   UNL     1       7.276  -4.315   5.837  1.00  0.00    -0.273 OA
ATOM     49  H   UNL     1       7.002  -1.857   3.819  1.00  0.00     0.164 HD
BRANCH  47  50
ATOM     50  C   UNL     1       6.462  -2.087   6.342  1.00  0.00     0.212 CG0
ATOM     51  G   UNL     1       7.661  -1.399   7.023  1.00  0.00     0.000 G0
BRANCH  50  52
ATOM     52  N   UNL     1       5.704  -1.195   5.469  1.00  0.00    -0.339 N 
ATOM     53  C   UNL     1       4.464  -1.505   4.964  1.00  0.00     0.243 C 
ATOM     54  O   UNL     1       3.919  -2.586   5.166  1.00  0.00    -0.273 OA
ATOM     55  H   UNL     1       6.151  -0.329   5.175  1.00  0.00     0.164 HD
BRANCH  53  56
ATOM     56  C   UNL     1       3.897  -0.445   3.998  1.00  0.00     0.182 C 
BRANCH  56  57
ATOM     57  N   UNL     1       3.896  -0.939   2.617  1.00  0.00    -0.344 N 
ATOM     58  C   UNL     1       2.752  -1.004   1.860  1.00  0.00     0.220 C 
ATOM     59  O   UNL     1       1.645  -0.725   2.306  1.00  0.00    -0.275 OA
ATOM     60  H   UNL     1       4.802  -1.082   2.179  1.00  0.00     0.164 HD
BRANCH  58  61
ATOM     61  C   UNL     1       2.996  -1.490   0.443  1.00  0.00     0.100 C 
BRANCH  61  62
ATOM     62  C   UNL     1       4.149  -0.776  -0.264  1.00  0.00     0.010 C 
BRANCH  62  63
ATOM     63  C   UNL     1       3.883  -0.466  -1.742  1.00  0.00     0.000 C 
BRANCH  63  64
ATOM     64  C   UNL     1       3.985   1.016  -2.100  1.00  0.00    -0.003 C 
ATOM     65  C   UNL     1       3.292   1.887  -1.062  1.00  0.00     0.004 C 
ENDBRANCH  63  64
ENDBRANCH  62  63
ENDBRANCH  61  62
ENDBRANCH  58  61
ENDBRANCH  56  57
BRANCH  56  66
ATOM     66  C   UNL     1       4.633   0.887   4.134  1.00  0.00     0.157 C 
BRANCH  66  67
ATOM     67  C   UNL     1       5.454   1.182   2.912  1.00  0.00     0.305 C 
ATOM     68  O   UNL     1       5.163   1.939   1.998  1.00  0.00    -0.252 OA
BRANCH  67  69
ATOM     69  O   UNL     1       6.639   0.541   2.925  1.00  0.00    -0.481 OA
ATOM     70  H   UNL     1       7.308   1.255   2.991  1.00  0.00     0.296 HD
ENDBRANCH  67  69
ENDBRANCH  66  67
ENDBRANCH  56  66
ENDBRANCH  53  56
ENDBRANCH  50  52
ENDBRANCH  47  50
ENDBRANCH  45  46
BRANCH  45  71
ATOM     71  C   UNL     1       9.105  -3.904   3.010  1.00  0.00     0.037 C 
BRANCH  71  72
ATOM     72  C   UNL     1       9.820  -2.590   3.337  1.00  0.00     0.026 C 
BRANCH  72  73
ATOM     73  C   UNL     1      11.091  -2.831   4.149  1.00  0.00     0.146 C 
BRANCH  73  74
ATOM     74  N   UNL     1      11.044  -1.962   5.320  1.00  0.00    -0.254 NA
ATOM     75  C   UNL     1      10.684  -2.479   6.436  1.00  0.00     0.185 C 
ATOM     76  N   UNL     1      10.632  -1.705   7.532  1.00  0.00    -0.370 N 
ATOM     77  N   UNL     1      10.328  -3.748   6.704  1.00  0.00    -0.370 N 
ATOM     78  H   UNL     1      10.877  -0.732   7.417  1.00  0.00     0.159 HD
ATOM     79  H   UNL     1      10.224  -2.002   8.401  1.00  0.00     0.159 HD
ATOM     80  H   UNL     1      10.325  -4.445   5.974  1.00  0.00     0.159 HD
ATOM     81  H   UNL     1      10.175  -4.066   7.646  1.00  0.00     0.159 HD
ENDBRANCH  73  74
ENDBRANCH  72  73
ENDBRANCH  71  72
ENDBRANCH  45  71
ENDBRANCH   3  45
TORSDOF 20
ENDMDL
MODEL 15
REMARK VINA RESULT:    -5.323      4.717      7.863
REMARK INTER + INTRA:         -22.683
REMARK INTER:                 -15.575
REMARK INTRA:                  -7.108
REMARK UNBOUND:                -7.402
REMARK SMILES CCCCCC(=O)N[C@H](CC(=O)O)C(=O)N[C@H]1C(=O)N[C@H](CCCN=C(N)N)C(=O)N[C@@H]2CC[C@H](O)N(C2=O)[C@@H](CC(C)C)C(=O)N(C)[C@@H](Cc2ccccc2)C(=O)N[C@H](C(C)C)C(=O)O[C@@H]1C
REMARK SMILES IDX 30 1 31 2 29 3 32 5 35 6 37 7 34 8 38 9 33 10 39 11 36 12
REMARK SMILES IDX 40 14 41 15 42 16 43 17 44 18 45 19 46 20 47 21 48 22 49 23
REMARK SMILES IDX 50 24 51 25 52 26 56 27 53 28 55 29 54 30 57 31 58 32 59 33
REMARK SMILES IDX 60 35 61 36 62 37 63 38 64 39 65 40 66 41 67 42 68 43 21 45
REMARK SMILES IDX 20 46 18 47 19 48 17 50 16 52 14 53 15 54 9 56 8 57 6 58
REMARK SMILES IDX 7 59 5 61 4 62 3 63 2 64 1 65 10 66 11 67 12 68 13 69 22 71
REMARK SMILES IDX 23 72 24 73 25 74 26 75 27 76 28 77
REMARK H PARENT 31 4 36 13 59 34 20 49 16 55 8 60 13 70 27 78 27 79 28 80
REMARK H PARENT 28 81
REMARK Flexibility Score:  259.900
ROOT
ATOM      1  O   UNL     1       6.927  -4.050   4.345  1.00  0.00    -0.273 OA
ATOM      2  N   UNL     1       6.299  -1.883   4.722  1.00  0.00    -0.343 N 
ATOM      3  C   UNL     1       6.816  -3.098   5.118  1.00  0.00     0.243 C 
ATOM      4  H   UNL     1       6.236  -1.118   5.382  1.00  0.00     0.164 HD
ENDROOT
BRANCH   2   5
ATOM      5  C   UNL     1       5.745  -1.714   3.384  1.00  0.00     0.171 C 
ATOM      6  C   UNL     1       5.491   0.589   1.640  1.00  0.00     0.214 C 
ATOM      7  N   UNL     1       4.417   0.264   2.549  1.00  0.00    -0.303 N 
ATOM      8  C   UNL     1       6.277  -0.628   1.179  1.00  0.00     0.057 C 
ATOM      9  C   UNL     1       4.494  -0.791   3.444  1.00  0.00     0.247 C 
ATOM     10  C   UNL     1       6.839  -1.360   2.378  1.00  0.00     0.040 C 
ATOM     11  O   UNL     1       3.606  -1.009   4.278  1.00  0.00    -0.272 OA
BRANCH   6  12
ATOM     12  O   UNL     1       6.341   1.507   2.288  1.00  0.00    -0.373 OA
ATOM     13  H   UNL     1       6.468   2.263   1.676  1.00  0.00     0.213 HD
ENDBRANCH   6  12
BRANCH   7  14
ATOM     14  C   UNL     1       3.272   1.199   2.595  1.00  0.00     0.177 C 
BRANCH  14  15
ATOM     15  C   UNL     1       3.520   2.502   3.380  1.00  0.00     0.038 C 
BRANCH  15  16
ATOM     16  C   UNL     1       3.101   2.586   4.865  1.00  0.00    -0.015 C 
ATOM     17  C   UNL     1       2.359   3.887   5.189  1.00  0.00     0.007 C 
ATOM     18  C   UNL     1       4.344   2.506   5.760  1.00  0.00     0.007 C 
ENDBRANCH  15  16
ENDBRANCH  14  15
BRANCH  14  19
ATOM     19  C   UNL     1       2.419   1.078   1.285  1.00  0.00     0.245 C 
ATOM     20  O   UNL     1       2.751   0.191   0.482  1.00  0.00    -0.272 OA
BRANCH  19  21
ATOM     21  N   UNL     1       1.411   1.960   0.937  1.00  0.00    -0.332 N 
ATOM     22  C   UNL     1       1.557   3.096   0.044  1.00  0.00     0.147 C 
BRANCH  21  23
ATOM     23  C   UNL     1       0.062   1.745   1.529  1.00  0.00     0.178 C 
BRANCH  23  24
ATOM     24  C   UNL     1      -0.411   2.862   2.481  1.00  0.00     0.070 C 
BRANCH  24  25
ATOM     25  C   UNL     1      -0.959   2.436   3.823  1.00  0.00    -0.045 A 
ATOM     26  C   UNL     1      -2.100   3.047   4.359  1.00  0.00     0.004 A 
ATOM     27  C   UNL     1      -0.326   1.421   4.556  1.00  0.00     0.004 A 
ATOM     28  C   UNL     1      -2.591   2.659   5.608  1.00  0.00     0.000 A 
ATOM     29  C   UNL     1      -0.818   1.034   5.804  1.00  0.00     0.000 A 
ATOM     30  C   UNL     1      -1.949   1.656   6.330  1.00  0.00     0.000 A 
ENDBRANCH  24  25
ENDBRANCH  23  24
BRANCH  23  31
ATOM     31  C   UNL     1      -0.988   1.288   0.488  1.00  0.00     0.243 C 
ATOM     32  O   UNL     1      -0.748   0.515  -0.436  1.00  0.00    -0.273 OA
ATOM     33  N   UNL     1      -2.188   1.972   0.576  1.00  0.00    -0.341 N 
ATOM     34  H   UNL     1      -2.328   2.608   1.366  1.00  0.00     0.164 HD
BRANCH  33  35
ATOM     35  C   UNL     1      -3.284   1.790  -0.380  1.00  0.00     0.194 C 
BRANCH  35  36
ATOM     36  C   UNL     1      -3.316   2.850  -1.517  1.00  0.00     0.017 C 
ATOM     37  C   UNL     1      -2.701   2.297  -2.815  1.00  0.00     0.010 C 
ATOM     38  C   UNL     1      -2.563   4.138  -1.165  1.00  0.00     0.010 C 
ENDBRANCH  35  36
BRANCH  35  39
ATOM     39  C   UNL     1      -4.666   1.642   0.315  1.00  0.00     0.329 C 
ATOM     40  O   UNL     1      -5.017   2.298   1.290  1.00  0.00    -0.250 OA
BRANCH  39  41
ATOM     41  O   UNL     1      -5.483   0.760  -0.335  1.00  0.00    -0.458 OA
BRANCH  41  42
ATOM     42  C   UNL     1      -6.870   0.746   0.080  1.00  0.00     0.205 CG0
ATOM     43  C   UNL     1      -7.111  -0.570   0.817  1.00  0.00     0.056 C 
ATOM     44  G   UNL     1      -7.759   0.892  -1.171  1.00  0.00     0.000 G0
ENDBRANCH  41  42
ENDBRANCH  39  41
ENDBRANCH  35  39
ENDBRANCH  33  35
ENDBRANCH  23  31
ENDBRANCH  21  23
ENDBRANCH  19  21
ENDBRANCH  14  19
ENDBRANCH   7  14
ENDBRANCH   2   5
BRANCH   3  45
ATOM     45  C   UNL     1       7.265  -3.175   6.584  1.00  0.00     0.171 C 
BRANCH  45  46
ATOM     46  N   UNL     1       8.718  -3.074   6.556  1.00  0.00    -0.342 N 
ATOM     47  C   UNL     1       9.375  -1.871   6.632  1.00  0.00     0.247 C 
ATOM     48  O   UNL     1       8.790  -0.800   6.802  1.00  0.00    -0.273 OA
ATOM     49  H   UNL     1       9.244  -3.942   6.473  1.00  0.00     0.164 HD
BRANCH  47  50
ATOM     50  C   UNL     1      10.898  -1.950   6.462  1.00  0.00     0.212 CG0
ATOM     51  G   UNL     1      11.519  -2.092   7.867  1.00  0.00     0.000 G0
BRANCH  50  52
ATOM     52  N   UNL     1      11.135  -3.110   5.607  1.00  0.00    -0.339 N 
ATOM     53  C   UNL     1      12.292  -3.851   5.642  1.00  0.00     0.243 C 
ATOM     54  O   UNL     1      13.243  -3.560   6.362  1.00  0.00    -0.273 OA
ATOM     55  H   UNL     1      10.429  -3.335   4.910  1.00  0.00     0.164 HD
BRANCH  53  56
ATOM     56  C   UNL     1      12.349  -4.974   4.587  1.00  0.00     0.182 C 
BRANCH  56  57
ATOM     57  N   UNL     1      11.838  -4.509   3.294  1.00  0.00    -0.344 N 
ATOM     58  C   UNL     1      12.665  -4.060   2.294  1.00  0.00     0.220 C 
ATOM     59  O   UNL     1      13.878  -3.948   2.436  1.00  0.00    -0.275 OA
ATOM     60  H   UNL     1      10.855  -4.680   3.099  1.00  0.00     0.164 HD
BRANCH  58  61
ATOM     61  C   UNL     1      11.924  -3.685   1.023  1.00  0.00     0.100 C 
BRANCH  61  62
ATOM     62  C   UNL     1      10.450  -3.349   1.246  1.00  0.00     0.010 C 
BRANCH  62  63
ATOM     63  C   UNL     1       9.609  -3.335  -0.037  1.00  0.00     0.000 C 
BRANCH  63  64
ATOM     64  C   UNL     1       8.541  -4.426  -0.099  1.00  0.00    -0.003 C 
ATOM     65  C   UNL     1       8.317  -5.061   1.266  1.00  0.00     0.004 C 
ENDBRANCH  63  64
ENDBRANCH  62  63
ENDBRANCH  61  62
ENDBRANCH  58  61
ENDBRANCH  56  57
BRANCH  56  66
ATOM     66  C   UNL     1      11.632  -6.234   5.071  1.00  0.00     0.157 C 
BRANCH  66  67
ATOM     67  C   UNL     1      10.351  -6.453   4.320  1.00  0.00     0.305 C 
ATOM     68  O   UNL     1      10.134  -7.311   3.477  1.00  0.00    -0.252 OA
BRANCH  67  69
ATOM     69  O   UNL     1       9.379  -5.606   4.706  1.00  0.00    -0.481 OA
ATOM     70  H   UNL     1       9.704  -4.717   4.447  1.00  0.00     0.296 HD
ENDBRANCH  67  69
ENDBRANCH  66  67
ENDBRANCH  56  66
ENDBRANCH  53  56
ENDBRANCH  50  52
ENDBRANCH  47  50
ENDBRANCH  45  46
BRANCH  45  71
ATOM     71  C   UNL     1       6.801  -4.492   7.216  1.00  0.00     0.037 C 
BRANCH  71  72
ATOM     72  C   UNL     1       7.976  -5.412   7.556  1.00  0.00     0.026 C 
BRANCH  72  73
ATOM     73  C   UNL     1       7.497  -6.803   7.968  1.00  0.00     0.146 C 
BRANCH  73  74
ATOM     74  N   UNL     1       7.648  -7.687   6.816  1.00  0.00    -0.254 NA
ATOM     75  C   UNL     1       8.728  -8.371   6.724  1.00  0.00     0.185 C 
ATOM     76  N   UNL     1       8.895  -9.195   5.676  1.00  0.00    -0.370 N 
ATOM     77  N   UNL     1       9.783  -8.401   7.556  1.00  0.00    -0.370 N 
ATOM     78  H   UNL     1       8.149  -9.227   4.996  1.00  0.00     0.159 HD
ATOM     79  H   UNL     1       9.766  -9.648   5.462  1.00  0.00     0.159 HD
ATOM     80  H   UNL     1       9.796  -7.834   8.391  1.00  0.00     0.159 HD
ATOM     81  H   UNL     1      10.529  -9.068   7.440  1.00  0.00     0.159 HD
ENDBRANCH  73  74
ENDBRANCH  72  73
ENDBRANCH  71  72
ENDBRANCH  45  71
ENDBRANCH   3  45
TORSDOF 20
ENDMDL
MODEL 16
REMARK VINA RESULT:    -5.320      4.627     13.566
REMARK INTER + INTRA:         -22.673
REMARK INTER:                 -16.494
REMARK INTRA:                  -6.179
REMARK UNBOUND:                -7.402
REMARK SMILES CCCCCC(=O)N[C@H](CC(=O)O)C(=O)N[C@H]1C(=O)N[C@H](CCCN=C(N)N)C(=O)N[C@@H]2CC[C@H](O)N(C2=O)[C@@H](CC(C)C)C(=O)N(C)[C@@H](Cc2ccccc2)C(=O)N[C@H](C(C)C)C(=O)O[C@@H]1C
REMARK SMILES IDX 30 1 31 2 29 3 32 5 35 6 37 7 34 8 38 9 33 10 39 11 36 12
REMARK SMILES IDX 40 14 41 15 42 16 43 17 44 18 45 19 46 20 47 21 48 22 49 23
REMARK SMILES IDX 50 24 51 25 52 26 56 27 53 28 55 29 54 30 57 31 58 32 59 33
REMARK SMILES IDX 60 35 61 36 62 37 63 38 64 39 65 40 66 41 67 42 68 43 21 45
REMARK SMILES IDX 20 46 18 47 19 48 17 50 16 52 14 53 15 54 9 56 8 57 6 58
REMARK SMILES IDX 7 59 5 61 4 62 3 63 2 64 1 65 10 66 11 67 12 68 13 69 22 71
REMARK SMILES IDX 23 72 24 73 25 74 26 75 27 76 28 77
REMARK H PARENT 31 4 36 13 59 34 20 49 16 55 8 60 13 70 27 78 27 79 28 80
REMARK H PARENT 28 81
REMARK Flexibility Score:  259.900
ROOT
ATOM      1  O   UNL     1       3.250   0.459   3.119  1.00  0.00    -0.273 OA
ATOM      2  N   UNL     1       5.398   0.375   3.898  1.00  0.00    -0.343 N 
ATOM      3  C   UNL     1       4.309   1.034   3.369  1.00  0.00     0.243 C 
ATOM      4  H   UNL     1       6.249   0.883   4.104  1.00  0.00     0.164 HD
ENDROOT
BRANCH   2   5
ATOM      5  C   UNL     1       5.376  -1.073   4.074  1.00  0.00     0.171 C 
ATOM      6  C   UNL     1       6.373  -2.812   6.168  1.00  0.00     0.214 C 
ATOM      7  N   UNL     1       7.223  -2.495   5.044  1.00  0.00    -0.303 N 
ATOM      8  C   UNL     1       4.893  -2.815   5.822  1.00  0.00     0.057 C 
ATOM      9  C   UNL     1       6.828  -1.631   4.035  1.00  0.00     0.247 C 
ATOM     10  C   UNL     1       4.496  -1.468   5.259  1.00  0.00     0.040 C 
ATOM     11  O   UNL     1       7.592  -1.297   3.121  1.00  0.00    -0.272 OA
BRANCH   6  12
ATOM     12  O   UNL     1       6.639  -1.875   7.186  1.00  0.00    -0.373 OA
ATOM     13  H   UNL     1       5.970  -1.163   7.103  1.00  0.00     0.213 HD
ENDBRANCH   6  12
BRANCH   7  14
ATOM     14  C   UNL     1       8.605  -3.017   5.080  1.00  0.00     0.177 C 
BRANCH  14  15
ATOM     15  C   UNL     1       9.516  -2.390   6.153  1.00  0.00     0.038 C 
BRANCH  15  16
ATOM     16  C   UNL     1      10.329  -1.121   5.814  1.00  0.00    -0.015 C 
ATOM     17  C   UNL     1       9.611   0.164   6.238  1.00  0.00     0.007 C 
ATOM     18  C   UNL     1      10.580  -1.055   4.302  1.00  0.00     0.007 C 
ENDBRANCH  15  16
ENDBRANCH  14  15
BRANCH  14  19
ATOM     19  C   UNL     1       8.630  -4.520   4.635  1.00  0.00     0.245 C 
ATOM     20  O   UNL     1       7.870  -4.841   3.706  1.00  0.00    -0.272 OA
BRANCH  19  21
ATOM     21  N   UNL     1       9.354  -5.505   5.283  1.00  0.00    -0.332 N 
ATOM     22  C   UNL     1       8.892  -6.280   6.421  1.00  0.00     0.147 C 
BRANCH  21  23
ATOM     23  C   UNL     1      10.729  -5.796   4.791  1.00  0.00     0.178 C 
BRANCH  23  24
ATOM     24  C   UNL     1      11.859  -5.418   5.770  1.00  0.00     0.070 C 
BRANCH  24  25
ATOM     25  C   UNL     1      12.722  -4.234   5.401  1.00  0.00    -0.045 A 
ATOM     26  C   UNL     1      12.892  -3.860   4.062  1.00  0.00     0.004 A 
ATOM     27  C   UNL     1      13.373  -3.494   6.400  1.00  0.00     0.004 A 
ATOM     28  C   UNL     1      13.706  -2.775   3.728  1.00  0.00     0.000 A 
ATOM     29  C   UNL     1      14.184  -2.409   6.064  1.00  0.00     0.000 A 
ATOM     30  C   UNL     1      14.352  -2.052   4.728  1.00  0.00     0.000 A 
ENDBRANCH  24  25
ENDBRANCH  23  24
BRANCH  23  31
ATOM     31  C   UNL     1      10.858  -7.202   4.158  1.00  0.00     0.243 C 
ATOM     32  O   UNL     1       9.901  -7.891   3.814  1.00  0.00    -0.273 OA
ATOM     33  N   UNL     1      12.149  -7.703   4.182  1.00  0.00    -0.341 N 
ATOM     34  H   UNL     1      12.904  -7.083   4.485  1.00  0.00     0.164 HD
BRANCH  33  35
ATOM     35  C   UNL     1      12.487  -9.060   3.745  1.00  0.00     0.194 C 
BRANCH  35  36
ATOM     36  C   UNL     1      13.067  -9.963   4.871  1.00  0.00     0.017 C 
ATOM     37  C   UNL     1      12.024 -10.225   5.971  1.00  0.00     0.010 C 
ATOM     38  C   UNL     1      14.306  -9.365   5.547  1.00  0.00     0.010 C 
ENDBRANCH  35  36
BRANCH  35  39
ATOM     39  C   UNL     1      13.380  -9.074   2.473  1.00  0.00     0.329 C 
ATOM     40  O   UNL     1      14.076  -8.133   2.112  1.00  0.00    -0.250 OA
BRANCH  39  41
ATOM     41  O   UNL     1      13.370 -10.289   1.844  1.00  0.00    -0.458 OA
BRANCH  41  42
ATOM     42  C   UNL     1      14.183 -10.400   0.652  1.00  0.00     0.205 CG0
ATOM     43  C   UNL     1      13.251 -10.254  -0.549  1.00  0.00     0.056 C 
ATOM     44  G   UNL     1      14.906 -11.762   0.675  1.00  0.00     0.000 G0
ENDBRANCH  41  42
ENDBRANCH  39  41
ENDBRANCH  35  39
ENDBRANCH  33  35
ENDBRANCH  23  31
ENDBRANCH  21  23
ENDBRANCH  19  21
ENDBRANCH  14  19
ENDBRANCH   7  14
ENDBRANCH   2   5
BRANCH   3  45
ATOM     45  C   UNL     1       4.503   2.538   3.133  1.00  0.00     0.171 C 
BRANCH  45  46
ATOM     46  N   UNL     1       3.356   3.185   3.756  1.00  0.00    -0.342 N 
ATOM     47  C   UNL     1       3.480   4.025   4.834  1.00  0.00     0.247 C 
ATOM     48  O   UNL     1       4.570   4.350   5.306  1.00  0.00    -0.273 OA
ATOM     49  H   UNL     1       2.438   2.987   3.361  1.00  0.00     0.164 HD
BRANCH  47  50
ATOM     50  C   UNL     1       2.154   4.514   5.434  1.00  0.00     0.212 CG0
ATOM     51  G   UNL     1       2.163   6.055   5.395  1.00  0.00     0.000 G0
BRANCH  50  52
ATOM     52  N   UNL     1       1.109   3.922   4.603  1.00  0.00    -0.339 N 
ATOM     53  C   UNL     1       0.011   3.274   5.116  1.00  0.00     0.243 C 
ATOM     54  O   UNL     1      -0.150   3.097   6.320  1.00  0.00    -0.273 OA
ATOM     55  H   UNL     1       1.241   3.939   3.593  1.00  0.00     0.164 HD
BRANCH  53  56
ATOM     56  C   UNL     1      -0.911   2.657   4.045  1.00  0.00     0.182 C 
BRANCH  56  57
ATOM     57  N   UNL     1      -2.185   2.228   4.630  1.00  0.00    -0.344 N 
ATOM     58  C   UNL     1      -3.384   2.388   3.981  1.00  0.00     0.220 C 
ATOM     59  O   UNL     1      -3.483   2.964   2.903  1.00  0.00    -0.275 OA
ATOM     60  H   UNL     1      -2.136   1.658   5.471  1.00  0.00     0.164 HD
BRANCH  58  61
ATOM     61  C   UNL     1      -4.564   1.818   4.747  1.00  0.00     0.100 C 
BRANCH  61  62
ATOM     62  C   UNL     1      -5.881   2.549   4.483  1.00  0.00     0.010 C 
BRANCH  62  63
ATOM     63  C   UNL     1      -6.792   1.852   3.465  1.00  0.00     0.000 C 
BRANCH  63  64
ATOM     64  C   UNL     1      -7.429   0.560   3.975  1.00  0.00    -0.003 C 
ATOM     65  C   UNL     1      -6.992  -0.639   3.146  1.00  0.00     0.004 C 
ENDBRANCH  63  64
ENDBRANCH  62  63
ENDBRANCH  61  62
ENDBRANCH  58  61
ENDBRANCH  56  57
BRANCH  56  66
ATOM     66  C   UNL     1      -0.213   1.526   3.290  1.00  0.00     0.157 C 
BRANCH  66  67
ATOM     67  C   UNL     1       0.095   1.925   1.876  1.00  0.00     0.305 C 
ATOM     68  O   UNL     1      -0.333   1.402   0.857  1.00  0.00    -0.252 OA
BRANCH  67  69
ATOM     69  O   UNL     1       0.893   3.007   1.811  1.00  0.00    -0.481 OA
ATOM     70  H   UNL     1       0.596   3.582   2.548  1.00  0.00     0.296 HD
ENDBRANCH  67  69
ENDBRANCH  66  67
ENDBRANCH  56  66
ENDBRANCH  53  56
ENDBRANCH  50  52
ENDBRANCH  47  50
ENDBRANCH  45  46
BRANCH  45  71
ATOM     71  C   UNL     1       4.574   2.838   1.632  1.00  0.00     0.037 C 
BRANCH  71  72
ATOM     72  C   UNL     1       5.460   4.049   1.328  1.00  0.00     0.026 C 
BRANCH  72  73
ATOM     73  C   UNL     1       4.689   5.359   1.477  1.00  0.00     0.146 C 
BRANCH  73  74
ATOM     74  N   UNL     1       3.285   5.086   1.187  1.00  0.00    -0.254 NA
ATOM     75  C   UNL     1       2.592   6.020   0.648  1.00  0.00     0.185 C 
ATOM     76  N   UNL     1       1.298   5.799   0.368  1.00  0.00    -0.370 N 
ATOM     77  N   UNL     1       2.975   7.260   0.296  1.00  0.00    -0.370 N 
ATOM     78  H   UNL     1       0.926   4.892   0.608  1.00  0.00     0.159 HD
ATOM     79  H   UNL     1       0.662   6.523   0.083  1.00  0.00     0.159 HD
ATOM     80  H   UNL     1       3.925   7.566   0.444  1.00  0.00     0.159 HD
ATOM     81  H   UNL     1       2.370   7.871  -0.228  1.00  0.00     0.159 HD
ENDBRANCH  73  74
ENDBRANCH  72  73
ENDBRANCH  71  72
ENDBRANCH  45  71
ENDBRANCH   3  45
TORSDOF 20
ENDMDL
MODEL 17
REMARK VINA RESULT:    -5.264      4.779      9.198
REMARK INTER + INTRA:         -22.513
REMARK INTER:                 -16.658
REMARK INTRA:                  -5.855
REMARK UNBOUND:                -7.402
REMARK SMILES CCCCCC(=O)N[C@H](CC(=O)O)C(=O)N[C@H]1C(=O)N[C@H](CCCN=C(N)N)C(=O)N[C@@H]2CC[C@H](O)N(C2=O)[C@@H](CC(C)C)C(=O)N(C)[C@@H](Cc2ccccc2)C(=O)N[C@H](C(C)C)C(=O)O[C@@H]1C
REMARK SMILES IDX 30 1 31 2 29 3 32 5 35 6 37 7 34 8 38 9 33 10 39 11 36 12
REMARK SMILES IDX 40 14 41 15 42 16 43 17 44 18 45 19 46 20 47 21 48 22 49 23
REMARK SMILES IDX 50 24 51 25 52 26 56 27 53 28 55 29 54 30 57 31 58 32 59 33
REMARK SMILES IDX 60 35 61 36 62 37 63 38 64 39 65 40 66 41 67 42 68 43 21 45
REMARK SMILES IDX 20 46 18 47 19 48 17 50 16 52 14 53 15 54 9 56 8 57 6 58
REMARK SMILES IDX 7 59 5 61 4 62 3 63 2 64 1 65 10 66 11 67 12 68 13 69 22 71
REMARK SMILES IDX 23 72 24 73 25 74 26 75 27 76 28 77
REMARK H PARENT 31 4 36 13 59 34 20 49 16 55 8 60 13 70 27 78 27 79 28 80
REMARK H PARENT 28 81
REMARK Flexibility Score:  259.900
ROOT
ATOM      1  O   UNL     1       7.512  -5.832   1.675  1.00  0.00    -0.273 OA
ATOM      2  N   UNL     1       8.084  -4.862  -0.316  1.00  0.00    -0.343 N 
ATOM      3  C   UNL     1       8.371  -5.332   0.948  1.00  0.00     0.243 C 
ATOM      4  H   UNL     1       8.819  -4.471  -0.892  1.00  0.00     0.164 HD
ENDROOT
BRANCH   2   5
ATOM      5  C   UNL     1       6.709  -4.832  -0.802  1.00  0.00     0.171 C 
ATOM      6  C   UNL     1       5.383  -3.260  -2.846  1.00  0.00     0.214 C 
ATOM      7  N   UNL     1       5.404  -2.781  -1.483  1.00  0.00    -0.303 N 
ATOM      8  C   UNL     1       5.405  -4.777  -2.951  1.00  0.00     0.057 C 
ATOM      9  C   UNL     1       6.063  -3.457  -0.469  1.00  0.00     0.247 C 
ATOM     10  C   UNL     1       6.628  -5.322  -2.247  1.00  0.00     0.040 C 
ATOM     11  O   UNL     1       6.149  -2.997   0.677  1.00  0.00    -0.272 OA
BRANCH   6  12
ATOM     12  O   UNL     1       6.492  -2.704  -3.514  1.00  0.00    -0.373 OA
ATOM     13  H   UNL     1       6.427  -1.730  -3.417  1.00  0.00     0.213 HD
ENDBRANCH   6  12
BRANCH   7  14
ATOM     14  C   UNL     1       4.812  -1.450  -1.231  1.00  0.00     0.177 C 
BRANCH  14  15
ATOM     15  C   UNL     1       5.017  -0.417  -2.356  1.00  0.00     0.038 C 
BRANCH  15  16
ATOM     16  C   UNL     1       5.946   0.794  -2.117  1.00  0.00    -0.015 C 
ATOM     17  C   UNL     1       5.220   2.131  -2.298  1.00  0.00     0.007 C 
ATOM     18  C   UNL     1       7.122   0.748  -3.102  1.00  0.00     0.007 C 
ENDBRANCH  15  16
ENDBRANCH  14  15
BRANCH  14  19
ATOM     19  C   UNL     1       3.524  -1.586  -0.349  1.00  0.00     0.245 C 
ATOM     20  O   UNL     1       2.702  -2.454  -0.689  1.00  0.00    -0.272 OA
BRANCH  19  21
ATOM     21  N   UNL     1       3.211  -0.734   0.695  1.00  0.00    -0.332 N 
ATOM     22  C   UNL     1       1.899  -0.170   0.958  1.00  0.00     0.147 C 
BRANCH  21  23
ATOM     23  C   UNL     1       4.304  -0.347   1.629  1.00  0.00     0.178 C 
BRANCH  23  24
ATOM     24  C   UNL     1       4.429   1.170   1.883  1.00  0.00     0.070 C 
BRANCH  24  25
ATOM     25  C   UNL     1       5.706   1.840   1.433  1.00  0.00    -0.045 A 
ATOM     26  C   UNL     1       5.751   3.221   1.207  1.00  0.00     0.004 A 
ATOM     27  C   UNL     1       6.870   1.082   1.231  1.00  0.00     0.004 A 
ATOM     28  C   UNL     1       6.931   3.830   0.775  1.00  0.00     0.000 A 
ATOM     29  C   UNL     1       8.049   1.692   0.801  1.00  0.00     0.000 A 
ATOM     30  C   UNL     1       8.077   3.066   0.570  1.00  0.00     0.000 A 
ENDBRANCH  24  25
ENDBRANCH  23  24
BRANCH  23  31
ATOM     31  C   UNL     1       4.352  -1.226   2.901  1.00  0.00     0.243 C 
ATOM     32  O   UNL     1       3.372  -1.479   3.598  1.00  0.00    -0.273 OA
ATOM     33  N   UNL     1       5.636  -1.557   3.297  1.00  0.00    -0.341 N 
ATOM     34  H   UNL     1       6.413  -1.314   2.677  1.00  0.00     0.164 HD
BRANCH  33  35
ATOM     35  C   UNL     1       5.929  -2.282   4.536  1.00  0.00     0.194 C 
BRANCH  35  36
ATOM     36  C   UNL     1       5.924  -1.390   5.810  1.00  0.00     0.017 C 
ATOM     37  C   UNL     1       6.298   0.064   5.475  1.00  0.00     0.010 C 
ATOM     38  C   UNL     1       6.897  -1.877   6.892  1.00  0.00     0.010 C 
ENDBRANCH  35  36
BRANCH  35  39
ATOM     39  C   UNL     1       7.219  -3.143   4.435  1.00  0.00     0.329 C 
ATOM     40  O   UNL     1       7.278  -4.329   4.738  1.00  0.00    -0.250 OA
BRANCH  39  41
ATOM     41  O   UNL     1       8.264  -2.452   3.887  1.00  0.00    -0.458 OA
BRANCH  41  42
ATOM     42  C   UNL     1       9.368  -2.151   4.773  1.00  0.00     0.205 CG0
ATOM     43  C   UNL     1       9.825  -0.727   4.462  1.00  0.00     0.056 C 
ATOM     44  G   UNL     1      10.482  -3.191   4.542  1.00  0.00     0.000 G0
ENDBRANCH  41  42
ENDBRANCH  39  41
ENDBRANCH  35  39
ENDBRANCH  33  35
ENDBRANCH  23  31
ENDBRANCH  21  23
ENDBRANCH  19  21
ENDBRANCH  14  19
ENDBRANCH   7  14
ENDBRANCH   2   5
BRANCH   3  45
ATOM     45  C   UNL     1       9.839  -5.207   1.378  1.00  0.00     0.171 C 
BRANCH  45  46
ATOM     46  N   UNL     1       9.810  -4.643   2.720  1.00  0.00    -0.342 N 
ATOM     47  C   UNL     1      10.601  -3.584   3.092  1.00  0.00     0.247 C 
ATOM     48  O   UNL     1      11.336  -2.990   2.302  1.00  0.00    -0.273 OA
ATOM     49  H   UNL     1       9.173  -5.069   3.391  1.00  0.00     0.164 HD
BRANCH  47  50
ATOM     50  C   UNL     1      10.526  -3.207   4.578  1.00  0.00     0.212 CG0
ATOM     51  G   UNL     1       9.394  -2.173   4.741  1.00  0.00     0.000 G0
BRANCH  50  52
ATOM     52  N   UNL     1      10.271  -4.459   5.285  1.00  0.00    -0.339 N 
ATOM     53  C   UNL     1      11.057  -4.920   6.313  1.00  0.00     0.243 C 
ATOM     54  O   UNL     1      12.072  -4.337   6.683  1.00  0.00    -0.273 OA
ATOM     55  H   UNL     1       9.507  -5.043   4.951  1.00  0.00     0.164 HD
BRANCH  53  56
ATOM     56  C   UNL     1      10.642  -6.306   6.847  1.00  0.00     0.182 C 
BRANCH  56  57
ATOM     57  N   UNL     1      11.770  -7.242   6.813  1.00  0.00    -0.344 N 
ATOM     58  C   UNL     1      12.236  -7.875   7.940  1.00  0.00     0.220 C 
ATOM     59  O   UNL     1      11.792  -7.647   9.060  1.00  0.00    -0.275 OA
ATOM     60  H   UNL     1      12.098  -7.535   5.896  1.00  0.00     0.164 HD
BRANCH  58  61
ATOM     61  C   UNL     1      13.370  -8.844   7.660  1.00  0.00     0.100 C 
BRANCH  61  62
ATOM     62  C   UNL     1      14.224  -8.460   6.452  1.00  0.00     0.010 C 
BRANCH  62  63
ATOM     63  C   UNL     1      14.332  -9.557   5.386  1.00  0.00     0.000 C 
BRANCH  63  64
ATOM     64  C   UNL     1      13.053 -10.370   5.192  1.00  0.00    -0.003 C 
ATOM     65  C   UNL     1      12.073  -9.653   4.276  1.00  0.00     0.004 C 
ENDBRANCH  63  64
ENDBRANCH  62  63
ENDBRANCH  61  62
ENDBRANCH  58  61
ENDBRANCH  56  57
BRANCH  56  66
ATOM     66  C   UNL     1       9.420  -6.848   6.109  1.00  0.00     0.157 C 
BRANCH  66  67
ATOM     67  C   UNL     1       8.568  -7.693   7.012  1.00  0.00     0.305 C 
ATOM     68  O   UNL     1       7.659  -8.437   6.678  1.00  0.00    -0.252 OA
BRANCH  67  69
ATOM     69  O   UNL     1       8.942  -7.598   8.303  1.00  0.00    -0.481 OA
ATOM     70  H   UNL     1       9.672  -8.245   8.400  1.00  0.00     0.296 HD
ENDBRANCH  67  69
ENDBRANCH  66  67
ENDBRANCH  56  66
ENDBRANCH  53  56
ENDBRANCH  50  52
ENDBRANCH  47  50
ENDBRANCH  45  46
BRANCH  45  71
ATOM     71  C   UNL     1      10.606  -4.307   0.402  1.00  0.00     0.037 C 
BRANCH  71  72
ATOM     72  C   UNL     1      11.833  -5.010  -0.185  1.00  0.00     0.026 C 
BRANCH  72  73
ATOM     73  C   UNL     1      11.777  -6.519   0.041  1.00  0.00     0.146 C 
BRANCH  73  74
ATOM     74  N   UNL     1      13.051  -7.084  -0.392  1.00  0.00    -0.254 NA
ATOM     75  C   UNL     1      13.187  -7.374  -1.633  1.00  0.00     0.185 C 
ATOM     76  N   UNL     1      14.349  -7.894  -2.062  1.00  0.00    -0.370 N 
ATOM     77  N   UNL     1      12.302  -7.234  -2.635  1.00  0.00    -0.370 N 
ATOM     78  H   UNL     1      15.068  -8.040  -1.368  1.00  0.00     0.159 HD
ATOM     79  H   UNL     1      14.478  -8.278  -2.981  1.00  0.00     0.159 HD
ATOM     80  H   UNL     1      11.386  -6.850  -2.461  1.00  0.00     0.159 HD
ATOM     81  H   UNL     1      12.563  -7.389  -3.595  1.00  0.00     0.159 HD
ENDBRANCH  73  74
ENDBRANCH  72  73
ENDBRANCH  71  72
ENDBRANCH  45  71
ENDBRANCH   3  45
TORSDOF 20
ENDMDL
MODEL 18
REMARK VINA RESULT:    -5.250      3.379      6.354
REMARK INTER + INTRA:         -22.474
REMARK INTER:                 -15.879
REMARK INTRA:                  -6.596
REMARK UNBOUND:                -7.402
REMARK SMILES CCCCCC(=O)N[C@H](CC(=O)O)C(=O)N[C@H]1C(=O)N[C@H](CCCN=C(N)N)C(=O)N[C@@H]2CC[C@H](O)N(C2=O)[C@@H](CC(C)C)C(=O)N(C)[C@@H](Cc2ccccc2)C(=O)N[C@H](C(C)C)C(=O)O[C@@H]1C
REMARK SMILES IDX 30 1 31 2 29 3 32 5 35 6 37 7 34 8 38 9 33 10 39 11 36 12
REMARK SMILES IDX 40 14 41 15 42 16 43 17 44 18 45 19 46 20 47 21 48 22 49 23
REMARK SMILES IDX 50 24 51 25 52 26 56 27 53 28 55 29 54 30 57 31 58 32 59 33
REMARK SMILES IDX 60 35 61 36 62 37 63 38 64 39 65 40 66 41 67 42 68 43 21 45
REMARK SMILES IDX 20 46 18 47 19 48 17 50 16 52 14 53 15 54 9 56 8 57 6 58
REMARK SMILES IDX 7 59 5 61 4 62 3 63 2 64 1 65 10 66 11 67 12 68 13 69 22 71
REMARK SMILES IDX 23 72 24 73 25 74 26 75 27 76 28 77
REMARK H PARENT 31 4 36 13 59 34 20 49 16 55 8 60 13 70 27 78 27 79 28 80
REMARK H PARENT 28 81
REMARK Flexibility Score:  259.900
ROOT
ATOM      1  O   UNL     1       6.326  -2.945   2.241  1.00  0.00    -0.273 OA
ATOM      2  N   UNL     1       8.198  -2.680   3.529  1.00  0.00    -0.343 N 
ATOM      3  C   UNL     1       7.520  -3.175   2.436  1.00  0.00     0.243 C 
ATOM      4  H   UNL     1       9.183  -2.878   3.649  1.00  0.00     0.164 HD
ENDROOT
BRANCH   2   5
ATOM      5  C   UNL     1       7.488  -1.952   4.575  1.00  0.00     0.171 C 
ATOM      6  C   UNL     1       4.677  -1.400   5.023  1.00  0.00     0.214 C 
ATOM      7  N   UNL     1       5.473  -0.463   4.265  1.00  0.00    -0.303 N 
ATOM      8  C   UNL     1       5.476  -2.160   6.070  1.00  0.00     0.057 C 
ATOM      9  C   UNL     1       6.808  -0.690   3.971  1.00  0.00     0.247 C 
ATOM     10  C   UNL     1       6.620  -2.895   5.408  1.00  0.00     0.040 C 
ATOM     11  O   UNL     1       7.460   0.075   3.249  1.00  0.00    -0.272 OA
BRANCH   6  12
ATOM     12  O   UNL     1       4.083  -2.296   4.112  1.00  0.00    -0.373 OA
ATOM     13  H   UNL     1       4.570  -3.144   4.184  1.00  0.00     0.213 HD
ENDBRANCH   6  12
BRANCH   7  14
ATOM     14  C   UNL     1       4.767   0.696   3.679  1.00  0.00     0.177 C 
BRANCH  14  15
ATOM     15  C   UNL     1       4.285   0.505   2.227  1.00  0.00     0.038 C 
BRANCH  15  16
ATOM     16  C   UNL     1       3.938   1.744   1.372  1.00  0.00    -0.015 C 
ATOM     17  C   UNL     1       2.776   1.482   0.409  1.00  0.00     0.007 C 
ATOM     18  C   UNL     1       5.161   2.163   0.546  1.00  0.00     0.007 C 
ENDBRANCH  15  16
ENDBRANCH  14  15
BRANCH  14  19
ATOM     19  C   UNL     1       3.997   1.484   4.794  1.00  0.00     0.245 C 
ATOM     20  O   UNL     1       4.670   1.899   5.752  1.00  0.00    -0.272 OA
BRANCH  19  21
ATOM     21  N   UNL     1       2.622   1.637   4.820  1.00  0.00    -0.332 N 
ATOM     22  C   UNL     1       1.652   0.603   4.508  1.00  0.00     0.147 C 
BRANCH  21  23
ATOM     23  C   UNL     1       2.078   2.974   5.187  1.00  0.00     0.178 C 
BRANCH  23  24
ATOM     24  C   UNL     1       1.457   3.762   4.016  1.00  0.00     0.070 C 
BRANCH  24  25
ATOM     25  C   UNL     1       2.410   4.449   3.066  1.00  0.00    -0.045 A 
ATOM     26  C   UNL     1       2.025   4.746   1.752  1.00  0.00     0.004 A 
ATOM     27  C   UNL     1       3.702   4.796   3.488  1.00  0.00     0.004 A 
ATOM     28  C   UNL     1       2.918   5.365   0.875  1.00  0.00     0.000 A 
ATOM     29  C   UNL     1       4.593   5.416   2.611  1.00  0.00     0.000 A 
ATOM     30  C   UNL     1       4.201   5.698   1.304  1.00  0.00     0.000 A 
ENDBRANCH  24  25
ENDBRANCH  23  24
BRANCH  23  31
ATOM     31  C   UNL     1       1.225   2.945   6.478  1.00  0.00     0.243 C 
ATOM     32  O   UNL     1       1.637   2.547   7.565  1.00  0.00    -0.273 OA
ATOM     33  N   UNL     1      -0.112   3.236   6.264  1.00  0.00    -0.341 N 
ATOM     34  H   UNL     1      -0.396   3.557   5.336  1.00  0.00     0.164 HD
BRANCH  33  35
ATOM     35  C   UNL     1      -1.126   3.153   7.319  1.00  0.00     0.194 C 
BRANCH  35  36
ATOM     36  C   UNL     1      -1.900   1.805   7.351  1.00  0.00     0.017 C 
ATOM     37  C   UNL     1      -1.430   0.917   8.516  1.00  0.00     0.010 C 
ATOM     38  C   UNL     1      -1.746   0.989   6.061  1.00  0.00     0.010 C 
ENDBRANCH  35  36
BRANCH  35  39
ATOM     39  C   UNL     1      -2.087   4.374   7.322  1.00  0.00     0.329 C 
ATOM     40  O   UNL     1      -1.806   5.467   7.799  1.00  0.00    -0.250 OA
BRANCH  39  41
ATOM     41  O   UNL     1      -3.253   4.119   6.654  1.00  0.00    -0.458 OA
BRANCH  41  42
ATOM     42  C   UNL     1      -4.477   4.454   7.350  1.00  0.00     0.205 CG0
ATOM     43  C   UNL     1      -5.633   4.200   6.385  1.00  0.00     0.056 C 
ATOM     44  G   UNL     1      -4.399   5.927   7.801  1.00  0.00     0.000 G0
ENDBRANCH  41  42
ENDBRANCH  39  41
ENDBRANCH  35  39
ENDBRANCH  33  35
ENDBRANCH  23  31
ENDBRANCH  21  23
ENDBRANCH  19  21
ENDBRANCH  14  19
ENDBRANCH   7  14
ENDBRANCH   2   5
BRANCH   3  45
ATOM     45  C   UNL     1       8.363  -4.015   1.466  1.00  0.00     0.171 C 
BRANCH  45  46
ATOM     46  N   UNL     1       9.743  -3.854   1.903  1.00  0.00    -0.342 N 
ATOM     47  C   UNL     1      10.689  -4.832   1.727  1.00  0.00     0.247 C 
ATOM     48  O   UNL     1      10.462  -5.882   1.125  1.00  0.00    -0.273 OA
ATOM     49  H   UNL     1       9.989  -2.976   2.357  1.00  0.00     0.164 HD
BRANCH  47  50
ATOM     50  C   UNL     1      12.056  -4.537   2.362  1.00  0.00     0.212 CG0
ATOM     51  G   UNL     1      12.833  -3.624   1.394  1.00  0.00     0.000 G0
BRANCH  50  52
ATOM     52  N   UNL     1      11.760  -3.901   3.643  1.00  0.00    -0.339 N 
ATOM     53  C   UNL     1      12.168  -4.411   4.852  1.00  0.00     0.243 C 
ATOM     54  O   UNL     1      12.770  -5.477   4.952  1.00  0.00    -0.273 OA
ATOM     55  H   UNL     1      11.169  -3.073   3.635  1.00  0.00     0.164 HD
BRANCH  53  56
ATOM     56  C   UNL     1      11.664  -3.613   6.072  1.00  0.00     0.182 C 
BRANCH  56  57
ATOM     57  N   UNL     1      10.653  -4.371   6.816  1.00  0.00    -0.344 N 
ATOM     58  C   UNL     1       9.601  -5.001   6.196  1.00  0.00     0.220 C 
ATOM     59  O   UNL     1       9.392  -4.912   4.990  1.00  0.00    -0.275 OA
ATOM     60  H   UNL     1      10.844  -4.553   7.798  1.00  0.00     0.164 HD
BRANCH  58  61
ATOM     61  C   UNL     1       8.713  -5.773   7.153  1.00  0.00     0.100 C 
BRANCH  61  62
ATOM     62  C   UNL     1       9.412  -6.957   7.823  1.00  0.00     0.010 C 
BRANCH  62  63
ATOM     63  C   UNL     1       9.853  -8.057   6.850  1.00  0.00     0.000 C 
BRANCH  63  64
ATOM     64  C   UNL     1      11.339  -8.404   6.927  1.00  0.00    -0.003 C 
ATOM     65  C   UNL     1      11.914  -8.081   8.299  1.00  0.00     0.004 C 
ENDBRANCH  63  64
ENDBRANCH  62  63
ENDBRANCH  61  62
ENDBRANCH  58  61
ENDBRANCH  56  57
BRANCH  56  66
ATOM     66  C   UNL     1      11.164  -2.228   5.667  1.00  0.00     0.157 C 
BRANCH  66  67
ATOM     67  C   UNL     1      11.266  -1.258   6.809  1.00  0.00     0.305 C 
ATOM     68  O   UNL     1      12.097  -0.373   6.947  1.00  0.00    -0.252 OA
BRANCH  67  69
ATOM     69  O   UNL     1      10.274  -1.417   7.706  1.00  0.00    -0.481 OA
ATOM     70  H   UNL     1      10.719  -1.386   8.579  1.00  0.00     0.296 HD
ENDBRANCH  67  69
ENDBRANCH  66  67
ENDBRANCH  56  66
ENDBRANCH  53  56
ENDBRANCH  50  52
ENDBRANCH  47  50
ENDBRANCH  45  46
BRANCH  45  71
ATOM     71  C   UNL     1       8.165  -3.527   0.027  1.00  0.00     0.037 C 
BRANCH  71  72
ATOM     72  C   UNL     1       8.091  -4.687  -0.969  1.00  0.00     0.026 C 
BRANCH  72  73
ATOM     73  C   UNL     1       6.710  -4.784  -1.614  1.00  0.00     0.146 C 
BRANCH  73  74
ATOM     74  N   UNL     1       5.913  -3.658  -1.137  1.00  0.00    -0.254 NA
ATOM     75  C   UNL     1       4.640  -3.723  -1.275  1.00  0.00     0.185 C 
ATOM     76  N   UNL     1       3.880  -2.703  -0.845  1.00  0.00    -0.370 N 
ATOM     77  N   UNL     1       3.898  -4.706  -1.814  1.00  0.00    -0.370 N 
ATOM     78  H   UNL     1       4.361  -1.917  -0.432  1.00  0.00     0.159 HD
ATOM     79  H   UNL     1       2.900  -2.619  -1.048  1.00  0.00     0.159 HD
ATOM     80  H   UNL     1       4.336  -5.540  -2.177  1.00  0.00     0.159 HD
ATOM     81  H   UNL     1       2.893  -4.697  -1.763  1.00  0.00     0.159 HD
ENDBRANCH  73  74
ENDBRANCH  72  73
ENDBRANCH  71  72
ENDBRANCH  45  71
ENDBRANCH   3  45
TORSDOF 20
ENDMDL
MODEL 19
REMARK VINA RESULT:    -5.194      3.735      7.280
REMARK INTER + INTRA:         -22.312
REMARK INTER:                 -15.938
REMARK INTRA:                  -6.374
REMARK UNBOUND:                -7.402
REMARK SMILES CCCCCC(=O)N[C@H](CC(=O)O)C(=O)N[C@H]1C(=O)N[C@H](CCCN=C(N)N)C(=O)N[C@@H]2CC[C@H](O)N(C2=O)[C@@H](CC(C)C)C(=O)N(C)[C@@H](Cc2ccccc2)C(=O)N[C@H](C(C)C)C(=O)O[C@@H]1C
REMARK SMILES IDX 30 1 31 2 29 3 32 5 35 6 37 7 34 8 38 9 33 10 39 11 36 12
REMARK SMILES IDX 40 14 41 15 42 16 43 17 44 18 45 19 46 20 47 21 48 22 49 23
REMARK SMILES IDX 50 24 51 25 52 26 56 27 53 28 55 29 54 30 57 31 58 32 59 33
REMARK SMILES IDX 60 35 61 36 62 37 63 38 64 39 65 40 66 41 67 42 68 43 21 45
REMARK SMILES IDX 20 46 18 47 19 48 17 50 16 52 14 53 15 54 9 56 8 57 6 58
REMARK SMILES IDX 7 59 5 61 4 62 3 63 2 64 1 65 10 66 11 67 12 68 13 69 22 71
REMARK SMILES IDX 23 72 24 73 25 74 26 75 27 76 28 77
REMARK H PARENT 31 4 36 13 59 34 20 49 16 55 8 60 13 70 27 78 27 79 28 80
REMARK H PARENT 28 81
REMARK Flexibility Score:  259.900
ROOT
ATOM      1  O   UNL     1       8.232  -5.776   1.460  1.00  0.00    -0.273 OA
ATOM      2  N   UNL     1       7.879  -4.457  -0.375  1.00  0.00    -0.343 N 
ATOM      3  C   UNL     1       8.687  -5.135   0.512  1.00  0.00     0.243 C 
ATOM      4  H   UNL     1       8.287  -3.952  -1.151  1.00  0.00     0.164 HD
ENDROOT
BRANCH   2   5
ATOM      5  C   UNL     1       6.439  -4.375  -0.153  1.00  0.00     0.171 C 
ATOM      6  C   UNL     1       4.345  -2.812  -1.409  1.00  0.00     0.214 C 
ATOM      7  N   UNL     1       5.024  -2.287  -0.247  1.00  0.00    -0.303 N 
ATOM      8  C   UNL     1       4.272  -4.330  -1.428  1.00  0.00     0.057 C 
ATOM      9  C   UNL     1       6.066  -2.958   0.370  1.00  0.00     0.247 C 
ATOM     10  C   UNL     1       5.667  -4.911  -1.358  1.00  0.00     0.040 C 
ATOM     11  O   UNL     1       6.699  -2.462   1.312  1.00  0.00    -0.272 OA
BRANCH   6  12
ATOM     12  O   UNL     1       5.018  -2.337  -2.552  1.00  0.00    -0.373 OA
ATOM     13  H   UNL     1       4.409  -2.449  -3.312  1.00  0.00     0.213 HD
ENDBRANCH   6  12
BRANCH   7  14
ATOM     14  C   UNL     1       4.659  -0.919   0.181  1.00  0.00     0.177 C 
BRANCH  14  15
ATOM     15  C   UNL     1       4.989   0.195  -0.832  1.00  0.00     0.038 C 
BRANCH  15  16
ATOM     16  C   UNL     1       6.379   0.868  -0.796  1.00  0.00    -0.015 C 
ATOM     17  C   UNL     1       7.446   0.044  -1.522  1.00  0.00     0.007 C 
ATOM     18  C   UNL     1       6.826   1.059   0.658  1.00  0.00     0.007 C 
ENDBRANCH  15  16
ENDBRANCH  14  15
BRANCH  14  19
ATOM     19  C   UNL     1       3.395  -0.958   1.107  1.00  0.00     0.245 C 
ATOM     20  O   UNL     1       2.319  -1.272   0.571  1.00  0.00    -0.272 OA
BRANCH  19  21
ATOM     21  N   UNL     1       3.398  -0.561   2.432  1.00  0.00    -0.332 N 
ATOM     22  C   UNL     1       3.924  -1.334   3.543  1.00  0.00     0.147 C 
BRANCH  21  23
ATOM     23  C   UNL     1       2.804   0.764   2.762  1.00  0.00     0.178 C 
BRANCH  23  24
ATOM     24  C   UNL     1       3.498   1.968   2.093  1.00  0.00     0.070 C 
BRANCH  24  25
ATOM     25  C   UNL     1       3.766   3.177   2.959  1.00  0.00    -0.045 A 
ATOM     26  C   UNL     1       3.257   4.435   2.613  1.00  0.00     0.004 A 
ATOM     27  C   UNL     1       4.538   3.055   4.124  1.00  0.00     0.004 A 
ATOM     28  C   UNL     1       3.524   5.550   3.410  1.00  0.00     0.000 A 
ATOM     29  C   UNL     1       4.804   4.170   4.920  1.00  0.00     0.000 A 
ATOM     30  C   UNL     1       4.298   5.418   4.560  1.00  0.00     0.000 A 
ENDBRANCH  24  25
ENDBRANCH  23  24
BRANCH  23  31
ATOM     31  C   UNL     1       1.259   0.772   2.675  1.00  0.00     0.243 C 
ATOM     32  O   UNL     1       0.524   0.156   3.443  1.00  0.00    -0.273 OA
ATOM     33  N   UNL     1       0.772   1.389   1.535  1.00  0.00    -0.341 N 
ATOM     34  H   UNL     1       1.434   1.882   0.930  1.00  0.00     0.164 HD
BRANCH  33  35
ATOM     35  C   UNL     1      -0.651   1.411   1.185  1.00  0.00     0.194 C 
BRANCH  35  36
ATOM     36  C   UNL     1      -0.939   1.129  -0.317  1.00  0.00     0.017 C 
ATOM     37  C   UNL     1      -0.101   2.042  -1.229  1.00  0.00     0.010 C 
ATOM     38  C   UNL     1      -2.411   1.326  -0.697  1.00  0.00     0.010 C 
ENDBRANCH  35  36
BRANCH  35  39
ATOM     39  C   UNL     1      -1.369   2.697   1.681  1.00  0.00     0.329 C 
ATOM     40  O   UNL     1      -1.073   3.831   1.322  1.00  0.00    -0.250 OA
BRANCH  39  41
ATOM     41  O   UNL     1      -2.428   2.418   2.500  1.00  0.00    -0.458 OA
BRANCH  41  42
ATOM     42  C   UNL     1      -3.492   3.398   2.528  1.00  0.00     0.205 CG0
ATOM     43  C   UNL     1      -3.594   3.917   3.961  1.00  0.00     0.056 C 
ATOM     44  G   UNL     1      -4.794   2.724   2.051  1.00  0.00     0.000 G0
ENDBRANCH  41  42
ENDBRANCH  39  41
ENDBRANCH  35  39
ENDBRANCH  33  35
ENDBRANCH  23  31
ENDBRANCH  21  23
ENDBRANCH  19  21
ENDBRANCH  14  19
ENDBRANCH   7  14
ENDBRANCH   2   5
BRANCH   3  45
ATOM     45  C   UNL     1      10.192  -5.053   0.225  1.00  0.00     0.171 C 
BRANCH  45  46
ATOM     46  N   UNL     1      10.837  -5.832   1.274  1.00  0.00    -0.342 N 
ATOM     47  C   UNL     1      12.044  -6.457   1.090  1.00  0.00     0.247 C 
ATOM     48  O   UNL     1      12.703  -6.347   0.056  1.00  0.00    -0.273 OA
ATOM     49  H   UNL     1      10.351  -5.902   2.166  1.00  0.00     0.164 HD
BRANCH  47  50
ATOM     50  C   UNL     1      12.507  -7.334   2.262  1.00  0.00     0.212 CG0
ATOM     51  G   UNL     1      13.870  -6.794   2.739  1.00  0.00     0.000 G0
BRANCH  50  52
ATOM     52  N   UNL     1      11.457  -7.222   3.271  1.00  0.00    -0.339 N 
ATOM     53  C   UNL     1      11.709  -7.009   4.604  1.00  0.00     0.243 C 
ATOM     54  O   UNL     1      12.848  -6.949   5.061  1.00  0.00    -0.273 OA
ATOM     55  H   UNL     1      10.496  -7.375   2.971  1.00  0.00     0.164 HD
BRANCH  53  56
ATOM     56  C   UNL     1      10.447  -7.014   5.490  1.00  0.00     0.182 C 
BRANCH  56  57
ATOM     57  N   UNL     1      10.180  -5.678   6.033  1.00  0.00    -0.344 N 
ATOM     58  C   UNL     1       9.923  -4.595   5.229  1.00  0.00     0.220 C 
ATOM     59  O   UNL     1       9.971  -4.651   4.005  1.00  0.00    -0.275 OA
ATOM     60  H   UNL     1      10.031  -5.610   7.036  1.00  0.00     0.164 HD
BRANCH  58  61
ATOM     61  C   UNL     1       9.617  -3.328   6.006  1.00  0.00     0.100 C 
BRANCH  61  62
ATOM     62  C   UNL     1       8.462  -2.512   5.425  1.00  0.00     0.010 C 
BRANCH  62  63
ATOM     63  C   UNL     1       7.127  -3.266   5.369  1.00  0.00     0.000 C 
BRANCH  63  64
ATOM     64  C   UNL     1       6.524  -3.577   6.738  1.00  0.00    -0.003 C 
ATOM     65  C   UNL     1       5.049  -3.207   6.791  1.00  0.00     0.004 C 
ENDBRANCH  63  64
ENDBRANCH  62  63
ENDBRANCH  61  62
ENDBRANCH  58  61
ENDBRANCH  56  57
BRANCH  56  66
ATOM     66  C   UNL     1      10.536  -8.074   6.586  1.00  0.00     0.157 C 
BRANCH  66  67
ATOM     67  C   UNL     1      10.247  -7.486   7.937  1.00  0.00     0.305 C 
ATOM     68  O   UNL     1      11.022  -6.863   8.646  1.00  0.00    -0.252 OA
BRANCH  67  69
ATOM     69  O   UNL     1       8.966  -7.669   8.311  1.00  0.00    -0.481 OA
ATOM     70  H   UNL     1       8.549  -8.135   7.555  1.00  0.00     0.296 HD
ENDBRANCH  67  69
ENDBRANCH  66  67
ENDBRANCH  56  66
ENDBRANCH  53  56
ENDBRANCH  50  52
ENDBRANCH  47  50
ENDBRANCH  45  46
BRANCH  45  71
ATOM     71  C   UNL     1      10.659  -3.593   0.237  1.00  0.00     0.037 C 
BRANCH  71  72
ATOM     72  C   UNL     1      11.299  -3.182  -1.092  1.00  0.00     0.026 C 
BRANCH  72  73
ATOM     73  C   UNL     1      10.715  -3.970  -2.263  1.00  0.00     0.146 C 
BRANCH  73  74
ATOM     74  N   UNL     1       9.463  -3.328  -2.653  1.00  0.00    -0.254 NA
ATOM     75  C   UNL     1       8.827  -3.814  -3.654  1.00  0.00     0.185 C 
ATOM     76  N   UNL     1       7.672  -3.246  -4.036  1.00  0.00    -0.370 N 
ATOM     77  N   UNL     1       9.148  -4.865  -4.430  1.00  0.00    -0.370 N 
ATOM     78  H   UNL     1       7.361  -2.443  -3.509  1.00  0.00     0.159 HD
ATOM     79  H   UNL     1       7.197  -3.478  -4.891  1.00  0.00     0.159 HD
ATOM     80  H   UNL     1       9.991  -5.392  -4.257  1.00  0.00     0.159 HD
ATOM     81  H   UNL     1       8.510  -5.227  -5.119  1.00  0.00     0.159 HD
ENDBRANCH  73  74
ENDBRANCH  72  73
ENDBRANCH  71  72
ENDBRANCH  45  71
ENDBRANCH   3  45
TORSDOF 20
ENDMDL
MODEL 20
REMARK VINA RESULT:    -5.170      3.240      5.383
REMARK INTER + INTRA:         -22.244
REMARK INTER:                 -18.062
REMARK INTRA:                  -4.182
REMARK UNBOUND:                -7.402
REMARK SMILES CCCCCC(=O)N[C@H](CC(=O)O)C(=O)N[C@H]1C(=O)N[C@H](CCCN=C(N)N)C(=O)N[C@@H]2CC[C@H](O)N(C2=O)[C@@H](CC(C)C)C(=O)N(C)[C@@H](Cc2ccccc2)C(=O)N[C@H](C(C)C)C(=O)O[C@@H]1C
REMARK SMILES IDX 30 1 31 2 29 3 32 5 35 6 37 7 34 8 38 9 33 10 39 11 36 12
REMARK SMILES IDX 40 14 41 15 42 16 43 17 44 18 45 19 46 20 47 21 48 22 49 23
REMARK SMILES IDX 50 24 51 25 52 26 56 27 53 28 55 29 54 30 57 31 58 32 59 33
REMARK SMILES IDX 60 35 61 36 62 37 63 38 64 39 65 40 66 41 67 42 68 43 21 45
REMARK SMILES IDX 20 46 18 47 19 48 17 50 16 52 14 53 15 54 9 56 8 57 6 58
REMARK SMILES IDX 7 59 5 61 4 62 3 63 2 64 1 65 10 66 11 67 12 68 13 69 22 71
REMARK SMILES IDX 23 72 24 73 25 74 26 75 27 76 28 77
REMARK H PARENT 31 4 36 13 59 34 20 49 16 55 8 60 13 70 27 78 27 79 28 80
REMARK H PARENT 28 81
REMARK Flexibility Score:  259.900
ROOT
ATOM      1  O   UNL     1      10.624  -1.746   4.931  1.00  0.00    -0.273 OA
ATOM      2  N   UNL     1       8.434  -2.308   4.586  1.00  0.00    -0.343 N 
ATOM      3  C   UNL     1       9.784  -2.587   4.611  1.00  0.00     0.243 C 
ATOM      4  H   UNL     1       7.770  -3.029   4.332  1.00  0.00     0.164 HD
ENDROOT
BRANCH   2   5
ATOM      5  C   UNL     1       7.952  -0.952   4.828  1.00  0.00     0.171 C 
ATOM      6  C   UNL     1       5.340   0.114   5.494  1.00  0.00     0.214 C 
ATOM      7  N   UNL     1       5.728   0.000   4.107  1.00  0.00    -0.303 N 
ATOM      8  C   UNL     1       6.514   0.347   6.431  1.00  0.00     0.057 C 
ATOM      9  C   UNL     1       6.940  -0.547   3.718  1.00  0.00     0.247 C 
ATOM     10  C   UNL     1       7.519  -0.775   6.282  1.00  0.00     0.040 C 
ATOM     11  O   UNL     1       7.229  -0.721   2.527  1.00  0.00    -0.272 OA
BRANCH   6  12
ATOM     12  O   UNL     1       4.655  -1.065   5.847  1.00  0.00    -0.373 OA
ATOM     13  H   UNL     1       3.711  -0.931   5.615  1.00  0.00     0.213 HD
ENDBRANCH   6  12
BRANCH   7  14
ATOM     14  C   UNL     1       4.712   0.359   3.095  1.00  0.00     0.177 C 
BRANCH  14  15
ATOM     15  C   UNL     1       3.886  -0.821   2.547  1.00  0.00     0.038 C 
BRANCH  15  16
ATOM     16  C   UNL     1       3.457  -0.826   1.063  1.00  0.00    -0.015 C 
ATOM     17  C   UNL     1       2.024  -1.332   0.871  1.00  0.00     0.007 C 
ATOM     18  C   UNL     1       4.397  -1.728   0.254  1.00  0.00     0.007 C 
ENDBRANCH  15  16
ENDBRANCH  14  15
BRANCH  14  19
ATOM     19  C   UNL     1       4.163   1.802   3.364  1.00  0.00     0.245 C 
ATOM     20  O   UNL     1       5.005   2.707   3.491  1.00  0.00    -0.272 OA
BRANCH  19  21
ATOM     21  N   UNL     1       2.827   2.092   3.575  1.00  0.00    -0.332 N 
ATOM     22  C   UNL     1       1.878   2.486   2.549  1.00  0.00     0.147 C 
BRANCH  21  23
ATOM     23  C   UNL     1       2.308   2.008   4.968  1.00  0.00     0.178 C 
BRANCH  23  24
ATOM     24  C   UNL     1       3.291   2.493   6.054  1.00  0.00     0.070 C 
BRANCH  24  25
ATOM     25  C   UNL     1       3.068   3.878   6.615  1.00  0.00    -0.045 A 
ATOM     26  C   UNL     1       3.341   5.016   5.846  1.00  0.00     0.004 A 
ATOM     27  C   UNL     1       2.587   4.043   7.922  1.00  0.00     0.004 A 
ATOM     28  C   UNL     1       3.148   6.293   6.378  1.00  0.00     0.000 A 
ATOM     29  C   UNL     1       2.394   5.319   8.452  1.00  0.00     0.000 A 
ATOM     30  C   UNL     1       2.678   6.444   7.680  1.00  0.00     0.000 A 
ENDBRANCH  24  25
ENDBRANCH  23  24
BRANCH  23  31
ATOM     31  C   UNL     1       0.864   2.548   5.108  1.00  0.00     0.243 C 
ATOM     32  O   UNL     1       0.460   3.575   4.570  1.00  0.00    -0.273 OA
ATOM     33  N   UNL     1       0.109   1.870   6.050  1.00  0.00    -0.341 N 
ATOM     34  H   UNL     1       0.503   1.023   6.470  1.00  0.00     0.164 HD
BRANCH  33  35
ATOM     35  C   UNL     1      -1.244   2.280   6.435  1.00  0.00     0.194 C 
BRANCH  35  36
ATOM     36  C   UNL     1      -1.372   2.739   7.915  1.00  0.00     0.017 C 
ATOM     37  C   UNL     1      -1.151   4.255   8.051  1.00  0.00     0.010 C 
ATOM     38  C   UNL     1      -0.376   2.044   8.851  1.00  0.00     0.010 C 
ENDBRANCH  35  36
BRANCH  35  39
ATOM     39  C   UNL     1      -2.319   1.221   6.061  1.00  0.00     0.329 C 
ATOM     40  O   UNL     1      -2.297   0.057   6.444  1.00  0.00    -0.250 OA
BRANCH  39  41
ATOM     41  O   UNL     1      -3.341   1.754   5.326  1.00  0.00    -0.458 OA
BRANCH  41  42
ATOM     42  C   UNL     1      -4.663   1.669   5.910  1.00  0.00     0.205 CG0
ATOM     43  C   UNL     1      -5.548   0.912   4.922  1.00  0.00     0.056 C 
ATOM     44  G   UNL     1      -5.173   3.098   6.183  1.00  0.00     0.000 G0
ENDBRANCH  41  42
ENDBRANCH  39  41
ENDBRANCH  35  39
ENDBRANCH  33  35
ENDBRANCH  23  31
ENDBRANCH  21  23
ENDBRANCH  19  21
ENDBRANCH  14  19
ENDBRANCH   7  14
ENDBRANCH   2   5
BRANCH   3  45
ATOM     45  C   UNL     1      10.164  -4.025   4.232  1.00  0.00     0.171 C 
BRANCH  45  46
ATOM     46  N   UNL     1      11.119  -3.904   3.139  1.00  0.00    -0.342 N 
ATOM     47  C   UNL     1      12.444  -4.232   3.279  1.00  0.00     0.247 C 
ATOM     48  O   UNL     1      12.906  -4.719   4.312  1.00  0.00    -0.273 OA
ATOM     49  H   UNL     1      10.767  -3.558   2.248  1.00  0.00     0.164 HD
BRANCH  47  50
ATOM     50  C   UNL     1      13.324  -3.923   2.060  1.00  0.00     0.212 CG0
ATOM     51  G   UNL     1      14.791  -3.904   2.533  1.00  0.00     0.000 G0
BRANCH  50  52
ATOM     52  N   UNL     1      13.042  -4.984   1.096  1.00  0.00    -0.339 N 
ATOM     53  C   UNL     1      13.440  -4.937  -0.217  1.00  0.00     0.243 C 
ATOM     54  O   UNL     1      14.023  -3.969  -0.699  1.00  0.00    -0.273 OA
ATOM     55  H   UNL     1      12.465  -5.763   1.407  1.00  0.00     0.164 HD
BRANCH  53  56
ATOM     56  C   UNL     1      12.953  -6.131  -1.063  1.00  0.00     0.182 C 
BRANCH  56  57
ATOM     57  N   UNL     1      11.712  -5.802  -1.772  1.00  0.00    -0.344 N 
ATOM     58  C   UNL     1      11.703  -5.334  -3.063  1.00  0.00     0.220 C 
ATOM     59  O   UNL     1      12.730  -5.090  -3.687  1.00  0.00    -0.275 OA
ATOM     60  H   UNL     1      10.841  -6.085  -1.330  1.00  0.00     0.164 HD
BRANCH  58  61
ATOM     61  C   UNL     1      10.306  -5.117  -3.614  1.00  0.00     0.100 C 
BRANCH  61  62
ATOM     62  C   UNL     1       9.199  -5.696  -2.734  1.00  0.00     0.010 C 
BRANCH  62  63
ATOM     63  C   UNL     1       7.887  -4.902  -2.771  1.00  0.00     0.000 C 
BRANCH  63  64
ATOM     64  C   UNL     1       6.837  -5.470  -3.724  1.00  0.00    -0.003 C 
ATOM     65  C   UNL     1       7.061  -6.954  -3.976  1.00  0.00     0.004 C 
ENDBRANCH  63  64
ENDBRANCH  62  63
ENDBRANCH  61  62
ENDBRANCH  58  61
ENDBRANCH  56  57
BRANCH  56  66
ATOM     66  C   UNL     1      12.817  -7.397  -0.220  1.00  0.00     0.157 C 
BRANCH  66  67
ATOM     67  C   UNL     1      13.033  -8.630  -1.050  1.00  0.00     0.305 C 
ATOM     68  O   UNL     1      12.898  -9.789  -0.690  1.00  0.00    -0.252 OA
BRANCH  67  69
ATOM     69  O   UNL     1      13.363  -8.338  -2.323  1.00  0.00    -0.481 OA
ATOM     70  H   UNL     1      14.108  -7.705  -2.249  1.00  0.00     0.296 HD
ENDBRANCH  67  69
ENDBRANCH  66  67
ENDBRANCH  56  66
ENDBRANCH  53  56
ENDBRANCH  50  52
ENDBRANCH  47  50
ENDBRANCH  45  46
BRANCH  45  71
ATOM     71  C   UNL     1       8.919  -4.813   3.811  1.00  0.00     0.037 C 
BRANCH  71  72
ATOM     72  C   UNL     1       9.144  -6.325   3.880  1.00  0.00     0.026 C 
BRANCH  72  73
ATOM     73  C   UNL     1       9.544  -6.768   5.286  1.00  0.00     0.146 C 
BRANCH  73  74
ATOM     74  N   UNL     1       8.414  -6.509   6.174  1.00  0.00    -0.254 NA
ATOM     75  C   UNL     1       8.668  -6.085   7.357  1.00  0.00     0.185 C 
ATOM     76  N   UNL     1       7.650  -5.836   8.197  1.00  0.00    -0.370 N 
ATOM     77  N   UNL     1       9.859  -5.832   7.927  1.00  0.00    -0.370 N 
ATOM     78  H   UNL     1       6.717  -6.007   7.849  1.00  0.00     0.159 HD
ATOM     79  H   UNL     1       7.773  -5.643   9.175  1.00  0.00     0.159 HD
ATOM     80  H   UNL     1      10.715  -5.971   7.412  1.00  0.00     0.159 HD
ATOM     81  H   UNL     1       9.930  -5.390   8.829  1.00  0.00     0.159 HD
ENDBRANCH  73  74
ENDBRANCH  72  73
ENDBRANCH  71  72
ENDBRANCH  45  71
ENDBRANCH   3  45
TORSDOF 20
ENDMDL
MODEL 21
REMARK VINA RESULT:    -5.166      3.656      7.283
REMARK INTER + INTRA:         -22.233
REMARK INTER:                 -15.542
REMARK INTRA:                  -6.691
REMARK UNBOUND:                -7.402
REMARK SMILES CCCCCC(=O)N[C@H](CC(=O)O)C(=O)N[C@H]1C(=O)N[C@H](CCCN=C(N)N)C(=O)N[C@@H]2CC[C@H](O)N(C2=O)[C@@H](CC(C)C)C(=O)N(C)[C@@H](Cc2ccccc2)C(=O)N[C@H](C(C)C)C(=O)O[C@@H]1C
REMARK SMILES IDX 30 1 31 2 29 3 32 5 35 6 37 7 34 8 38 9 33 10 39 11 36 12
REMARK SMILES IDX 40 14 41 15 42 16 43 17 44 18 45 19 46 20 47 21 48 22 49 23
REMARK SMILES IDX 50 24 51 25 52 26 56 27 53 28 55 29 54 30 57 31 58 32 59 33
REMARK SMILES IDX 60 35 61 36 62 37 63 38 64 39 65 40 66 41 67 42 68 43 21 45
REMARK SMILES IDX 20 46 18 47 19 48 17 50 16 52 14 53 15 54 9 56 8 57 6 58
REMARK SMILES IDX 7 59 5 61 4 62 3 63 2 64 1 65 10 66 11 67 12 68 13 69 22 71
REMARK SMILES IDX 23 72 24 73 25 74 26 75 27 76 28 77
REMARK H PARENT 31 4 36 13 59 34 20 49 16 55 8 60 13 70 27 78 27 79 28 80
REMARK H PARENT 28 81
REMARK Flexibility Score:  259.900
ROOT
ATOM      1  O   UNL     1       8.446  -5.464   1.249  1.00  0.00    -0.273 OA
ATOM      2  N   UNL     1       7.949  -4.147  -0.553  1.00  0.00    -0.343 N 
ATOM      3  C   UNL     1       8.827  -4.791   0.291  1.00  0.00     0.243 C 
ATOM      4  H   UNL     1       8.298  -3.614  -1.340  1.00  0.00     0.164 HD
ENDROOT
BRANCH   2   5
ATOM      5  C   UNL     1       6.518  -4.139  -0.270  1.00  0.00     0.171 C 
ATOM      6  C   UNL     1       4.270  -2.825  -1.545  1.00  0.00     0.214 C 
ATOM      7  N   UNL     1       4.960  -2.162  -0.463  1.00  0.00    -0.303 N 
ATOM      8  C   UNL     1       4.300  -4.341  -1.439  1.00  0.00     0.057 C 
ATOM      9  C   UNL     1       6.072  -2.711   0.156  1.00  0.00     0.247 C 
ATOM     10  C   UNL     1       5.734  -4.823  -1.389  1.00  0.00     0.040 C 
ATOM     11  O   UNL     1       6.709  -2.099   1.023  1.00  0.00    -0.272 OA
BRANCH   6  12
ATOM     12  O   UNL     1       4.860  -2.404  -2.753  1.00  0.00    -0.373 OA
ATOM     13  H   UNL     1       5.101  -1.459  -2.642  1.00  0.00     0.213 HD
ENDBRANCH   6  12
BRANCH   7  14
ATOM     14  C   UNL     1       4.522  -0.790  -0.128  1.00  0.00     0.177 C 
BRANCH  14  15
ATOM     15  C   UNL     1       4.761   0.261  -1.229  1.00  0.00     0.038 C 
BRANCH  15  16
ATOM     16  C   UNL     1       3.560   1.034  -1.817  1.00  0.00    -0.015 C 
ATOM     17  C   UNL     1       3.367   0.766  -3.312  1.00  0.00     0.007 C 
ATOM     18  C   UNL     1       3.767   2.542  -1.622  1.00  0.00     0.007 C 
ENDBRANCH  15  16
ENDBRANCH  14  15
BRANCH  14  19
ATOM     19  C   UNL     1       3.283  -0.834   0.830  1.00  0.00     0.245 C 
ATOM     20  O   UNL     1       2.183  -1.088   0.312  1.00  0.00    -0.272 OA
BRANCH  19  21
ATOM     21  N   UNL     1       3.334  -0.501   2.172  1.00  0.00    -0.332 N 
ATOM     22  C   UNL     1       3.886  -1.332   3.227  1.00  0.00     0.147 C 
BRANCH  21  23
ATOM     23  C   UNL     1       2.768   0.814   2.585  1.00  0.00     0.178 C 
BRANCH  23  24
ATOM     24  C   UNL     1       3.424   2.038   1.913  1.00  0.00     0.070 C 
BRANCH  24  25
ATOM     25  C   UNL     1       3.749   3.218   2.799  1.00  0.00    -0.045 A 
ATOM     26  C   UNL     1       4.183   3.027   4.117  1.00  0.00     0.004 A 
ATOM     27  C   UNL     1       3.615   4.527   2.312  1.00  0.00     0.004 A 
ATOM     28  C   UNL     1       4.464   4.123   4.936  1.00  0.00     0.000 A 
ATOM     29  C   UNL     1       3.898   5.621   3.131  1.00  0.00     0.000 A 
ATOM     30  C   UNL     1       4.320   5.418   4.443  1.00  0.00     0.000 A 
ENDBRANCH  24  25
ENDBRANCH  23  24
BRANCH  23  31
ATOM     31  C   UNL     1       1.221   0.828   2.597  1.00  0.00     0.243 C 
ATOM     32  O   UNL     1       0.533   0.105   3.313  1.00  0.00    -0.273 OA
ATOM     33  N   UNL     1       0.667   1.602   1.591  1.00  0.00    -0.341 N 
ATOM     34  H   UNL     1       1.292   2.179   1.023  1.00  0.00     0.164 HD
BRANCH  33  35
ATOM     35  C   UNL     1      -0.775   1.669   1.338  1.00  0.00     0.194 C 
BRANCH  35  36
ATOM     36  C   UNL     1      -1.149   1.834  -0.162  1.00  0.00     0.017 C 
ATOM     37  C   UNL     1      -1.903   0.601  -0.689  1.00  0.00     0.010 C 
ATOM     38  C   UNL     1       0.069   2.049  -1.069  1.00  0.00     0.010 C 
ENDBRANCH  35  36
BRANCH  35  39
ATOM     39  C   UNL     1      -1.491   2.720   2.233  1.00  0.00     0.329 C 
ATOM     40  O   UNL     1      -1.750   2.548   3.418  1.00  0.00    -0.250 OA
BRANCH  39  41
ATOM     41  O   UNL     1      -1.722   3.894   1.573  1.00  0.00    -0.458 OA
BRANCH  41  42
ATOM     42  C   UNL     1      -2.982   4.550   1.853  1.00  0.00     0.205 CG0
ATOM     43  C   UNL     1      -3.960   4.145   0.752  1.00  0.00     0.056 C 
ATOM     44  G   UNL     1      -2.744   6.072   1.900  1.00  0.00     0.000 G0
ENDBRANCH  41  42
ENDBRANCH  39  41
ENDBRANCH  35  39
ENDBRANCH  33  35
ENDBRANCH  23  31
ENDBRANCH  21  23
ENDBRANCH  19  21
ENDBRANCH  14  19
ENDBRANCH   7  14
ENDBRANCH   2   5
BRANCH   3  45
ATOM     45  C   UNL     1      10.313  -4.630  -0.059  1.00  0.00     0.171 C 
BRANCH  45  46
ATOM     46  N   UNL     1      11.029  -5.526   0.840  1.00  0.00    -0.342 N 
ATOM     47  C   UNL     1      11.923  -6.462   0.387  1.00  0.00     0.247 C 
ATOM     48  O   UNL     1      12.240  -6.566  -0.798  1.00  0.00    -0.273 OA
ATOM     49  H   UNL     1      10.838  -5.436   1.836  1.00  0.00     0.164 HD
BRANCH  47  50
ATOM     50  C   UNL     1      12.486  -7.399   1.466  1.00  0.00     0.212 CG0
ATOM     51  G   UNL     1      13.999  -7.125   1.580  1.00  0.00     0.000 G0
BRANCH  50  52
ATOM     52  N   UNL     1      11.748  -7.077   2.684  1.00  0.00    -0.339 N 
ATOM     53  C   UNL     1      12.215  -7.353   3.946  1.00  0.00     0.243 C 
ATOM     54  O   UNL     1      13.273  -7.943   4.146  1.00  0.00    -0.273 OA
ATOM     55  H   UNL     1      10.813  -6.687   2.582  1.00  0.00     0.164 HD
BRANCH  53  56
ATOM     56  C   UNL     1      11.223  -7.001   5.074  1.00  0.00     0.182 C 
BRANCH  56  57
ATOM     57  N   UNL     1      10.568  -5.714   4.816  1.00  0.00    -0.344 N 
ATOM     58  C   UNL     1       9.203  -5.586   4.739  1.00  0.00     0.220 C 
ATOM     59  O   UNL     1       8.442  -6.545   4.808  1.00  0.00    -0.275 OA
ATOM     60  H   UNL     1      11.153  -4.884   4.854  1.00  0.00     0.164 HD
BRANCH  58  61
ATOM     61  C   UNL     1       8.744  -4.156   4.524  1.00  0.00     0.100 C 
BRANCH  61  62
ATOM     62  C   UNL     1       9.066  -3.223   5.692  1.00  0.00     0.010 C 
BRANCH  62  63
ATOM     63  C   UNL     1       7.841  -2.516   6.286  1.00  0.00     0.000 C 
BRANCH  63  64
ATOM     64  C   UNL     1       6.755  -3.463   6.792  1.00  0.00    -0.003 C 
ATOM     65  C   UNL     1       5.369  -2.994   6.371  1.00  0.00     0.004 C 
ENDBRANCH  63  64
ENDBRANCH  62  63
ENDBRANCH  61  62
ENDBRANCH  58  61
ENDBRANCH  56  57
BRANCH  56  66
ATOM     66  C   UNL     1      11.897  -7.040   6.444  1.00  0.00     0.157 C 
BRANCH  66  67
ATOM     67  C   UNL     1      10.898  -7.308   7.533  1.00  0.00     0.305 C 
ATOM     68  O   UNL     1      10.943  -6.903   8.685  1.00  0.00    -0.252 OA
BRANCH  67  69
ATOM     69  O   UNL     1       9.853  -8.039   7.101  1.00  0.00    -0.481 OA
ATOM     70  H   UNL     1      10.216  -8.589   6.375  1.00  0.00     0.296 HD
ENDBRANCH  67  69
ENDBRANCH  66  67
ENDBRANCH  56  66
ENDBRANCH  53  56
ENDBRANCH  50  52
ENDBRANCH  47  50
ENDBRANCH  45  46
BRANCH  45  71
ATOM     71  C   UNL     1      10.750  -3.173   0.127  1.00  0.00     0.037 C 
BRANCH  71  72
ATOM     72  C   UNL     1      11.404  -2.938   1.491  1.00  0.00     0.026 C 
BRANCH  72  73
ATOM     73  C   UNL     1      11.162  -1.516   1.991  1.00  0.00     0.146 C 
BRANCH  73  74
ATOM     74  N   UNL     1       9.800  -1.449   2.510  1.00  0.00    -0.254 NA
ATOM     75  C   UNL     1       9.254  -0.294   2.615  1.00  0.00     0.185 C 
ATOM     76  N   UNL     1       8.001  -0.201   3.089  1.00  0.00    -0.370 N 
ATOM     77  N   UNL     1       9.764   0.912   2.310  1.00  0.00    -0.370 N 
ATOM     78  H   UNL     1       7.546  -1.064   3.350  1.00  0.00     0.159 HD
ATOM     79  H   UNL     1       7.565   0.670   3.334  1.00  0.00     0.159 HD
ATOM     80  H   UNL     1      10.698   0.996   1.939  1.00  0.00     0.159 HD
ATOM     81  H   UNL     1       9.198   1.744   2.327  1.00  0.00     0.159 HD
ENDBRANCH  73  74
ENDBRANCH  72  73
ENDBRANCH  71  72
ENDBRANCH  45  71
ENDBRANCH   3  45
TORSDOF 20
ENDMDL
MODEL 22
REMARK VINA RESULT:    -5.162      4.077      6.781
REMARK INTER + INTRA:         -22.221
REMARK INTER:                 -14.104
REMARK INTRA:                  -8.117
REMARK UNBOUND:                -7.402
REMARK SMILES CCCCCC(=O)N[C@H](CC(=O)O)C(=O)N[C@H]1C(=O)N[C@H](CCCN=C(N)N)C(=O)N[C@@H]2CC[C@H](O)N(C2=O)[C@@H](CC(C)C)C(=O)N(C)[C@@H](Cc2ccccc2)C(=O)N[C@H](C(C)C)C(=O)O[C@@H]1C
REMARK SMILES IDX 30 1 31 2 29 3 32 5 35 6 37 7 34 8 38 9 33 10 39 11 36 12
REMARK SMILES IDX 40 14 41 15 42 16 43 17 44 18 45 19 46 20 47 21 48 22 49 23
REMARK SMILES IDX 50 24 51 25 52 26 56 27 53 28 55 29 54 30 57 31 58 32 59 33
REMARK SMILES IDX 60 35 61 36 62 37 63 38 64 39 65 40 66 41 67 42 68 43 21 45
REMARK SMILES IDX 20 46 18 47 19 48 17 50 16 52 14 53 15 54 9 56 8 57 6 58
REMARK SMILES IDX 7 59 5 61 4 62 3 63 2 64 1 65 10 66 11 67 12 68 13 69 22 71
REMARK SMILES IDX 23 72 24 73 25 74 26 75 27 76 28 77
REMARK H PARENT 31 4 36 13 59 34 20 49 16 55 8 60 13 70 27 78 27 79 28 80
REMARK H PARENT 28 81
REMARK Flexibility Score:  259.900
ROOT
ATOM      1  O   UNL     1       7.653  -4.472   3.379  1.00  0.00    -0.273 OA
ATOM      2  N   UNL     1       7.459  -2.195   3.480  1.00  0.00    -0.343 N 
ATOM      3  C   UNL     1       7.931  -3.408   3.934  1.00  0.00     0.243 C 
ATOM      4  H   UNL     1       7.721  -1.339   3.953  1.00  0.00     0.164 HD
ENDROOT
BRANCH   2   5
ATOM      5  C   UNL     1       6.503  -2.135   2.380  1.00  0.00     0.171 C 
ATOM      6  C   UNL     1       5.411   0.068   0.845  1.00  0.00     0.214 C 
ATOM      7  N   UNL     1       4.723  -0.379   2.033  1.00  0.00    -0.303 N 
ATOM      8  C   UNL     1       6.177  -1.041   0.140  1.00  0.00     0.057 C 
ATOM      9  C   UNL     1       5.216  -1.391   2.840  1.00  0.00     0.247 C 
ATOM     10  C   UNL     1       7.175  -1.660   1.094  1.00  0.00     0.040 C 
ATOM     11  O   UNL     1       4.667  -1.709   3.903  1.00  0.00    -0.272 OA
BRANCH   6  12
ATOM     12  O   UNL     1       6.284   1.109   1.218  1.00  0.00    -0.373 OA
ATOM     13  H   UNL     1       5.728   1.843   1.556  1.00  0.00     0.213 HD
ENDBRANCH   6  12
BRANCH   7  14
ATOM     14  C   UNL     1       3.531   0.391   2.447  1.00  0.00     0.177 C 
BRANCH  14  15
ATOM     15  C   UNL     1       3.823   1.772   3.066  1.00  0.00     0.038 C 
BRANCH  15  16
ATOM     16  C   UNL     1       4.557   1.858   4.423  1.00  0.00    -0.015 C 
ATOM     17  C   UNL     1       3.862   1.040   5.515  1.00  0.00     0.007 C 
ATOM     18  C   UNL     1       4.623   3.319   4.885  1.00  0.00     0.007 C 
ENDBRANCH  15  16
ENDBRANCH  14  15
BRANCH  14  19
ATOM     19  C   UNL     1       2.316   0.054   1.516  1.00  0.00     0.245 C 
ATOM     20  O   UNL     1       2.095  -1.149   1.298  1.00  0.00    -0.272 OA
BRANCH  19  21
ATOM     21  N   UNL     1       1.566   1.007   0.851  1.00  0.00    -0.332 N 
ATOM     22  C   UNL     1       1.972   1.709  -0.354  1.00  0.00     0.147 C 
BRANCH  21  23
ATOM     23  C   UNL     1       0.233   1.362   1.413  1.00  0.00     0.178 C 
BRANCH  23  24
ATOM     24  C   UNL     1       0.193   2.696   2.185  1.00  0.00     0.070 C 
BRANCH  24  25
ATOM     25  C   UNL     1       0.375   2.630   3.684  1.00  0.00    -0.045 A 
ATOM     26  C   UNL     1       0.058   1.466   4.394  1.00  0.00     0.004 A 
ATOM     27  C   UNL     1       0.861   3.743   4.387  1.00  0.00     0.004 A 
ATOM     28  C   UNL     1       0.213   1.418   5.782  1.00  0.00     0.000 A 
ATOM     29  C   UNL     1       1.017   3.694   5.773  1.00  0.00     0.000 A 
ATOM     30  C   UNL     1       0.689   2.532   6.470  1.00  0.00     0.000 A 
ENDBRANCH  24  25
ENDBRANCH  23  24
BRANCH  23  31
ATOM     31  C   UNL     1      -0.922   1.157   0.404  1.00  0.00     0.243 C 
ATOM     32  O   UNL     1      -0.888   0.354  -0.525  1.00  0.00    -0.273 OA
ATOM     33  N   UNL     1      -1.934   2.095   0.524  1.00  0.00    -0.341 N 
ATOM     34  H   UNL     1      -1.904   2.742   1.316  1.00  0.00     0.164 HD
BRANCH  33  35
ATOM     35  C   UNL     1      -3.069   2.168  -0.400  1.00  0.00     0.194 C 
BRANCH  35  36
ATOM     36  C   UNL     1      -3.239   3.552  -1.088  1.00  0.00     0.017 C 
ATOM     37  C   UNL     1      -3.089   3.440  -2.615  1.00  0.00     0.010 C 
ATOM     38  C   UNL     1      -2.227   4.596  -0.603  1.00  0.00     0.010 C 
ENDBRANCH  35  36
BRANCH  35  39
ATOM     39  C   UNL     1      -4.394   1.671   0.241  1.00  0.00     0.329 C 
ATOM     40  O   UNL     1      -4.755   1.954   1.377  1.00  0.00    -0.250 OA
BRANCH  39  41
ATOM     41  O   UNL     1      -5.159   0.952  -0.636  1.00  0.00    -0.458 OA
BRANCH  41  42
ATOM     42  C   UNL     1      -6.386   1.578  -1.080  1.00  0.00     0.205 CG0
ATOM     43  C   UNL     1      -7.534   0.916  -0.321  1.00  0.00     0.056 C 
ATOM     44  G   UNL     1      -6.506   1.397  -2.606  1.00  0.00     0.000 G0
ENDBRANCH  41  42
ENDBRANCH  39  41
ENDBRANCH  35  39
ENDBRANCH  33  35
ENDBRANCH  23  31
ENDBRANCH  21  23
ENDBRANCH  19  21
ENDBRANCH  14  19
ENDBRANCH   7  14
ENDBRANCH   2   5
BRANCH   3  45
ATOM     45  C   UNL     1       8.845  -3.339   5.165  1.00  0.00     0.171 C 
BRANCH  45  46
ATOM     46  N   UNL     1      10.206  -3.361   4.647  1.00  0.00    -0.342 N 
ATOM     47  C   UNL     1      10.837  -2.234   4.185  1.00  0.00     0.247 C 
ATOM     48  O   UNL     1      10.329  -1.113   4.241  1.00  0.00    -0.273 OA
ATOM     49  H   UNL     1      10.685  -4.260   4.635  1.00  0.00     0.164 HD
BRANCH  47  50
ATOM     50  C   UNL     1      12.220  -2.472   3.562  1.00  0.00     0.212 CG0
ATOM     51  G   UNL     1      12.897  -3.611   4.350  1.00  0.00     0.000 G0
BRANCH  50  52
ATOM     52  N   UNL     1      11.966  -2.809   2.164  1.00  0.00    -0.339 N 
ATOM     53  C   UNL     1      12.489  -3.919   1.547  1.00  0.00     0.243 C 
ATOM     54  O   UNL     1      13.258  -4.690   2.113  1.00  0.00    -0.273 OA
ATOM     55  H   UNL     1      11.424  -2.148   1.610  1.00  0.00     0.164 HD
BRANCH  53  56
ATOM     56  C   UNL     1      12.152  -4.019   0.045  1.00  0.00     0.182 C 
BRANCH  56  57
ATOM     57  N   UNL     1      10.730  -4.315  -0.157  1.00  0.00    -0.344 N 
ATOM     58  C   UNL     1       9.941  -3.584  -1.011  1.00  0.00     0.220 C 
ATOM     59  O   UNL     1      10.348  -2.593  -1.606  1.00  0.00    -0.275 OA
ATOM     60  H   UNL     1      10.380  -5.185   0.236  1.00  0.00     0.164 HD
BRANCH  58  61
ATOM     61  C   UNL     1       8.518  -4.104  -1.108  1.00  0.00     0.100 C 
BRANCH  61  62
ATOM     62  C   UNL     1       7.782  -3.654  -2.370  1.00  0.00     0.010 C 
BRANCH  62  63
ATOM     63  C   UNL     1       6.513  -4.458  -2.677  1.00  0.00     0.000 C 
BRANCH  63  64
ATOM     64  C   UNL     1       5.214  -3.677  -2.488  1.00  0.00    -0.003 C 
ATOM     65  C   UNL     1       4.322  -4.327  -1.440  1.00  0.00     0.004 C 
ENDBRANCH  63  64
ENDBRANCH  62  63
ENDBRANCH  61  62
ENDBRANCH  58  61
ENDBRANCH  56  57
BRANCH  56  66
ATOM     66  C   UNL     1      13.057  -5.024  -0.666  1.00  0.00     0.157 C 
BRANCH  66  67
ATOM     67  C   UNL     1      12.337  -6.316  -0.924  1.00  0.00     0.305 C 
ATOM     68  O   UNL     1      12.152  -7.224  -0.128  1.00  0.00    -0.252 OA
BRANCH  67  69
ATOM     69  O   UNL     1      11.835  -6.381  -2.172  1.00  0.00    -0.481 OA
ATOM     70  H   UNL     1      11.012  -5.849  -2.138  1.00  0.00     0.296 HD
ENDBRANCH  67  69
ENDBRANCH  66  67
ENDBRANCH  56  66
ENDBRANCH  53  56
ENDBRANCH  50  52
ENDBRANCH  47  50
ENDBRANCH  45  46
BRANCH  45  71
ATOM     71  C   UNL     1       8.575  -4.524   6.098  1.00  0.00     0.037 C 
BRANCH  71  72
ATOM     72  C   UNL     1       9.736  -5.522   6.112  1.00  0.00     0.026 C 
BRANCH  72  73
ATOM     73  C   UNL     1       9.385  -6.802   5.357  1.00  0.00     0.146 C 
BRANCH  73  74
ATOM     74  N   UNL     1      10.587  -7.256   4.665  1.00  0.00    -0.254 NA
ATOM     75  C   UNL     1      10.728  -6.931   3.433  1.00  0.00     0.185 C 
ATOM     76  N   UNL     1      11.825  -7.333   2.770  1.00  0.00    -0.370 N 
ATOM     77  N   UNL     1       9.908  -6.208   2.651  1.00  0.00    -0.370 N 
ATOM     78  H   UNL     1      12.492  -7.890   3.284  1.00  0.00     0.159 HD
ATOM     79  H   UNL     1      11.935  -7.242   1.775  1.00  0.00     0.159 HD
ATOM     80  H   UNL     1       9.046  -5.835   3.017  1.00  0.00     0.159 HD
ATOM     81  H   UNL     1      10.181  -5.917   1.726  1.00  0.00     0.159 HD
ENDBRANCH  73  74
ENDBRANCH  72  73
ENDBRANCH  71  72
ENDBRANCH  45  71
ENDBRANCH   3  45
TORSDOF 20
ENDMDL
MODEL 23
REMARK VINA RESULT:    -5.154      6.646     12.125
REMARK INTER + INTRA:         -22.199
REMARK INTER:                 -15.921
REMARK INTRA:                  -6.277
REMARK UNBOUND:                -7.402
REMARK SMILES CCCCCC(=O)N[C@H](CC(=O)O)C(=O)N[C@H]1C(=O)N[C@H](CCCN=C(N)N)C(=O)N[C@@H]2CC[C@H](O)N(C2=O)[C@@H](CC(C)C)C(=O)N(C)[C@@H](Cc2ccccc2)C(=O)N[C@H](C(C)C)C(=O)O[C@@H]1C
REMARK SMILES IDX 30 1 31 2 29 3 32 5 35 6 37 7 34 8 38 9 33 10 39 11 36 12
REMARK SMILES IDX 40 14 41 15 42 16 43 17 44 18 45 19 46 20 47 21 48 22 49 23
REMARK SMILES IDX 50 24 51 25 52 26 56 27 53 28 55 29 54 30 57 31 58 32 59 33
REMARK SMILES IDX 60 35 61 36 62 37 63 38 64 39 65 40 66 41 67 42 68 43 21 45
REMARK SMILES IDX 20 46 18 47 19 48 17 50 16 52 14 53 15 54 9 56 8 57 6 58
REMARK SMILES IDX 7 59 5 61 4 62 3 63 2 64 1 65 10 66 11 67 12 68 13 69 22 71
REMARK SMILES IDX 23 72 24 73 25 74 26 75 27 76 28 77
REMARK H PARENT 31 4 36 13 59 34 20 49 16 55 8 60 13 70 27 78 27 79 28 80
REMARK H PARENT 28 81
REMARK Flexibility Score:  259.900
ROOT
ATOM      1  O   UNL     1      -2.546  -0.014  -1.323  1.00  0.00    -0.273 OA
ATOM      2  N   UNL     1      -1.668   1.994  -0.670  1.00  0.00    -0.343 N 
ATOM      3  C   UNL     1      -2.333   1.176  -1.558  1.00  0.00     0.243 C 
ATOM      4  H   UNL     1      -1.524   2.972  -0.890  1.00  0.00     0.164 HD
ENDROOT
BRANCH   2   5
ATOM      5  C   UNL     1      -1.080   1.447   0.548  1.00  0.00     0.171 C 
ATOM      6  C   UNL     1       0.682   2.572   2.556  1.00  0.00     0.214 C 
ATOM      7  N   UNL     1       1.248   1.886   1.418  1.00  0.00    -0.303 N 
ATOM      8  C   UNL     1      -0.685   2.042   2.958  1.00  0.00     0.057 C 
ATOM      9  C   UNL     1       0.466   1.370   0.397  1.00  0.00     0.247 C 
ATOM     10  C   UNL     1      -1.639   2.142   1.788  1.00  0.00     0.040 C 
ATOM     11  O   UNL     1       0.963   0.860  -0.616  1.00  0.00    -0.272 OA
BRANCH   6  12
ATOM     12  O   UNL     1       0.605   3.942   2.238  1.00  0.00    -0.373 OA
ATOM     13  H   UNL     1       1.517   4.301   2.289  1.00  0.00     0.213 HD
ENDBRANCH   6  12
BRANCH   7  14
ATOM     14  C   UNL     1       2.722   1.880   1.304  1.00  0.00     0.177 C 
BRANCH  14  15
ATOM     15  C   UNL     1       3.413   3.211   1.658  1.00  0.00     0.038 C 
BRANCH  15  16
ATOM     16  C   UNL     1       4.938   3.237   1.901  1.00  0.00    -0.015 C 
ATOM     17  C   UNL     1       5.399   4.525   2.588  1.00  0.00     0.007 C 
ATOM     18  C   UNL     1       5.679   3.114   0.563  1.00  0.00     0.007 C 
ENDBRANCH  15  16
ENDBRANCH  14  15
BRANCH  14  19
ATOM     19  C   UNL     1       3.287   0.453   1.623  1.00  0.00     0.245 C 
ATOM     20  O   UNL     1       3.825  -0.158   0.685  1.00  0.00    -0.272 OA
BRANCH  19  21
ATOM     21  N   UNL     1       3.118  -0.189   2.837  1.00  0.00    -0.332 N 
ATOM     22  C   UNL     1       2.053  -1.123   3.156  1.00  0.00     0.147 C 
BRANCH  21  23
ATOM     23  C   UNL     1       4.098   0.101   3.920  1.00  0.00     0.178 C 
BRANCH  23  24
ATOM     24  C   UNL     1       3.474   0.329   5.312  1.00  0.00     0.070 C 
BRANCH  24  25
ATOM     25  C   UNL     1       2.794   1.657   5.552  1.00  0.00    -0.045 A 
ATOM     26  C   UNL     1       1.490   1.713   6.061  1.00  0.00     0.004 A 
ATOM     27  C   UNL     1       3.462   2.856   5.262  1.00  0.00     0.004 A 
ATOM     28  C   UNL     1       0.863   2.944   6.264  1.00  0.00     0.000 A 
ATOM     29  C   UNL     1       2.833   4.085   5.467  1.00  0.00     0.000 A 
ATOM     30  C   UNL     1       1.533   4.128   5.965  1.00  0.00     0.000 A 
ENDBRANCH  24  25
ENDBRANCH  23  24
BRANCH  23  31
ATOM     31  C   UNL     1       5.318  -0.851   3.901  1.00  0.00     0.243 C 
ATOM     32  O   UNL     1       5.565  -1.633   2.987  1.00  0.00    -0.273 OA
ATOM     33  N   UNL     1       6.016  -0.879   5.096  1.00  0.00    -0.341 N 
ATOM     34  H   UNL     1       5.761  -0.206   5.824  1.00  0.00     0.164 HD
BRANCH  33  35
ATOM     35  C   UNL     1       7.134  -1.793   5.347  1.00  0.00     0.194 C 
BRANCH  35  36
ATOM     36  C   UNL     1       6.878  -2.808   6.496  1.00  0.00     0.017 C 
ATOM     37  C   UNL     1       7.646  -4.121   6.264  1.00  0.00     0.010 C 
ATOM     38  C   UNL     1       5.397  -3.167   6.667  1.00  0.00     0.010 C 
ENDBRANCH  35  36
BRANCH  35  39
ATOM     39  C   UNL     1       8.488  -1.048   5.521  1.00  0.00     0.329 C 
ATOM     40  O   UNL     1       9.049  -0.428   4.626  1.00  0.00    -0.250 OA
BRANCH  39  41
ATOM     41  O   UNL     1       8.941  -1.089   6.811  1.00  0.00    -0.458 OA
BRANCH  41  42
ATOM     42  C   UNL     1      10.378  -1.106   6.985  1.00  0.00     0.205 CG0
ATOM     43  C   UNL     1      10.886  -2.438   6.437  1.00  0.00     0.056 C 
ATOM     44  G   UNL     1      10.694  -0.925   8.483  1.00  0.00     0.000 G0
ENDBRANCH  41  42
ENDBRANCH  39  41
ENDBRANCH  35  39
ENDBRANCH  33  35
ENDBRANCH  23  31
ENDBRANCH  21  23
ENDBRANCH  19  21
ENDBRANCH  14  19
ENDBRANCH   7  14
ENDBRANCH   2   5
BRANCH   3  45
ATOM     45  C   UNL     1      -2.807   1.855  -2.849  1.00  0.00     0.171 C 
BRANCH  45  46
ATOM     46  N   UNL     1      -4.239   1.597  -2.927  1.00  0.00    -0.342 N 
ATOM     47  C   UNL     1      -5.137   2.162  -2.055  1.00  0.00     0.247 C 
ATOM     48  O   UNL     1      -4.810   2.980  -1.195  1.00  0.00    -0.273 OA
ATOM     49  H   UNL     1      -4.560   0.969  -3.661  1.00  0.00     0.164 HD
BRANCH  47  50
ATOM     50  C   UNL     1      -6.586   1.678  -2.211  1.00  0.00     0.212 CG0
ATOM     51  G   UNL     1      -6.627   0.701  -3.403  1.00  0.00     0.000 G0
BRANCH  50  52
ATOM     52  N   UNL     1      -6.925   1.049  -0.938  1.00  0.00    -0.339 N 
ATOM     53  C   UNL     1      -8.213   0.930  -0.473  1.00  0.00     0.243 C 
ATOM     54  O   UNL     1      -9.178   1.393  -1.073  1.00  0.00    -0.273 OA
ATOM     55  H   UNL     1      -6.158   0.743  -0.342  1.00  0.00     0.164 HD
BRANCH  53  56
ATOM     56  C   UNL     1      -8.317   0.308   0.935  1.00  0.00     0.182 C 
BRANCH  56  57
ATOM     57  N   UNL     1      -7.185   0.714   1.774  1.00  0.00    -0.344 N 
ATOM     58  C   UNL     1      -7.242   1.799   2.613  1.00  0.00     0.220 C 
ATOM     59  O   UNL     1      -8.213   2.547   2.666  1.00  0.00    -0.275 OA
ATOM     60  H   UNL     1      -6.403   0.067   1.836  1.00  0.00     0.164 HD
BRANCH  58  61
ATOM     61  C   UNL     1      -5.978   1.997   3.429  1.00  0.00     0.100 C 
BRANCH  61  62
ATOM     62  C   UNL     1      -5.692   0.858   4.409  1.00  0.00     0.010 C 
BRANCH  62  63
ATOM     63  C   UNL     1      -4.919   1.288   5.662  1.00  0.00     0.000 C 
BRANCH  63  64
ATOM     64  C   UNL     1      -3.507   1.802   5.381  1.00  0.00    -0.003 C 
ATOM     65  C   UNL     1      -2.562   1.480   6.530  1.00  0.00     0.004 C 
ENDBRANCH  63  64
ENDBRANCH  62  63
ENDBRANCH  61  62
ENDBRANCH  58  61
ENDBRANCH  56  57
BRANCH  56  66
ATOM     66  C   UNL     1      -8.470  -1.210   0.867  1.00  0.00     0.157 C 
BRANCH  66  67
ATOM     67  C   UNL     1      -7.352  -1.902   1.592  1.00  0.00     0.305 C 
ATOM     68  O   UNL     1      -7.371  -2.321   2.740  1.00  0.00    -0.252 OA
BRANCH  67  69
ATOM     69  O   UNL     1      -6.270  -2.082   0.811  1.00  0.00    -0.481 OA
ATOM     70  H   UNL     1      -5.828  -2.879   1.175  1.00  0.00     0.296 HD
ENDBRANCH  67  69
ENDBRANCH  66  67
ENDBRANCH  56  66
ENDBRANCH  53  56
ENDBRANCH  50  52
ENDBRANCH  47  50
ENDBRANCH  45  46
BRANCH  45  71
ATOM     71  C   UNL     1      -2.063   1.280  -4.059  1.00  0.00     0.037 C 
BRANCH  71  72
ATOM     72  C   UNL     1      -1.447   2.377  -4.931  1.00  0.00     0.026 C 
BRANCH  72  73
ATOM     73  C   UNL     1      -1.991   2.331  -6.357  1.00  0.00     0.146 C 
BRANCH  73  74
ATOM     74  N   UNL     1      -3.317   2.942  -6.350  1.00  0.00    -0.254 NA
ATOM     75  C   UNL     1      -4.315   2.211  -6.687  1.00  0.00     0.185 C 
ATOM     76  N   UNL     1      -5.547   2.745  -6.689  1.00  0.00    -0.370 N 
ATOM     77  N   UNL     1      -4.329   0.920  -7.062  1.00  0.00    -0.370 N 
ATOM     78  H   UNL     1      -5.626   3.717  -6.426  1.00  0.00     0.159 HD
ATOM     79  H   UNL     1      -6.351   2.282  -7.077  1.00  0.00     0.159 HD
ATOM     80  H   UNL     1      -3.473   0.388  -7.104  1.00  0.00     0.159 HD
ATOM     81  H   UNL     1      -5.191   0.418  -7.194  1.00  0.00     0.159 HD
ENDBRANCH  73  74
ENDBRANCH  72  73
ENDBRANCH  71  72
ENDBRANCH  45  71
ENDBRANCH   3  45
TORSDOF 20
ENDMDL
MODEL 24
REMARK VINA RESULT:    -5.088      3.250      5.911
REMARK INTER + INTRA:         -22.007
REMARK INTER:                 -16.173
REMARK INTRA:                  -5.834
REMARK UNBOUND:                -7.402
REMARK SMILES CCCCCC(=O)N[C@H](CC(=O)O)C(=O)N[C@H]1C(=O)N[C@H](CCCN=C(N)N)C(=O)N[C@@H]2CC[C@H](O)N(C2=O)[C@@H](CC(C)C)C(=O)N(C)[C@@H](Cc2ccccc2)C(=O)N[C@H](C(C)C)C(=O)O[C@@H]1C
REMARK SMILES IDX 30 1 31 2 29 3 32 5 35 6 37 7 34 8 38 9 33 10 39 11 36 12
REMARK SMILES IDX 40 14 41 15 42 16 43 17 44 18 45 19 46 20 47 21 48 22 49 23
REMARK SMILES IDX 50 24 51 25 52 26 56 27 53 28 55 29 54 30 57 31 58 32 59 33
REMARK SMILES IDX 60 35 61 36 62 37 63 38 64 39 65 40 66 41 67 42 68 43 21 45
REMARK SMILES IDX 20 46 18 47 19 48 17 50 16 52 14 53 15 54 9 56 8 57 6 58
REMARK SMILES IDX 7 59 5 61 4 62 3 63 2 64 1 65 10 66 11 67 12 68 13 69 22 71
REMARK SMILES IDX 23 72 24 73 25 74 26 75 27 76 28 77
REMARK H PARENT 31 4 36 13 59 34 20 49 16 55 8 60 13 70 27 78 27 79 28 80
REMARK H PARENT 28 81
REMARK Flexibility Score:  259.900
ROOT
ATOM      1  O   UNL     1       5.413  -2.308   1.645  1.00  0.00    -0.273 OA
ATOM      2  N   UNL     1       7.542  -2.260   2.477  1.00  0.00    -0.343 N 
ATOM      3  C   UNL     1       6.612  -2.547   1.502  1.00  0.00     0.243 C 
ATOM      4  H   UNL     1       8.523  -2.457   2.319  1.00  0.00     0.164 HD
ENDROOT
BRANCH   2   5
ATOM      5  C   UNL     1       7.120  -1.764   3.783  1.00  0.00     0.171 C 
ATOM      6  C   UNL     1       4.521  -1.119   4.892  1.00  0.00     0.214 C 
ATOM      7  N   UNL     1       5.286  -0.089   4.230  1.00  0.00    -0.303 N 
ATOM      8  C   UNL     1       5.386  -2.178   5.556  1.00  0.00     0.057 C 
ATOM      9  C   UNL     1       6.511  -0.340   3.634  1.00  0.00     0.247 C 
ATOM     10  C   UNL     1       6.298  -2.813   4.528  1.00  0.00     0.040 C 
ATOM     11  O   UNL     1       7.120   0.527   2.994  1.00  0.00    -0.272 OA
BRANCH   6  12
ATOM     12  O   UNL     1       3.671  -1.707   3.934  1.00  0.00    -0.373 OA
ATOM     13  H   UNL     1       4.245  -2.142   3.269  1.00  0.00     0.213 HD
ENDBRANCH   6  12
BRANCH   7  14
ATOM     14  C   UNL     1       4.641   1.233   4.079  1.00  0.00     0.177 C 
BRANCH  14  15
ATOM     15  C   UNL     1       4.307   1.639   2.631  1.00  0.00     0.038 C 
BRANCH  15  16
ATOM     16  C   UNL     1       3.717   0.589   1.663  1.00  0.00    -0.015 C 
ATOM     17  C   UNL     1       4.405   0.604   0.295  1.00  0.00     0.007 C 
ATOM     18  C   UNL     1       2.222   0.860   1.452  1.00  0.00     0.007 C 
ENDBRANCH  15  16
ENDBRANCH  14  15
BRANCH  14  19
ATOM     19  C   UNL     1       3.763   1.556   5.337  1.00  0.00     0.245 C 
ATOM     20  O   UNL     1       4.342   1.564   6.436  1.00  0.00    -0.272 OA
BRANCH  19  21
ATOM     21  N   UNL     1       2.389   1.716   5.298  1.00  0.00    -0.332 N 
ATOM     22  C   UNL     1       1.437   0.719   4.842  1.00  0.00     0.147 C 
BRANCH  21  23
ATOM     23  C   UNL     1       1.827   3.019   5.750  1.00  0.00     0.178 C 
BRANCH  23  24
ATOM     24  C   UNL     1       1.292   3.918   4.617  1.00  0.00     0.070 C 
BRANCH  24  25
ATOM     25  C   UNL     1       2.299   4.442   3.620  1.00  0.00    -0.045 A 
ATOM     26  C   UNL     1       2.023   4.429   2.247  1.00  0.00     0.004 A 
ATOM     27  C   UNL     1       3.532   4.947   4.059  1.00  0.00     0.004 A 
ATOM     28  C   UNL     1       2.966   4.900   1.330  1.00  0.00     0.000 A 
ATOM     29  C   UNL     1       4.473   5.418   3.142  1.00  0.00     0.000 A 
ATOM     30  C   UNL     1       4.190   5.391   1.778  1.00  0.00     0.000 A 
ENDBRANCH  24  25
ENDBRANCH  23  24
BRANCH  23  31
ATOM     31  C   UNL     1       0.887   2.880   6.971  1.00  0.00     0.243 C 
ATOM     32  O   UNL     1       1.234   2.418   8.055  1.00  0.00    -0.273 OA
ATOM     33  N   UNL     1      -0.439   3.153   6.682  1.00  0.00    -0.341 N 
ATOM     34  H   UNL     1      -0.667   3.530   5.759  1.00  0.00     0.164 HD
BRANCH  33  35
ATOM     35  C   UNL     1      -1.522   2.972   7.653  1.00  0.00     0.194 C 
BRANCH  35  36
ATOM     36  C   UNL     1      -2.393   1.709   7.406  1.00  0.00     0.017 C 
ATOM     37  C   UNL     1      -1.957   0.543   8.311  1.00  0.00     0.010 C 
ATOM     38  C   UNL     1      -2.336   1.210   5.957  1.00  0.00     0.010 C 
ENDBRANCH  35  36
BRANCH  35  39
ATOM     39  C   UNL     1      -2.389   4.251   7.826  1.00  0.00     0.329 C 
ATOM     40  O   UNL     1      -1.931   5.370   8.022  1.00  0.00    -0.250 OA
BRANCH  39  41
ATOM     41  O   UNL     1      -3.722   4.002   7.646  1.00  0.00    -0.458 OA
BRANCH  41  42
ATOM     42  C   UNL     1      -4.633   4.764   8.474  1.00  0.00     0.205 CG0
ATOM     43  C   UNL     1      -4.777   4.017   9.798  1.00  0.00     0.056 C 
ATOM     44  G   UNL     1      -5.975   4.905   7.727  1.00  0.00     0.000 G0
ENDBRANCH  41  42
ENDBRANCH  39  41
ENDBRANCH  35  39
ENDBRANCH  33  35
ENDBRANCH  23  31
ENDBRANCH  21  23
ENDBRANCH  19  21
ENDBRANCH  14  19
ENDBRANCH   7  14
ENDBRANCH   2   5
BRANCH   3  45
ATOM     45  C   UNL     1       7.178  -3.165   0.216  1.00  0.00     0.171 C 
BRANCH  45  46
ATOM     46  N   UNL     1       8.463  -3.742   0.589  1.00  0.00    -0.342 N 
ATOM     47  C   UNL     1       8.591  -5.041   1.013  1.00  0.00     0.247 C 
ATOM     48  O   UNL     1       7.648  -5.832   1.040  1.00  0.00    -0.273 OA
ATOM     49  H   UNL     1       9.280  -3.138   0.527  1.00  0.00     0.164 HD
BRANCH  47  50
ATOM     50  C   UNL     1       9.999  -5.435   1.481  1.00  0.00     0.212 CG0
ATOM     51  G   UNL     1      11.007  -4.871   0.460  1.00  0.00     0.000 G0
BRANCH  50  52
ATOM     52  N   UNL     1      10.143  -4.855   2.814  1.00  0.00    -0.339 N 
ATOM     53  C   UNL     1      11.355  -4.516   3.364  1.00  0.00     0.243 C 
ATOM     54  O   UNL     1      12.423  -4.725   2.793  1.00  0.00    -0.273 OA
ATOM     55  H   UNL     1       9.303  -4.761   3.381  1.00  0.00     0.164 HD
BRANCH  53  56
ATOM     56  C   UNL     1      11.265  -4.002   4.815  1.00  0.00     0.182 C 
BRANCH  56  57
ATOM     57  N   UNL     1      11.021  -2.557   4.847  1.00  0.00    -0.344 N 
ATOM     58  C   UNL     1      10.108  -1.983   5.698  1.00  0.00     0.220 C 
ATOM     59  O   UNL     1       9.383  -2.643   6.436  1.00  0.00    -0.275 OA
ATOM     60  H   UNL     1      11.668  -1.969   4.329  1.00  0.00     0.164 HD
BRANCH  58  61
ATOM     61  C   UNL     1      10.064  -0.469   5.602  1.00  0.00     0.100 C 
BRANCH  61  62
ATOM     62  C   UNL     1      11.346   0.150   5.046  1.00  0.00     0.010 C 
BRANCH  62  63
ATOM     63  C   UNL     1      12.149   0.958   6.074  1.00  0.00     0.000 C 
BRANCH  63  64
ATOM     64  C   UNL     1      13.044   2.035   5.463  1.00  0.00    -0.003 C 
ATOM     65  C   UNL     1      13.273   3.183   6.436  1.00  0.00     0.004 C 
ENDBRANCH  63  64
ENDBRANCH  62  63
ENDBRANCH  61  62
ENDBRANCH  58  61
ENDBRANCH  56  57
BRANCH  56  66
ATOM     66  C   UNL     1      12.497  -4.398   5.627  1.00  0.00     0.157 C 
BRANCH  66  67
ATOM     67  C   UNL     1      12.400  -5.818   6.105  1.00  0.00     0.305 C 
ATOM     68  O   UNL     1      11.899  -6.207   7.150  1.00  0.00    -0.252 OA
BRANCH  67  69
ATOM     69  O   UNL     1      12.898  -6.693   5.212  1.00  0.00    -0.481 OA
ATOM     70  H   UNL     1      12.112  -7.146   4.840  1.00  0.00     0.296 HD
ENDBRANCH  67  69
ENDBRANCH  66  67
ENDBRANCH  56  66
ENDBRANCH  53  56
ENDBRANCH  50  52
ENDBRANCH  47  50
ENDBRANCH  45  46
BRANCH  45  71
ATOM     71  C   UNL     1       7.332  -2.094  -0.869  1.00  0.00     0.037 C 
BRANCH  71  72
ATOM     72  C   UNL     1       6.270  -2.225  -1.963  1.00  0.00     0.026 C 
BRANCH  72  73
ATOM     73  C   UNL     1       5.478  -3.523  -1.822  1.00  0.00     0.146 C 
BRANCH  73  74
ATOM     74  N   UNL     1       5.655  -4.290  -3.052  1.00  0.00    -0.254 NA
ATOM     75  C   UNL     1       6.139  -5.473  -2.954  1.00  0.00     0.185 C 
ATOM     76  N   UNL     1       6.312  -6.205  -4.067  1.00  0.00    -0.370 N 
ATOM     77  N   UNL     1       6.523  -6.142  -1.853  1.00  0.00    -0.370 N 
ATOM     78  H   UNL     1       6.055  -5.773  -4.943  1.00  0.00     0.159 HD
ATOM     79  H   UNL     1       6.816  -7.074  -4.086  1.00  0.00     0.159 HD
ATOM     80  H   UNL     1       6.445  -5.717  -0.941  1.00  0.00     0.159 HD
ATOM     81  H   UNL     1       6.781  -7.114  -1.888  1.00  0.00     0.159 HD
ENDBRANCH  73  74
ENDBRANCH  72  73
ENDBRANCH  71  72
ENDBRANCH  45  71
ENDBRANCH   3  45
TORSDOF 20
ENDMDL
MODEL 25
REMARK VINA RESULT:    -5.078      4.423      7.958
REMARK INTER + INTRA:         -21.980
REMARK INTER:                 -15.145
REMARK INTRA:                  -6.835
REMARK UNBOUND:                -7.402
REMARK SMILES CCCCCC(=O)N[C@H](CC(=O)O)C(=O)N[C@H]1C(=O)N[C@H](CCCN=C(N)N)C(=O)N[C@@H]2CC[C@H](O)N(C2=O)[C@@H](CC(C)C)C(=O)N(C)[C@@H](Cc2ccccc2)C(=O)N[C@H](C(C)C)C(=O)O[C@@H]1C
REMARK SMILES IDX 30 1 31 2 29 3 32 5 35 6 37 7 34 8 38 9 33 10 39 11 36 12
REMARK SMILES IDX 40 14 41 15 42 16 43 17 44 18 45 19 46 20 47 21 48 22 49 23
REMARK SMILES IDX 50 24 51 25 52 26 56 27 53 28 55 29 54 30 57 31 58 32 59 33
REMARK SMILES IDX 60 35 61 36 62 37 63 38 64 39 65 40 66 41 67 42 68 43 21 45
REMARK SMILES IDX 20 46 18 47 19 48 17 50 16 52 14 53 15 54 9 56 8 57 6 58
REMARK SMILES IDX 7 59 5 61 4 62 3 63 2 64 1 65 10 66 11 67 12 68 13 69 22 71
REMARK SMILES IDX 23 72 24 73 25 74 26 75 27 76 28 77
REMARK H PARENT 31 4 36 13 59 34 20 49 16 55 8 60 13 70 27 78 27 79 28 80
REMARK H PARENT 28 81
REMARK Flexibility Score:  259.900
ROOT
ATOM      1  O   UNL     1       7.575  -5.805   1.072  1.00  0.00    -0.273 OA
ATOM      2  N   UNL     1       7.362  -4.240  -0.582  1.00  0.00    -0.343 N 
ATOM      3  C   UNL     1       8.100  -5.010   0.291  1.00  0.00     0.243 C 
ATOM      4  H   UNL     1       7.829  -3.607  -1.220  1.00  0.00     0.164 HD
ENDROOT
BRANCH   2   5
ATOM      5  C   UNL     1       5.904  -4.250  -0.532  1.00  0.00     0.171 C 
ATOM      6  C   UNL     1       3.881  -2.673  -1.884  1.00  0.00     0.214 C 
ATOM      7  N   UNL     1       4.386  -2.235  -0.603  1.00  0.00    -0.303 N 
ATOM      8  C   UNL     1       3.903  -4.184  -2.054  1.00  0.00     0.057 C 
ATOM      9  C   UNL     1       5.387  -2.913   0.072  1.00  0.00     0.247 C 
ATOM     10  C   UNL     1       5.313  -4.700  -1.867  1.00  0.00     0.040 C 
ATOM     11  O   UNL     1       5.874  -2.484   1.126  1.00  0.00    -0.272 OA
BRANCH   6  12
ATOM     12  O   UNL     1       4.654  -2.054  -2.885  1.00  0.00    -0.373 OA
ATOM     13  H   UNL     1       5.525  -2.505  -2.897  1.00  0.00     0.213 HD
ENDBRANCH   6  12
BRANCH   7  14
ATOM     14  C   UNL     1       3.891  -0.937  -0.097  1.00  0.00     0.177 C 
BRANCH  14  15
ATOM     15  C   UNL     1       4.100   0.260  -1.045  1.00  0.00     0.038 C 
BRANCH  15  16
ATOM     16  C   UNL     1       5.209   1.290  -0.737  1.00  0.00    -0.015 C 
ATOM     17  C   UNL     1       5.421   2.281  -1.885  1.00  0.00     0.007 C 
ATOM     18  C   UNL     1       6.535   0.564  -0.478  1.00  0.00     0.007 C 
ENDBRANCH  15  16
ENDBRANCH  14  15
BRANCH  14  19
ATOM     19  C   UNL     1       2.645  -1.154   0.829  1.00  0.00     0.245 C 
ATOM     20  O   UNL     1       1.709  -1.822   0.360  1.00  0.00    -0.272 OA
BRANCH  19  21
ATOM     21  N   UNL     1       2.493  -0.558   2.069  1.00  0.00    -0.332 N 
ATOM     22  C   UNL     1       1.225  -0.246   2.703  1.00  0.00     0.147 C 
BRANCH  21  23
ATOM     23  C   UNL     1       3.724  -0.191   2.821  1.00  0.00     0.178 C 
BRANCH  23  24
ATOM     24  C   UNL     1       3.686   1.201   3.483  1.00  0.00     0.070 C 
BRANCH  24  25
ATOM     25  C   UNL     1       4.026   2.387   2.611  1.00  0.00    -0.045 A 
ATOM     26  C   UNL     1       3.061   2.963   1.774  1.00  0.00     0.004 A 
ATOM     27  C   UNL     1       5.321   2.928   2.625  1.00  0.00     0.004 A 
ATOM     28  C   UNL     1       3.388   4.048   0.959  1.00  0.00     0.000 A 
ATOM     29  C   UNL     1       5.645   4.014   1.811  1.00  0.00     0.000 A 
ATOM     30  C   UNL     1       4.679   4.571   0.976  1.00  0.00     0.000 A 
ENDBRANCH  24  25
ENDBRANCH  23  24
BRANCH  23  31
ATOM     31  C   UNL     1       4.237  -1.332   3.732  1.00  0.00     0.243 C 
ATOM     32  O   UNL     1       3.528  -1.953   4.520  1.00  0.00    -0.273 OA
ATOM     33  N   UNL     1       5.615  -1.473   3.720  1.00  0.00    -0.341 N 
ATOM     34  H   UNL     1       6.153  -0.923   3.046  1.00  0.00     0.164 HD
BRANCH  33  35
ATOM     35  C   UNL     1       6.330  -2.408   4.593  1.00  0.00     0.194 C 
BRANCH  35  36
ATOM     36  C   UNL     1       6.326  -2.004   6.094  1.00  0.00     0.017 C 
ATOM     37  C   UNL     1       7.512  -1.084   6.429  1.00  0.00     0.010 C 
ATOM     38  C   UNL     1       6.396  -3.207   7.043  1.00  0.00     0.010 C 
ENDBRANCH  35  36
BRANCH  35  39
ATOM     39  C   UNL     1       7.763  -2.726   4.081  1.00  0.00     0.329 C 
ATOM     40  O   UNL     1       8.515  -3.536   4.609  1.00  0.00    -0.250 OA
BRANCH  39  41
ATOM     41  O   UNL     1       8.060  -2.064   2.922  1.00  0.00    -0.458 OA
BRANCH  41  42
ATOM     42  C   UNL     1       9.128  -1.090   2.997  1.00  0.00     0.205 CG0
ATOM     43  C   UNL     1       8.581   0.227   2.450  1.00  0.00     0.056 C 
ATOM     44  G   UNL     1      10.328  -1.613   2.183  1.00  0.00     0.000 G0
ENDBRANCH  41  42
ENDBRANCH  39  41
ENDBRANCH  35  39
ENDBRANCH  33  35
ENDBRANCH  23  31
ENDBRANCH  21  23
ENDBRANCH  19  21
ENDBRANCH  14  19
ENDBRANCH   7  14
ENDBRANCH   2   5
BRANCH   3  45
ATOM     45  C   UNL     1       9.620  -4.824   0.209  1.00  0.00     0.171 C 
BRANCH  45  46
ATOM     46  N   UNL     1       9.953  -3.843   1.233  1.00  0.00    -0.342 N 
ATOM     47  C   UNL     1       9.830  -2.492   1.026  1.00  0.00     0.247 C 
ATOM     48  O   UNL     1       9.362  -2.014  -0.008  1.00  0.00    -0.273 OA
ATOM     49  H   UNL     1      10.292  -4.198   2.125  1.00  0.00     0.164 HD
BRANCH  47  50
ATOM     50  C   UNL     1      10.345  -1.609   2.172  1.00  0.00     0.212 CG0
ATOM     51  G   UNL     1       9.120  -1.099   2.956  1.00  0.00     0.000 G0
BRANCH  50  52
ATOM     52  N   UNL     1      11.220  -2.470   2.964  1.00  0.00    -0.339 N 
ATOM     53  C   UNL     1      12.570  -2.257   3.098  1.00  0.00     0.243 C 
ATOM     54  O   UNL     1      13.158  -1.351   2.515  1.00  0.00    -0.273 OA
ATOM     55  H   UNL     1      10.810  -3.303   3.382  1.00  0.00     0.164 HD
BRANCH  53  56
ATOM     56  C   UNL     1      13.299  -3.346   3.911  1.00  0.00     0.182 C 
BRANCH  56  57
ATOM     57  N   UNL     1      12.457  -4.536   4.072  1.00  0.00    -0.344 N 
ATOM     58  C   UNL     1      12.421  -5.543   3.139  1.00  0.00     0.220 C 
ATOM     59  O   UNL     1      13.032  -5.486   2.077  1.00  0.00    -0.275 OA
ATOM     60  H   UNL     1      12.017  -4.669   4.978  1.00  0.00     0.164 HD
BRANCH  58  61
ATOM     61  C   UNL     1      11.527  -6.702   3.540  1.00  0.00     0.100 C 
BRANCH  61  62
ATOM     62  C   UNL     1      10.033  -6.395   3.428  1.00  0.00     0.010 C 
BRANCH  62  63
ATOM     63  C   UNL     1       9.137  -7.335   4.243  1.00  0.00     0.000 C 
BRANCH  63  64
ATOM     64  C   UNL     1       9.811  -7.930   5.478  1.00  0.00    -0.003 C 
ATOM     65  C   UNL     1       9.939  -6.899   6.591  1.00  0.00     0.004 C 
ENDBRANCH  63  64
ENDBRANCH  62  63
ENDBRANCH  61  62
ENDBRANCH  58  61
ENDBRANCH  56  57
BRANCH  56  66
ATOM     66  C   UNL     1      13.796  -2.806   5.251  1.00  0.00     0.157 C 
BRANCH  66  67
ATOM     67  C   UNL     1      12.675  -2.193   6.040  1.00  0.00     0.305 C 
ATOM     68  O   UNL     1      11.594  -2.702   6.293  1.00  0.00    -0.252 OA
BRANCH  67  69
ATOM     69  O   UNL     1      12.994  -0.976   6.521  1.00  0.00    -0.481 OA
ATOM     70  H   UNL     1      13.635  -0.612   5.875  1.00  0.00     0.296 HD
ENDBRANCH  67  69
ENDBRANCH  66  67
ENDBRANCH  56  66
ENDBRANCH  53  56
ENDBRANCH  50  52
ENDBRANCH  47  50
ENDBRANCH  45  46
BRANCH  45  71
ATOM     71  C   UNL     1      10.024  -4.341  -1.189  1.00  0.00     0.037 C 
BRANCH  71  72
ATOM     72  C   UNL     1      10.661  -5.457  -2.022  1.00  0.00     0.026 C 
BRANCH  72  73
ATOM     73  C   UNL     1       9.893  -5.694  -3.321  1.00  0.00     0.146 C 
BRANCH  73  74
ATOM     74  N   UNL     1       8.543  -6.123  -2.970  1.00  0.00    -0.254 NA
ATOM     75  C   UNL     1       7.772  -6.509  -3.919  1.00  0.00     0.185 C 
ATOM     76  N   UNL     1       6.524  -6.911  -3.628  1.00  0.00    -0.370 N 
ATOM     77  N   UNL     1       8.026  -6.583  -5.237  1.00  0.00    -0.370 N 
ATOM     78  H   UNL     1       6.248  -6.880  -2.657  1.00  0.00     0.159 HD
ATOM     79  H   UNL     1       5.822  -7.087  -4.325  1.00  0.00     0.159 HD
ATOM     80  H   UNL     1       8.927  -6.316  -5.602  1.00  0.00     0.159 HD
ATOM     81  H   UNL     1       7.378  -7.013  -5.877  1.00  0.00     0.159 HD
ENDBRANCH  73  74
ENDBRANCH  72  73
ENDBRANCH  71  72
ENDBRANCH  45  71
ENDBRANCH   3  45
TORSDOF 20
ENDMDL
MODEL 26
REMARK VINA RESULT:    -5.073      7.182     12.689
REMARK INTER + INTRA:         -21.965
REMARK INTER:                 -16.987
REMARK INTRA:                  -4.978
REMARK UNBOUND:                -7.402
REMARK SMILES CCCCCC(=O)N[C@H](CC(=O)O)C(=O)N[C@H]1C(=O)N[C@H](CCCN=C(N)N)C(=O)N[C@@H]2CC[C@H](O)N(C2=O)[C@@H](CC(C)C)C(=O)N(C)[C@@H](Cc2ccccc2)C(=O)N[C@H](C(C)C)C(=O)O[C@@H]1C
REMARK SMILES IDX 30 1 31 2 29 3 32 5 35 6 37 7 34 8 38 9 33 10 39 11 36 12
REMARK SMILES IDX 40 14 41 15 42 16 43 17 44 18 45 19 46 20 47 21 48 22 49 23
REMARK SMILES IDX 50 24 51 25 52 26 56 27 53 28 55 29 54 30 57 31 58 32 59 33
REMARK SMILES IDX 60 35 61 36 62 37 63 38 64 39 65 40 66 41 67 42 68 43 21 45
REMARK SMILES IDX 20 46 18 47 19 48 17 50 16 52 14 53 15 54 9 56 8 57 6 58
REMARK SMILES IDX 7 59 5 61 4 62 3 63 2 64 1 65 10 66 11 67 12 68 13 69 22 71
REMARK SMILES IDX 23 72 24 73 25 74 26 75 27 76 28 77
REMARK H PARENT 31 4 36 13 59 34 20 49 16 55 8 60 13 70 27 78 27 79 28 80
REMARK H PARENT 28 81
REMARK Flexibility Score:  259.900
ROOT
ATOM      1  O   UNL     1      -4.711   0.531  -0.702  1.00  0.00    -0.273 OA
ATOM      2  N   UNL     1      -3.078   2.126  -0.836  1.00  0.00    -0.343 N 
ATOM      3  C   UNL     1      -4.183   1.458  -1.317  1.00  0.00     0.243 C 
ATOM      4  H   UNL     1      -2.678   2.893  -1.362  1.00  0.00     0.164 HD
ENDROOT
BRANCH   2   5
ATOM      5  C   UNL     1      -2.411   1.678   0.382  1.00  0.00     0.171 C 
ATOM      6  C   UNL     1      -0.083   2.642   1.815  1.00  0.00     0.214 C 
ATOM      7  N   UNL     1       0.078   1.628   0.799  1.00  0.00    -0.303 N 
ATOM      8  C   UNL     1      -1.432   2.585   2.513  1.00  0.00     0.057 C 
ATOM      9  C   UNL     1      -0.984   1.161   0.042  1.00  0.00     0.247 C 
ATOM     10  C   UNL     1      -2.542   2.718   1.494  1.00  0.00     0.040 C 
ATOM     11  O   UNL     1      -0.824   0.356  -0.886  1.00  0.00    -0.272 OA
BRANCH   6  12
ATOM     12  O   UNL     1       0.103   3.898   1.204  1.00  0.00    -0.373 OA
ATOM     13  H   UNL     1       0.813   3.790   0.535  1.00  0.00     0.213 HD
ENDBRANCH   6  12
BRANCH   7  14
ATOM     14  C   UNL     1       1.460   1.205   0.487  1.00  0.00     0.177 C 
BRANCH  14  15
ATOM     15  C   UNL     1       2.460   2.353   0.248  1.00  0.00     0.038 C 
BRANCH  15  16
ATOM     16  C   UNL     1       3.973   2.091   0.417  1.00  0.00    -0.015 C 
ATOM     17  C   UNL     1       4.758   3.373   0.709  1.00  0.00     0.007 C 
ATOM     18  C   UNL     1       4.537   1.464  -0.864  1.00  0.00     0.007 C 
ENDBRANCH  15  16
ENDBRANCH  14  15
BRANCH  14  19
ATOM     19  C   UNL     1       1.788  -0.149   1.205  1.00  0.00     0.245 C 
ATOM     20  O   UNL     1       1.689  -1.183   0.522  1.00  0.00    -0.272 OA
BRANCH  19  21
ATOM     21  N   UNL     1       2.065  -0.258   2.556  1.00  0.00    -0.332 N 
ATOM     22  C   UNL     1       1.271  -0.997   3.522  1.00  0.00     0.147 C 
BRANCH  21  23
ATOM     23  C   UNL     1       3.269   0.444   3.079  1.00  0.00     0.178 C 
BRANCH  23  24
ATOM     24  C   UNL     1       3.025   1.288   4.347  1.00  0.00     0.070 C 
BRANCH  24  25
ATOM     25  C   UNL     1       3.445   2.739   4.299  1.00  0.00    -0.045 A 
ATOM     26  C   UNL     1       2.646   3.697   3.661  1.00  0.00     0.004 A 
ATOM     27  C   UNL     1       4.649   3.147   4.892  1.00  0.00     0.004 A 
ATOM     28  C   UNL     1       3.050   5.032   3.607  1.00  0.00     0.000 A 
ATOM     29  C   UNL     1       5.050   4.482   4.838  1.00  0.00     0.000 A 
ATOM     30  C   UNL     1       4.251   5.424   4.193  1.00  0.00     0.000 A 
ENDBRANCH  24  25
ENDBRANCH  23  24
BRANCH  23  31
ATOM     31  C   UNL     1       4.522  -0.463   3.132  1.00  0.00     0.243 C 
ATOM     32  O   UNL     1       4.861  -1.218   2.225  1.00  0.00    -0.273 OA
ATOM     33  N   UNL     1       5.134  -0.489   4.373  1.00  0.00    -0.341 N 
ATOM     34  H   UNL     1       4.803   0.160   5.091  1.00  0.00     0.164 HD
BRANCH  33  35
ATOM     35  C   UNL     1       6.264  -1.367   4.688  1.00  0.00     0.194 C 
BRANCH  35  36
ATOM     36  C   UNL     1       5.852  -2.807   5.107  1.00  0.00     0.017 C 
ATOM     37  C   UNL     1       4.654  -2.787   6.073  1.00  0.00     0.010 C 
ATOM     38  C   UNL     1       6.983  -3.583   5.794  1.00  0.00     0.010 C 
ENDBRANCH  35  36
BRANCH  35  39
ATOM     39  C   UNL     1       7.253  -0.728   5.703  1.00  0.00     0.329 C 
ATOM     40  O   UNL     1       6.926  -0.305   6.806  1.00  0.00    -0.250 OA
BRANCH  39  41
ATOM     41  O   UNL     1       8.547  -0.769   5.264  1.00  0.00    -0.458 OA
BRANCH  41  42
ATOM     42  C   UNL     1       9.553  -0.287   6.187  1.00  0.00     0.205 CG0
ATOM     43  C   UNL     1      10.782   0.090   5.363  1.00  0.00     0.056 C 
ATOM     44  G   UNL     1       9.850  -1.398   7.214  1.00  0.00     0.000 G0
ENDBRANCH  41  42
ENDBRANCH  39  41
ENDBRANCH  35  39
ENDBRANCH  33  35
ENDBRANCH  23  31
ENDBRANCH  21  23
ENDBRANCH  19  21
ENDBRANCH  14  19
ENDBRANCH   7  14
ENDBRANCH   2   5
BRANCH   3  45
ATOM     45  C   UNL     1      -4.721   1.962  -2.663  1.00  0.00     0.171 C 
BRANCH  45  46
ATOM     46  N   UNL     1      -6.146   1.659  -2.655  1.00  0.00    -0.342 N 
ATOM     47  C   UNL     1      -7.108   2.638  -2.687  1.00  0.00     0.247 C 
ATOM     48  O   UNL     1      -6.840   3.835  -2.797  1.00  0.00    -0.273 OA
ATOM     49  H   UNL     1      -6.413   0.677  -2.621  1.00  0.00     0.164 HD
BRANCH  47  50
ATOM     50  C   UNL     1      -8.552   2.135  -2.546  1.00  0.00     0.212 CG0
ATOM     51  G   UNL     1      -8.975   1.544  -3.905  1.00  0.00     0.000 G0
BRANCH  50  52
ATOM     52  N   UNL     1      -8.517   1.147  -1.472  1.00  0.00    -0.339 N 
ATOM     53  C   UNL     1      -9.085   1.351  -0.238  1.00  0.00     0.243 C 
ATOM     54  O   UNL     1      -9.622   2.410   0.077  1.00  0.00    -0.273 OA
ATOM     55  H   UNL     1      -7.989   0.291  -1.633  1.00  0.00     0.164 HD
BRANCH  53  56
ATOM     56  C   UNL     1      -8.846   0.201   0.761  1.00  0.00     0.182 C 
BRANCH  56  57
ATOM     57  N   UNL     1      -7.589   0.392   1.493  1.00  0.00    -0.344 N 
ATOM     58  C   UNL     1      -7.522   0.343   2.864  1.00  0.00     0.220 C 
ATOM     59  O   UNL     1      -8.513   0.210   3.573  1.00  0.00    -0.275 OA
ATOM     60  H   UNL     1      -6.734   0.402   0.944  1.00  0.00     0.164 HD
BRANCH  58  61
ATOM     61  C   UNL     1      -6.113   0.508   3.403  1.00  0.00     0.100 C 
BRANCH  61  62
ATOM     62  C   UNL     1      -6.059   0.862   4.889  1.00  0.00     0.010 C 
BRANCH  62  63
ATOM     63  C   UNL     1      -5.567   2.286   5.178  1.00  0.00     0.000 C 
BRANCH  63  64
ATOM     64  C   UNL     1      -4.492   2.371   6.260  1.00  0.00    -0.003 C 
ATOM     65  C   UNL     1      -3.440   1.284   6.084  1.00  0.00     0.004 C 
ENDBRANCH  63  64
ENDBRANCH  62  63
ENDBRANCH  61  62
ENDBRANCH  58  61
ENDBRANCH  56  57
BRANCH  56  66
ATOM     66  C   UNL     1      -8.911  -1.161   0.073  1.00  0.00     0.157 C 
BRANCH  66  67
ATOM     67  C   UNL     1      -9.850  -2.088   0.790  1.00  0.00     0.305 C 
ATOM     68  O   UNL     1     -11.067  -1.997   0.849  1.00  0.00    -0.252 OA
BRANCH  67  69
ATOM     69  O   UNL     1      -9.209  -3.126   1.360  1.00  0.00    -0.481 OA
ATOM     70  H   UNL     1      -9.922  -3.687   1.732  1.00  0.00     0.296 HD
ENDBRANCH  67  69
ENDBRANCH  66  67
ENDBRANCH  56  66
ENDBRANCH  53  56
ENDBRANCH  50  52
ENDBRANCH  47  50
ENDBRANCH  45  46
BRANCH  45  71
ATOM     71  C   UNL     1      -4.001   1.265  -3.822  1.00  0.00     0.037 C 
BRANCH  71  72
ATOM     72  C   UNL     1      -4.691   1.518  -5.164  1.00  0.00     0.026 C 
BRANCH  72  73
ATOM     73  C   UNL     1      -3.678   1.797  -6.272  1.00  0.00     0.146 C 
BRANCH  73  74
ATOM     74  N   UNL     1      -2.628   0.787  -6.182  1.00  0.00    -0.254 NA
ATOM     75  C   UNL     1      -2.553  -0.084  -7.119  1.00  0.00     0.185 C 
ATOM     76  N   UNL     1      -1.596  -1.026  -7.065  1.00  0.00    -0.370 N 
ATOM     77  N   UNL     1      -3.322  -0.216  -8.214  1.00  0.00    -0.370 N 
ATOM     78  H   UNL     1      -0.977  -1.003  -6.267  1.00  0.00     0.159 HD
ATOM     79  H   UNL     1      -1.566  -1.820  -7.679  1.00  0.00     0.159 HD
ATOM     80  H   UNL     1      -4.080   0.426  -8.389  1.00  0.00     0.159 HD
ATOM     81  H   UNL     1      -3.095  -0.872  -8.943  1.00  0.00     0.159 HD
ENDBRANCH  73  74
ENDBRANCH  72  73
ENDBRANCH  71  72
ENDBRANCH  45  71
ENDBRANCH   3  45
TORSDOF 20
ENDMDL
MODEL 27
REMARK VINA RESULT:    -5.067      4.511     11.667
REMARK INTER + INTRA:         -21.947
REMARK INTER:                 -15.617
REMARK INTRA:                  -6.330
REMARK UNBOUND:                -7.402
REMARK SMILES CCCCCC(=O)N[C@H](CC(=O)O)C(=O)N[C@H]1C(=O)N[C@H](CCCN=C(N)N)C(=O)N[C@@H]2CC[C@H](O)N(C2=O)[C@@H](CC(C)C)C(=O)N(C)[C@@H](Cc2ccccc2)C(=O)N[C@H](C(C)C)C(=O)O[C@@H]1C
REMARK SMILES IDX 30 1 31 2 29 3 32 5 35 6 37 7 34 8 38 9 33 10 39 11 36 12
REMARK SMILES IDX 40 14 41 15 42 16 43 17 44 18 45 19 46 20 47 21 48 22 49 23
REMARK SMILES IDX 50 24 51 25 52 26 56 27 53 28 55 29 54 30 57 31 58 32 59 33
REMARK SMILES IDX 60 35 61 36 62 37 63 38 64 39 65 40 66 41 67 42 68 43 21 45
REMARK SMILES IDX 20 46 18 47 19 48 17 50 16 52 14 53 15 54 9 56 8 57 6 58
REMARK SMILES IDX 7 59 5 61 4 62 3 63 2 64 1 65 10 66 11 67 12 68 13 69 22 71
REMARK SMILES IDX 23 72 24 73 25 74 26 75 27 76 28 77
REMARK H PARENT 31 4 36 13 59 34 20 49 16 55 8 60 13 70 27 78 27 79 28 80
REMARK H PARENT 28 81
REMARK Flexibility Score:  259.900
ROOT
ATOM      1  O   UNL     1       5.652  -1.400   1.661  1.00  0.00    -0.273 OA
ATOM      2  N   UNL     1       7.616  -1.666   0.520  1.00  0.00    -0.343 N 
ATOM      3  C   UNL     1       6.245  -1.550   0.592  1.00  0.00     0.243 C 
ATOM      4  H   UNL     1       8.071  -1.773  -0.379  1.00  0.00     0.164 HD
ENDROOT
BRANCH   2   5
ATOM      5  C   UNL     1       8.420  -1.735   1.735  1.00  0.00     0.171 C 
ATOM      6  C   UNL     1      11.268  -1.491   2.223  1.00  0.00     0.214 C 
ATOM      7  N   UNL     1      10.700  -2.794   1.968  1.00  0.00    -0.303 N 
ATOM      8  C   UNL     1      10.298  -0.534   2.898  1.00  0.00     0.057 C 
ATOM      9  C   UNL     1       9.357  -2.975   1.677  1.00  0.00     0.247 C 
ATOM     10  C   UNL     1       9.054  -0.381   2.051  1.00  0.00     0.040 C 
ATOM     11  O   UNL     1       8.895  -4.084   1.375  1.00  0.00    -0.272 OA
BRANCH   6  12
ATOM     12  O   UNL     1      11.703  -0.963   0.991  1.00  0.00    -0.373 OA
ATOM     13  H   UNL     1      12.681  -0.901   1.035  1.00  0.00     0.213 HD
ENDBRANCH   6  12
BRANCH   7  14
ATOM     14  C   UNL     1      11.641  -3.931   1.883  1.00  0.00     0.177 C 
BRANCH  14  15
ATOM     15  C   UNL     1      12.680  -3.838   0.748  1.00  0.00     0.038 C 
BRANCH  15  16
ATOM     16  C   UNL     1      12.833  -5.014  -0.242  1.00  0.00    -0.015 C 
ATOM     17  C   UNL     1      13.036  -4.540  -1.684  1.00  0.00     0.007 C 
ATOM     18  C   UNL     1      11.579  -5.896  -0.198  1.00  0.00     0.007 C 
ENDBRANCH  15  16
ENDBRANCH  14  15
BRANCH  14  19
ATOM     19  C   UNL     1      11.906  -4.526   3.308  1.00  0.00     0.245 C 
ATOM     20  O   UNL     1      12.970  -4.203   3.861  1.00  0.00    -0.272 OA
BRANCH  19  21
ATOM     21  N   UNL     1      11.086  -5.460   3.918  1.00  0.00    -0.332 N 
ATOM     22  C   UNL     1      10.414  -6.558   3.247  1.00  0.00     0.147 C 
BRANCH  21  23
ATOM     23  C   UNL     1      10.858  -5.333   5.384  1.00  0.00     0.178 C 
BRANCH  23  24
ATOM     24  C   UNL     1       9.379  -5.403   5.815  1.00  0.00     0.070 C 
BRANCH  24  25
ATOM     25  C   UNL     1       8.647  -4.091   5.982  1.00  0.00    -0.045 A 
ATOM     26  C   UNL     1       9.277  -2.876   5.685  1.00  0.00     0.004 A 
ATOM     27  C   UNL     1       7.323  -4.073   6.443  1.00  0.00     0.004 A 
ATOM     28  C   UNL     1       8.600  -1.667   5.857  1.00  0.00     0.000 A 
ATOM     29  C   UNL     1       6.647  -2.864   6.614  1.00  0.00     0.000 A 
ATOM     30  C   UNL     1       7.287  -1.662   6.324  1.00  0.00     0.000 A 
ENDBRANCH  24  25
ENDBRANCH  23  24
BRANCH  23  31
ATOM     31  C   UNL     1      11.823  -6.204   6.223  1.00  0.00     0.243 C 
ATOM     32  O   UNL     1      12.887  -5.800   6.685  1.00  0.00    -0.273 OA
ATOM     33  N   UNL     1      11.473  -7.543   6.255  1.00  0.00    -0.341 N 
ATOM     34  H   UNL     1      10.577  -7.820   5.848  1.00  0.00     0.164 HD
BRANCH  33  35
ATOM     35  C   UNL     1      12.304  -8.571   6.889  1.00  0.00     0.194 C 
BRANCH  35  36
ATOM     36  C   UNL     1      13.005  -9.529   5.886  1.00  0.00     0.017 C 
ATOM     37  C   UNL     1      14.506  -9.214   5.767  1.00  0.00     0.010 C 
ATOM     38  C   UNL     1      12.410  -9.466   4.474  1.00  0.00     0.010 C 
ENDBRANCH  35  36
BRANCH  35  39
ATOM     39  C   UNL     1      11.547  -9.349   8.002  1.00  0.00     0.329 C 
ATOM     40  O   UNL     1      10.651  -8.869   8.687  1.00  0.00    -0.250 OA
BRANCH  39  41
ATOM     41  O   UNL     1      11.933 -10.659   8.075  1.00  0.00    -0.458 OA
BRANCH  41  42
ATOM     42  C   UNL     1      12.532 -11.082   9.323  1.00  0.00     0.205 CG0
ATOM     43  C   UNL     1      14.047 -11.067   9.126  1.00  0.00     0.056 C 
ATOM     44  G   UNL     1      11.997 -12.484   9.675  1.00  0.00     0.000 G0
ENDBRANCH  41  42
ENDBRANCH  39  41
ENDBRANCH  35  39
ENDBRANCH  33  35
ENDBRANCH  23  31
ENDBRANCH  21  23
ENDBRANCH  19  21
ENDBRANCH  14  19
ENDBRANCH   7  14
ENDBRANCH   2   5
BRANCH   3  45
ATOM     45  C   UNL     1       5.510  -1.599  -0.754  1.00  0.00     0.171 C 
BRANCH  45  46
ATOM     46  N   UNL     1       4.823  -0.320  -0.875  1.00  0.00    -0.342 N 
ATOM     47  C   UNL     1       4.645   0.310  -2.081  1.00  0.00     0.247 C 
ATOM     48  O   UNL     1       4.986  -0.191  -3.153  1.00  0.00    -0.273 OA
ATOM     49  H   UNL     1       4.474   0.104  -0.017  1.00  0.00     0.164 HD
BRANCH  47  50
ATOM     50  C   UNL     1       4.011   1.706  -1.999  1.00  0.00     0.212 CG0
ATOM     51  G   UNL     1       3.092   1.874  -3.225  1.00  0.00     0.000 G0
BRANCH  50  52
ATOM     52  N   UNL     1       3.291   1.732  -0.729  1.00  0.00    -0.339 N 
ATOM     53  C   UNL     1       1.922   1.665  -0.635  1.00  0.00     0.243 C 
ATOM     54  O   UNL     1       1.192   1.631  -1.622  1.00  0.00    -0.273 OA
ATOM     55  H   UNL     1       3.835   1.871   0.121  1.00  0.00     0.164 HD
BRANCH  53  56
ATOM     56  C   UNL     1       1.384   1.798   0.804  1.00  0.00     0.182 C 
BRANCH  56  57
ATOM     57  N   UNL     1       2.403   2.360   1.697  1.00  0.00    -0.344 N 
ATOM     58  C   UNL     1       2.081   3.126   2.791  1.00  0.00     0.220 C 
ATOM     59  O   UNL     1       0.929   3.452   3.056  1.00  0.00    -0.275 OA
ATOM     60  H   UNL     1       3.357   2.031   1.572  1.00  0.00     0.164 HD
BRANCH  58  61
ATOM     61  C   UNL     1       3.290   3.551   3.604  1.00  0.00     0.100 C 
BRANCH  61  62
ATOM     62  C   UNL     1       3.276   3.037   5.043  1.00  0.00     0.010 C 
BRANCH  62  63
ATOM     63  C   UNL     1       2.998   1.534   5.170  1.00  0.00     0.000 C 
BRANCH  63  64
ATOM     64  C   UNL     1       4.253   0.673   5.308  1.00  0.00    -0.003 C 
ATOM     65  C   UNL     1       5.342   1.400   6.084  1.00  0.00     0.004 C 
ENDBRANCH  63  64
ENDBRANCH  62  63
ENDBRANCH  61  62
ENDBRANCH  58  61
ENDBRANCH  56  57
BRANCH  56  66
ATOM     66  C   UNL     1       0.834   0.470   1.322  1.00  0.00     0.157 C 
BRANCH  66  67
ATOM     67  C   UNL     1       1.819  -0.645   1.113  1.00  0.00     0.305 C 
ATOM     68  O   UNL     1       1.650  -1.658   0.451  1.00  0.00    -0.252 OA
BRANCH  67  69
ATOM     69  O   UNL     1       3.000  -0.403   1.713  1.00  0.00    -0.481 OA
ATOM     70  H   UNL     1       2.879   0.457   2.167  1.00  0.00     0.296 HD
ENDBRANCH  67  69
ENDBRANCH  66  67
ENDBRANCH  56  66
ENDBRANCH  53  56
ENDBRANCH  50  52
ENDBRANCH  47  50
ENDBRANCH  45  46
BRANCH  45  71
ATOM     71  C   UNL     1       4.526  -2.774  -0.783  1.00  0.00     0.037 C 
BRANCH  71  72
ATOM     72  C   UNL     1       4.887  -3.801  -1.859  1.00  0.00     0.026 C 
BRANCH  72  73
ATOM     73  C   UNL     1       6.320  -4.305  -1.694  1.00  0.00     0.146 C 
BRANCH  73  74
ATOM     74  N   UNL     1       6.839  -4.617  -3.022  1.00  0.00    -0.254 NA
ATOM     75  C   UNL     1       6.891  -5.850  -3.370  1.00  0.00     0.185 C 
ATOM     76  N   UNL     1       7.362  -6.169  -4.586  1.00  0.00    -0.370 N 
ATOM     77  N   UNL     1       6.526  -6.941  -2.673  1.00  0.00    -0.370 N 
ATOM     78  H   UNL     1       7.666  -5.406  -5.174  1.00  0.00     0.159 HD
ATOM     79  H   UNL     1       7.567  -7.111  -4.871  1.00  0.00     0.159 HD
ATOM     80  H   UNL     1       6.149  -6.853  -1.742  1.00  0.00     0.159 HD
ATOM     81  H   UNL     1       6.505  -7.854  -3.096  1.00  0.00     0.159 HD
ENDBRANCH  73  74
ENDBRANCH  72  73
ENDBRANCH  71  72
ENDBRANCH  45  71
ENDBRANCH   3  45
TORSDOF 20
ENDMDL
MODEL 28
REMARK VINA RESULT:    -5.039      4.627      7.971
REMARK INTER + INTRA:         -21.867
REMARK INTER:                 -14.341
REMARK INTRA:                  -7.526
REMARK UNBOUND:                -7.402
REMARK SMILES CCCCCC(=O)N[C@H](CC(=O)O)C(=O)N[C@H]1C(=O)N[C@H](CCCN=C(N)N)C(=O)N[C@@H]2CC[C@H](O)N(C2=O)[C@@H](CC(C)C)C(=O)N(C)[C@@H](Cc2ccccc2)C(=O)N[C@H](C(C)C)C(=O)O[C@@H]1C
REMARK SMILES IDX 30 1 31 2 29 3 32 5 35 6 37 7 34 8 38 9 33 10 39 11 36 12
REMARK SMILES IDX 40 14 41 15 42 16 43 17 44 18 45 19 46 20 47 21 48 22 49 23
REMARK SMILES IDX 50 24 51 25 52 26 56 27 53 28 55 29 54 30 57 31 58 32 59 33
REMARK SMILES IDX 60 35 61 36 62 37 63 38 64 39 65 40 66 41 67 42 68 43 21 45
REMARK SMILES IDX 20 46 18 47 19 48 17 50 16 52 14 53 15 54 9 56 8 57 6 58
REMARK SMILES IDX 7 59 5 61 4 62 3 63 2 64 1 65 10 66 11 67 12 68 13 69 22 71
REMARK SMILES IDX 23 72 24 73 25 74 26 75 27 76 28 77
REMARK H PARENT 31 4 36 13 59 34 20 49 16 55 8 60 13 70 27 78 27 79 28 80
REMARK H PARENT 28 81
REMARK Flexibility Score:  259.900
ROOT
ATOM      1  O   UNL     1       6.189   1.142   6.812  1.00  0.00    -0.273 OA
ATOM      2  N   UNL     1       5.675  -0.215   5.045  1.00  0.00    -0.343 N 
ATOM      3  C   UNL     1       6.454   0.160   6.118  1.00  0.00     0.243 C 
ATOM      4  H   UNL     1       5.915  -1.037   4.505  1.00  0.00     0.164 HD
ENDROOT
BRANCH   2   5
ATOM      5  C   UNL     1       4.557   0.616   4.612  1.00  0.00     0.171 C 
ATOM      6  C   UNL     1       2.159   0.043   3.087  1.00  0.00     0.214 C 
ATOM      7  N   UNL     1       3.352   0.477   2.398  1.00  0.00    -0.303 N 
ATOM      8  C   UNL     1       2.045   0.595   4.499  1.00  0.00     0.057 C 
ATOM      9  C   UNL     1       4.545   0.718   3.060  1.00  0.00     0.247 C 
ATOM     10  C   UNL     1       3.261   0.196   5.305  1.00  0.00     0.040 C 
ATOM     11  O   UNL     1       5.586   1.006   2.454  1.00  0.00    -0.272 OA
BRANCH   6  12
ATOM     12  O   UNL     1       2.162  -1.365   3.107  1.00  0.00    -0.373 OA
ATOM     13  H   UNL     1       2.943  -1.659   2.592  1.00  0.00     0.213 HD
ENDBRANCH   6  12
BRANCH   7  14
ATOM     14  C   UNL     1       3.298   0.516   0.921  1.00  0.00     0.177 C 
BRANCH  14  15
ATOM     15  C   UNL     1       3.041  -0.842   0.239  1.00  0.00     0.038 C 
BRANCH  15  16
ATOM     16  C   UNL     1       3.901  -1.258  -0.976  1.00  0.00    -0.015 C 
ATOM     17  C   UNL     1       4.139  -2.769  -1.033  1.00  0.00     0.007 C 
ATOM     18  C   UNL     1       5.265  -0.559  -0.909  1.00  0.00     0.007 C 
ENDBRANCH  15  16
ENDBRANCH  14  15
BRANCH  14  19
ATOM     19  C   UNL     1       2.738   1.896   0.434  1.00  0.00     0.245 C 
ATOM     20  O   UNL     1       3.410   2.903   0.715  1.00  0.00    -0.272 OA
BRANCH  19  21
ATOM     21  N   UNL     1       1.508   2.057  -0.179  1.00  0.00    -0.332 N 
ATOM     22  C   UNL     1       1.295   2.259  -1.601  1.00  0.00     0.147 C 
BRANCH  21  23
ATOM     23  C   UNL     1       0.293   2.033   0.682  1.00  0.00     0.178 C 
BRANCH  23  24
ATOM     24  C   UNL     1      -0.047   3.378   1.356  1.00  0.00     0.070 C 
BRANCH  24  25
ATOM     25  C   UNL     1      -0.019   3.418   2.866  1.00  0.00    -0.045 A 
ATOM     26  C   UNL     1       1.098   3.916   3.550  1.00  0.00     0.004 A 
ATOM     27  C   UNL     1      -1.114   2.950   3.607  1.00  0.00     0.004 A 
ATOM     28  C   UNL     1       1.122   3.934   4.947  1.00  0.00     0.000 A 
ATOM     29  C   UNL     1      -1.089   2.969   5.002  1.00  0.00     0.000 A 
ATOM     30  C   UNL     1       0.032   3.458   5.671  1.00  0.00     0.000 A 
ENDBRANCH  24  25
ENDBRANCH  23  24
BRANCH  23  31
ATOM     31  C   UNL     1      -0.906   1.317   0.016  1.00  0.00     0.243 C 
ATOM     32  O   UNL     1      -0.865   0.169  -0.420  1.00  0.00    -0.273 OA
ATOM     33  N   UNL     1      -1.987   2.150  -0.218  1.00  0.00    -0.341 N 
ATOM     34  H   UNL     1      -1.961   3.098   0.165  1.00  0.00     0.164 HD
BRANCH  33  35
ATOM     35  C   UNL     1      -3.185   1.719  -0.944  1.00  0.00     0.194 C 
BRANCH  35  36
ATOM     36  C   UNL     1      -3.453   2.511  -2.255  1.00  0.00     0.017 C 
ATOM     37  C   UNL     1      -4.113   1.621  -3.321  1.00  0.00     0.010 C 
ATOM     38  C   UNL     1      -2.180   3.102  -2.874  1.00  0.00     0.010 C 
ENDBRANCH  35  36
BRANCH  35  39
ATOM     39  C   UNL     1      -4.445   1.658  -0.035  1.00  0.00     0.329 C 
ATOM     40  O   UNL     1      -4.696   2.473   0.844  1.00  0.00    -0.250 OA
BRANCH  39  41
ATOM     41  O   UNL     1      -5.288   0.640  -0.384  1.00  0.00    -0.458 OA
BRANCH  41  42
ATOM     42  C   UNL     1      -6.705   0.928  -0.311  1.00  0.00     0.205 CG0
ATOM     43  C   UNL     1      -7.365  -0.226   0.442  1.00  0.00     0.056 C 
ATOM     44  G   UNL     1      -7.250   1.084  -1.745  1.00  0.00     0.000 G0
ENDBRANCH  41  42
ENDBRANCH  39  41
ENDBRANCH  35  39
ENDBRANCH  33  35
ENDBRANCH  23  31
ENDBRANCH  21  23
ENDBRANCH  19  21
ENDBRANCH  14  19
ENDBRANCH   7  14
ENDBRANCH   2   5
BRANCH   3  45
ATOM     45  C   UNL     1       7.663  -0.742   6.400  1.00  0.00     0.171 C 
BRANCH  45  46
ATOM     46  N   UNL     1       8.836   0.056   6.069  1.00  0.00    -0.342 N 
ATOM     47  C   UNL     1      10.035  -0.093   6.720  1.00  0.00     0.247 C 
ATOM     48  O   UNL     1      10.228  -0.956   7.576  1.00  0.00    -0.273 OA
ATOM     49  H   UNL     1       8.736   0.745   5.326  1.00  0.00     0.164 HD
BRANCH  47  50
ATOM     50  C   UNL     1      11.120   0.919   6.323  1.00  0.00     0.212 CG0
ATOM     51  G   UNL     1      12.322   0.708   7.265  1.00  0.00     0.000 G0
BRANCH  50  52
ATOM     52  N   UNL     1      11.425   0.633   4.924  1.00  0.00    -0.339 N 
ATOM     53  C   UNL     1      12.337  -0.315   4.528  1.00  0.00     0.243 C 
ATOM     54  O   UNL     1      13.008  -0.963   5.327  1.00  0.00    -0.273 OA
ATOM     55  H   UNL     1      10.983   1.214   4.215  1.00  0.00     0.164 HD
BRANCH  53  56
ATOM     56  C   UNL     1      12.555  -0.378   3.003  1.00  0.00     0.182 C 
BRANCH  56  57
ATOM     57  N   UNL     1      11.275  -0.452   2.291  1.00  0.00    -0.344 N 
ATOM     58  C   UNL     1      10.900   0.479   1.353  1.00  0.00     0.220 C 
ATOM     59  O   UNL     1      11.572   1.473   1.099  1.00  0.00    -0.275 OA
ATOM     60  H   UNL     1      10.738  -1.309   2.396  1.00  0.00     0.164 HD
BRANCH  58  61
ATOM     61  C   UNL     1       9.564   0.172   0.702  1.00  0.00     0.100 C 
BRANCH  61  62
ATOM     62  C   UNL     1       9.511  -1.195   0.020  1.00  0.00     0.010 C 
BRANCH  62  63
ATOM     63  C   UNL     1       8.376  -2.100   0.516  1.00  0.00     0.000 C 
BRANCH  63  64
ATOM     64  C   UNL     1       7.704  -1.616   1.800  1.00  0.00    -0.003 C 
ATOM     65  C   UNL     1       6.445  -2.415   2.103  1.00  0.00     0.004 C 
ENDBRANCH  63  64
ENDBRANCH  62  63
ENDBRANCH  61  62
ENDBRANCH  58  61
ENDBRANCH  56  57
BRANCH  56  66
ATOM     66  C   UNL     1      13.496  -1.518   2.618  1.00  0.00     0.157 C 
BRANCH  66  67
ATOM     67  C   UNL     1      12.729  -2.762   2.269  1.00  0.00     0.305 C 
ATOM     68  O   UNL     1      12.197  -3.537   3.048  1.00  0.00    -0.252 OA
BRANCH  67  69
ATOM     69  O   UNL     1      12.624  -2.942   0.938  1.00  0.00    -0.481 OA
ATOM     70  H   UNL     1      11.907  -3.601   0.831  1.00  0.00     0.296 HD
ENDBRANCH  67  69
ENDBRANCH  66  67
ENDBRANCH  56  66
ENDBRANCH  53  56
ENDBRANCH  50  52
ENDBRANCH  47  50
ENDBRANCH  45  46
BRANCH  45  71
ATOM     71  C   UNL     1       7.588  -2.016   5.551  1.00  0.00     0.037 C 
BRANCH  71  72
ATOM     72  C   UNL     1       7.481  -3.277   6.413  1.00  0.00     0.026 C 
BRANCH  72  73
ATOM     73  C   UNL     1       8.379  -4.394   5.886  1.00  0.00     0.146 C 
BRANCH  73  74
ATOM     74  N   UNL     1       9.685  -3.814   5.587  1.00  0.00    -0.254 NA
ATOM     75  C   UNL     1      10.651  -4.070   6.389  1.00  0.00     0.185 C 
ATOM     76  N   UNL     1      11.865  -3.552   6.140  1.00  0.00    -0.370 N 
ATOM     77  N   UNL     1      10.647  -4.820   7.505  1.00  0.00    -0.370 N 
ATOM     78  H   UNL     1      11.954  -2.968   5.320  1.00  0.00     0.159 HD
ATOM     79  H   UNL     1      12.627  -3.589   6.793  1.00  0.00     0.159 HD
ATOM     80  H   UNL     1       9.803  -5.276   7.814  1.00  0.00     0.159 HD
ATOM     81  H   UNL     1      11.499  -5.045   7.993  1.00  0.00     0.159 HD
ENDBRANCH  73  74
ENDBRANCH  72  73
ENDBRANCH  71  72
ENDBRANCH  45  71
ENDBRANCH   3  45
TORSDOF 20
ENDMDL
MODEL 29
REMARK VINA RESULT:    -5.026      3.162     13.527
REMARK INTER + INTRA:         -21.831
REMARK INTER:                 -14.970
REMARK INTRA:                  -6.861
REMARK UNBOUND:                -7.402
REMARK SMILES CCCCCC(=O)N[C@H](CC(=O)O)C(=O)N[C@H]1C(=O)N[C@H](CCCN=C(N)N)C(=O)N[C@@H]2CC[C@H](O)N(C2=O)[C@@H](CC(C)C)C(=O)N(C)[C@@H](Cc2ccccc2)C(=O)N[C@H](C(C)C)C(=O)O[C@@H]1C
REMARK SMILES IDX 30 1 31 2 29 3 32 5 35 6 37 7 34 8 38 9 33 10 39 11 36 12
REMARK SMILES IDX 40 14 41 15 42 16 43 17 44 18 45 19 46 20 47 21 48 22 49 23
REMARK SMILES IDX 50 24 51 25 52 26 56 27 53 28 55 29 54 30 57 31 58 32 59 33
REMARK SMILES IDX 60 35 61 36 62 37 63 38 64 39 65 40 66 41 67 42 68 43 21 45
REMARK SMILES IDX 20 46 18 47 19 48 17 50 16 52 14 53 15 54 9 56 8 57 6 58
REMARK SMILES IDX 7 59 5 61 4 62 3 63 2 64 1 65 10 66 11 67 12 68 13 69 22 71
REMARK SMILES IDX 23 72 24 73 25 74 26 75 27 76 28 77
REMARK H PARENT 31 4 36 13 59 34 20 49 16 55 8 60 13 70 27 78 27 79 28 80
REMARK H PARENT 28 81
REMARK Flexibility Score:  259.900
ROOT
ATOM      1  O   UNL     1       3.730   1.118   6.111  1.00  0.00    -0.273 OA
ATOM      2  N   UNL     1       5.395   1.435   4.576  1.00  0.00    -0.343 N 
ATOM      3  C   UNL     1       4.325   1.863   5.332  1.00  0.00     0.243 C 
ATOM      4  H   UNL     1       5.870   2.080   3.957  1.00  0.00     0.164 HD
ENDROOT
BRANCH   2   5
ATOM      5  C   UNL     1       5.794   0.032   4.580  1.00  0.00     0.171 C 
ATOM      6  C   UNL     1       8.320  -1.294   4.066  1.00  0.00     0.214 C 
ATOM      7  N   UNL     1       7.397  -1.078   2.977  1.00  0.00    -0.303 N 
ATOM      8  C   UNL     1       7.634  -1.467   5.412  1.00  0.00     0.057 C 
ATOM      9  C   UNL     1       6.197  -0.407   3.143  1.00  0.00     0.247 C 
ATOM     10  C   UNL     1       6.780  -0.254   5.712  1.00  0.00     0.040 C 
ATOM     11  O   UNL     1       5.451  -0.150   2.189  1.00  0.00    -0.272 OA
BRANCH   6  12
ATOM     12  O   UNL     1       9.206  -0.199   4.103  1.00  0.00    -0.373 OA
ATOM     13  H   UNL     1      10.086  -0.550   4.360  1.00  0.00     0.213 HD
ENDBRANCH   6  12
BRANCH   7  14
ATOM     14  C   UNL     1       7.849  -1.476   1.627  1.00  0.00     0.177 C 
BRANCH  14  15
ATOM     15  C   UNL     1       8.768  -0.462   0.918  1.00  0.00     0.038 C 
BRANCH  15  16
ATOM     16  C   UNL     1       8.358   0.103  -0.460  1.00  0.00    -0.015 C 
ATOM     17  C   UNL     1       6.990  -0.410  -0.919  1.00  0.00     0.007 C 
ATOM     18  C   UNL     1       9.398  -0.296  -1.515  1.00  0.00     0.007 C 
ENDBRANCH  15  16
ENDBRANCH  14  15
BRANCH  14  19
ATOM     19  C   UNL     1       7.975  -3.035   1.533  1.00  0.00     0.245 C 
ATOM     20  O   UNL     1       6.954  -3.695   1.786  1.00  0.00    -0.272 OA
BRANCH  19  21
ATOM     21  N   UNL     1       9.166  -3.700   1.300  1.00  0.00    -0.332 N 
ATOM     22  C   UNL     1      10.215  -3.919   2.280  1.00  0.00     0.147 C 
BRANCH  21  23
ATOM     23  C   UNL     1       9.410  -4.230  -0.070  1.00  0.00     0.178 C 
BRANCH  23  24
ATOM     24  C   UNL     1       8.384  -3.778  -1.130  1.00  0.00     0.070 C 
BRANCH  24  25
ATOM     25  C   UNL     1       8.404  -4.499  -2.457  1.00  0.00    -0.045 A 
ATOM     26  C   UNL     1       9.039  -3.935  -3.571  1.00  0.00     0.004 A 
ATOM     27  C   UNL     1       7.777  -5.747  -2.594  1.00  0.00     0.004 A 
ATOM     28  C   UNL     1       9.037  -4.600  -4.799  1.00  0.00     0.000 A 
ATOM     29  C   UNL     1       7.778  -6.411  -3.822  1.00  0.00     0.000 A 
ATOM     30  C   UNL     1       8.406  -5.836  -4.924  1.00  0.00     0.000 A 
ENDBRANCH  24  25
ENDBRANCH  23  24
BRANCH  23  31
ATOM     31  C   UNL     1      10.891  -4.116  -0.506  1.00  0.00     0.243 C 
ATOM     32  O   UNL     1      11.429  -3.063  -0.841  1.00  0.00    -0.273 OA
ATOM     33  N   UNL     1      11.516  -5.341  -0.667  1.00  0.00    -0.341 N 
ATOM     34  H   UNL     1      11.014  -6.183  -0.376  1.00  0.00     0.164 HD
BRANCH  33  35
ATOM     35  C   UNL     1      12.879  -5.479  -1.187  1.00  0.00     0.194 C 
BRANCH  35  36
ATOM     36  C   UNL     1      12.949  -5.903  -2.681  1.00  0.00     0.017 C 
ATOM     37  C   UNL     1      13.208  -4.692  -3.594  1.00  0.00     0.010 C 
ATOM     38  C   UNL     1      11.668  -6.585  -3.176  1.00  0.00     0.010 C 
ENDBRANCH  35  36
BRANCH  35  39
ATOM     39  C   UNL     1      13.773  -6.377  -0.287  1.00  0.00     0.329 C 
ATOM     40  O   UNL     1      14.148  -6.065   0.837  1.00  0.00    -0.250 OA
BRANCH  39  41
ATOM     41  O   UNL     1      14.025  -7.596  -0.855  1.00  0.00    -0.458 OA
BRANCH  41  42
ATOM     42  C   UNL     1      13.275  -8.716  -0.328  1.00  0.00     0.205 CG0
ATOM     43  C   UNL     1      14.271  -9.643   0.367  1.00  0.00     0.056 C 
ATOM     44  G   UNL     1      12.540  -9.407  -1.493  1.00  0.00     0.000 G0
ENDBRANCH  41  42
ENDBRANCH  39  41
ENDBRANCH  35  39
ENDBRANCH  33  35
ENDBRANCH  23  31
ENDBRANCH  21  23
ENDBRANCH  19  21
ENDBRANCH  14  19
ENDBRANCH   7  14
ENDBRANCH   2   5
BRANCH   3  45
ATOM     45  C   UNL     1       3.942   3.338   5.153  1.00  0.00     0.171 C 
BRANCH  45  46
ATOM     46  N   UNL     1       2.932   3.608   6.168  1.00  0.00    -0.342 N 
ATOM     47  C   UNL     1       2.825   4.825   6.794  1.00  0.00     0.247 C 
ATOM     48  O   UNL     1       3.522   5.795   6.494  1.00  0.00    -0.273 OA
ATOM     49  H   UNL     1       2.297   2.849   6.407  1.00  0.00     0.164 HD
BRANCH  47  50
ATOM     50  C   UNL     1       1.786   4.886   7.923  1.00  0.00     0.212 CG0
ATOM     51  G   UNL     1       1.674   6.355   8.376  1.00  0.00     0.000 G0
BRANCH  50  52
ATOM     52  N   UNL     1       0.551   4.365   7.343  1.00  0.00    -0.339 N 
ATOM     53  C   UNL     1       0.149   3.058   7.471  1.00  0.00     0.243 C 
ATOM     54  O   UNL     1       0.829   2.208   8.040  1.00  0.00    -0.273 OA
ATOM     55  H   UNL     1      -0.002   4.994   6.765  1.00  0.00     0.164 HD
BRANCH  53  56
ATOM     56  C   UNL     1      -1.144   2.721   6.701  1.00  0.00     0.182 C 
BRANCH  56  57
ATOM     57  N   UNL     1      -2.299   2.682   7.604  1.00  0.00    -0.344 N 
ATOM     58  C   UNL     1      -3.006   3.810   7.944  1.00  0.00     0.220 C 
ATOM     59  O   UNL     1      -2.678   4.933   7.578  1.00  0.00    -0.275 OA
ATOM     60  H   UNL     1      -2.663   1.765   7.847  1.00  0.00     0.164 HD
BRANCH  58  61
ATOM     61  C   UNL     1      -4.195   3.526   8.843  1.00  0.00     0.100 C 
BRANCH  61  62
ATOM     62  C   UNL     1      -5.337   2.793   8.140  1.00  0.00     0.010 C 
BRANCH  62  63
ATOM     63  C   UNL     1      -5.641   3.311   6.728  1.00  0.00     0.000 C 
BRANCH  63  64
ATOM     64  C   UNL     1      -5.990   2.217   5.720  1.00  0.00    -0.003 C 
ATOM     65  C   UNL     1      -4.802   1.302   5.461  1.00  0.00     0.004 C 
ENDBRANCH  63  64
ENDBRANCH  62  63
ENDBRANCH  61  62
ENDBRANCH  58  61
ENDBRANCH  56  57
BRANCH  56  66
ATOM     66  C   UNL     1      -0.998   1.430   5.897  1.00  0.00     0.157 C 
BRANCH  66  67
ATOM     67  C   UNL     1       0.062   1.564   4.842  1.00  0.00     0.305 C 
ATOM     68  O   UNL     1      -0.006   2.220   3.814  1.00  0.00    -0.252 OA
BRANCH  67  69
ATOM     69  O   UNL     1       1.189   0.900   5.161  1.00  0.00    -0.481 OA
ATOM     70  H   UNL     1       0.890   0.162   5.734  1.00  0.00     0.296 HD
ENDBRANCH  67  69
ENDBRANCH  66  67
ENDBRANCH  56  66
ENDBRANCH  53  56
ENDBRANCH  50  52
ENDBRANCH  47  50
ENDBRANCH  45  46
BRANCH  45  71
ATOM     71  C   UNL     1       3.402   3.581   3.740  1.00  0.00     0.037 C 
BRANCH  71  72
ATOM     72  C   UNL     1       3.795   4.959   3.202  1.00  0.00     0.026 C 
BRANCH  72  73
ATOM     73  C   UNL     1       4.412   4.862   1.809  1.00  0.00     0.146 C 
BRANCH  73  74
ATOM     74  N   UNL     1       5.765   4.333   1.955  1.00  0.00    -0.254 NA
ATOM     75  C   UNL     1       6.018   3.186   1.442  1.00  0.00     0.185 C 
ATOM     76  N   UNL     1       7.254   2.674   1.560  1.00  0.00    -0.370 N 
ATOM     77  N   UNL     1       5.199   2.364   0.764  1.00  0.00    -0.370 N 
ATOM     78  H   UNL     1       7.933   3.227   2.064  1.00  0.00     0.159 HD
ATOM     79  H   UNL     1       7.487   1.728   1.313  1.00  0.00     0.159 HD
ATOM     80  H   UNL     1       4.238   2.621   0.596  1.00  0.00     0.159 HD
ATOM     81  H   UNL     1       5.542   1.536   0.307  1.00  0.00     0.159 HD
ENDBRANCH  73  74
ENDBRANCH  72  73
ENDBRANCH  71  72
ENDBRANCH  45  71
ENDBRANCH   3  45
TORSDOF 20
ENDMDL
MODEL 30
REMARK VINA RESULT:    -5.022      2.944      5.709
REMARK INTER + INTRA:         -21.820
REMARK INTER:                 -16.082
REMARK INTRA:                  -5.738
REMARK UNBOUND:                -7.402
REMARK SMILES CCCCCC(=O)N[C@H](CC(=O)O)C(=O)N[C@H]1C(=O)N[C@H](CCCN=C(N)N)C(=O)N[C@@H]2CC[C@H](O)N(C2=O)[C@@H](CC(C)C)C(=O)N(C)[C@@H](Cc2ccccc2)C(=O)N[C@H](C(C)C)C(=O)O[C@@H]1C
REMARK SMILES IDX 30 1 31 2 29 3 32 5 35 6 37 7 34 8 38 9 33 10 39 11 36 12
REMARK SMILES IDX 40 14 41 15 42 16 43 17 44 18 45 19 46 20 47 21 48 22 49 23
REMARK SMILES IDX 50 24 51 25 52 26 56 27 53 28 55 29 54 30 57 31 58 32 59 33
REMARK SMILES IDX 60 35 61 36 62 37 63 38 64 39 65 40 66 41 67 42 68 43 21 45
REMARK SMILES IDX 20 46 18 47 19 48 17 50 16 52 14 53 15 54 9 56 8 57 6 58
REMARK SMILES IDX 7 59 5 61 4 62 3 63 2 64 1 65 10 66 11 67 12 68 13 69 22 71
REMARK SMILES IDX 23 72 24 73 25 74 26 75 27 76 28 77
REMARK H PARENT 31 4 36 13 59 34 20 49 16 55 8 60 13 70 27 78 27 79 28 80
REMARK H PARENT 28 81
REMARK Flexibility Score:  259.900
ROOT
ATOM      1  O   UNL     1       6.088  -2.481   2.285  1.00  0.00    -0.273 OA
ATOM      2  N   UNL     1       7.984  -2.626   3.556  1.00  0.00    -0.343 N 
ATOM      3  C   UNL     1       7.257  -2.849   2.406  1.00  0.00     0.243 C 
ATOM      4  H   UNL     1       8.948  -2.931   3.615  1.00  0.00     0.164 HD
ENDROOT
BRANCH   2   5
ATOM      5  C   UNL     1       7.351  -2.042   4.733  1.00  0.00     0.171 C 
ATOM      6  C   UNL     1       4.619  -1.259   5.310  1.00  0.00     0.214 C 
ATOM      7  N   UNL     1       5.531  -0.292   4.746  1.00  0.00    -0.303 N 
ATOM      8  C   UNL     1       5.308  -2.301   6.177  1.00  0.00     0.057 C 
ATOM      9  C   UNL     1       6.834  -0.613   4.399  1.00  0.00     0.247 C 
ATOM     10  C   UNL     1       6.366  -3.022   5.370  1.00  0.00     0.040 C 
ATOM     11  O   UNL     1       7.582   0.197   3.837  1.00  0.00    -0.272 OA
BRANCH   6  12
ATOM     12  O   UNL     1       3.936  -1.879   4.245  1.00  0.00    -0.373 OA
ATOM     13  H   UNL     1       4.533  -2.567   3.882  1.00  0.00     0.213 HD
ENDBRANCH   6  12
BRANCH   7  14
ATOM     14  C   UNL     1       4.976   1.036   4.409  1.00  0.00     0.177 C 
BRANCH  14  15
ATOM     15  C   UNL     1       4.662   1.257   2.917  1.00  0.00     0.038 C 
BRANCH  15  16
ATOM     16  C   UNL     1       3.604   0.371   2.222  1.00  0.00    -0.015 C 
ATOM     17  C   UNL     1       4.157  -0.336   0.981  1.00  0.00     0.007 C 
ATOM     18  C   UNL     1       2.409   1.231   1.793  1.00  0.00     0.007 C 
ENDBRANCH  15  16
ENDBRANCH  14  15
BRANCH  14  19
ATOM     19  C   UNL     1       4.129   1.590   5.606  1.00  0.00     0.245 C 
ATOM     20  O   UNL     1       4.699   1.668   6.707  1.00  0.00    -0.272 OA
BRANCH  19  21
ATOM     21  N   UNL     1       2.779   1.882   5.525  1.00  0.00    -0.332 N 
ATOM     22  C   UNL     1       1.721   0.918   5.280  1.00  0.00     0.147 C 
BRANCH  21  23
ATOM     23  C   UNL     1       2.363   3.302   5.690  1.00  0.00     0.178 C 
BRANCH  23  24
ATOM     24  C   UNL     1       1.784   3.957   4.420  1.00  0.00     0.070 C 
BRANCH  24  25
ATOM     25  C   UNL     1       2.772   4.501   3.414  1.00  0.00    -0.045 A 
ATOM     26  C   UNL     1       2.411   4.669   2.071  1.00  0.00     0.004 A 
ATOM     27  C   UNL     1       4.073   4.842   3.814  1.00  0.00     0.004 A 
ATOM     28  C   UNL     1       3.336   5.156   1.145  1.00  0.00     0.000 A 
ATOM     29  C   UNL     1       4.996   5.330   2.887  1.00  0.00     0.000 A 
ATOM     30  C   UNL     1       4.627   5.483   1.553  1.00  0.00     0.000 A 
ENDBRANCH  24  25
ENDBRANCH  23  24
BRANCH  23  31
ATOM     31  C   UNL     1       1.542   3.545   6.980  1.00  0.00     0.243 C 
ATOM     32  O   UNL     1       1.648   2.867   7.999  1.00  0.00    -0.273 OA
ATOM     33  N   UNL     1       0.537   4.484   6.827  1.00  0.00    -0.341 N 
ATOM     34  H   UNL     1       0.496   5.014   5.953  1.00  0.00     0.164 HD
BRANCH  33  35
ATOM     35  C   UNL     1      -0.438   4.789   7.878  1.00  0.00     0.194 C 
BRANCH  35  36
ATOM     36  C   UNL     1      -1.840   4.159   7.645  1.00  0.00     0.017 C 
ATOM     37  C   UNL     1      -2.116   3.023   8.645  1.00  0.00     0.010 C 
ATOM     38  C   UNL     1      -2.017   3.583   6.235  1.00  0.00     0.010 C 
ENDBRANCH  35  36
BRANCH  35  39
ATOM     39  C   UNL     1      -0.529   6.309   8.187  1.00  0.00     0.329 C 
ATOM     40  O   UNL     1       0.297   6.925   8.851  1.00  0.00    -0.250 OA
BRANCH  39  41
ATOM     41  O   UNL     1      -1.589   6.905   7.561  1.00  0.00    -0.458 OA
BRANCH  41  42
ATOM     42  C   UNL     1      -2.171   8.047   8.233  1.00  0.00     0.205 CG0
ATOM     43  C   UNL     1      -3.480   7.582   8.869  1.00  0.00     0.056 C 
ATOM     44  G   UNL     1      -2.384   9.170   7.199  1.00  0.00     0.000 G0
ENDBRANCH  41  42
ENDBRANCH  39  41
ENDBRANCH  35  39
ENDBRANCH  33  35
ENDBRANCH  23  31
ENDBRANCH  21  23
ENDBRANCH  19  21
ENDBRANCH  14  19
ENDBRANCH   7  14
ENDBRANCH   2   5
BRANCH   3  45
ATOM     45  C   UNL     1       8.012  -3.569   1.281  1.00  0.00     0.171 C 
BRANCH  45  46
ATOM     46  N   UNL     1       9.047  -4.354   1.941  1.00  0.00    -0.342 N 
ATOM     47  C   UNL     1       8.804  -5.594   2.475  1.00  0.00     0.247 C 
ATOM     48  O   UNL     1       7.717  -6.164   2.373  1.00  0.00    -0.273 OA
ATOM     49  H   UNL     1       9.977  -3.943   1.997  1.00  0.00     0.164 HD
BRANCH  47  50
ATOM     50  C   UNL     1       9.982  -6.215   3.239  1.00  0.00     0.212 CG0
ATOM     51  G   UNL     1      11.132  -6.424   2.235  1.00  0.00     0.000 G0
BRANCH  50  52
ATOM     52  N   UNL     1      10.305  -5.262   4.298  1.00  0.00    -0.339 N 
ATOM     53  C   UNL     1      11.557  -4.723   4.473  1.00  0.00     0.243 C 
ATOM     54  O   UNL     1      12.518  -5.044   3.780  1.00  0.00    -0.273 OA
ATOM     55  H   UNL     1       9.577  -5.041   4.974  1.00  0.00     0.164 HD
BRANCH  53  56
ATOM     56  C   UNL     1      11.679  -3.809   5.709  1.00  0.00     0.182 C 
BRANCH  56  57
ATOM     57  N   UNL     1      11.467  -2.404   5.347  1.00  0.00    -0.344 N 
ATOM     58  C   UNL     1      10.673  -1.564   6.090  1.00  0.00     0.220 C 
ATOM     59  O   UNL     1      10.030  -1.947   7.062  1.00  0.00    -0.275 OA
ATOM     60  H   UNL     1      12.058  -2.023   4.613  1.00  0.00     0.164 HD
BRANCH  58  61
ATOM     61  C   UNL     1      10.645  -0.141   5.564  1.00  0.00     0.100 C 
BRANCH  61  62
ATOM     62  C   UNL     1      11.047  -0.020   4.094  1.00  0.00     0.010 C 
BRANCH  62  63
ATOM     63  C   UNL     1      11.907   1.211   3.778  1.00  0.00     0.000 C 
BRANCH  63  64
ATOM     64  C   UNL     1      12.878   1.015   2.615  1.00  0.00    -0.003 C 
ATOM     65  C   UNL     1      14.156   0.324   3.069  1.00  0.00     0.004 C 
ENDBRANCH  63  64
ENDBRANCH  62  63
ENDBRANCH  61  62
ENDBRANCH  58  61
ENDBRANCH  56  57
BRANCH  56  66
ATOM     66  C   UNL     1      13.005  -4.024   6.435  1.00  0.00     0.157 C 
BRANCH  66  67
ATOM     67  C   UNL     1      13.906  -2.832   6.286  1.00  0.00     0.305 C 
ATOM     68  O   UNL     1      14.463  -2.457   5.265  1.00  0.00    -0.252 OA
BRANCH  67  69
ATOM     69  O   UNL     1      14.023  -2.132   7.430  1.00  0.00    -0.481 OA
ATOM     70  H   UNL     1      13.784  -2.767   8.138  1.00  0.00     0.296 HD
ENDBRANCH  67  69
ENDBRANCH  66  67
ENDBRANCH  56  66
ENDBRANCH  53  56
ENDBRANCH  50  52
ENDBRANCH  47  50
ENDBRANCH  45  46
BRANCH  45  71
ATOM     71  C   UNL     1       8.609  -2.552   0.303  1.00  0.00     0.037 C 
BRANCH  71  72
ATOM     72  C   UNL     1       8.163  -2.808  -1.139  1.00  0.00     0.026 C 
BRANCH  72  73
ATOM     73  C   UNL     1       7.692  -4.248  -1.332  1.00  0.00     0.146 C 
BRANCH  73  74
ATOM     74  N   UNL     1       6.279  -4.212  -1.698  1.00  0.00    -0.254 NA
ATOM     75  C   UNL     1       5.939  -4.726  -2.822  1.00  0.00     0.185 C 
ATOM     76  N   UNL     1       4.646  -4.709  -3.186  1.00  0.00    -0.370 N 
ATOM     77  N   UNL     1       6.711  -5.317  -3.750  1.00  0.00    -0.370 N 
ATOM     78  H   UNL     1       3.996  -4.275  -2.546  1.00  0.00     0.159 HD
ATOM     79  H   UNL     1       4.327  -4.959  -4.105  1.00  0.00     0.159 HD
ATOM     80  H   UNL     1       7.706  -5.406  -3.609  1.00  0.00     0.159 HD
ATOM     81  H   UNL     1       6.314  -5.790  -4.545  1.00  0.00     0.159 HD
ENDBRANCH  73  74
ENDBRANCH  72  73
ENDBRANCH  71  72
ENDBRANCH  45  71
ENDBRANCH   3  45
TORSDOF 20
ENDMDL
MODEL 31
REMARK VINA RESULT:    -4.992      6.731     12.612
REMARK INTER + INTRA:         -21.732
REMARK INTER:                 -16.115
REMARK INTRA:                  -5.617
REMARK UNBOUND:                -7.402
REMARK SMILES CCCCCC(=O)N[C@H](CC(=O)O)C(=O)N[C@H]1C(=O)N[C@H](CCCN=C(N)N)C(=O)N[C@@H]2CC[C@H](O)N(C2=O)[C@@H](CC(C)C)C(=O)N(C)[C@@H](Cc2ccccc2)C(=O)N[C@H](C(C)C)C(=O)O[C@@H]1C
REMARK SMILES IDX 30 1 31 2 29 3 32 5 35 6 37 7 34 8 38 9 33 10 39 11 36 12
REMARK SMILES IDX 40 14 41 15 42 16 43 17 44 18 45 19 46 20 47 21 48 22 49 23
REMARK SMILES IDX 50 24 51 25 52 26 56 27 53 28 55 29 54 30 57 31 58 32 59 33
REMARK SMILES IDX 60 35 61 36 62 37 63 38 64 39 65 40 66 41 67 42 68 43 21 45
REMARK SMILES IDX 20 46 18 47 19 48 17 50 16 52 14 53 15 54 9 56 8 57 6 58
REMARK SMILES IDX 7 59 5 61 4 62 3 63 2 64 1 65 10 66 11 67 12 68 13 69 22 71
REMARK SMILES IDX 23 72 24 73 25 74 26 75 27 76 28 77
REMARK H PARENT 31 4 36 13 59 34 20 49 16 55 8 60 13 70 27 78 27 79 28 80
REMARK H PARENT 28 81
REMARK Flexibility Score:  259.900
ROOT
ATOM      1  O   UNL     1      -2.270   0.383  -1.295  1.00  0.00    -0.273 OA
ATOM      2  N   UNL     1      -1.419   2.326  -0.438  1.00  0.00    -0.343 N 
ATOM      3  C   UNL     1      -2.010   1.579  -1.435  1.00  0.00     0.243 C 
ATOM      4  H   UNL     1      -1.233   3.310  -0.583  1.00  0.00     0.164 HD
ENDROOT
BRANCH   2   5
ATOM      5  C   UNL     1      -0.966   1.692   0.795  1.00  0.00     0.171 C 
ATOM      6  C   UNL     1       0.793   2.572   2.925  1.00  0.00     0.214 C 
ATOM      7  N   UNL     1       1.343   1.849   1.803  1.00  0.00    -0.303 N 
ATOM      8  C   UNL     1      -0.646   2.192   3.239  1.00  0.00     0.057 C 
ATOM      9  C   UNL     1       0.568   1.444   0.728  1.00  0.00     0.247 C 
ATOM     10  C   UNL     1      -1.514   2.422   2.021  1.00  0.00     0.040 C 
ATOM     11  O   UNL     1       1.062   0.902  -0.269  1.00  0.00    -0.272 OA
BRANCH   6  12
ATOM     12  O   UNL     1       0.887   3.948   2.639  1.00  0.00    -0.373 OA
ATOM     13  H   UNL     1       0.262   4.410   3.239  1.00  0.00     0.213 HD
ENDBRANCH   6  12
BRANCH   7  14
ATOM     14  C   UNL     1       2.811   1.680   1.770  1.00  0.00     0.177 C 
BRANCH  14  15
ATOM     15  C   UNL     1       3.577   2.750   0.967  1.00  0.00     0.038 C 
BRANCH  15  16
ATOM     16  C   UNL     1       4.865   2.356   0.210  1.00  0.00    -0.015 C 
ATOM     17  C   UNL     1       5.733   3.570  -0.135  1.00  0.00     0.007 C 
ATOM     18  C   UNL     1       4.501   1.638  -1.095  1.00  0.00     0.007 C 
ENDBRANCH  15  16
ENDBRANCH  14  15
BRANCH  14  19
ATOM     19  C   UNL     1       3.312   1.011   3.096  1.00  0.00     0.245 C 
ATOM     20  O   UNL     1       4.033   1.703   3.834  1.00  0.00    -0.272 OA
BRANCH  19  21
ATOM     21  N   UNL     1       3.090  -0.315   3.422  1.00  0.00    -0.332 N 
ATOM     22  C   UNL     1       1.836  -0.866   3.905  1.00  0.00     0.147 C 
BRANCH  21  23
ATOM     23  C   UNL     1       4.227  -1.267   3.280  1.00  0.00     0.178 C 
BRANCH  23  24
ATOM     24  C   UNL     1       5.138  -1.006   2.064  1.00  0.00     0.070 C 
BRANCH  24  25
ATOM     25  C   UNL     1       4.909  -1.858   0.837  1.00  0.00    -0.045 A 
ATOM     26  C   UNL     1       5.859  -2.804   0.432  1.00  0.00     0.004 A 
ATOM     27  C   UNL     1       3.736  -1.708   0.080  1.00  0.00     0.004 A 
ATOM     28  C   UNL     1       5.647  -3.576  -0.713  1.00  0.00     0.000 A 
ATOM     29  C   UNL     1       3.526  -2.481  -1.063  1.00  0.00     0.000 A 
ATOM     30  C   UNL     1       4.483  -3.412  -1.460  1.00  0.00     0.000 A 
ENDBRANCH  24  25
ENDBRANCH  23  24
BRANCH  23  31
ATOM     31  C   UNL     1       4.973  -1.518   4.612  1.00  0.00     0.243 C 
ATOM     32  O   UNL     1       4.653  -1.012   5.685  1.00  0.00    -0.273 OA
ATOM     33  N   UNL     1       6.156  -2.221   4.459  1.00  0.00    -0.341 N 
ATOM     34  H   UNL     1       6.372  -2.613   3.539  1.00  0.00     0.164 HD
BRANCH  33  35
ATOM     35  C   UNL     1       7.085  -2.472   5.564  1.00  0.00     0.194 C 
BRANCH  35  36
ATOM     36  C   UNL     1       8.303  -1.506   5.600  1.00  0.00     0.017 C 
ATOM     37  C   UNL     1       7.997  -0.251   6.436  1.00  0.00     0.010 C 
ATOM     38  C   UNL     1       8.743  -1.036   4.209  1.00  0.00     0.010 C 
ENDBRANCH  35  36
BRANCH  35  39
ATOM     39  C   UNL     1       7.522  -3.961   5.652  1.00  0.00     0.329 C 
ATOM     40  O   UNL     1       8.097  -4.561   4.752  1.00  0.00    -0.250 OA
BRANCH  39  41
ATOM     41  O   UNL     1       7.271  -4.505   6.881  1.00  0.00    -0.458 OA
BRANCH  41  42
ATOM     42  C   UNL     1       8.024  -5.693   7.223  1.00  0.00     0.205 CG0
ATOM     43  C   UNL     1       7.244  -6.428   8.311  1.00  0.00     0.056 C 
ATOM     44  G   UNL     1       9.430  -5.266   7.691  1.00  0.00     0.000 G0
ENDBRANCH  41  42
ENDBRANCH  39  41
ENDBRANCH  35  39
ENDBRANCH  33  35
ENDBRANCH  23  31
ENDBRANCH  21  23
ENDBRANCH  19  21
ENDBRANCH  14  19
ENDBRANCH   7  14
ENDBRANCH   2   5
BRANCH   3  45
ATOM     45  C   UNL     1      -2.339   2.346  -2.722  1.00  0.00     0.171 C 
BRANCH  45  46
ATOM     46  N   UNL     1      -3.733   2.751  -2.594  1.00  0.00    -0.342 N 
ATOM     47  C   UNL     1      -4.110   3.893  -1.933  1.00  0.00     0.247 C 
ATOM     48  O   UNL     1      -3.298   4.693  -1.466  1.00  0.00    -0.273 OA
ATOM     49  H   UNL     1      -4.435   2.145  -3.015  1.00  0.00     0.164 HD
BRANCH  47  50
ATOM     50  C   UNL     1      -5.625   4.092  -1.791  1.00  0.00     0.212 CG0
ATOM     51  G   UNL     1      -6.144   4.690  -3.113  1.00  0.00     0.000 G0
BRANCH  50  52
ATOM     52  N   UNL     1      -6.167   2.766  -1.505  1.00  0.00    -0.339 N 
ATOM     53  C   UNL     1      -7.348   2.561  -0.835  1.00  0.00     0.243 C 
ATOM     54  O   UNL     1      -8.017   3.482  -0.375  1.00  0.00    -0.273 OA
ATOM     55  H   UNL     1      -5.603   1.959  -1.764  1.00  0.00     0.164 HD
BRANCH  53  56
ATOM     56  C   UNL     1      -7.672   1.076  -0.575  1.00  0.00     0.182 C 
BRANCH  56  57
ATOM     57  N   UNL     1      -8.899   0.935   0.216  1.00  0.00    -0.344 N 
ATOM     58  C   UNL     1     -10.081   0.497  -0.330  1.00  0.00     0.220 C 
ATOM     59  O   UNL     1     -10.213   0.264  -1.527  1.00  0.00    -0.275 OA
ATOM     60  H   UNL     1      -8.808   1.019   1.225  1.00  0.00     0.164 HD
BRANCH  58  61
ATOM     61  C   UNL     1     -11.203   0.372   0.685  1.00  0.00     0.100 C 
BRANCH  61  62
ATOM     62  C   UNL     1     -11.137  -0.905   1.522  1.00  0.00     0.010 C 
BRANCH  62  63
ATOM     63  C   UNL     1     -10.447  -2.081   0.818  1.00  0.00     0.000 C 
BRANCH  63  64
ATOM     64  C   UNL     1      -9.228  -2.628   1.560  1.00  0.00    -0.003 C 
ATOM     65  C   UNL     1      -8.808  -1.703   2.694  1.00  0.00     0.004 C 
ENDBRANCH  63  64
ENDBRANCH  62  63
ENDBRANCH  61  62
ENDBRANCH  58  61
ENDBRANCH  56  57
BRANCH  56  66
ATOM     66  C   UNL     1      -6.490   0.347   0.061  1.00  0.00     0.157 C 
BRANCH  66  67
ATOM     67  C   UNL     1      -6.050   1.025   1.327  1.00  0.00     0.305 C 
ATOM     68  O   UNL     1      -6.693   1.135   2.360  1.00  0.00    -0.252 OA
BRANCH  67  69
ATOM     69  O   UNL     1      -4.789   1.491   1.247  1.00  0.00    -0.481 OA
ATOM     70  H   UNL     1      -4.711   2.129   1.987  1.00  0.00     0.296 HD
ENDBRANCH  67  69
ENDBRANCH  66  67
ENDBRANCH  56  66
ENDBRANCH  53  56
ENDBRANCH  50  52
ENDBRANCH  47  50
ENDBRANCH  45  46
BRANCH  45  71
ATOM     71  C   UNL     1      -2.121   1.450  -3.947  1.00  0.00     0.037 C 
BRANCH  71  72
ATOM     72  C   UNL     1      -3.248   1.595  -4.974  1.00  0.00     0.026 C 
BRANCH  72  73
ATOM     73  C   UNL     1      -2.707   1.597  -6.402  1.00  0.00     0.146 C 
BRANCH  73  74
ATOM     74  N   UNL     1      -1.669   0.574  -6.488  1.00  0.00    -0.254 NA
ATOM     75  C   UNL     1      -1.832  -0.375  -7.335  1.00  0.00     0.185 C 
ATOM     76  N   UNL     1      -0.894  -1.330  -7.439  1.00  0.00    -0.370 N 
ATOM     77  N   UNL     1      -2.851  -0.580  -8.189  1.00  0.00    -0.370 N 
ATOM     78  H   UNL     1      -0.095  -1.255  -6.826  1.00  0.00     0.159 HD
ATOM     79  H   UNL     1      -1.019  -2.173  -7.970  1.00  0.00     0.159 HD
ATOM     80  H   UNL     1      -3.628   0.062  -8.225  1.00  0.00     0.159 HD
ATOM     81  H   UNL     1      -2.814  -1.300  -8.891  1.00  0.00     0.159 HD
ENDBRANCH  73  74
ENDBRANCH  72  73
ENDBRANCH  71  72
ENDBRANCH  45  71
ENDBRANCH   3  45
TORSDOF 20
ENDMDL
MODEL 32
REMARK VINA RESULT:    -4.939      4.537      8.534
REMARK INTER + INTRA:         -21.581
REMARK INTER:                 -14.491
REMARK INTRA:                  -7.090
REMARK UNBOUND:                -7.402
REMARK SMILES CCCCCC(=O)N[C@H](CC(=O)O)C(=O)N[C@H]1C(=O)N[C@H](CCCN=C(N)N)C(=O)N[C@@H]2CC[C@H](O)N(C2=O)[C@@H](CC(C)C)C(=O)N(C)[C@@H](Cc2ccccc2)C(=O)N[C@H](C(C)C)C(=O)O[C@@H]1C
REMARK SMILES IDX 30 1 31 2 29 3 32 5 35 6 37 7 34 8 38 9 33 10 39 11 36 12
REMARK SMILES IDX 40 14 41 15 42 16 43 17 44 18 45 19 46 20 47 21 48 22 49 23
REMARK SMILES IDX 50 24 51 25 52 26 56 27 53 28 55 29 54 30 57 31 58 32 59 33
REMARK SMILES IDX 60 35 61 36 62 37 63 38 64 39 65 40 66 41 67 42 68 43 21 45
REMARK SMILES IDX 20 46 18 47 19 48 17 50 16 52 14 53 15 54 9 56 8 57 6 58
REMARK SMILES IDX 7 59 5 61 4 62 3 63 2 64 1 65 10 66 11 67 12 68 13 69 22 71
REMARK SMILES IDX 23 72 24 73 25 74 26 75 27 76 28 77
REMARK H PARENT 31 4 36 13 59 34 20 49 16 55 8 60 13 70 27 78 27 79 28 80
REMARK H PARENT 28 81
REMARK Flexibility Score:  259.900
ROOT
ATOM      1  O   UNL     1       7.511  -5.808   1.140  1.00  0.00    -0.273 OA
ATOM      2  N   UNL     1       7.602  -4.480  -0.720  1.00  0.00    -0.343 N 
ATOM      3  C   UNL     1       8.175  -5.147   0.341  1.00  0.00     0.243 C 
ATOM      4  H   UNL     1       8.181  -3.958  -1.365  1.00  0.00     0.164 HD
ENDROOT
BRANCH   2   5
ATOM      5  C   UNL     1       6.151  -4.434  -0.871  1.00  0.00     0.171 C 
ATOM      6  C   UNL     1       4.397  -2.794  -2.495  1.00  0.00     0.214 C 
ATOM      7  N   UNL     1       4.738  -2.362  -1.160  1.00  0.00    -0.303 N 
ATOM      8  C   UNL     1       4.382  -4.306  -2.653  1.00  0.00     0.057 C 
ATOM      9  C   UNL     1       5.610  -3.072  -0.350  1.00  0.00     0.247 C 
ATOM     10  C   UNL     1       5.732  -4.874  -2.272  1.00  0.00     0.040 C 
ATOM     11  O   UNL     1       5.964  -2.651   0.759  1.00  0.00    -0.272 OA
BRANCH   6  12
ATOM     12  O   UNL     1       5.324  -2.215  -3.384  1.00  0.00    -0.373 OA
ATOM     13  H   UNL     1       6.032  -1.810  -2.838  1.00  0.00     0.213 HD
ENDBRANCH   6  12
BRANCH   7  14
ATOM     14  C   UNL     1       4.231  -1.041  -0.732  1.00  0.00     0.177 C 
BRANCH  14  15
ATOM     15  C   UNL     1       4.404   0.092  -1.762  1.00  0.00     0.038 C 
BRANCH  15  16
ATOM     16  C   UNL     1       5.369   1.259  -1.454  1.00  0.00    -0.015 C 
ATOM     17  C   UNL     1       5.459   2.263  -2.608  1.00  0.00     0.007 C 
ATOM     18  C   UNL     1       6.776   0.710  -1.184  1.00  0.00     0.007 C 
ENDBRANCH  15  16
ENDBRANCH  14  15
BRANCH  14  19
ATOM     19  C   UNL     1       3.004  -1.214   0.228  1.00  0.00     0.245 C 
ATOM     20  O   UNL     1       2.198  -2.117  -0.051  1.00  0.00    -0.272 OA
BRANCH  19  21
ATOM     21  N   UNL     1       2.721  -0.361   1.280  1.00  0.00    -0.332 N 
ATOM     22  C   UNL     1       1.417   0.203   1.580  1.00  0.00     0.147 C 
BRANCH  21  23
ATOM     23  C   UNL     1       3.841   0.030   2.180  1.00  0.00     0.178 C 
BRANCH  23  24
ATOM     24  C   UNL     1       3.766   1.475   2.715  1.00  0.00     0.070 C 
BRANCH  24  25
ATOM     25  C   UNL     1       4.414   2.553   1.878  1.00  0.00    -0.045 A 
ATOM     26  C   UNL     1       5.802   2.739   1.896  1.00  0.00     0.004 A 
ATOM     27  C   UNL     1       3.628   3.390   1.071  1.00  0.00     0.004 A 
ATOM     28  C   UNL     1       6.391   3.749   1.133  1.00  0.00     0.000 A 
ATOM     29  C   UNL     1       4.219   4.399   0.308  1.00  0.00     0.000 A 
ATOM     30  C   UNL     1       5.600   4.579   0.342  1.00  0.00     0.000 A 
ENDBRANCH  24  25
ENDBRANCH  23  24
BRANCH  23  31
ATOM     31  C   UNL     1       4.161  -1.044   3.246  1.00  0.00     0.243 C 
ATOM     32  O   UNL     1       3.379  -1.392   4.127  1.00  0.00    -0.273 OA
ATOM     33  N   UNL     1       5.484  -1.453   3.240  1.00  0.00    -0.341 N 
ATOM     34  H   UNL     1       6.090  -1.124   2.485  1.00  0.00     0.164 HD
BRANCH  33  35
ATOM     35  C   UNL     1       6.041  -2.373   4.236  1.00  0.00     0.194 C 
BRANCH  35  36
ATOM     36  C   UNL     1       5.748  -1.968   5.709  1.00  0.00     0.017 C 
ATOM     37  C   UNL     1       6.876  -1.093   6.283  1.00  0.00     0.010 C 
ATOM     38  C   UNL     1       5.578  -3.171   6.644  1.00  0.00     0.010 C 
ENDBRANCH  35  36
BRANCH  35  39
ATOM     39  C   UNL     1       7.550  -2.664   4.004  1.00  0.00     0.329 C 
ATOM     40  O   UNL     1       8.225  -3.396   4.718  1.00  0.00    -0.250 OA
BRANCH  39  41
ATOM     41  O   UNL     1       8.022  -2.081   2.861  1.00  0.00    -0.458 OA
BRANCH  41  42
ATOM     42  C   UNL     1       9.129  -1.162   3.020  1.00  0.00     0.205 CG0
ATOM     43  C   UNL     1       8.769   0.118   2.269  1.00  0.00     0.056 C 
ATOM     44  G   UNL     1      10.405  -1.830   2.469  1.00  0.00     0.000 G0
ENDBRANCH  41  42
ENDBRANCH  39  41
ENDBRANCH  35  39
ENDBRANCH  33  35
ENDBRANCH  23  31
ENDBRANCH  21  23
ENDBRANCH  19  21
ENDBRANCH  14  19
ENDBRANCH   7  14
ENDBRANCH   2   5
BRANCH   3  45
ATOM     45  C   UNL     1       9.702  -5.026   0.446  1.00  0.00     0.171 C 
BRANCH  45  46
ATOM     46  N   UNL     1       9.948  -4.050   1.499  1.00  0.00    -0.342 N 
ATOM     47  C   UNL     1      10.022  -2.702   1.251  1.00  0.00     0.247 C 
ATOM     48  O   UNL     1       9.813  -2.215   0.139  1.00  0.00    -0.273 OA
ATOM     49  H   UNL     1      10.071  -4.406   2.445  1.00  0.00     0.164 HD
BRANCH  47  50
ATOM     50  C   UNL     1      10.412  -1.839   2.459  1.00  0.00     0.212 CG0
ATOM     51  G   UNL     1       9.127  -1.179   2.997  1.00  0.00     0.000 G0
BRANCH  50  52
ATOM     52  N   UNL     1      11.031  -2.759   3.411  1.00  0.00    -0.339 N 
ATOM     53  C   UNL     1      12.390  -2.905   3.546  1.00  0.00     0.243 C 
ATOM     54  O   UNL     1      13.194  -2.308   2.835  1.00  0.00    -0.273 OA
ATOM     55  H   UNL     1      10.416  -3.363   3.952  1.00  0.00     0.164 HD
BRANCH  53  56
ATOM     56  C   UNL     1      12.807  -3.996   4.552  1.00  0.00     0.182 C 
BRANCH  56  57
ATOM     57  N   UNL     1      11.717  -4.952   4.773  1.00  0.00    -0.344 N 
ATOM     58  C   UNL     1      11.864  -6.300   4.552  1.00  0.00     0.220 C 
ATOM     59  O   UNL     1      12.888  -6.788   4.087  1.00  0.00    -0.275 OA
ATOM     60  H   UNL     1      10.890  -4.605   5.252  1.00  0.00     0.164 HD
BRANCH  58  61
ATOM     61  C   UNL     1      10.626  -7.105   4.903  1.00  0.00     0.100 C 
BRANCH  61  62
ATOM     62  C   UNL     1       9.706  -6.414   5.909  1.00  0.00     0.010 C 
BRANCH  62  63
ATOM     63  C   UNL     1       9.301  -7.295   7.098  1.00  0.00     0.000 C 
BRANCH  63  64
ATOM     64  C   UNL     1      10.335  -8.356   7.473  1.00  0.00    -0.003 C 
ATOM     65  C   UNL     1      11.537  -7.736   8.170  1.00  0.00     0.004 C 
ENDBRANCH  63  64
ENDBRANCH  62  63
ENDBRANCH  61  62
ENDBRANCH  58  61
ENDBRANCH  56  57
BRANCH  56  66
ATOM     66  C   UNL     1      13.315  -3.389   5.859  1.00  0.00     0.157 C 
BRANCH  66  67
ATOM     67  C   UNL     1      12.310  -2.439   6.444  1.00  0.00     0.305 C 
ATOM     68  O   UNL     1      12.435  -1.232   6.580  1.00  0.00    -0.252 OA
BRANCH  67  69
ATOM     69  O   UNL     1      11.162  -3.055   6.786  1.00  0.00    -0.481 OA
ATOM     70  H   UNL     1      10.886  -2.624   7.622  1.00  0.00     0.296 HD
ENDBRANCH  67  69
ENDBRANCH  66  67
ENDBRANCH  56  66
ENDBRANCH  53  56
ENDBRANCH  50  52
ENDBRANCH  47  50
ENDBRANCH  45  46
BRANCH  45  71
ATOM     71  C   UNL     1      10.294  -4.575  -0.894  1.00  0.00     0.037 C 
BRANCH  71  72
ATOM     72  C   UNL     1      10.797  -5.755  -1.728  1.00  0.00     0.026 C 
BRANCH  72  73
ATOM     73  C   UNL     1      12.087  -6.338  -1.155  1.00  0.00     0.146 C 
BRANCH  73  74
ATOM     74  N   UNL     1      12.921  -5.225  -0.711  1.00  0.00    -0.254 NA
ATOM     75  C   UNL     1      13.607  -5.381   0.361  1.00  0.00     0.185 C 
ATOM     76  N   UNL     1      14.385  -4.376   0.794  1.00  0.00    -0.370 N 
ATOM     77  N   UNL     1      13.679  -6.452   1.170  1.00  0.00    -0.370 N 
ATOM     78  H   UNL     1      14.383  -3.527   0.246  1.00  0.00     0.159 HD
ATOM     79  H   UNL     1      14.833  -4.370   1.693  1.00  0.00     0.159 HD
ATOM     80  H   UNL     1      13.149  -7.286   0.966  1.00  0.00     0.159 HD
ATOM     81  H   UNL     1      14.344  -6.501   1.924  1.00  0.00     0.159 HD
ENDBRANCH  73  74
ENDBRANCH  72  73
ENDBRANCH  71  72
ENDBRANCH  45  71
ENDBRANCH   3  45
TORSDOF 20
ENDMDL
MODEL 33
REMARK VINA RESULT:    -4.849      3.074      5.794
REMARK INTER + INTRA:         -21.323
REMARK INTER:                 -14.519
REMARK INTRA:                  -6.804
REMARK UNBOUND:                -7.402
REMARK SMILES CCCCCC(=O)N[C@H](CC(=O)O)C(=O)N[C@H]1C(=O)N[C@H](CCCN=C(N)N)C(=O)N[C@@H]2CC[C@H](O)N(C2=O)[C@@H](CC(C)C)C(=O)N(C)[C@@H](Cc2ccccc2)C(=O)N[C@H](C(C)C)C(=O)O[C@@H]1C
REMARK SMILES IDX 30 1 31 2 29 3 32 5 35 6 37 7 34 8 38 9 33 10 39 11 36 12
REMARK SMILES IDX 40 14 41 15 42 16 43 17 44 18 45 19 46 20 47 21 48 22 49 23
REMARK SMILES IDX 50 24 51 25 52 26 56 27 53 28 55 29 54 30 57 31 58 32 59 33
REMARK SMILES IDX 60 35 61 36 62 37 63 38 64 39 65 40 66 41 67 42 68 43 21 45
REMARK SMILES IDX 20 46 18 47 19 48 17 50 16 52 14 53 15 54 9 56 8 57 6 58
REMARK SMILES IDX 7 59 5 61 4 62 3 63 2 64 1 65 10 66 11 67 12 68 13 69 22 71
REMARK SMILES IDX 23 72 24 73 25 74 26 75 27 76 28 77
REMARK H PARENT 31 4 36 13 59 34 20 49 16 55 8 60 13 70 27 78 27 79 28 80
REMARK H PARENT 28 81
REMARK Flexibility Score:  259.900
ROOT
ATOM      1  O   UNL     1       7.110   0.356  -1.971  1.00  0.00    -0.273 OA
ATOM      2  N   UNL     1       4.842   0.077  -2.050  1.00  0.00    -0.343 N 
ATOM      3  C   UNL     1       6.074   0.280  -2.632  1.00  0.00     0.243 C 
ATOM      4  H   UNL     1       4.012   0.005  -2.626  1.00  0.00     0.164 HD
ENDROOT
BRANCH   2   5
ATOM      5  C   UNL     1       4.700   0.064  -0.598  1.00  0.00     0.171 C 
ATOM      6  C   UNL     1       2.655  -0.991   1.166  1.00  0.00     0.214 C 
ATOM      7  N   UNL     1       2.559   0.374   0.704  1.00  0.00    -0.303 N 
ATOM      8  C   UNL     1       4.088  -1.487   1.285  1.00  0.00     0.057 C 
ATOM      9  C   UNL     1       3.473   0.925  -0.180  1.00  0.00     0.247 C 
ATOM     10  C   UNL     1       4.786  -1.360  -0.052  1.00  0.00     0.040 C 
ATOM     11  O   UNL     1       3.336   2.066  -0.639  1.00  0.00    -0.272 OA
BRANCH   6  12
ATOM     12  O   UNL     1       1.926  -1.800   0.273  1.00  0.00    -0.373 OA
ATOM     13  H   UNL     1       1.655  -2.603   0.768  1.00  0.00     0.213 HD
ENDBRANCH   6  12
BRANCH   7  14
ATOM     14  C   UNL     1       1.352   1.132   1.097  1.00  0.00     0.177 C 
BRANCH  14  15
ATOM     15  C   UNL     1       0.124   0.925   0.190  1.00  0.00     0.038 C 
BRANCH  15  16
ATOM     16  C   UNL     1      -0.628   2.156  -0.364  1.00  0.00    -0.015 C 
ATOM     17  C   UNL     1      -2.149   1.978  -0.324  1.00  0.00     0.007 C 
ATOM     18  C   UNL     1      -0.212   2.407  -1.819  1.00  0.00     0.007 C 
ENDBRANCH  15  16
ENDBRANCH  14  15
BRANCH  14  19
ATOM     19  C   UNL     1       1.310   1.317   2.653  1.00  0.00     0.245 C 
ATOM     20  O   UNL     1       0.465   0.649   3.273  1.00  0.00    -0.272 OA
BRANCH  19  21
ATOM     21  N   UNL     1       2.069   2.248   3.340  1.00  0.00    -0.332 N 
ATOM     22  C   UNL     1       2.736   3.394   2.748  1.00  0.00     0.147 C 
BRANCH  21  23
ATOM     23  C   UNL     1       2.234   2.064   4.808  1.00  0.00     0.178 C 
BRANCH  23  24
ATOM     24  C   UNL     1       3.697   1.956   5.285  1.00  0.00     0.070 C 
BRANCH  24  25
ATOM     25  C   UNL     1       4.315   0.577   5.304  1.00  0.00    -0.045 A 
ATOM     26  C   UNL     1       5.651   0.395   5.683  1.00  0.00     0.004 A 
ATOM     27  C   UNL     1       3.555  -0.543   4.935  1.00  0.00     0.004 A 
ATOM     28  C   UNL     1       6.219  -0.881   5.681  1.00  0.00     0.000 A 
ATOM     29  C   UNL     1       4.125  -1.818   4.935  1.00  0.00     0.000 A 
ATOM     30  C   UNL     1       5.458  -1.985   5.305  1.00  0.00     0.000 A 
ENDBRANCH  24  25
ENDBRANCH  23  24
BRANCH  23  31
ATOM     31  C   UNL     1       1.347   3.021   5.640  1.00  0.00     0.243 C 
ATOM     32  O   UNL     1       0.325   3.553   5.214  1.00  0.00    -0.273 OA
ATOM     33  N   UNL     1       1.905   3.376   6.856  1.00  0.00    -0.341 N 
ATOM     34  H   UNL     1       2.761   2.902   7.154  1.00  0.00     0.164 HD
BRANCH  33  35
ATOM     35  C   UNL     1       1.299   4.362   7.755  1.00  0.00     0.194 C 
BRANCH  35  36
ATOM     36  C   UNL     1       2.296   5.423   8.299  1.00  0.00     0.017 C 
ATOM     37  C   UNL     1       1.671   6.248   9.437  1.00  0.00     0.010 C 
ATOM     38  C   UNL     1       2.772   6.410   7.226  1.00  0.00     0.010 C 
ENDBRANCH  35  36
BRANCH  35  39
ATOM     39  C   UNL     1       0.475   3.702   8.896  1.00  0.00     0.329 C 
ATOM     40  O   UNL     1       0.898   2.809   9.621  1.00  0.00    -0.250 OA
BRANCH  39  41
ATOM     41  O   UNL     1      -0.749   4.291   9.061  1.00  0.00    -0.458 OA
BRANCH  41  42
ATOM     42  C   UNL     1      -1.725   3.539   9.820  1.00  0.00     0.205 CG0
ATOM     43  C   UNL     1      -2.438   2.605   8.845  1.00  0.00     0.056 C 
ATOM     44  G   UNL     1      -2.690   4.531  10.499  1.00  0.00     0.000 G0
ENDBRANCH  41  42
ENDBRANCH  39  41
ENDBRANCH  35  39
ENDBRANCH  33  35
ENDBRANCH  23  31
ENDBRANCH  21  23
ENDBRANCH  19  21
ENDBRANCH  14  19
ENDBRANCH   7  14
ENDBRANCH   2   5
BRANCH   3  45
ATOM     45  C   UNL     1       6.069   0.382  -4.163  1.00  0.00     0.171 C 
BRANCH  45  46
ATOM     46  N   UNL     1       7.238  -0.363  -4.612  1.00  0.00    -0.342 N 
ATOM     47  C   UNL     1       7.206  -1.199  -5.699  1.00  0.00     0.247 C 
ATOM     48  O   UNL     1       6.212  -1.325  -6.416  1.00  0.00    -0.273 OA
ATOM     49  H   UNL     1       8.098  -0.244  -4.080  1.00  0.00     0.164 HD
BRANCH  47  50
ATOM     50  C   UNL     1       8.496  -1.994  -5.947  1.00  0.00     0.212 CG0
ATOM     51  G   UNL     1       9.664  -0.989  -5.984  1.00  0.00     0.000 G0
BRANCH  50  52
ATOM     52  N   UNL     1       8.587  -2.943  -4.840  1.00  0.00    -0.339 N 
ATOM     53  C   UNL     1       8.177  -4.251  -4.931  1.00  0.00     0.243 C 
ATOM     54  O   UNL     1       7.650  -4.711  -5.941  1.00  0.00    -0.273 OA
ATOM     55  H   UNL     1       8.912  -2.592  -3.942  1.00  0.00     0.164 HD
BRANCH  53  56
ATOM     56  C   UNL     1       8.290  -5.037  -3.609  1.00  0.00     0.182 C 
BRANCH  56  57
ATOM     57  N   UNL     1       8.332  -4.129  -2.459  1.00  0.00    -0.344 N 
ATOM     58  C   UNL     1       7.668  -4.397  -1.286  1.00  0.00     0.220 C 
ATOM     59  O   UNL     1       6.938  -5.372  -1.144  1.00  0.00    -0.275 OA
ATOM     60  H   UNL     1       9.003  -3.367  -2.498  1.00  0.00     0.164 HD
BRANCH  58  61
ATOM     61  C   UNL     1       7.900  -3.350  -0.212  1.00  0.00     0.100 C 
BRANCH  61  62
ATOM     62  C   UNL     1       7.270  -3.700   1.136  1.00  0.00     0.010 C 
BRANCH  62  63
ATOM     63  C   UNL     1       7.807  -2.877   2.313  1.00  0.00     0.000 C 
BRANCH  63  64
ATOM     64  C   UNL     1       7.696  -1.365   2.122  1.00  0.00    -0.003 C 
ATOM     65  C   UNL     1       8.734  -0.623   2.952  1.00  0.00     0.004 C 
ENDBRANCH  63  64
ENDBRANCH  62  63
ENDBRANCH  61  62
ENDBRANCH  58  61
ENDBRANCH  56  57
BRANCH  56  66
ATOM     66  C   UNL     1       9.478  -5.998  -3.629  1.00  0.00     0.157 C 
BRANCH  66  67
ATOM     67  C   UNL     1      10.662  -5.414  -2.912  1.00  0.00     0.305 C 
ATOM     68  O   UNL     1      11.093  -5.746  -1.819  1.00  0.00    -0.252 OA
BRANCH  67  69
ATOM     69  O   UNL     1      11.283  -4.465  -3.638  1.00  0.00    -0.481 OA
ATOM     70  H   UNL     1      10.582  -3.814  -3.851  1.00  0.00     0.296 HD
ENDBRANCH  67  69
ENDBRANCH  66  67
ENDBRANCH  56  66
ENDBRANCH  53  56
ENDBRANCH  50  52
ENDBRANCH  47  50
ENDBRANCH  45  46
BRANCH  45  71
ATOM     71  C   UNL     1       6.130   1.849  -4.601  1.00  0.00     0.037 C 
BRANCH  71  72
ATOM     72  C   UNL     1       4.973   2.222  -5.530  1.00  0.00     0.026 C 
BRANCH  72  73
ATOM     73  C   UNL     1       3.756   1.329  -5.295  1.00  0.00     0.146 C 
BRANCH  73  74
ATOM     74  N   UNL     1       2.933   1.370  -6.500  1.00  0.00    -0.254 NA
ATOM     75  C   UNL     1       2.756   0.275  -7.142  1.00  0.00     0.185 C 
ATOM     76  N   UNL     1       2.002   0.281  -8.254  1.00  0.00    -0.370 N 
ATOM     77  N   UNL     1       3.231  -0.952  -6.867  1.00  0.00    -0.370 N 
ATOM     78  H   UNL     1       1.612   1.168  -8.537  1.00  0.00     0.159 HD
ATOM     79  H   UNL     1       1.939  -0.500  -8.884  1.00  0.00     0.159 HD
ATOM     80  H   UNL     1       3.811  -1.108  -6.056  1.00  0.00     0.159 HD
ATOM     81  H   UNL     1       2.929  -1.763  -7.381  1.00  0.00     0.159 HD
ENDBRANCH  73  74
ENDBRANCH  72  73
ENDBRANCH  71  72
ENDBRANCH  45  71
ENDBRANCH   3  45
TORSDOF 20
ENDMDL
MODEL 34
REMARK VINA RESULT:    -4.842      9.678     14.654
REMARK INTER + INTRA:         -21.302
REMARK INTER:                 -16.486
REMARK INTRA:                  -4.816
REMARK UNBOUND:                -7.402
REMARK SMILES CCCCCC(=O)N[C@H](CC(=O)O)C(=O)N[C@H]1C(=O)N[C@H](CCCN=C(N)N)C(=O)N[C@@H]2CC[C@H](O)N(C2=O)[C@@H](CC(C)C)C(=O)N(C)[C@@H](Cc2ccccc2)C(=O)N[C@H](C(C)C)C(=O)O[C@@H]1C
REMARK SMILES IDX 30 1 31 2 29 3 32 5 35 6 37 7 34 8 38 9 33 10 39 11 36 12
REMARK SMILES IDX 40 14 41 15 42 16 43 17 44 18 45 19 46 20 47 21 48 22 49 23
REMARK SMILES IDX 50 24 51 25 52 26 56 27 53 28 55 29 54 30 57 31 58 32 59 33
REMARK SMILES IDX 60 35 61 36 62 37 63 38 64 39 65 40 66 41 67 42 68 43 21 45
REMARK SMILES IDX 20 46 18 47 19 48 17 50 16 52 14 53 15 54 9 56 8 57 6 58
REMARK SMILES IDX 7 59 5 61 4 62 3 63 2 64 1 65 10 66 11 67 12 68 13 69 22 71
REMARK SMILES IDX 23 72 24 73 25 74 26 75 27 76 28 77
REMARK H PARENT 31 4 36 13 59 34 20 49 16 55 8 60 13 70 27 78 27 79 28 80
REMARK H PARENT 28 81
REMARK Flexibility Score:  259.900
ROOT
ATOM      1  O   UNL     1      11.143  -2.083 -13.002  1.00  0.00    -0.273 OA
ATOM      2  N   UNL     1       9.542  -0.450 -12.951  1.00  0.00    -0.343 N 
ATOM      3  C   UNL     1      10.773  -0.952 -13.318  1.00  0.00     0.243 C 
ATOM      4  H   UNL     1       9.265   0.479 -13.241  1.00  0.00     0.164 HD
ENDROOT
BRANCH   2   5
ATOM      5  C   UNL     1       8.667  -1.207 -12.063  1.00  0.00     0.171 C 
ATOM      6  C   UNL     1       6.437  -0.436 -10.378  1.00  0.00     0.214 C 
ATOM      7  N   UNL     1       7.773  -0.443  -9.829  1.00  0.00    -0.303 N 
ATOM      8  C   UNL     1       6.234  -1.463 -11.480  1.00  0.00     0.057 C 
ATOM      9  C   UNL     1       8.888  -0.752 -10.592  1.00  0.00     0.247 C 
ATOM     10  C   UNL     1       7.233  -1.227 -12.592  1.00  0.00     0.040 C 
ATOM     11  O   UNL     1      10.036  -0.672 -10.137  1.00  0.00    -0.272 OA
BRANCH   6  12
ATOM     12  O   UNL     1       6.177   0.862 -10.860  1.00  0.00    -0.373 OA
ATOM     13  H   UNL     1       5.380   0.803 -11.429  1.00  0.00     0.213 HD
ENDBRANCH   6  12
BRANCH   7  14
ATOM     14  C   UNL     1       7.930   0.039  -8.440  1.00  0.00     0.177 C 
BRANCH  14  15
ATOM     15  C   UNL     1       7.471   1.489  -8.194  1.00  0.00     0.038 C 
BRANCH  15  16
ATOM     16  C   UNL     1       8.494   2.538  -7.705  1.00  0.00    -0.015 C 
ATOM     17  C   UNL     1       8.158   3.952  -8.189  1.00  0.00     0.007 C 
ATOM     18  C   UNL     1       9.894   2.175  -8.218  1.00  0.00     0.007 C 
ENDBRANCH  15  16
ENDBRANCH  14  15
BRANCH  14  19
ATOM     19  C   UNL     1       7.764  -1.149  -7.430  1.00  0.00     0.245 C 
ATOM     20  O   UNL     1       7.029  -2.086  -7.785  1.00  0.00    -0.272 OA
BRANCH  19  21
ATOM     21  N   UNL     1       8.291  -1.153  -6.151  1.00  0.00    -0.332 N 
ATOM     22  C   UNL     1       9.533  -0.515  -5.750  1.00  0.00     0.147 C 
BRANCH  21  23
ATOM     23  C   UNL     1       7.539  -1.877  -5.090  1.00  0.00     0.178 C 
BRANCH  23  24
ATOM     24  C   UNL     1       8.385  -2.860  -4.255  1.00  0.00     0.070 C 
BRANCH  24  25
ATOM     25  C   UNL     1       7.917  -4.295  -4.199  1.00  0.00    -0.045 A 
ATOM     26  C   UNL     1       8.033  -5.132  -5.316  1.00  0.00     0.004 A 
ATOM     27  C   UNL     1       7.352  -4.810  -3.022  1.00  0.00     0.004 A 
ATOM     28  C   UNL     1       7.582  -6.453  -5.261  1.00  0.00     0.000 A 
ATOM     29  C   UNL     1       6.903  -6.131  -2.968  1.00  0.00     0.000 A 
ATOM     30  C   UNL     1       7.016  -6.950  -4.090  1.00  0.00     0.000 A 
ENDBRANCH  24  25
ENDBRANCH  23  24
BRANCH  23  31
ATOM     31  C   UNL     1       6.614  -0.950  -4.266  1.00  0.00     0.243 C 
ATOM     32  O   UNL     1       6.363   0.214  -4.567  1.00  0.00    -0.273 OA
ATOM     33  N   UNL     1       6.234  -1.489  -3.048  1.00  0.00    -0.341 N 
ATOM     34  H   UNL     1       6.477  -2.463  -2.851  1.00  0.00     0.164 HD
BRANCH  33  35
ATOM     35  C   UNL     1       5.458  -0.744  -2.053  1.00  0.00     0.194 C 
BRANCH  35  36
ATOM     36  C   UNL     1       6.312  -0.147  -0.899  1.00  0.00     0.017 C 
ATOM     37  C   UNL     1       6.214   1.388  -0.869  1.00  0.00     0.010 C 
ATOM     38  C   UNL     1       7.798  -0.511  -0.997  1.00  0.00     0.010 C 
ENDBRANCH  35  36
BRANCH  35  39
ATOM     39  C   UNL     1       4.242  -1.551  -1.517  1.00  0.00     0.329 C 
ATOM     40  O   UNL     1       4.126  -2.767  -1.621  1.00  0.00    -0.250 OA
BRANCH  39  41
ATOM     41  O   UNL     1       3.354  -0.764  -0.838  1.00  0.00    -0.458 OA
BRANCH  41  42
ATOM     42  C   UNL     1       3.142  -1.091   0.556  1.00  0.00     0.205 CG0
ATOM     43  C   UNL     1       1.645  -0.964   0.830  1.00  0.00     0.056 C 
ATOM     44  G   UNL     1       3.984  -0.130   1.419  1.00  0.00     0.000 G0
ENDBRANCH  41  42
ENDBRANCH  39  41
ENDBRANCH  35  39
ENDBRANCH  33  35
ENDBRANCH  23  31
ENDBRANCH  21  23
ENDBRANCH  19  21
ENDBRANCH  14  19
ENDBRANCH   7  14
ENDBRANCH   2   5
BRANCH   3  45
ATOM     45  C   UNL     1      11.640  -0.011 -14.164  1.00  0.00     0.171 C 
BRANCH  45  46
ATOM     46  N   UNL     1      11.274  -0.277 -15.549  1.00  0.00    -0.342 N 
ATOM     47  C   UNL     1      10.610   0.640 -16.324  1.00  0.00     0.247 C 
ATOM     48  O   UNL     1      10.341   1.777 -15.933  1.00  0.00    -0.273 OA
ATOM     49  H   UNL     1      11.528  -1.186 -15.931  1.00  0.00     0.164 HD
BRANCH  47  50
ATOM     50  C   UNL     1      10.199   0.139 -17.716  1.00  0.00     0.212 CG0
ATOM     51  G   UNL     1      11.489  -0.161 -18.505  1.00  0.00     0.000 G0
BRANCH  50  52
ATOM     52  N   UNL     1       9.380  -1.047 -17.476  1.00  0.00    -0.339 N 
ATOM     53  C   UNL     1       8.896  -1.847 -18.482  1.00  0.00     0.243 C 
ATOM     54  O   UNL     1       9.072  -1.595 -19.671  1.00  0.00    -0.273 OA
ATOM     55  H   UNL     1       9.106  -1.246 -16.516  1.00  0.00     0.164 HD
BRANCH  53  56
ATOM     56  C   UNL     1       7.985  -2.990 -17.991  1.00  0.00     0.182 C 
BRANCH  56  57
ATOM     57  N   UNL     1       6.851  -2.466 -17.223  1.00  0.00    -0.344 N 
ATOM     58  C   UNL     1       5.666  -2.102 -17.816  1.00  0.00     0.220 C 
ATOM     59  O   UNL     1       5.499  -2.120 -19.031  1.00  0.00    -0.275 OA
ATOM     60  H   UNL     1       6.911  -2.531 -16.211  1.00  0.00     0.164 HD
BRANCH  58  61
ATOM     61  C   UNL     1       4.613  -1.644 -16.824  1.00  0.00     0.100 C 
BRANCH  61  62
ATOM     62  C   UNL     1       3.194  -2.081 -17.186  1.00  0.00     0.010 C 
BRANCH  62  63
ATOM     63  C   UNL     1       2.093  -1.331 -16.426  1.00  0.00     0.000 C 
BRANCH  63  64
ATOM     64  C   UNL     1       2.577  -0.618 -15.164  1.00  0.00    -0.003 C 
ATOM     65  C   UNL     1       1.654   0.531 -14.786  1.00  0.00     0.004 C 
ENDBRANCH  63  64
ENDBRANCH  62  63
ENDBRANCH  61  62
ENDBRANCH  58  61
ENDBRANCH  56  57
BRANCH  56  66
ATOM     66  C   UNL     1       8.774  -4.040 -17.210  1.00  0.00     0.157 C 
BRANCH  66  67
ATOM     67  C   UNL     1       8.766  -3.742 -15.739  1.00  0.00     0.305 C 
ATOM     68  O   UNL     1       8.860  -2.644 -15.212  1.00  0.00    -0.252 OA
BRANCH  67  69
ATOM     69  O   UNL     1       8.586  -4.850 -14.994  1.00  0.00    -0.481 OA
ATOM     70  H   UNL     1       9.271  -4.796 -14.295  1.00  0.00     0.296 HD
ENDBRANCH  67  69
ENDBRANCH  66  67
ENDBRANCH  56  66
ENDBRANCH  53  56
ENDBRANCH  50  52
ENDBRANCH  47  50
ENDBRANCH  45  46
BRANCH  45  71
ATOM     71  C   UNL     1      13.127  -0.282 -13.910  1.00  0.00     0.037 C 
BRANCH  71  72
ATOM     72  C   UNL     1      14.022   0.802 -14.515  1.00  0.00     0.026 C 
BRANCH  72  73
ATOM     73  C   UNL     1      14.643   0.345 -15.833  1.00  0.00     0.146 C 
BRANCH  73  74
ATOM     74  N   UNL     1      14.399  -1.088 -15.969  1.00  0.00    -0.254 NA
ATOM     75  C   UNL     1      13.979  -1.519 -17.101  1.00  0.00     0.185 C 
ATOM     76  N   UNL     1      13.746  -2.832 -17.257  1.00  0.00    -0.370 N 
ATOM     77  N   UNL     1      13.718  -0.828 -18.224  1.00  0.00    -0.370 N 
ATOM     78  H   UNL     1      13.911  -3.424 -16.456  1.00  0.00     0.159 HD
ATOM     79  H   UNL     1      13.283  -3.221 -18.059  1.00  0.00     0.159 HD
ATOM     80  H   UNL     1      13.851   0.172 -18.255  1.00  0.00     0.159 HD
ATOM     81  H   UNL     1      13.501  -1.292 -19.091  1.00  0.00     0.159 HD
ENDBRANCH  73  74
ENDBRANCH  72  73
ENDBRANCH  71  72
ENDBRANCH  45  71
ENDBRANCH   3  45
TORSDOF 20
ENDMDL
MODEL 35
REMARK VINA RESULT:    -4.760      8.202     16.224
REMARK INTER + INTRA:         -21.068
REMARK INTER:                 -15.748
REMARK INTRA:                  -5.320
REMARK UNBOUND:                -7.402
REMARK SMILES CCCCCC(=O)N[C@H](CC(=O)O)C(=O)N[C@H]1C(=O)N[C@H](CCCN=C(N)N)C(=O)N[C@@H]2CC[C@H](O)N(C2=O)[C@@H](CC(C)C)C(=O)N(C)[C@@H](Cc2ccccc2)C(=O)N[C@H](C(C)C)C(=O)O[C@@H]1C
REMARK SMILES IDX 30 1 31 2 29 3 32 5 35 6 37 7 34 8 38 9 33 10 39 11 36 12
REMARK SMILES IDX 40 14 41 15 42 16 43 17 44 18 45 19 46 20 47 21 48 22 49 23
REMARK SMILES IDX 50 24 51 25 52 26 56 27 53 28 55 29 54 30 57 31 58 32 59 33
REMARK SMILES IDX 60 35 61 36 62 37 63 38 64 39 65 40 66 41 67 42 68 43 21 45
REMARK SMILES IDX 20 46 18 47 19 48 17 50 16 52 14 53 15 54 9 56 8 57 6 58
REMARK SMILES IDX 7 59 5 61 4 62 3 63 2 64 1 65 10 66 11 67 12 68 13 69 22 71
REMARK SMILES IDX 23 72 24 73 25 74 26 75 27 76 28 77
REMARK H PARENT 31 4 36 13 59 34 20 49 16 55 8 60 13 70 27 78 27 79 28 80
REMARK H PARENT 28 81
REMARK Flexibility Score:  259.900
ROOT
ATOM      1  O   UNL     1       7.019  -1.656  -3.929  1.00  0.00    -0.273 OA
ATOM      2  N   UNL     1       6.491  -0.097  -5.517  1.00  0.00    -0.343 N 
ATOM      3  C   UNL     1       6.194  -0.890  -4.429  1.00  0.00     0.243 C 
ATOM      4  H   UNL     1       5.792   0.532  -5.893  1.00  0.00     0.164 HD
ENDROOT
BRANCH   2   5
ATOM      5  C   UNL     1       7.774  -0.222  -6.199  1.00  0.00     0.171 C 
ATOM      6  C   UNL     1       8.850   0.999  -8.598  1.00  0.00     0.214 C 
ATOM      7  N   UNL     1       8.149  -0.260  -8.695  1.00  0.00    -0.303 N 
ATOM      8  C   UNL     1       9.558   1.193  -7.267  1.00  0.00     0.057 C 
ATOM      9  C   UNL     1       7.567  -0.872  -7.597  1.00  0.00     0.247 C 
ATOM     10  C   UNL     1       8.559   1.087  -6.135  1.00  0.00     0.040 C 
ATOM     11  O   UNL     1       6.894  -1.906  -7.703  1.00  0.00    -0.272 OA
BRANCH   6  12
ATOM     12  O   UNL     1       7.915   2.030  -8.813  1.00  0.00    -0.373 OA
ATOM     13  H   UNL     1       7.423   2.152  -7.973  1.00  0.00     0.213 HD
ENDBRANCH   6  12
BRANCH   7  14
ATOM     14  C   UNL     1       7.944  -0.810 -10.052  1.00  0.00     0.177 C 
BRANCH  14  15
ATOM     15  C   UNL     1       6.830  -0.133 -10.873  1.00  0.00     0.038 C 
BRANCH  15  16
ATOM     16  C   UNL     1       5.590  -0.953 -11.295  1.00  0.00    -0.015 C 
ATOM     17  C   UNL     1       4.347  -0.595 -10.475  1.00  0.00     0.007 C 
ATOM     18  C   UNL     1       5.872  -2.450 -11.112  1.00  0.00     0.007 C 
ENDBRANCH  15  16
ENDBRANCH  14  15
BRANCH  14  19
ATOM     19  C   UNL     1       9.298  -1.348 -10.630  1.00  0.00     0.245 C 
ATOM     20  O   UNL     1       9.973  -2.080  -9.887  1.00  0.00    -0.272 OA
BRANCH  19  21
ATOM     21  N   UNL     1       9.820  -0.966 -11.853  1.00  0.00    -0.332 N 
ATOM     22  C   UNL     1       9.939   0.400 -12.329  1.00  0.00     0.147 C 
BRANCH  21  23
ATOM     23  C   UNL     1      10.294  -2.038 -12.773  1.00  0.00     0.178 C 
BRANCH  23  24
ATOM     24  C   UNL     1       9.173  -2.883 -13.411  1.00  0.00     0.070 C 
BRANCH  24  25
ATOM     25  C   UNL     1       8.371  -2.239 -14.519  1.00  0.00    -0.045 A 
ATOM     26  C   UNL     1       8.507  -2.668 -15.846  1.00  0.00     0.004 A 
ATOM     27  C   UNL     1       7.480  -1.194 -14.232  1.00  0.00     0.004 A 
ATOM     28  C   UNL     1       7.776  -2.057 -16.866  1.00  0.00     0.000 A 
ATOM     29  C   UNL     1       6.749  -0.585 -15.253  1.00  0.00     0.000 A 
ATOM     30  C   UNL     1       6.900  -1.015 -16.570  1.00  0.00     0.000 A 
ENDBRANCH  24  25
ENDBRANCH  23  24
BRANCH  23  31
ATOM     31  C   UNL     1      11.383  -1.550 -13.758  1.00  0.00     0.243 C 
ATOM     32  O   UNL     1      12.559  -1.376 -13.450  1.00  0.00    -0.273 OA
ATOM     33  N   UNL     1      10.880  -1.145 -14.983  1.00  0.00    -0.341 N 
ATOM     34  H   UNL     1       9.890  -1.311 -15.179  1.00  0.00     0.164 HD
BRANCH  33  35
ATOM     35  C   UNL     1      11.710  -0.537 -16.026  1.00  0.00     0.194 C 
BRANCH  35  36
ATOM     36  C   UNL     1      11.276   0.901 -16.426  1.00  0.00     0.017 C 
ATOM     37  C   UNL     1      12.211   1.958 -15.815  1.00  0.00     0.010 C 
ATOM     38  C   UNL     1       9.846   1.244 -15.989  1.00  0.00     0.010 C 
ENDBRANCH  35  36
BRANCH  35  39
ATOM     39  C   UNL     1      11.881  -1.458 -17.266  1.00  0.00     0.329 C 
ATOM     40  O   UNL     1      11.088  -1.506 -18.200  1.00  0.00    -0.250 OA
BRANCH  39  41
ATOM     41  O   UNL     1      13.061  -2.149 -17.243  1.00  0.00    -0.458 OA
BRANCH  41  42
ATOM     42  C   UNL     1      13.649  -2.457 -18.530  1.00  0.00     0.205 CG0
ATOM     43  C   UNL     1      14.607  -1.318 -18.875  1.00  0.00     0.056 C 
ATOM     44  G   UNL     1      12.517  -2.609 -19.564  1.00  0.00     0.000 G0
ENDBRANCH  41  42
ENDBRANCH  39  41
ENDBRANCH  35  39
ENDBRANCH  33  35
ENDBRANCH  23  31
ENDBRANCH  21  23
ENDBRANCH  19  21
ENDBRANCH  14  19
ENDBRANCH   7  14
ENDBRANCH   2   5
BRANCH   3  45
ATOM     45  C   UNL     1       4.772  -0.738  -3.873  1.00  0.00     0.171 C 
BRANCH  45  46
ATOM     46  N   UNL     1       4.535  -1.928  -3.067  1.00  0.00    -0.342 N 
ATOM     47  C   UNL     1       3.960  -1.872  -1.823  1.00  0.00     0.247 C 
ATOM     48  O   UNL     1       3.538  -0.826  -1.328  1.00  0.00    -0.273 OA
ATOM     49  H   UNL     1       4.818  -2.823  -3.463  1.00  0.00     0.164 HD
BRANCH  47  50
ATOM     50  C   UNL     1       3.904  -3.210  -1.072  1.00  0.00     0.212 CG0
ATOM     51  G   UNL     1       2.707  -4.007  -1.626  1.00  0.00     0.000 G0
BRANCH  50  52
ATOM     52  N   UNL     1       5.192  -3.852  -1.323  1.00  0.00    -0.339 N 
ATOM     53  C   UNL     1       5.419  -4.703  -2.376  1.00  0.00     0.243 C 
ATOM     54  O   UNL     1       4.535  -5.034  -3.163  1.00  0.00    -0.273 OA
ATOM     55  H   UNL     1       5.934  -3.705  -0.641  1.00  0.00     0.164 HD
BRANCH  53  56
ATOM     56  C   UNL     1       6.829  -5.327  -2.387  1.00  0.00     0.182 C 
BRANCH  56  57
ATOM     57  N   UNL     1       7.846  -4.323  -2.718  1.00  0.00    -0.344 N 
ATOM     58  C   UNL     1       8.958  -4.117  -1.938  1.00  0.00     0.220 C 
ATOM     59  O   UNL     1       9.142  -4.702  -0.877  1.00  0.00    -0.275 OA
ATOM     60  H   UNL     1       7.784  -3.891  -3.636  1.00  0.00     0.164 HD
BRANCH  58  61
ATOM     61  C   UNL     1       9.902  -3.072  -2.502  1.00  0.00     0.100 C 
BRANCH  61  62
ATOM     62  C   UNL     1      10.836  -3.607  -3.588  1.00  0.00     0.010 C 
BRANCH  62  63
ATOM     63  C   UNL     1      12.135  -4.221  -3.051  1.00  0.00     0.000 C 
BRANCH  63  64
ATOM     64  C   UNL     1      12.280  -5.718  -3.322  1.00  0.00    -0.003 C 
ATOM     65  C   UNL     1      11.930  -6.541  -2.092  1.00  0.00     0.004 C 
ENDBRANCH  63  64
ENDBRANCH  62  63
ENDBRANCH  61  62
ENDBRANCH  58  61
ENDBRANCH  56  57
BRANCH  56  66
ATOM     66  C   UNL     1       6.898  -6.543  -3.309  1.00  0.00     0.157 C 
BRANCH  66  67
ATOM     67  C   UNL     1       7.683  -6.239  -4.552  1.00  0.00     0.305 C 
ATOM     68  O   UNL     1       7.268  -5.702  -5.568  1.00  0.00    -0.252 OA
BRANCH  67  69
ATOM     69  O   UNL     1       8.980  -6.582  -4.435  1.00  0.00    -0.481 OA
ATOM     70  H   UNL     1       9.153  -6.578  -3.470  1.00  0.00     0.296 HD
ENDBRANCH  67  69
ENDBRANCH  66  67
ENDBRANCH  56  66
ENDBRANCH  53  56
ENDBRANCH  50  52
ENDBRANCH  47  50
ENDBRANCH  45  46
BRANCH  45  71
ATOM     71  C   UNL     1       3.761  -0.619  -5.019  1.00  0.00     0.037 C 
BRANCH  71  72
ATOM     72  C   UNL     1       2.777   0.533  -4.801  1.00  0.00     0.026 C 
BRANCH  72  73
ATOM     73  C   UNL     1       2.810   1.525  -5.963  1.00  0.00     0.146 C 
BRANCH  73  74
ATOM     74  N   UNL     1       1.977   0.986  -7.034  1.00  0.00    -0.254 NA
ATOM     75  C   UNL     1       1.674   1.764  -8.006  1.00  0.00     0.185 C 
ATOM     76  N   UNL     1       0.910   1.297  -9.007  1.00  0.00    -0.370 N 
ATOM     77  N   UNL     1       2.018   3.050  -8.198  1.00  0.00    -0.370 N 
ATOM     78  H   UNL     1       0.601   0.338  -8.937  1.00  0.00     0.159 HD
ATOM     79  H   UNL     1       0.515   1.883  -9.721  1.00  0.00     0.159 HD
ATOM     80  H   UNL     1       2.596   3.533  -7.527  1.00  0.00     0.159 HD
ATOM     81  H   UNL     1       1.816   3.528  -9.061  1.00  0.00     0.159 HD
ENDBRANCH  73  74
ENDBRANCH  72  73
ENDBRANCH  71  72
ENDBRANCH  45  71
ENDBRANCH   3  45
TORSDOF 20
ENDMDL
MODEL 36
REMARK VINA RESULT:    -4.754      7.864     12.274
REMARK INTER + INTRA:         -21.051
REMARK INTER:                 -15.031
REMARK INTRA:                  -6.020
REMARK UNBOUND:                -7.402
REMARK SMILES CCCCCC(=O)N[C@H](CC(=O)O)C(=O)N[C@H]1C(=O)N[C@H](CCCN=C(N)N)C(=O)N[C@@H]2CC[C@H](O)N(C2=O)[C@@H](CC(C)C)C(=O)N(C)[C@@H](Cc2ccccc2)C(=O)N[C@H](C(C)C)C(=O)O[C@@H]1C
REMARK SMILES IDX 30 1 31 2 29 3 32 5 35 6 37 7 34 8 38 9 33 10 39 11 36 12
REMARK SMILES IDX 40 14 41 15 42 16 43 17 44 18 45 19 46 20 47 21 48 22 49 23
REMARK SMILES IDX 50 24 51 25 52 26 56 27 53 28 55 29 54 30 57 31 58 32 59 33
REMARK SMILES IDX 60 35 61 36 62 37 63 38 64 39 65 40 66 41 67 42 68 43 21 45
REMARK SMILES IDX 20 46 18 47 19 48 17 50 16 52 14 53 15 54 9 56 8 57 6 58
REMARK SMILES IDX 7 59 5 61 4 62 3 63 2 64 1 65 10 66 11 67 12 68 13 69 22 71
REMARK SMILES IDX 23 72 24 73 25 74 26 75 27 76 28 77
REMARK H PARENT 31 4 36 13 59 34 20 49 16 55 8 60 13 70 27 78 27 79 28 80
REMARK H PARENT 28 81
REMARK Flexibility Score:  259.900
ROOT
ATOM      1  O   UNL     1       1.546   2.391   0.247  1.00  0.00    -0.273 OA
ATOM      2  N   UNL     1       0.075   3.830   1.243  1.00  0.00    -0.343 N 
ATOM      3  C   UNL     1       1.242   3.098   1.208  1.00  0.00     0.243 C 
ATOM      4  H   UNL     1      -0.135   4.412   2.045  1.00  0.00     0.164 HD
ENDROOT
BRANCH   2   5
ATOM      5  C   UNL     1      -0.915   3.702   0.180  1.00  0.00     0.171 C 
ATOM      6  C   UNL     1      -3.736   4.352   0.033  1.00  0.00     0.214 C 
ATOM      7  N   UNL     1      -3.333   3.030   0.453  1.00  0.00    -0.303 N 
ATOM      8  C   UNL     1      -2.758   5.001  -0.933  1.00  0.00     0.057 C 
ATOM      9  C   UNL     1      -2.003   2.669   0.594  1.00  0.00     0.247 C 
ATOM     10  C   UNL     1      -1.385   5.074  -0.300  1.00  0.00     0.040 C 
ATOM     11  O   UNL     1      -1.666   1.563   1.036  1.00  0.00    -0.272 OA
BRANCH   6  12
ATOM     12  O   UNL     1      -3.886   5.144   1.189  1.00  0.00    -0.373 OA
ATOM     13  H   UNL     1      -4.533   5.849   0.973  1.00  0.00     0.213 HD
ENDBRANCH   6  12
BRANCH   7  14
ATOM     14  C   UNL     1      -4.405   2.105   0.875  1.00  0.00     0.177 C 
BRANCH  14  15
ATOM     15  C   UNL     1      -4.813   2.205   2.358  1.00  0.00     0.038 C 
BRANCH  15  16
ATOM     16  C   UNL     1      -6.094   1.492   2.845  1.00  0.00    -0.015 C 
ATOM     17  C   UNL     1      -7.160   2.476   3.337  1.00  0.00     0.007 C 
ATOM     18  C   UNL     1      -5.751   0.540   3.998  1.00  0.00     0.007 C 
ENDBRANCH  15  16
ENDBRANCH  14  15
BRANCH  14  19
ATOM     19  C   UNL     1      -5.384   1.826  -0.317  1.00  0.00     0.245 C 
ATOM     20  O   UNL     1      -4.942   1.139  -1.254  1.00  0.00    -0.272 OA
BRANCH  19  21
ATOM     21  N   UNL     1      -6.644   2.387  -0.429  1.00  0.00    -0.332 N 
ATOM     22  C   UNL     1      -6.986   3.761  -0.106  1.00  0.00     0.147 C 
BRANCH  21  23
ATOM     23  C   UNL     1      -7.753   1.517  -0.907  1.00  0.00     0.178 C 
BRANCH  23  24
ATOM     24  C   UNL     1      -8.737   1.063   0.191  1.00  0.00     0.070 C 
BRANCH  24  25
ATOM     25  C   UNL     1      -8.656  -0.379   0.634  1.00  0.00    -0.045 A 
ATOM     26  C   UNL     1      -7.417  -1.007   0.811  1.00  0.00     0.004 A 
ATOM     27  C   UNL     1      -9.828  -1.114   0.870  1.00  0.00     0.004 A 
ATOM     28  C   UNL     1      -7.351  -2.346   1.205  1.00  0.00     0.000 A 
ATOM     29  C   UNL     1      -9.761  -2.451   1.264  1.00  0.00     0.000 A 
ATOM     30  C   UNL     1      -8.522  -3.067   1.428  1.00  0.00     0.000 A 
ENDBRANCH  24  25
ENDBRANCH  23  24
BRANCH  23  31
ATOM     31  C   UNL     1      -8.418   2.043  -2.201  1.00  0.00     0.243 C 
ATOM     32  O   UNL     1      -7.794   2.430  -3.186  1.00  0.00    -0.273 OA
ATOM     33  N   UNL     1      -9.787   2.218  -2.088  1.00  0.00    -0.341 N 
ATOM     34  H   UNL     1     -10.251   1.881  -1.240  1.00  0.00     0.164 HD
BRANCH  33  35
ATOM     35  C   UNL     1     -10.606   2.816  -3.145  1.00  0.00     0.194 C 
BRANCH  35  36
ATOM     36  C   UNL     1     -10.823   4.348  -2.991  1.00  0.00     0.017 C 
ATOM     37  C   UNL     1     -11.059   4.734  -1.521  1.00  0.00     0.010 C 
ATOM     38  C   UNL     1     -12.014   4.874  -3.802  1.00  0.00     0.010 C 
ENDBRANCH  35  36
BRANCH  35  39
ATOM     39  C   UNL     1     -11.947   2.060  -3.363  1.00  0.00     0.329 C 
ATOM     40  O   UNL     1     -12.793   1.898  -2.491  1.00  0.00    -0.250 OA
BRANCH  39  41
ATOM     41  O   UNL     1     -12.118   1.669  -4.662  1.00  0.00    -0.458 OA
BRANCH  41  42
ATOM     42  C   UNL     1     -13.462   1.774  -5.191  1.00  0.00     0.205 CG0
ATOM     43  C   UNL     1     -13.414   2.755  -6.361  1.00  0.00     0.056 C 
ATOM     44  G   UNL     1     -14.399   2.247  -4.062  1.00  0.00     0.000 G0
ENDBRANCH  41  42
ENDBRANCH  39  41
ENDBRANCH  35  39
ENDBRANCH  33  35
ENDBRANCH  23  31
ENDBRANCH  21  23
ENDBRANCH  19  21
ENDBRANCH  14  19
ENDBRANCH   7  14
ENDBRANCH   2   5
BRANCH   3  45
ATOM     45  C   UNL     1       2.146   3.241   2.439  1.00  0.00     0.171 C 
BRANCH  45  46
ATOM     46  N   UNL     1       3.182   2.228   2.288  1.00  0.00    -0.342 N 
ATOM     47  C   UNL     1       4.492   2.546   2.033  1.00  0.00     0.247 C 
ATOM     48  O   UNL     1       4.900   3.707   1.985  1.00  0.00    -0.273 OA
ATOM     49  H   UNL     1       2.897   1.254   2.376  1.00  0.00     0.164 HD
BRANCH  47  50
ATOM     50  C   UNL     1       5.415   1.346   1.781  1.00  0.00     0.212 CG0
ATOM     51  G   UNL     1       6.669   1.867   1.051  1.00  0.00     0.000 G0
BRANCH  50  52
ATOM     52  N   UNL     1       5.704   0.793   3.101  1.00  0.00    -0.339 N 
ATOM     53  C   UNL     1       5.467  -0.517   3.440  1.00  0.00     0.243 C 
ATOM     54  O   UNL     1       4.940  -1.315   2.670  1.00  0.00    -0.273 OA
ATOM     55  H   UNL     1       6.039   1.433   3.819  1.00  0.00     0.164 HD
BRANCH  53  56
ATOM     56  C   UNL     1       5.770  -0.848   4.915  1.00  0.00     0.182 C 
BRANCH  56  57
ATOM     57  N   UNL     1       7.201  -0.708   5.203  1.00  0.00    -0.344 N 
ATOM     58  C   UNL     1       7.667  -0.057   6.319  1.00  0.00     0.220 C 
ATOM     59  O   UNL     1       6.927   0.513   7.112  1.00  0.00    -0.275 OA
ATOM     60  H   UNL     1       7.842  -1.250   4.629  1.00  0.00     0.164 HD
BRANCH  58  61
ATOM     61  C   UNL     1       9.180  -0.085   6.443  1.00  0.00     0.100 C 
BRANCH  61  62
ATOM     62  C   UNL     1       9.852  -1.137   5.561  1.00  0.00     0.010 C 
BRANCH  62  63
ATOM     63  C   UNL     1      10.032  -2.501   6.239  1.00  0.00     0.000 C 
BRANCH  63  64
ATOM     64  C   UNL     1      11.453  -3.058   6.157  1.00  0.00    -0.003 C 
ATOM     65  C   UNL     1      11.466  -4.571   6.323  1.00  0.00     0.004 C 
ENDBRANCH  63  64
ENDBRANCH  62  63
ENDBRANCH  61  62
ENDBRANCH  58  61
ENDBRANCH  56  57
BRANCH  56  66
ATOM     66  C   UNL     1       5.237  -2.227   5.301  1.00  0.00     0.157 C 
BRANCH  66  67
ATOM     67  C   UNL     1       6.358  -3.206   5.503  1.00  0.00     0.305 C 
ATOM     68  O   UNL     1       7.037  -3.732   4.635  1.00  0.00    -0.252 OA
BRANCH  67  69
ATOM     69  O   UNL     1       6.605  -3.439   6.806  1.00  0.00    -0.481 OA
ATOM     70  H   UNL     1       7.516  -3.108   6.951  1.00  0.00     0.296 HD
ENDBRANCH  67  69
ENDBRANCH  66  67
ENDBRANCH  56  66
ENDBRANCH  53  56
ENDBRANCH  50  52
ENDBRANCH  47  50
ENDBRANCH  45  46
BRANCH  45  71
ATOM     71  C   UNL     1       1.335   3.034   3.724  1.00  0.00     0.037 C 
BRANCH  71  72
ATOM     72  C   UNL     1       1.389   1.584   4.210  1.00  0.00     0.026 C 
BRANCH  72  73
ATOM     73  C   UNL     1       2.052   1.478   5.582  1.00  0.00     0.146 C 
BRANCH  73  74
ATOM     74  N   UNL     1       3.490   1.649   5.398  1.00  0.00    -0.254 NA
ATOM     75  C   UNL     1       4.064   2.610   6.022  1.00  0.00     0.185 C 
ATOM     76  N   UNL     1       5.386   2.792   5.874  1.00  0.00    -0.370 N 
ATOM     77  N   UNL     1       3.524   3.520   6.852  1.00  0.00    -0.370 N 
ATOM     78  H   UNL     1       5.869   2.154   5.258  1.00  0.00     0.159 HD
ATOM     79  H   UNL     1       5.875   3.602   6.212  1.00  0.00     0.159 HD
ATOM     80  H   UNL     1       2.537   3.503   7.061  1.00  0.00     0.159 HD
ATOM     81  H   UNL     1       4.096   4.160   7.378  1.00  0.00     0.159 HD
ENDBRANCH  73  74
ENDBRANCH  72  73
ENDBRANCH  71  72
ENDBRANCH  45  71
ENDBRANCH   3  45
TORSDOF 20
ENDMDL
MODEL 37
REMARK VINA RESULT:    -4.754      4.275     11.989
REMARK INTER + INTRA:         -21.051
REMARK INTER:                 -14.127
REMARK INTRA:                  -6.924
REMARK UNBOUND:                -7.402
REMARK SMILES CCCCCC(=O)N[C@H](CC(=O)O)C(=O)N[C@H]1C(=O)N[C@H](CCCN=C(N)N)C(=O)N[C@@H]2CC[C@H](O)N(C2=O)[C@@H](CC(C)C)C(=O)N(C)[C@@H](Cc2ccccc2)C(=O)N[C@H](C(C)C)C(=O)O[C@@H]1C
REMARK SMILES IDX 30 1 31 2 29 3 32 5 35 6 37 7 34 8 38 9 33 10 39 11 36 12
REMARK SMILES IDX 40 14 41 15 42 16 43 17 44 18 45 19 46 20 47 21 48 22 49 23
REMARK SMILES IDX 50 24 51 25 52 26 56 27 53 28 55 29 54 30 57 31 58 32 59 33
REMARK SMILES IDX 60 35 61 36 62 37 63 38 64 39 65 40 66 41 67 42 68 43 21 45
REMARK SMILES IDX 20 46 18 47 19 48 17 50 16 52 14 53 15 54 9 56 8 57 6 58
REMARK SMILES IDX 7 59 5 61 4 62 3 63 2 64 1 65 10 66 11 67 12 68 13 69 22 71
REMARK SMILES IDX 23 72 24 73 25 74 26 75 27 76 28 77
REMARK H PARENT 31 4 36 13 59 34 20 49 16 55 8 60 13 70 27 78 27 79 28 80
REMARK H PARENT 28 81
REMARK Flexibility Score:  259.900
ROOT
ATOM      1  O   UNL     1       4.528   0.136   4.295  1.00  0.00    -0.273 OA
ATOM      2  N   UNL     1       5.144  -0.130   2.108  1.00  0.00    -0.343 N 
ATOM      3  C   UNL     1       4.212  -0.059   3.121  1.00  0.00     0.243 C 
ATOM      4  H   UNL     1       4.846  -0.277   1.152  1.00  0.00     0.164 HD
ENDROOT
BRANCH   2   5
ATOM      5  C   UNL     1       6.571  -0.094   2.409  1.00  0.00     0.171 C 
ATOM      6  C   UNL     1       8.927  -0.685   0.828  1.00  0.00     0.214 C 
ATOM      7  N   UNL     1       8.315  -1.734   1.610  1.00  0.00    -0.303 N 
ATOM      8  C   UNL     1       8.748   0.699   1.431  1.00  0.00     0.057 C 
ATOM      9  C   UNL     1       7.160  -1.532   2.347  1.00  0.00     0.247 C 
ATOM     10  C   UNL     1       7.274   0.996   1.601  1.00  0.00     0.040 C 
ATOM     11  O   UNL     1       6.593  -2.456   2.945  1.00  0.00    -0.272 OA
BRANCH   6  12
ATOM     12  O   UNL     1       8.373  -0.734  -0.466  1.00  0.00    -0.373 OA
ATOM     13  H   UNL     1       8.394  -1.672  -0.753  1.00  0.00     0.213 HD
ENDBRANCH   6  12
BRANCH   7  14
ATOM     14  C   UNL     1       8.890  -3.090   1.480  1.00  0.00     0.177 C 
BRANCH  14  15
ATOM     15  C   UNL     1       8.810  -3.704   0.069  1.00  0.00     0.038 C 
BRANCH  15  16
ATOM     16  C   UNL     1       7.439  -3.820  -0.634  1.00  0.00    -0.015 C 
ATOM     17  C   UNL     1       6.505  -4.810   0.068  1.00  0.00     0.007 C 
ATOM     18  C   UNL     1       7.636  -4.288  -2.081  1.00  0.00     0.007 C 
ENDBRANCH  15  16
ENDBRANCH  14  15
BRANCH  14  19
ATOM     19  C   UNL     1      10.081  -3.274   2.483  1.00  0.00     0.245 C 
ATOM     20  O   UNL     1      11.185  -2.828   2.128  1.00  0.00    -0.272 OA
BRANCH  19  21
ATOM     21  N   UNL     1       9.991  -3.990   3.663  1.00  0.00    -0.332 N 
ATOM     22  C   UNL     1       8.818  -4.710   4.125  1.00  0.00     0.147 C 
BRANCH  21  23
ATOM     23  C   UNL     1      11.187  -4.023   4.550  1.00  0.00     0.178 C 
BRANCH  23  24
ATOM     24  C   UNL     1      10.973  -3.404   5.946  1.00  0.00     0.070 C 
BRANCH  24  25
ATOM     25  C   UNL     1      11.251  -1.926   6.094  1.00  0.00    -0.045 A 
ATOM     26  C   UNL     1      12.130  -1.271   5.222  1.00  0.00     0.004 A 
ATOM     27  C   UNL     1      10.634  -1.189   7.116  1.00  0.00     0.004 A 
ATOM     28  C   UNL     1      12.395   0.092   5.376  1.00  0.00     0.000 A 
ATOM     29  C   UNL     1      10.898   0.173   7.268  1.00  0.00     0.000 A 
ATOM     30  C   UNL     1      11.781   0.812   6.399  1.00  0.00     0.000 A 
ENDBRANCH  24  25
ENDBRANCH  23  24
BRANCH  23  31
ATOM     31  C   UNL     1      11.902  -5.395   4.548  1.00  0.00     0.243 C 
ATOM     32  O   UNL     1      12.522  -5.845   3.587  1.00  0.00    -0.273 OA
ATOM     33  N   UNL     1      11.627  -6.164   5.666  1.00  0.00    -0.341 N 
ATOM     34  H   UNL     1      11.100  -5.736   6.431  1.00  0.00     0.164 HD
BRANCH  33  35
ATOM     35  C   UNL     1      12.099  -7.542   5.823  1.00  0.00     0.194 C 
BRANCH  35  36
ATOM     36  C   UNL     1      10.960  -8.597   5.912  1.00  0.00     0.017 C 
ATOM     37  C   UNL     1      10.739  -9.297   4.560  1.00  0.00     0.010 C 
ATOM     38  C   UNL     1       9.615  -7.999   6.344  1.00  0.00     0.010 C 
ENDBRANCH  35  36
BRANCH  35  39
ATOM     39  C   UNL     1      13.123  -7.695   6.983  1.00  0.00     0.329 C 
ATOM     40  O   UNL     1      13.649  -6.752   7.562  1.00  0.00    -0.250 OA
BRANCH  39  41
ATOM     41  O   UNL     1      13.307  -9.001   7.345  1.00  0.00    -0.458 OA
BRANCH  41  42
ATOM     42  C   UNL     1      14.575  -9.595   6.979  1.00  0.00     0.205 CG0
ATOM     43  C   UNL     1      14.293 -10.636   5.897  1.00  0.00     0.056 C 
ATOM     44  G   UNL     1      15.211 -10.213   8.240  1.00  0.00     0.000 G0
ENDBRANCH  41  42
ENDBRANCH  39  41
ENDBRANCH  35  39
ENDBRANCH  33  35
ENDBRANCH  23  31
ENDBRANCH  21  23
ENDBRANCH  19  21
ENDBRANCH  14  19
ENDBRANCH   7  14
ENDBRANCH   2   5
BRANCH   3  45
ATOM     45  C   UNL     1       2.750  -0.219   2.681  1.00  0.00     0.171 C 
BRANCH  45  46
ATOM     46  N   UNL     1       2.448   0.960   1.881  1.00  0.00    -0.342 N 
ATOM     47  C   UNL     1       1.964   0.877   0.600  1.00  0.00     0.247 C 
ATOM     48  O   UNL     1       1.681  -0.193   0.061  1.00  0.00    -0.273 OA
ATOM     49  H   UNL     1       2.615   1.869   2.310  1.00  0.00     0.164 HD
BRANCH  47  50
ATOM     50  C   UNL     1       1.824   2.220  -0.131  1.00  0.00     0.212 CG0
ATOM     51  G   UNL     1       0.320   2.546  -0.226  1.00  0.00     0.000 G0
BRANCH  50  52
ATOM     52  N   UNL     1       2.572   3.182   0.675  1.00  0.00    -0.339 N 
ATOM     53  C   UNL     1       2.216   4.503   0.799  1.00  0.00     0.243 C 
ATOM     54  O   UNL     1       1.265   4.991   0.195  1.00  0.00    -0.273 OA
ATOM     55  H   UNL     1       3.435   2.863   1.111  1.00  0.00     0.164 HD
BRANCH  53  56
ATOM     56  C   UNL     1       3.206   5.344   1.630  1.00  0.00     0.182 C 
BRANCH  56  57
ATOM     57  N   UNL     1       4.565   5.244   1.089  1.00  0.00    -0.344 N 
ATOM     58  C   UNL     1       5.000   6.021   0.043  1.00  0.00     0.220 C 
ATOM     59  O   UNL     1       4.265   6.798  -0.557  1.00  0.00    -0.275 OA
ATOM     60  H   UNL     1       5.233   4.691   1.620  1.00  0.00     0.164 HD
BRANCH  58  61
ATOM     61  C   UNL     1       6.458   5.792  -0.311  1.00  0.00     0.100 C 
BRANCH  61  62
ATOM     62  C   UNL     1       6.979   4.411   0.088  1.00  0.00     0.010 C 
BRANCH  62  63
ATOM     63  C   UNL     1       8.508   4.287   0.064  1.00  0.00     0.000 C 
BRANCH  63  64
ATOM     64  C   UNL     1       9.048   3.420  -1.072  1.00  0.00    -0.003 C 
ATOM     65  C   UNL     1       9.473   4.267  -2.263  1.00  0.00     0.004 C 
ENDBRANCH  63  64
ENDBRANCH  62  63
ENDBRANCH  61  62
ENDBRANCH  58  61
ENDBRANCH  56  57
BRANCH  56  66
ATOM     66  C   UNL     1       3.147   4.976   3.112  1.00  0.00     0.157 C 
BRANCH  66  67
ATOM     67  C   UNL     1       4.398   4.270   3.547  1.00  0.00     0.305 C 
ATOM     68  O   UNL     1       5.256   4.699   4.304  1.00  0.00    -0.252 OA
BRANCH  67  69
ATOM     69  O   UNL     1       4.484   3.024   3.044  1.00  0.00    -0.481 OA
ATOM     70  H   UNL     1       3.813   2.995   2.330  1.00  0.00     0.296 HD
ENDBRANCH  67  69
ENDBRANCH  66  67
ENDBRANCH  56  66
ENDBRANCH  53  56
ENDBRANCH  50  52
ENDBRANCH  47  50
ENDBRANCH  45  46
BRANCH  45  71
ATOM     71  C   UNL     1       1.833  -0.323   3.904  1.00  0.00     0.037 C 
BRANCH  71  72
ATOM     72  C   UNL     1       1.035   0.962   4.136  1.00  0.00     0.026 C 
BRANCH  72  73
ATOM     73  C   UNL     1       0.982   1.330   5.618  1.00  0.00     0.146 C 
BRANCH  73  74
ATOM     74  N   UNL     1       2.348   1.592   6.062  1.00  0.00    -0.254 NA
ATOM     75  C   UNL     1       2.649   2.792   6.396  1.00  0.00     0.185 C 
ATOM     76  N   UNL     1       3.897   3.064   6.810  1.00  0.00    -0.370 N 
ATOM     77  N   UNL     1       1.871   3.889   6.399  1.00  0.00    -0.370 N 
ATOM     78  H   UNL     1       4.550   2.294   6.831  1.00  0.00     0.159 HD
ATOM     79  H   UNL     1       4.244   3.997   6.947  1.00  0.00     0.159 HD
ATOM     80  H   UNL     1       0.905   3.834   6.115  1.00  0.00     0.159 HD
ATOM     81  H   UNL     1       2.187   4.759   6.793  1.00  0.00     0.159 HD
ENDBRANCH  73  74
ENDBRANCH  72  73
ENDBRANCH  71  72
ENDBRANCH  45  71
ENDBRANCH   3  45
TORSDOF 20
ENDMDL
MODEL 38
REMARK VINA RESULT:    -4.751      8.060     13.170
REMARK INTER + INTRA:         -21.040
REMARK INTER:                 -14.717
REMARK INTRA:                  -6.323
REMARK UNBOUND:                -7.402
REMARK SMILES CCCCCC(=O)N[C@H](CC(=O)O)C(=O)N[C@H]1C(=O)N[C@H](CCCN=C(N)N)C(=O)N[C@@H]2CC[C@H](O)N(C2=O)[C@@H](CC(C)C)C(=O)N(C)[C@@H](Cc2ccccc2)C(=O)N[C@H](C(C)C)C(=O)O[C@@H]1C
REMARK SMILES IDX 30 1 31 2 29 3 32 5 35 6 37 7 34 8 38 9 33 10 39 11 36 12
REMARK SMILES IDX 40 14 41 15 42 16 43 17 44 18 45 19 46 20 47 21 48 22 49 23
REMARK SMILES IDX 50 24 51 25 52 26 56 27 53 28 55 29 54 30 57 31 58 32 59 33
REMARK SMILES IDX 60 35 61 36 62 37 63 38 64 39 65 40 66 41 67 42 68 43 21 45
REMARK SMILES IDX 20 46 18 47 19 48 17 50 16 52 14 53 15 54 9 56 8 57 6 58
REMARK SMILES IDX 7 59 5 61 4 62 3 63 2 64 1 65 10 66 11 67 12 68 13 69 22 71
REMARK SMILES IDX 23 72 24 73 25 74 26 75 27 76 28 77
REMARK H PARENT 31 4 36 13 59 34 20 49 16 55 8 60 13 70 27 78 27 79 28 80
REMARK H PARENT 28 81
REMARK Flexibility Score:  259.900
ROOT
ATOM      1  O   UNL     1      -2.247   4.044   5.768  1.00  0.00    -0.273 OA
ATOM      2  N   UNL     1      -3.640   2.238   5.932  1.00  0.00    -0.343 N 
ATOM      3  C   UNL     1      -2.418   2.861   6.063  1.00  0.00     0.243 C 
ATOM      4  H   UNL     1      -3.747   1.266   6.198  1.00  0.00     0.164 HD
ENDROOT
BRANCH   2   5
ATOM      5  C   UNL     1      -4.767   2.934   5.321  1.00  0.00     0.171 C 
ATOM      6  C   UNL     1      -7.595   2.321   5.147  1.00  0.00     0.214 C 
ATOM      7  N   UNL     1      -6.706   1.871   4.102  1.00  0.00    -0.303 N 
ATOM      8  C   UNL     1      -7.139   3.609   5.813  1.00  0.00     0.057 C 
ATOM      9  C   UNL     1      -5.338   2.086   4.148  1.00  0.00     0.247 C 
ATOM     10  C   UNL     1      -5.749   3.427   6.382  1.00  0.00     0.040 C 
ATOM     11  O   UNL     1      -4.572   1.623   3.292  1.00  0.00    -0.272 OA
BRANCH   6  12
ATOM     12  O   UNL     1      -7.701   1.286   6.097  1.00  0.00    -0.373 OA
ATOM     13  H   UNL     1      -7.310   0.483   5.692  1.00  0.00     0.213 HD
ENDBRANCH   6  12
BRANCH   7  14
ATOM     14  C   UNL     1      -7.294   1.034   3.035  1.00  0.00     0.177 C 
BRANCH  14  15
ATOM     15  C   UNL     1      -7.251  -0.485   3.295  1.00  0.00     0.038 C 
BRANCH  15  16
ATOM     16  C   UNL     1      -8.049  -1.436   2.376  1.00  0.00    -0.015 C 
ATOM     17  C   UNL     1      -8.477  -2.719   3.095  1.00  0.00     0.007 C 
ATOM     18  C   UNL     1      -7.193  -1.827   1.165  1.00  0.00     0.007 C 
ENDBRANCH  15  16
ENDBRANCH  14  15
BRANCH  14  19
ATOM     19  C   UNL     1      -8.462   1.800   2.324  1.00  0.00     0.245 C 
ATOM     20  O   UNL     1      -9.618   1.442   2.605  1.00  0.00    -0.272 OA
BRANCH  19  21
ATOM     21  N   UNL     1      -8.272   2.753   1.339  1.00  0.00    -0.332 N 
ATOM     22  C   UNL     1      -7.994   4.159   1.570  1.00  0.00     0.147 C 
BRANCH  21  23
ATOM     23  C   UNL     1      -8.370   2.316  -0.081  1.00  0.00     0.178 C 
BRANCH  23  24
ATOM     24  C   UNL     1      -7.333   1.256  -0.503  1.00  0.00     0.070 C 
BRANCH  24  25
ATOM     25  C   UNL     1      -5.958   1.753  -0.886  1.00  0.00    -0.045 A 
ATOM     26  C   UNL     1      -5.792   2.672  -1.929  1.00  0.00     0.004 A 
ATOM     27  C   UNL     1      -4.823   1.293  -0.201  1.00  0.00     0.004 A 
ATOM     28  C   UNL     1      -4.517   3.114  -2.288  1.00  0.00     0.000 A 
ATOM     29  C   UNL     1      -3.549   1.735  -0.560  1.00  0.00     0.000 A 
ATOM     30  C   UNL     1      -3.397   2.644  -1.606  1.00  0.00     0.000 A 
ENDBRANCH  24  25
ENDBRANCH  23  24
BRANCH  23  31
ATOM     31  C   UNL     1      -9.823   2.017  -0.521  1.00  0.00     0.243 C 
ATOM     32  O   UNL     1     -10.638   2.882  -0.833  1.00  0.00    -0.273 OA
ATOM     33  N   UNL     1     -10.190   0.692  -0.357  1.00  0.00    -0.341 N 
ATOM     34  H   UNL     1      -9.468   0.018  -0.090  1.00  0.00     0.164 HD
BRANCH  33  35
ATOM     35  C   UNL     1     -11.551   0.204  -0.596  1.00  0.00     0.194 C 
BRANCH  35  36
ATOM     36  C   UNL     1     -12.012  -0.903   0.393  1.00  0.00     0.017 C 
ATOM     37  C   UNL     1     -11.024  -2.082   0.414  1.00  0.00     0.010 C 
ATOM     38  C   UNL     1     -13.397  -1.471   0.062  1.00  0.00     0.010 C 
ENDBRANCH  35  36
BRANCH  35  39
ATOM     39  C   UNL     1     -11.786  -0.207  -2.077  1.00  0.00     0.329 C 
ATOM     40  O   UNL     1     -11.121  -1.047  -2.670  1.00  0.00    -0.250 OA
BRANCH  39  41
ATOM     41  O   UNL     1     -12.878   0.412  -2.621  1.00  0.00    -0.458 OA
BRANCH  41  42
ATOM     42  C   UNL     1     -12.866   0.586  -4.058  1.00  0.00     0.205 CG0
ATOM     43  C   UNL     1     -12.148   1.902  -4.350  1.00  0.00     0.056 C 
ATOM     44  G   UNL     1     -14.322   0.583  -4.565  1.00  0.00     0.000 G0
ENDBRANCH  41  42
ENDBRANCH  39  41
ENDBRANCH  35  39
ENDBRANCH  33  35
ENDBRANCH  23  31
ENDBRANCH  21  23
ENDBRANCH  19  21
ENDBRANCH  14  19
ENDBRANCH   7  14
ENDBRANCH   2   5
BRANCH   3  45
ATOM     45  C   UNL     1      -1.289   1.983   6.620  1.00  0.00     0.171 C 
BRANCH  45  46
ATOM     46  N   UNL     1      -0.117   2.846   6.690  1.00  0.00    -0.342 N 
ATOM     47  C   UNL     1       0.688   2.904   7.799  1.00  0.00     0.247 C 
ATOM     48  O   UNL     1       0.524   2.182   8.783  1.00  0.00    -0.273 OA
ATOM     49  H   UNL     1       0.088   3.419   5.874  1.00  0.00     0.164 HD
BRANCH  47  50
ATOM     50  C   UNL     1       1.801   3.960   7.739  1.00  0.00     0.212 CG0
ATOM     51  G   UNL     1       2.743   3.715   8.935  1.00  0.00     0.000 G0
BRANCH  50  52
ATOM     52  N   UNL     1       2.450   3.768   6.445  1.00  0.00    -0.339 N 
ATOM     53  C   UNL     1       3.546   2.961   6.261  1.00  0.00     0.243 C 
ATOM     54  O   UNL     1       4.100   2.375   7.187  1.00  0.00    -0.273 OA
ATOM     55  H   UNL     1       2.105   4.314   5.658  1.00  0.00     0.164 HD
BRANCH  53  56
ATOM     56  C   UNL     1       4.109   2.984   4.825  1.00  0.00     0.182 C 
BRANCH  56  57
ATOM     57  N   UNL     1       4.711   1.694   4.475  1.00  0.00    -0.344 N 
ATOM     58  C   UNL     1       4.741   1.221   3.185  1.00  0.00     0.220 C 
ATOM     59  O   UNL     1       4.205   1.808   2.251  1.00  0.00    -0.275 OA
ATOM     60  H   UNL     1       5.253   1.227   5.197  1.00  0.00     0.164 HD
BRANCH  58  61
ATOM     61  C   UNL     1       5.465  -0.105   3.047  1.00  0.00     0.100 C 
BRANCH  61  62
ATOM     62  C   UNL     1       4.538  -1.320   3.087  1.00  0.00     0.010 C 
BRANCH  62  63
ATOM     63  C   UNL     1       3.165  -1.042   3.711  1.00  0.00     0.000 C 
BRANCH  63  64
ATOM     64  C   UNL     1       1.985  -1.330   2.785  1.00  0.00    -0.003 C 
ATOM     65  C   UNL     1       2.337  -1.045   1.332  1.00  0.00     0.004 C 
ENDBRANCH  63  64
ENDBRANCH  62  63
ENDBRANCH  61  62
ENDBRANCH  58  61
ENDBRANCH  56  57
BRANCH  56  66
ATOM     66  C   UNL     1       5.079   4.147   4.622  1.00  0.00     0.157 C 
BRANCH  66  67
ATOM     67  C   UNL     1       4.343   5.442   4.432  1.00  0.00     0.305 C 
ATOM     68  O   UNL     1       3.898   6.168   5.307  1.00  0.00    -0.252 OA
BRANCH  67  69
ATOM     69  O   UNL     1       4.246   5.789   3.134  1.00  0.00    -0.481 OA
ATOM     70  H   UNL     1       4.802   6.592   3.048  1.00  0.00     0.296 HD
ENDBRANCH  67  69
ENDBRANCH  66  67
ENDBRANCH  56  66
ENDBRANCH  53  56
ENDBRANCH  50  52
ENDBRANCH  47  50
ENDBRANCH  45  46
BRANCH  45  71
ATOM     71  C   UNL     1      -1.050   0.777   5.705  1.00  0.00     0.037 C 
BRANCH  71  72
ATOM     72  C   UNL     1       0.136   0.996   4.762  1.00  0.00     0.026 C 
BRANCH  72  73
ATOM     73  C   UNL     1      -0.300   1.664   3.460  1.00  0.00     0.146 C 
BRANCH  73  74
ATOM     74  N   UNL     1       0.270   3.008   3.434  1.00  0.00    -0.254 NA
ATOM     75  C   UNL     1       1.105   3.286   2.502  1.00  0.00     0.185 C 
ATOM     76  N   UNL     1       1.646   4.514   2.451  1.00  0.00    -0.370 N 
ATOM     77  N   UNL     1       1.553   2.501   1.506  1.00  0.00    -0.370 N 
ATOM     78  H   UNL     1       1.367   5.167   3.169  1.00  0.00     0.159 HD
ATOM     79  H   UNL     1       2.408   4.759   1.844  1.00  0.00     0.159 HD
ATOM     80  H   UNL     1       1.229   1.550   1.416  1.00  0.00     0.159 HD
ATOM     81  H   UNL     1       2.123   2.867   0.761  1.00  0.00     0.159 HD
ENDBRANCH  73  74
ENDBRANCH  72  73
ENDBRANCH  71  72
ENDBRANCH  45  71
ENDBRANCH   3  45
TORSDOF 20
ENDMDL
MODEL 39
REMARK VINA RESULT:    -4.742      9.037     14.184
REMARK INTER + INTRA:         -21.014
REMARK INTER:                 -15.046
REMARK INTRA:                  -5.968
REMARK UNBOUND:                -7.402
REMARK SMILES CCCCCC(=O)N[C@H](CC(=O)O)C(=O)N[C@H]1C(=O)N[C@H](CCCN=C(N)N)C(=O)N[C@@H]2CC[C@H](O)N(C2=O)[C@@H](CC(C)C)C(=O)N(C)[C@@H](Cc2ccccc2)C(=O)N[C@H](C(C)C)C(=O)O[C@@H]1C
REMARK SMILES IDX 30 1 31 2 29 3 32 5 35 6 37 7 34 8 38 9 33 10 39 11 36 12
REMARK SMILES IDX 40 14 41 15 42 16 43 17 44 18 45 19 46 20 47 21 48 22 49 23
REMARK SMILES IDX 50 24 51 25 52 26 56 27 53 28 55 29 54 30 57 31 58 32 59 33
REMARK SMILES IDX 60 35 61 36 62 37 63 38 64 39 65 40 66 41 67 42 68 43 21 45
REMARK SMILES IDX 20 46 18 47 19 48 17 50 16 52 14 53 15 54 9 56 8 57 6 58
REMARK SMILES IDX 7 59 5 61 4 62 3 63 2 64 1 65 10 66 11 67 12 68 13 69 22 71
REMARK SMILES IDX 23 72 24 73 25 74 26 75 27 76 28 77
REMARK H PARENT 31 4 36 13 59 34 20 49 16 55 8 60 13 70 27 78 27 79 28 80
REMARK H PARENT 28 81
REMARK Flexibility Score:  259.900
ROOT
ATOM      1  O   UNL     1      10.642  -2.555 -12.882  1.00  0.00    -0.273 OA
ATOM      2  N   UNL     1       9.702  -0.633 -12.075  1.00  0.00    -0.343 N 
ATOM      3  C   UNL     1      10.633  -1.326 -12.819  1.00  0.00     0.243 C 
ATOM      4  H   UNL     1       9.717   0.379 -12.058  1.00  0.00     0.164 HD
ENDROOT
BRANCH   2   5
ATOM      5  C   UNL     1       8.751  -1.343 -11.227  1.00  0.00     0.171 C 
ATOM      6  C   UNL     1       6.044  -0.744 -10.382  1.00  0.00     0.214 C 
ATOM      7  N   UNL     1       7.154  -0.309  -9.568  1.00  0.00    -0.303 N 
ATOM      8  C   UNL     1       6.330  -2.020 -11.159  1.00  0.00     0.057 C 
ATOM      9  C   UNL     1       8.473  -0.517  -9.939  1.00  0.00     0.247 C 
ATOM     10  C   UNL     1       7.547  -1.823 -12.036  1.00  0.00     0.040 C 
ATOM     11  O   UNL     1       9.419  -0.065  -9.280  1.00  0.00    -0.272 OA
BRANCH   6  12
ATOM     12  O   UNL     1       5.718   0.306 -11.263  1.00  0.00    -0.373 OA
ATOM     13  H   UNL     1       6.220   0.152 -12.092  1.00  0.00     0.213 HD
ENDBRANCH   6  12
BRANCH   7  14
ATOM     14  C   UNL     1       6.834   0.509  -8.379  1.00  0.00     0.177 C 
BRANCH  14  15
ATOM     15  C   UNL     1       5.996   1.771  -8.657  1.00  0.00     0.038 C 
BRANCH  15  16
ATOM     16  C   UNL     1       6.156   3.008  -7.745  1.00  0.00    -0.015 C 
ATOM     17  C   UNL     1       7.620   3.287  -7.392  1.00  0.00     0.007 C 
ATOM     18  C   UNL     1       5.379   2.795  -6.440  1.00  0.00     0.007 C 
ENDBRANCH  15  16
ENDBRANCH  14  15
BRANCH  14  19
ATOM     19  C   UNL     1       6.707  -0.403  -7.110  1.00  0.00     0.245 C 
ATOM     20  O   UNL     1       5.595  -0.917  -6.900  1.00  0.00    -0.272 OA
BRANCH  19  21
ATOM     21  N   UNL     1       7.713  -0.569  -6.175  1.00  0.00    -0.332 N 
ATOM     22  C   UNL     1       8.776   0.382  -5.904  1.00  0.00     0.147 C 
BRANCH  21  23
ATOM     23  C   UNL     1       7.725  -1.829  -5.382  1.00  0.00     0.178 C 
BRANCH  23  24
ATOM     24  C   UNL     1       8.990  -2.694  -5.563  1.00  0.00     0.070 C 
BRANCH  24  25
ATOM     25  C   UNL     1       8.998  -4.050  -4.897  1.00  0.00    -0.045 A 
ATOM     26  C   UNL     1       9.970  -4.375  -3.943  1.00  0.00     0.004 A 
ATOM     27  C   UNL     1       8.028  -5.008  -5.230  1.00  0.00     0.004 A 
ATOM     28  C   UNL     1       9.981  -5.636  -3.344  1.00  0.00     0.000 A 
ATOM     29  C   UNL     1       8.039  -6.268  -4.630  1.00  0.00     0.000 A 
ATOM     30  C   UNL     1       9.018  -6.582  -3.689  1.00  0.00     0.000 A 
ENDBRANCH  24  25
ENDBRANCH  23  24
BRANCH  23  31
ATOM     31  C   UNL     1       7.282  -1.623  -3.914  1.00  0.00     0.243 C 
ATOM     32  O   UNL     1       7.970  -1.068  -3.061  1.00  0.00    -0.273 OA
ATOM     33  N   UNL     1       6.110  -2.286  -3.592  1.00  0.00    -0.341 N 
ATOM     34  H   UNL     1       5.584  -2.735  -4.345  1.00  0.00     0.164 HD
BRANCH  33  35
ATOM     35  C   UNL     1       5.565  -2.329  -2.232  1.00  0.00     0.194 C 
BRANCH  35  36
ATOM     36  C   UNL     1       5.086  -3.739  -1.785  1.00  0.00     0.017 C 
ATOM     37  C   UNL     1       6.092  -4.392  -0.821  1.00  0.00     0.010 C 
ATOM     38  C   UNL     1       4.879  -4.707  -2.957  1.00  0.00     0.010 C 
ENDBRANCH  35  36
BRANCH  35  39
ATOM     39  C   UNL     1       4.480  -1.243  -1.988  1.00  0.00     0.329 C 
ATOM     40  O   UNL     1       3.694  -0.854  -2.844  1.00  0.00    -0.250 OA
BRANCH  39  41
ATOM     41  O   UNL     1       4.441  -0.831  -0.685  1.00  0.00    -0.458 OA
BRANCH  41  42
ATOM     42  C   UNL     1       3.212  -1.093   0.034  1.00  0.00     0.205 CG0
ATOM     43  C   UNL     1       2.649   0.256   0.477  1.00  0.00     0.056 C 
ATOM     44  G   UNL     1       3.526  -2.021   1.225  1.00  0.00     0.000 G0
ENDBRANCH  41  42
ENDBRANCH  39  41
ENDBRANCH  35  39
ENDBRANCH  33  35
ENDBRANCH  23  31
ENDBRANCH  21  23
ENDBRANCH  19  21
ENDBRANCH  14  19
ENDBRANCH   7  14
ENDBRANCH   2   5
BRANCH   3  45
ATOM     45  C   UNL     1      11.644  -0.458 -13.580  1.00  0.00     0.171 C 
BRANCH  45  46
ATOM     46  N   UNL     1      11.722  -1.026 -14.919  1.00  0.00    -0.342 N 
ATOM     47  C   UNL     1      12.174  -0.309 -15.998  1.00  0.00     0.247 C 
ATOM     48  O   UNL     1      12.615   0.837 -15.902  1.00  0.00    -0.273 OA
ATOM     49  H   UNL     1      11.420  -1.992 -15.033  1.00  0.00     0.164 HD
BRANCH  47  50
ATOM     50  C   UNL     1      12.068  -1.030 -17.349  1.00  0.00     0.212 CG0
ATOM     51  G   UNL     1      13.088  -2.186 -17.344  1.00  0.00     0.000 G0
BRANCH  50  52
ATOM     52  N   UNL     1      10.682  -1.484 -17.440  1.00  0.00    -0.339 N 
ATOM     53  C   UNL     1      10.204  -2.248 -18.477  1.00  0.00     0.243 C 
ATOM     54  O   UNL     1      10.896  -2.565 -19.440  1.00  0.00    -0.273 OA
ATOM     55  H   UNL     1      10.031  -1.160 -16.728  1.00  0.00     0.164 HD
BRANCH  53  56
ATOM     56  C   UNL     1       8.690  -2.531 -18.400  1.00  0.00     0.182 C 
BRANCH  56  57
ATOM     57  N   UNL     1       8.008  -1.531 -17.572  1.00  0.00    -0.344 N 
ATOM     58  C   UNL     1       7.313  -0.477 -18.114  1.00  0.00     0.220 C 
ATOM     59  O   UNL     1       7.276  -0.257 -19.319  1.00  0.00    -0.275 OA
ATOM     60  H   UNL     1       7.929  -1.733 -16.579  1.00  0.00     0.164 HD
BRANCH  58  61
ATOM     61  C   UNL     1       6.639   0.397 -17.072  1.00  0.00     0.100 C 
BRANCH  61  62
ATOM     62  C   UNL     1       5.768  -0.380 -16.085  1.00  0.00     0.010 C 
BRANCH  62  63
ATOM     63  C   UNL     1       5.793   0.174 -14.655  1.00  0.00     0.000 C 
BRANCH  63  64
ATOM     64  C   UNL     1       5.982   1.688 -14.573  1.00  0.00    -0.003 C 
ATOM     65  C   UNL     1       4.644   2.413 -14.533  1.00  0.00     0.004 C 
ENDBRANCH  63  64
ENDBRANCH  62  63
ENDBRANCH  61  62
ENDBRANCH  58  61
ENDBRANCH  56  57
BRANCH  56  66
ATOM     66  C   UNL     1       8.410  -3.957 -17.929  1.00  0.00     0.157 C 
BRANCH  66  67
ATOM     67  C   UNL     1       8.785  -4.137 -16.487  1.00  0.00     0.305 C 
ATOM     68  O   UNL     1       9.344  -3.323 -15.768  1.00  0.00    -0.252 OA
BRANCH  67  69
ATOM     69  O   UNL     1       8.387  -5.328 -15.999  1.00  0.00    -0.481 OA
ATOM     70  H   UNL     1       8.947  -5.987 -16.462  1.00  0.00     0.296 HD
ENDBRANCH  67  69
ENDBRANCH  66  67
ENDBRANCH  56  66
ENDBRANCH  53  56
ENDBRANCH  50  52
ENDBRANCH  47  50
ENDBRANCH  45  46
BRANCH  45  71
ATOM     71  C   UNL     1      13.005  -0.482 -12.875  1.00  0.00     0.037 C 
BRANCH  71  72
ATOM     72  C   UNL     1      13.313   0.843 -12.173  1.00  0.00     0.026 C 
BRANCH  72  73
ATOM     73  C   UNL     1      12.253   1.899 -12.478  1.00  0.00     0.146 C 
BRANCH  73  74
ATOM     74  N   UNL     1      11.397   2.026 -11.303  1.00  0.00    -0.254 NA
ATOM     75  C   UNL     1      10.333   2.732 -11.410  1.00  0.00     0.185 C 
ATOM     76  N   UNL     1       9.525   2.867 -10.346  1.00  0.00    -0.370 N 
ATOM     77  N   UNL     1       9.866   3.399 -12.480  1.00  0.00    -0.370 N 
ATOM     78  H   UNL     1       9.807   2.401  -9.495  1.00  0.00     0.159 HD
ATOM     79  H   UNL     1       8.758   3.515 -10.312  1.00  0.00     0.159 HD
ATOM     80  H   UNL     1      10.369   3.385 -13.354  1.00  0.00     0.159 HD
ATOM     81  H   UNL     1       8.955   3.827 -12.479  1.00  0.00     0.159 HD
ENDBRANCH  73  74
ENDBRANCH  72  73
ENDBRANCH  71  72
ENDBRANCH  45  71
ENDBRANCH   3  45
TORSDOF 20
ENDMDL
MODEL 40
REMARK VINA RESULT:    -4.736      5.029      8.752
REMARK INTER + INTRA:         -20.998
REMARK INTER:                 -14.730
REMARK INTRA:                  -6.268
REMARK UNBOUND:                -7.402
REMARK SMILES CCCCCC(=O)N[C@H](CC(=O)O)C(=O)N[C@H]1C(=O)N[C@H](CCCN=C(N)N)C(=O)N[C@@H]2CC[C@H](O)N(C2=O)[C@@H](CC(C)C)C(=O)N(C)[C@@H](Cc2ccccc2)C(=O)N[C@H](C(C)C)C(=O)O[C@@H]1C
REMARK SMILES IDX 30 1 31 2 29 3 32 5 35 6 37 7 34 8 38 9 33 10 39 11 36 12
REMARK SMILES IDX 40 14 41 15 42 16 43 17 44 18 45 19 46 20 47 21 48 22 49 23
REMARK SMILES IDX 50 24 51 25 52 26 56 27 53 28 55 29 54 30 57 31 58 32 59 33
REMARK SMILES IDX 60 35 61 36 62 37 63 38 64 39 65 40 66 41 67 42 68 43 21 45
REMARK SMILES IDX 20 46 18 47 19 48 17 50 16 52 14 53 15 54 9 56 8 57 6 58
REMARK SMILES IDX 7 59 5 61 4 62 3 63 2 64 1 65 10 66 11 67 12 68 13 69 22 71
REMARK SMILES IDX 23 72 24 73 25 74 26 75 27 76 28 77
REMARK H PARENT 31 4 36 13 59 34 20 49 16 55 8 60 13 70 27 78 27 79 28 80
REMARK H PARENT 28 81
REMARK Flexibility Score:  259.900
ROOT
ATOM      1  O   UNL     1       9.511  -1.477   3.674  1.00  0.00    -0.273 OA
ATOM      2  N   UNL     1       9.216  -1.701   1.417  1.00  0.00    -0.343 N 
ATOM      3  C   UNL     1       9.971  -1.763   2.568  1.00  0.00     0.243 C 
ATOM      4  H   UNL     1       9.624  -1.958   0.526  1.00  0.00     0.164 HD
ENDROOT
BRANCH   2   5
ATOM      5  C   UNL     1       7.857  -1.172   1.448  1.00  0.00     0.171 C 
ATOM      6  C   UNL     1       5.388  -2.024   0.191  1.00  0.00     0.214 C 
ATOM      7  N   UNL     1       6.239  -1.075  -0.487  1.00  0.00    -0.303 N 
ATOM      8  C   UNL     1       5.475  -1.935   1.706  1.00  0.00     0.057 C 
ATOM      9  C   UNL     1       7.456  -0.664   0.033  1.00  0.00     0.247 C 
ATOM     10  C   UNL     1       6.907  -2.141   2.150  1.00  0.00     0.040 C 
ATOM     11  O   UNL     1       8.219   0.082  -0.593  1.00  0.00    -0.272 OA
BRANCH   6  12
ATOM     12  O   UNL     1       5.746  -3.314  -0.249  1.00  0.00    -0.373 OA
ATOM     13  H   UNL     1       6.719  -3.314  -0.376  1.00  0.00     0.213 HD
ENDBRANCH   6  12
BRANCH   7  14
ATOM     14  C   UNL     1       5.831  -0.659  -1.846  1.00  0.00     0.177 C 
BRANCH  14  15
ATOM     15  C   UNL     1       6.419  -1.503  -2.994  1.00  0.00     0.038 C 
BRANCH  15  16
ATOM     16  C   UNL     1       6.758  -0.825  -4.341  1.00  0.00    -0.015 C 
ATOM     17  C   UNL     1       7.822  -1.592  -5.130  1.00  0.00     0.007 C 
ATOM     18  C   UNL     1       7.277   0.596  -4.089  1.00  0.00     0.007 C 
ENDBRANCH  15  16
ENDBRANCH  14  15
BRANCH  14  19
ATOM     19  C   UNL     1       4.389  -0.047  -1.817  1.00  0.00     0.245 C 
ATOM     20  O   UNL     1       3.522  -0.625  -2.494  1.00  0.00    -0.272 OA
BRANCH  19  21
ATOM     21  N   UNL     1       4.067   1.140  -1.183  1.00  0.00    -0.332 N 
ATOM     22  C   UNL     1       4.962   2.269  -1.005  1.00  0.00     0.147 C 
BRANCH  21  23
ATOM     23  C   UNL     1       2.695   1.279  -0.621  1.00  0.00     0.178 C 
BRANCH  23  24
ATOM     24  C   UNL     1       2.640   1.817   0.823  1.00  0.00     0.070 C 
BRANCH  24  25
ATOM     25  C   UNL     1       2.041   0.910   1.873  1.00  0.00    -0.045 A 
ATOM     26  C   UNL     1       2.224  -0.478   1.812  1.00  0.00     0.004 A 
ATOM     27  C   UNL     1       1.284   1.448   2.925  1.00  0.00     0.004 A 
ATOM     28  C   UNL     1       1.652  -1.310   2.777  1.00  0.00     0.000 A 
ATOM     29  C   UNL     1       0.714   0.615   3.888  1.00  0.00     0.000 A 
ATOM     30  C   UNL     1       0.897  -0.764   3.812  1.00  0.00     0.000 A 
ENDBRANCH  24  25
ENDBRANCH  23  24
BRANCH  23  31
ATOM     31  C   UNL     1       1.706   1.950  -1.604  1.00  0.00     0.243 C 
ATOM     32  O   UNL     1       2.041   2.733  -2.489  1.00  0.00    -0.273 OA
ATOM     33  N   UNL     1       0.376   1.735  -1.283  1.00  0.00    -0.341 N 
ATOM     34  H   UNL     1       0.159   1.075  -0.532  1.00  0.00     0.164 HD
BRANCH  33  35
ATOM     35  C   UNL     1      -0.732   2.369  -2.003  1.00  0.00     0.194 C 
BRANCH  35  36
ATOM     36  C   UNL     1      -1.509   3.426  -1.168  1.00  0.00     0.017 C 
ATOM     37  C   UNL     1      -2.809   2.839  -0.593  1.00  0.00     0.010 C 
ATOM     38  C   UNL     1      -1.886   4.674  -1.975  1.00  0.00     0.010 C 
ENDBRANCH  35  36
BRANCH  35  39
ATOM     39  C   UNL     1      -1.687   1.334  -2.662  1.00  0.00     0.329 C 
ATOM     40  O   UNL     1      -2.012   0.273  -2.143  1.00  0.00    -0.250 OA
BRANCH  39  41
ATOM     41  O   UNL     1      -2.194   1.780  -3.851  1.00  0.00    -0.458 OA
BRANCH  41  42
ATOM     42  C   UNL     1      -3.286   1.011  -4.410  1.00  0.00     0.205 CG0
ATOM     43  C   UNL     1      -2.848   0.543  -5.797  1.00  0.00     0.056 C 
ATOM     44  G   UNL     1      -4.542   1.903  -4.458  1.00  0.00     0.000 G0
ENDBRANCH  41  42
ENDBRANCH  39  41
ENDBRANCH  35  39
ENDBRANCH  33  35
ENDBRANCH  23  31
ENDBRANCH  21  23
ENDBRANCH  19  21
ENDBRANCH  14  19
ENDBRANCH   7  14
ENDBRANCH   2   5
BRANCH   3  45
ATOM     45  C   UNL     1      11.419  -2.235   2.379  1.00  0.00     0.171 C 
BRANCH  45  46
ATOM     46  N   UNL     1      11.759  -2.961   3.597  1.00  0.00    -0.342 N 
ATOM     47  C   UNL     1      12.362  -4.193   3.575  1.00  0.00     0.247 C 
ATOM     48  O   UNL     1      12.726  -4.741   2.534  1.00  0.00    -0.273 OA
ATOM     49  H   UNL     1      11.526  -2.517   4.483  1.00  0.00     0.164 HD
BRANCH  47  50
ATOM     50  C   UNL     1      12.530  -4.858   4.949  1.00  0.00     0.212 CG0
ATOM     51  G   UNL     1      13.162  -3.821   5.897  1.00  0.00     0.000 G0
BRANCH  50  52
ATOM     52  N   UNL     1      11.186  -5.264   5.351  1.00  0.00    -0.339 N 
ATOM     53  C   UNL     1      10.365  -4.490   6.134  1.00  0.00     0.243 C 
ATOM     54  O   UNL     1      10.721  -3.412   6.603  1.00  0.00    -0.273 OA
ATOM     55  H   UNL     1      10.874  -6.197   5.086  1.00  0.00     0.164 HD
BRANCH  53  56
ATOM     56  C   UNL     1       9.027  -5.164   6.500  1.00  0.00     0.182 C 
BRANCH  56  57
ATOM     57  N   UNL     1       8.005  -4.164   6.827  1.00  0.00    -0.344 N 
ATOM     58  C   UNL     1       7.137  -3.665   5.887  1.00  0.00     0.220 C 
ATOM     59  O   UNL     1       7.201  -3.963   4.699  1.00  0.00    -0.275 OA
ATOM     60  H   UNL     1       7.852  -3.968   7.812  1.00  0.00     0.164 HD
BRANCH  58  61
ATOM     61  C   UNL     1       6.127  -2.688   6.460  1.00  0.00     0.100 C 
BRANCH  61  62
ATOM     62  C   UNL     1       5.878  -1.468   5.573  1.00  0.00     0.010 C 
BRANCH  62  63
ATOM     63  C   UNL     1       4.396  -1.196   5.282  1.00  0.00     0.000 C 
BRANCH  63  64
ATOM     64  C   UNL     1       4.015   0.283   5.299  1.00  0.00    -0.003 C 
ATOM     65  C   UNL     1       4.917   1.099   4.383  1.00  0.00     0.004 C 
ENDBRANCH  63  64
ENDBRANCH  62  63
ENDBRANCH  61  62
ENDBRANCH  58  61
ENDBRANCH  56  57
BRANCH  56  66
ATOM     66  C   UNL     1       9.205  -6.193   7.615  1.00  0.00     0.157 C 
BRANCH  66  67
ATOM     67  C   UNL     1       8.138  -7.248   7.557  1.00  0.00     0.305 C 
ATOM     68  O   UNL     1       8.304  -8.458   7.550  1.00  0.00    -0.252 OA
BRANCH  67  69
ATOM     69  O   UNL     1       6.898  -6.723   7.563  1.00  0.00    -0.481 OA
ATOM     70  H   UNL     1       6.335  -7.416   7.967  1.00  0.00     0.296 HD
ENDBRANCH  67  69
ENDBRANCH  66  67
ENDBRANCH  56  66
ENDBRANCH  53  56
ENDBRANCH  50  52
ENDBRANCH  47  50
ENDBRANCH  45  46
BRANCH  45  71
ATOM     71  C   UNL     1      12.347  -1.036   2.158  1.00  0.00     0.037 C 
BRANCH  71  72
ATOM     72  C   UNL     1      13.119  -0.664   3.427  1.00  0.00     0.026 C 
BRANCH  72  73
ATOM     73  C   UNL     1      12.679   0.693   3.972  1.00  0.00     0.146 C 
BRANCH  73  74
ATOM     74  N   UNL     1      11.853   0.454   5.152  1.00  0.00    -0.254 NA
ATOM     75  C   UNL     1      12.127   1.111   6.218  1.00  0.00     0.185 C 
ATOM     76  N   UNL     1      11.385   0.913   7.320  1.00  0.00    -0.370 N 
ATOM     77  N   UNL     1      13.095   2.020   6.425  1.00  0.00    -0.370 N 
ATOM     78  H   UNL     1      10.637   0.237   7.252  1.00  0.00     0.159 HD
ATOM     79  H   UNL     1      11.627   1.279   8.224  1.00  0.00     0.159 HD
ATOM     80  H   UNL     1      13.730   2.273   5.682  1.00  0.00     0.159 HD
ATOM     81  H   UNL     1      13.142   2.558   7.275  1.00  0.00     0.159 HD
ENDBRANCH  73  74
ENDBRANCH  72  73
ENDBRANCH  71  72
ENDBRANCH  45  71
ENDBRANCH   3  45
TORSDOF 20
ENDMDL
MODEL 41
REMARK VINA RESULT:    -4.733      6.502     12.855
REMARK INTER + INTRA:         -20.990
REMARK INTER:                 -15.361
REMARK INTRA:                  -5.629
REMARK UNBOUND:                -7.402
REMARK SMILES CCCCCC(=O)N[C@H](CC(=O)O)C(=O)N[C@H]1C(=O)N[C@H](CCCN=C(N)N)C(=O)N[C@@H]2CC[C@H](O)N(C2=O)[C@@H](CC(C)C)C(=O)N(C)[C@@H](Cc2ccccc2)C(=O)N[C@H](C(C)C)C(=O)O[C@@H]1C
REMARK SMILES IDX 30 1 31 2 29 3 32 5 35 6 37 7 34 8 38 9 33 10 39 11 36 12
REMARK SMILES IDX 40 14 41 15 42 16 43 17 44 18 45 19 46 20 47 21 48 22 49 23
REMARK SMILES IDX 50 24 51 25 52 26 56 27 53 28 55 29 54 30 57 31 58 32 59 33
REMARK SMILES IDX 60 35 61 36 62 37 63 38 64 39 65 40 66 41 67 42 68 43 21 45
REMARK SMILES IDX 20 46 18 47 19 48 17 50 16 52 14 53 15 54 9 56 8 57 6 58
REMARK SMILES IDX 7 59 5 61 4 62 3 63 2 64 1 65 10 66 11 67 12 68 13 69 22 71
REMARK SMILES IDX 23 72 24 73 25 74 26 75 27 76 28 77
REMARK H PARENT 31 4 36 13 59 34 20 49 16 55 8 60 13 70 27 78 27 79 28 80
REMARK H PARENT 28 81
REMARK Flexibility Score:  259.900
ROOT
ATOM      1  O   UNL     1      -2.045   1.898   0.544  1.00  0.00    -0.273 OA
ATOM      2  N   UNL     1      -0.031   2.232  -0.487  1.00  0.00    -0.343 N 
ATOM      3  C   UNL     1      -1.405   2.117  -0.485  1.00  0.00     0.243 C 
ATOM      4  H   UNL     1       0.461   2.426  -1.350  1.00  0.00     0.164 HD
ENDROOT
BRANCH   2   5
ATOM      5  C   UNL     1       0.737   1.978   0.727  1.00  0.00     0.171 C 
ATOM      6  C   UNL     1       3.579   2.016   1.296  1.00  0.00     0.214 C 
ATOM      7  N   UNL     1       2.956   0.783   0.875  1.00  0.00    -0.303 N 
ATOM      8  C   UNL     1       2.641   2.935   2.062  1.00  0.00     0.057 C 
ATOM      9  C   UNL     1       1.614   0.707   0.539  1.00  0.00     0.247 C 
ATOM     10  C   UNL     1       1.428   3.250   1.215  1.00  0.00     0.040 C 
ATOM     11  O   UNL     1       1.107  -0.333   0.097  1.00  0.00    -0.272 OA
BRANCH   6  12
ATOM     12  O   UNL     1       4.071   2.664   0.145  1.00  0.00    -0.373 OA
ATOM     13  H   UNL     1       3.503   3.449  -0.008  1.00  0.00     0.213 HD
ENDBRANCH   6  12
BRANCH   7  14
ATOM     14  C   UNL     1       3.843  -0.382   0.673  1.00  0.00     0.177 C 
BRANCH  14  15
ATOM     15  C   UNL     1       4.630  -0.384  -0.652  1.00  0.00     0.038 C 
BRANCH  15  16
ATOM     16  C   UNL     1       3.905  -0.746  -1.967  1.00  0.00    -0.015 C 
ATOM     17  C   UNL     1       4.728  -1.692  -2.847  1.00  0.00     0.007 C 
ATOM     18  C   UNL     1       3.618   0.529  -2.770  1.00  0.00     0.007 C 
ENDBRANCH  15  16
ENDBRANCH  14  15
BRANCH  14  19
ATOM     19  C   UNL     1       4.385  -0.899   2.050  1.00  0.00     0.245 C 
ATOM     20  O   UNL     1       3.539  -1.152   2.924  1.00  0.00    -0.272 OA
BRANCH  19  21
ATOM     21  N   UNL     1       5.729  -0.976   2.370  1.00  0.00    -0.332 N 
ATOM     22  C   UNL     1       6.573   0.146   2.738  1.00  0.00     0.147 C 
BRANCH  21  23
ATOM     23  C   UNL     1       6.378  -2.316   2.328  1.00  0.00     0.178 C 
BRANCH  23  24
ATOM     24  C   UNL     1       7.434  -2.486   1.217  1.00  0.00     0.070 C 
BRANCH  24  25
ATOM     25  C   UNL     1       7.056  -3.347   0.034  1.00  0.00    -0.045 A 
ATOM     26  C   UNL     1       7.953  -3.548  -1.023  1.00  0.00     0.004 A 
ATOM     27  C   UNL     1       5.793  -3.956  -0.023  1.00  0.00     0.004 A 
ATOM     28  C   UNL     1       7.589  -4.331  -2.121  1.00  0.00     0.000 A 
ATOM     29  C   UNL     1       5.432  -4.739  -1.120  1.00  0.00     0.000 A 
ATOM     30  C   UNL     1       6.329  -4.924  -2.170  1.00  0.00     0.000 A 
ENDBRANCH  24  25
ENDBRANCH  23  24
BRANCH  23  31
ATOM     31  C   UNL     1       6.814  -2.820   3.724  1.00  0.00     0.243 C 
ATOM     32  O   UNL     1       6.146  -2.679   4.745  1.00  0.00    -0.273 OA
ATOM     33  N   UNL     1       8.118  -3.285   3.762  1.00  0.00    -0.341 N 
ATOM     34  H   UNL     1       8.627  -3.375   2.879  1.00  0.00     0.164 HD
BRANCH  33  35
ATOM     35  C   UNL     1       8.782  -3.701   5.000  1.00  0.00     0.194 C 
BRANCH  35  36
ATOM     36  C   UNL     1      10.289  -3.327   5.069  1.00  0.00     0.017 C 
ATOM     37  C   UNL     1      10.599  -2.478   6.314  1.00  0.00     0.010 C 
ATOM     38  C   UNL     1      10.773  -2.538   3.845  1.00  0.00     0.010 C 
ENDBRANCH  35  36
BRANCH  35  39
ATOM     39  C   UNL     1       8.541  -5.200   5.333  1.00  0.00     0.329 C 
ATOM     40  O   UNL     1       8.810  -6.124   4.574  1.00  0.00    -0.250 OA
BRANCH  39  41
ATOM     41  O   UNL     1       8.074  -5.381   6.606  1.00  0.00    -0.458 OA
BRANCH  41  42
ATOM     42  C   UNL     1       8.910  -6.166   7.490  1.00  0.00     0.205 CG0
ATOM     43  C   UNL     1       8.101  -7.391   7.911  1.00  0.00     0.056 C 
ATOM     44  G   UNL     1       9.318  -5.287   8.689  1.00  0.00     0.000 G0
ENDBRANCH  41  42
ENDBRANCH  39  41
ENDBRANCH  35  39
ENDBRANCH  33  35
ENDBRANCH  23  31
ENDBRANCH  21  23
ENDBRANCH  19  21
ENDBRANCH  14  19
ENDBRANCH   7  14
ENDBRANCH   2   5
BRANCH   3  45
ATOM     45  C   UNL     1      -2.082   2.301  -1.849  1.00  0.00     0.171 C 
BRANCH  45  46
ATOM     46  N   UNL     1      -3.507   2.111  -1.611  1.00  0.00    -0.342 N 
ATOM     47  C   UNL     1      -4.448   3.028  -2.004  1.00  0.00     0.247 C 
ATOM     48  O   UNL     1      -4.168   4.039  -2.648  1.00  0.00    -0.273 OA
ATOM     49  H   UNL     1      -3.789   1.259  -1.129  1.00  0.00     0.164 HD
BRANCH  47  50
ATOM     50  C   UNL     1      -5.884   2.718  -1.557  1.00  0.00     0.212 CG0
ATOM     51  G   UNL     1      -6.616   2.073  -2.751  1.00  0.00     0.000 G0
BRANCH  50  52
ATOM     52  N   UNL     1      -5.751   1.824  -0.411  1.00  0.00    -0.339 N 
ATOM     53  C   UNL     1      -6.454   1.984   0.759  1.00  0.00     0.243 C 
ATOM     54  O   UNL     1      -7.214   2.930   0.950  1.00  0.00    -0.273 OA
ATOM     55  H   UNL     1      -5.054   1.084  -0.466  1.00  0.00     0.164 HD
BRANCH  53  56
ATOM     56  C   UNL     1      -6.083   0.969   1.858  1.00  0.00     0.182 C 
BRANCH  56  57
ATOM     57  N   UNL     1      -7.247   0.166   2.248  1.00  0.00    -0.344 N 
ATOM     58  C   UNL     1      -7.563  -1.020   1.632  1.00  0.00     0.220 C 
ATOM     59  O   UNL     1      -6.940  -1.453   0.668  1.00  0.00    -0.275 OA
ATOM     60  H   UNL     1      -7.727   0.436   3.103  1.00  0.00     0.164 HD
BRANCH  58  61
ATOM     61  C   UNL     1      -8.772  -1.709   2.236  1.00  0.00     0.100 C 
BRANCH  61  62
ATOM     62  C   UNL     1      -9.795  -2.178   1.201  1.00  0.00     0.010 C 
BRANCH  62  63
ATOM     63  C   UNL     1     -11.079  -1.339   1.162  1.00  0.00     0.000 C 
BRANCH  63  64
ATOM     64  C   UNL     1     -11.919  -1.538  -0.098  1.00  0.00    -0.003 C 
ATOM     65  C   UNL     1     -11.108  -1.261  -1.356  1.00  0.00     0.004 C 
ENDBRANCH  63  64
ENDBRANCH  62  63
ENDBRANCH  61  62
ENDBRANCH  58  61
ENDBRANCH  56  57
BRANCH  56  66
ATOM     66  C   UNL     1      -5.428   1.655   3.056  1.00  0.00     0.157 C 
BRANCH  66  67
ATOM     67  C   UNL     1      -5.770   0.952   4.339  1.00  0.00     0.305 C 
ATOM     68  O   UNL     1      -6.581   1.312   5.178  1.00  0.00    -0.252 OA
BRANCH  67  69
ATOM     69  O   UNL     1      -5.103  -0.210   4.479  1.00  0.00    -0.481 OA
ATOM     70  H   UNL     1      -5.511  -0.813   3.822  1.00  0.00     0.296 HD
ENDBRANCH  67  69
ENDBRANCH  66  67
ENDBRANCH  56  66
ENDBRANCH  53  56
ENDBRANCH  50  52
ENDBRANCH  47  50
ENDBRANCH  45  46
BRANCH  45  71
ATOM     71  C   UNL     1      -1.537   1.284  -2.858  1.00  0.00     0.037 C 
BRANCH  71  72
ATOM     72  C   UNL     1      -1.876   1.666  -4.301  1.00  0.00     0.026 C 
BRANCH  72  73
ATOM     73  C   UNL     1      -2.893   0.704  -4.911  1.00  0.00     0.146 C 
BRANCH  73  74
ATOM     74  N   UNL     1      -2.869   0.887  -6.359  1.00  0.00    -0.254 NA
ATOM     75  C   UNL     1      -2.494  -0.103  -7.081  1.00  0.00     0.185 C 
ATOM     76  N   UNL     1      -2.462   0.034  -8.417  1.00  0.00    -0.370 N 
ATOM     77  N   UNL     1      -2.104  -1.331  -6.696  1.00  0.00    -0.370 N 
ATOM     78  H   UNL     1      -2.734   0.932  -8.791  1.00  0.00     0.159 HD
ATOM     79  H   UNL     1      -2.045  -0.641  -9.033  1.00  0.00     0.159 HD
ATOM     80  H   UNL     1      -2.082  -1.579  -5.718  1.00  0.00     0.159 HD
ATOM     81  H   UNL     1      -1.941  -2.067  -7.363  1.00  0.00     0.159 HD
ENDBRANCH  73  74
ENDBRANCH  72  73
ENDBRANCH  71  72
ENDBRANCH  45  71
ENDBRANCH   3  45
TORSDOF 20
ENDMDL
MODEL 42
REMARK VINA RESULT:    -4.723      5.605      9.369
REMARK INTER + INTRA:         -20.961
REMARK INTER:                 -15.423
REMARK INTRA:                  -5.538
REMARK UNBOUND:                -7.402
REMARK SMILES CCCCCC(=O)N[C@H](CC(=O)O)C(=O)N[C@H]1C(=O)N[C@H](CCCN=C(N)N)C(=O)N[C@@H]2CC[C@H](O)N(C2=O)[C@@H](CC(C)C)C(=O)N(C)[C@@H](Cc2ccccc2)C(=O)N[C@H](C(C)C)C(=O)O[C@@H]1C
REMARK SMILES IDX 30 1 31 2 29 3 32 5 35 6 37 7 34 8 38 9 33 10 39 11 36 12
REMARK SMILES IDX 40 14 41 15 42 16 43 17 44 18 45 19 46 20 47 21 48 22 49 23
REMARK SMILES IDX 50 24 51 25 52 26 56 27 53 28 55 29 54 30 57 31 58 32 59 33
REMARK SMILES IDX 60 35 61 36 62 37 63 38 64 39 65 40 66 41 67 42 68 43 21 45
REMARK SMILES IDX 20 46 18 47 19 48 17 50 16 52 14 53 15 54 9 56 8 57 6 58
REMARK SMILES IDX 7 59 5 61 4 62 3 63 2 64 1 65 10 66 11 67 12 68 13 69 22 71
REMARK SMILES IDX 23 72 24 73 25 74 26 75 27 76 28 77
REMARK H PARENT 31 4 36 13 59 34 20 49 16 55 8 60 13 70 27 78 27 79 28 80
REMARK H PARENT 28 81
REMARK Flexibility Score:  259.900
ROOT
ATOM      1  O   UNL     1       4.714   3.328   5.232  1.00  0.00    -0.273 OA
ATOM      2  N   UNL     1       2.993   2.415   6.430  1.00  0.00    -0.343 N 
ATOM      3  C   UNL     1       4.105   2.331   5.620  1.00  0.00     0.243 C 
ATOM      4  H   UNL     1       2.526   1.573   6.743  1.00  0.00     0.164 HD
ENDROOT
BRANCH   2   5
ATOM      5  C   UNL     1       2.416   3.712   6.766  1.00  0.00     0.171 C 
ATOM      6  C   UNL     1       0.988   4.683   9.095  1.00  0.00     0.214 C 
ATOM      7  N   UNL     1       0.247   4.118   7.992  1.00  0.00    -0.303 N 
ATOM      8  C   UNL     1       2.285   5.352   8.668  1.00  0.00     0.057 C 
ATOM      9  C   UNL     1       0.869   3.590   6.872  1.00  0.00     0.247 C 
ATOM     10  C   UNL     1       3.158   4.356   7.936  1.00  0.00     0.040 C 
ATOM     11  O   UNL     1       0.232   3.029   5.971  1.00  0.00    -0.272 OA
BRANCH   6  12
ATOM     12  O   UNL     1       1.247   3.648  10.015  1.00  0.00    -0.373 OA
ATOM     13  H   UNL     1       2.157   3.786  10.354  1.00  0.00     0.213 HD
ENDBRANCH   6  12
BRANCH   7  14
ATOM     14  C   UNL     1      -1.216   3.987   8.164  1.00  0.00     0.177 C 
BRANCH  14  15
ATOM     15  C   UNL     1      -1.672   2.778   9.004  1.00  0.00     0.038 C 
BRANCH  15  16
ATOM     16  C   UNL     1      -2.850   1.909   8.510  1.00  0.00    -0.015 C 
ATOM     17  C   UNL     1      -3.890   1.657   9.606  1.00  0.00     0.007 C 
ATOM     18  C   UNL     1      -2.326   0.552   8.024  1.00  0.00     0.007 C 
ENDBRANCH  15  16
ENDBRANCH  14  15
BRANCH  14  19
ATOM     19  C   UNL     1      -1.891   5.401   8.169  1.00  0.00     0.245 C 
ATOM     20  O   UNL     1      -1.167   6.368   7.878  1.00  0.00    -0.272 OA
BRANCH  19  21
ATOM     21  N   UNL     1      -3.192   5.633   8.580  1.00  0.00    -0.332 N 
ATOM     22  C   UNL     1      -3.696   5.443   9.928  1.00  0.00     0.147 C 
BRANCH  21  23
ATOM     23  C   UNL     1      -4.170   6.107   7.562  1.00  0.00     0.178 C 
BRANCH  23  24
ATOM     24  C   UNL     1      -5.378   5.174   7.343  1.00  0.00     0.070 C 
BRANCH  24  25
ATOM     25  C   UNL     1      -5.142   3.922   6.530  1.00  0.00    -0.045 A 
ATOM     26  C   UNL     1      -6.013   2.830   6.625  1.00  0.00     0.004 A 
ATOM     27  C   UNL     1      -4.039   3.837   5.667  1.00  0.00     0.004 A 
ATOM     28  C   UNL     1      -5.779   1.670   5.883  1.00  0.00     0.000 A 
ATOM     29  C   UNL     1      -3.807   2.678   4.924  1.00  0.00     0.000 A 
ATOM     30  C   UNL     1      -4.676   1.594   5.035  1.00  0.00     0.000 A 
ENDBRANCH  24  25
ENDBRANCH  23  24
BRANCH  23  31
ATOM     31  C   UNL     1      -4.524   7.606   7.717  1.00  0.00     0.243 C 
ATOM     32  O   UNL     1      -3.817   8.421   8.303  1.00  0.00    -0.273 OA
ATOM     33  N   UNL     1      -5.805   7.918   7.294  1.00  0.00    -0.341 N 
ATOM     34  H   UNL     1      -6.348   7.194   6.817  1.00  0.00     0.164 HD
BRANCH  33  35
ATOM     35  C   UNL     1      -6.397   9.249   7.455  1.00  0.00     0.194 C 
BRANCH  35  36
ATOM     36  C   UNL     1      -7.682   9.270   8.330  1.00  0.00     0.017 C 
ATOM     37  C   UNL     1      -7.349   9.547   9.806  1.00  0.00     0.010 C 
ATOM     38  C   UNL     1      -8.472   7.957   8.276  1.00  0.00     0.010 C 
ENDBRANCH  35  36
BRANCH  35  39
ATOM     39  C   UNL     1      -6.606   9.977   6.098  1.00  0.00     0.329 C 
ATOM     40  O   UNL     1      -5.802   9.951   5.174  1.00  0.00    -0.250 OA
BRANCH  39  41
ATOM     41  O   UNL     1      -7.830  10.583   6.016  1.00  0.00    -0.458 OA
BRANCH  41  42
ATOM     42  C   UNL     1      -7.829  11.984   5.652  1.00  0.00     0.205 CG0
ATOM     43  C   UNL     1      -8.894  12.674   6.502  1.00  0.00     0.056 C 
ATOM     44  G   UNL     1      -8.113  12.100   4.142  1.00  0.00     0.000 G0
ENDBRANCH  41  42
ENDBRANCH  39  41
ENDBRANCH  35  39
ENDBRANCH  33  35
ENDBRANCH  23  31
ENDBRANCH  21  23
ENDBRANCH  19  21
ENDBRANCH  14  19
ENDBRANCH   7  14
ENDBRANCH   2   5
BRANCH   3  45
ATOM     45  C   UNL     1       4.545   0.907   5.254  1.00  0.00     0.171 C 
BRANCH  45  46
ATOM     46  N   UNL     1       5.976   0.855   5.522  1.00  0.00    -0.342 N 
ATOM     47  C   UNL     1       6.573  -0.220   6.131  1.00  0.00     0.247 C 
ATOM     48  O   UNL     1       5.959  -1.245   6.428  1.00  0.00    -0.273 OA
ATOM     49  H   UNL     1       6.531   1.661   5.240  1.00  0.00     0.164 HD
BRANCH  47  50
ATOM     50  C   UNL     1       8.066  -0.043   6.443  1.00  0.00     0.212 CG0
ATOM     51  G   UNL     1       8.201   0.191   7.961  1.00  0.00     0.000 G0
BRANCH  50  52
ATOM     52  N   UNL     1       8.707  -1.275   5.990  1.00  0.00    -0.339 N 
ATOM     53  C   UNL     1       9.903  -1.732   6.488  1.00  0.00     0.243 C 
ATOM     54  O   UNL     1      10.555  -1.108   7.320  1.00  0.00    -0.273 OA
ATOM     55  H   UNL     1       8.270  -1.780   5.221  1.00  0.00     0.164 HD
BRANCH  53  56
ATOM     56  C   UNL     1      10.425  -3.007   5.795  1.00  0.00     0.182 C 
BRANCH  56  57
ATOM     57  N   UNL     1      10.363  -4.160   6.698  1.00  0.00    -0.344 N 
ATOM     58  C   UNL     1       9.507  -5.213   6.489  1.00  0.00     0.220 C 
ATOM     59  O   UNL     1       8.686  -5.231   5.578  1.00  0.00    -0.275 OA
ATOM     60  H   UNL     1      11.092  -4.232   7.403  1.00  0.00     0.164 HD
BRANCH  58  61
ATOM     61  C   UNL     1       9.655  -6.322   7.515  1.00  0.00     0.100 C 
BRANCH  61  62
ATOM     62  C   UNL     1       9.710  -7.723   6.906  1.00  0.00     0.010 C 
BRANCH  62  63
ATOM     63  C   UNL     1      10.953  -8.530   7.300  1.00  0.00     0.000 C 
BRANCH  63  64
ATOM     64  C   UNL     1      12.044  -7.708   7.985  1.00  0.00    -0.003 C 
ATOM     65  C   UNL     1      13.345  -7.748   7.198  1.00  0.00     0.004 C 
ENDBRANCH  63  64
ENDBRANCH  62  63
ENDBRANCH  61  62
ENDBRANCH  58  61
ENDBRANCH  56  57
BRANCH  56  66
ATOM     66  C   UNL     1      11.825  -2.798   5.220  1.00  0.00     0.157 C 
BRANCH  66  67
ATOM     67  C   UNL     1      12.883  -3.207   6.205  1.00  0.00     0.305 C 
ATOM     68  O   UNL     1      13.267  -4.342   6.439  1.00  0.00    -0.252 OA
BRANCH  67  69
ATOM     69  O   UNL     1      13.449  -2.148   6.816  1.00  0.00    -0.481 OA
ATOM     70  H   UNL     1      13.712  -1.549   6.086  1.00  0.00     0.296 HD
ENDBRANCH  67  69
ENDBRANCH  66  67
ENDBRANCH  56  66
ENDBRANCH  53  56
ENDBRANCH  50  52
ENDBRANCH  47  50
ENDBRANCH  45  46
BRANCH  45  71
ATOM     71  C   UNL     1       4.234   0.614   3.782  1.00  0.00     0.037 C 
BRANCH  71  72
ATOM     72  C   UNL     1       3.364  -0.635   3.615  1.00  0.00     0.026 C 
BRANCH  72  73
ATOM     73  C   UNL     1       2.170  -0.368   2.702  1.00  0.00     0.146 C 
BRANCH  73  74
ATOM     74  N   UNL     1       1.145   0.307   3.492  1.00  0.00    -0.254 NA
ATOM     75  C   UNL     1       0.292   1.036   2.871  1.00  0.00     0.185 C 
ATOM     76  N   UNL     1      -0.664   1.668   3.571  1.00  0.00    -0.370 N 
ATOM     77  N   UNL     1       0.194   1.284   1.553  1.00  0.00    -0.370 N 
ATOM     78  H   UNL     1      -0.657   1.541   4.573  1.00  0.00     0.159 HD
ATOM     79  H   UNL     1      -1.270   2.365   3.175  1.00  0.00     0.159 HD
ATOM     80  H   UNL     1       0.845   0.871   0.903  1.00  0.00     0.159 HD
ATOM     81  H   UNL     1      -0.591   1.783   1.167  1.00  0.00     0.159 HD
ENDBRANCH  73  74
ENDBRANCH  72  73
ENDBRANCH  71  72
ENDBRANCH  45  71
ENDBRANCH   3  45
TORSDOF 20
ENDMDL
MODEL 43
REMARK VINA RESULT:    -4.715      6.543     12.778
REMARK INTER + INTRA:         -20.938
REMARK INTER:                 -16.227
REMARK INTRA:                  -4.711
REMARK UNBOUND:                -7.402
REMARK SMILES CCCCCC(=O)N[C@H](CC(=O)O)C(=O)N[C@H]1C(=O)N[C@H](CCCN=C(N)N)C(=O)N[C@@H]2CC[C@H](O)N(C2=O)[C@@H](CC(C)C)C(=O)N(C)[C@@H](Cc2ccccc2)C(=O)N[C@H](C(C)C)C(=O)O[C@@H]1C
REMARK SMILES IDX 30 1 31 2 29 3 32 5 35 6 37 7 34 8 38 9 33 10 39 11 36 12
REMARK SMILES IDX 40 14 41 15 42 16 43 17 44 18 45 19 46 20 47 21 48 22 49 23
REMARK SMILES IDX 50 24 51 25 52 26 56 27 53 28 55 29 54 30 57 31 58 32 59 33
REMARK SMILES IDX 60 35 61 36 62 37 63 38 64 39 65 40 66 41 67 42 68 43 21 45
REMARK SMILES IDX 20 46 18 47 19 48 17 50 16 52 14 53 15 54 9 56 8 57 6 58
REMARK SMILES IDX 7 59 5 61 4 62 3 63 2 64 1 65 10 66 11 67 12 68 13 69 22 71
REMARK SMILES IDX 23 72 24 73 25 74 26 75 27 76 28 77
REMARK H PARENT 31 4 36 13 59 34 20 49 16 55 8 60 13 70 27 78 27 79 28 80
REMARK H PARENT 28 81
REMARK Flexibility Score:  259.900
ROOT
ATOM      1  O   UNL     1      -2.081   0.290  -0.682  1.00  0.00    -0.273 OA
ATOM      2  N   UNL     1      -0.948   2.059   0.222  1.00  0.00    -0.343 N 
ATOM      3  C   UNL     1      -1.686   1.453  -0.772  1.00  0.00     0.243 C 
ATOM      4  H   UNL     1      -0.652   3.022   0.120  1.00  0.00     0.164 HD
ENDROOT
BRANCH   2   5
ATOM      5  C   UNL     1      -0.500   1.298   1.383  1.00  0.00     0.171 C 
ATOM      6  C   UNL     1       1.667   1.688   3.270  1.00  0.00     0.214 C 
ATOM      7  N   UNL     1       1.892   0.897   2.082  1.00  0.00    -0.303 N 
ATOM      8  C   UNL     1       0.231   1.632   3.766  1.00  0.00     0.057 C 
ATOM      9  C   UNL     1       0.916   0.713   1.116  1.00  0.00     0.247 C 
ATOM     10  C   UNL     1      -0.708   2.092   2.672  1.00  0.00     0.040 C 
ATOM     11  O   UNL     1       1.144   0.107   0.061  1.00  0.00    -0.272 OA
BRANCH   6  12
ATOM     12  O   UNL     1       2.036   3.016   2.979  1.00  0.00    -0.373 OA
ATOM     13  H   UNL     1       2.514   3.000   2.122  1.00  0.00     0.213 HD
ENDBRANCH   6  12
BRANCH   7  14
ATOM     14  C   UNL     1       3.267   0.401   1.858  1.00  0.00     0.177 C 
BRANCH  14  15
ATOM     15  C   UNL     1       4.232   1.415   1.214  1.00  0.00     0.038 C 
BRANCH  15  16
ATOM     16  C   UNL     1       3.688   2.449   0.203  1.00  0.00    -0.015 C 
ATOM     17  C   UNL     1       3.950   2.040  -1.249  1.00  0.00     0.007 C 
ATOM     18  C   UNL     1       4.351   3.811   0.446  1.00  0.00     0.007 C 
ENDBRANCH  15  16
ENDBRANCH  14  15
BRANCH  14  19
ATOM     19  C   UNL     1       3.653  -0.647   2.957  1.00  0.00     0.245 C 
ATOM     20  O   UNL     1       2.731  -1.341   3.417  1.00  0.00    -0.272 OA
BRANCH  19  21
ATOM     21  N   UNL     1       4.918  -0.757   3.507  1.00  0.00    -0.332 N 
ATOM     22  C   UNL     1       5.530   0.200   4.411  1.00  0.00     0.147 C 
BRANCH  21  23
ATOM     23  C   UNL     1       5.735  -1.947   3.141  1.00  0.00     0.178 C 
BRANCH  23  24
ATOM     24  C   UNL     1       6.461  -1.839   1.785  1.00  0.00     0.070 C 
BRANCH  24  25
ATOM     25  C   UNL     1       5.936  -2.691   0.653  1.00  0.00    -0.045 A 
ATOM     26  C   UNL     1       6.512  -3.935   0.364  1.00  0.00     0.004 A 
ATOM     27  C   UNL     1       4.862  -2.243  -0.130  1.00  0.00     0.004 A 
ATOM     28  C   UNL     1       6.032  -4.709  -0.694  1.00  0.00     0.000 A 
ATOM     29  C   UNL     1       4.382  -3.019  -1.187  1.00  0.00     0.000 A 
ATOM     30  C   UNL     1       4.970  -4.250  -1.470  1.00  0.00     0.000 A 
ENDBRANCH  24  25
ENDBRANCH  23  24
BRANCH  23  31
ATOM     31  C   UNL     1       6.610  -2.461   4.310  1.00  0.00     0.243 C 
ATOM     32  O   UNL     1       6.158  -2.913   5.359  1.00  0.00    -0.273 OA
ATOM     33  N   UNL     1       7.959  -2.198   4.148  1.00  0.00    -0.341 N 
ATOM     34  H   UNL     1       8.275  -1.815   3.253  1.00  0.00     0.164 HD
BRANCH  33  35
ATOM     35  C   UNL     1       8.959  -2.488   5.180  1.00  0.00     0.194 C 
BRANCH  35  36
ATOM     36  C   UNL     1       9.780  -1.248   5.634  1.00  0.00     0.017 C 
ATOM     37  C   UNL     1      10.706  -1.592   6.814  1.00  0.00     0.010 C 
ATOM     38  C   UNL     1       8.903  -0.067   6.067  1.00  0.00     0.010 C 
ENDBRANCH  35  36
BRANCH  35  39
ATOM     39  C   UNL     1       9.875  -3.685   4.804  1.00  0.00     0.329 C 
ATOM     40  O   UNL     1      10.780  -3.625   3.979  1.00  0.00    -0.250 OA
BRANCH  39  41
ATOM     41  O   UNL     1       9.617  -4.795   5.561  1.00  0.00    -0.458 OA
BRANCH  41  42
ATOM     42  C   UNL     1      10.363  -5.989   5.224  1.00  0.00     0.205 CG0
ATOM     43  C   UNL     1       9.587  -7.181   5.777  1.00  0.00     0.056 C 
ATOM     44  G   UNL     1      11.776  -5.873   5.829  1.00  0.00     0.000 G0
ENDBRANCH  41  42
ENDBRANCH  39  41
ENDBRANCH  35  39
ENDBRANCH  33  35
ENDBRANCH  23  31
ENDBRANCH  21  23
ENDBRANCH  19  21
ENDBRANCH  14  19
ENDBRANCH   7  14
ENDBRANCH   2   5
BRANCH   3  45
ATOM     45  C   UNL     1      -1.999   2.334  -1.989  1.00  0.00     0.171 C 
BRANCH  45  46
ATOM     46  N   UNL     1      -3.414   2.663  -1.883  1.00  0.00    -0.342 N 
ATOM     47  C   UNL     1      -3.890   3.586  -0.987  1.00  0.00     0.247 C 
ATOM     48  O   UNL     1      -3.154   4.255  -0.261  1.00  0.00    -0.273 OA
ATOM     49  H   UNL     1      -4.053   2.173  -2.506  1.00  0.00     0.164 HD
BRANCH  47  50
ATOM     50  C   UNL     1      -5.420   3.710  -0.933  1.00  0.00     0.212 CG0
ATOM     51  G   UNL     1      -5.965   3.389  -2.338  1.00  0.00     0.000 G0
BRANCH  50  52
ATOM     52  N   UNL     1      -5.852   2.757   0.086  1.00  0.00    -0.339 N 
ATOM     53  C   UNL     1      -6.011   1.414  -0.155  1.00  0.00     0.243 C 
ATOM     54  O   UNL     1      -5.852   0.917  -1.267  1.00  0.00    -0.273 OA
ATOM     55  H   UNL     1      -6.106   3.125   1.000  1.00  0.00     0.164 HD
BRANCH  53  56
ATOM     56  C   UNL     1      -6.558   0.621   1.049  1.00  0.00     0.182 C 
BRANCH  56  57
ATOM     57  N   UNL     1      -7.828  -0.033   0.715  1.00  0.00    -0.344 N 
ATOM     58  C   UNL     1      -8.021  -1.385   0.862  1.00  0.00     0.220 C 
ATOM     59  O   UNL     1      -7.127  -2.148   1.210  1.00  0.00    -0.275 OA
ATOM     60  H   UNL     1      -8.621   0.573   0.522  1.00  0.00     0.164 HD
BRANCH  58  61
ATOM     61  C   UNL     1      -9.428  -1.833   0.513  1.00  0.00     0.100 C 
BRANCH  61  62
ATOM     62  C   UNL     1     -10.441  -0.690   0.449  1.00  0.00     0.010 C 
BRANCH  62  63
ATOM     63  C   UNL     1     -11.739  -0.958   1.220  1.00  0.00     0.000 C 
BRANCH  63  64
ATOM     64  C   UNL     1     -12.045   0.068   2.310  1.00  0.00    -0.003 C 
ATOM     65  C   UNL     1     -10.783   0.480   3.054  1.00  0.00     0.004 C 
ENDBRANCH  63  64
ENDBRANCH  62  63
ENDBRANCH  61  62
ENDBRANCH  58  61
ENDBRANCH  56  57
BRANCH  56  66
ATOM     66  C   UNL     1      -6.671   1.499   2.293  1.00  0.00     0.157 C 
BRANCH  66  67
ATOM     67  C   UNL     1      -5.909   0.911   3.445  1.00  0.00     0.305 C 
ATOM     68  O   UNL     1      -5.414   1.518   4.383  1.00  0.00    -0.252 OA
BRANCH  67  69
ATOM     69  O   UNL     1      -5.852  -0.433   3.388  1.00  0.00    -0.481 OA
ATOM     70  H   UNL     1      -6.759  -0.733   3.608  1.00  0.00     0.296 HD
ENDBRANCH  67  69
ENDBRANCH  66  67
ENDBRANCH  56  66
ENDBRANCH  53  56
ENDBRANCH  50  52
ENDBRANCH  47  50
ENDBRANCH  45  46
BRANCH  45  71
ATOM     71  C   UNL     1      -1.688   1.580  -3.287  1.00  0.00     0.037 C 
BRANCH  71  72
ATOM     72  C   UNL     1      -2.827   0.643  -3.695  1.00  0.00     0.026 C 
BRANCH  72  73
ATOM     73  C   UNL     1      -3.681   1.249  -4.807  1.00  0.00     0.146 C 
BRANCH  73  74
ATOM     74  N   UNL     1      -5.083   1.091  -4.432  1.00  0.00    -0.254 NA
ATOM     75  C   UNL     1      -5.960   1.119  -5.366  1.00  0.00     0.185 C 
ATOM     76  N   UNL     1      -7.257   0.974  -5.052  1.00  0.00    -0.370 N 
ATOM     77  N   UNL     1      -5.781   1.279  -6.689  1.00  0.00    -0.370 N 
ATOM     78  H   UNL     1      -7.481   0.856  -4.074  1.00  0.00     0.159 HD
ATOM     79  H   UNL     1      -8.006   1.129  -5.705  1.00  0.00     0.159 HD
ATOM     80  H   UNL     1      -4.854   1.395  -7.071  1.00  0.00     0.159 HD
ATOM     81  H   UNL     1      -6.539   1.168  -7.342  1.00  0.00     0.159 HD
ENDBRANCH  73  74
ENDBRANCH  72  73
ENDBRANCH  71  72
ENDBRANCH  45  71
ENDBRANCH   3  45
TORSDOF 20
ENDMDL
MODEL 44
REMARK VINA RESULT:    -4.668      2.533      5.402
REMARK INTER + INTRA:         -20.801
REMARK INTER:                 -16.263
REMARK INTRA:                  -4.538
REMARK UNBOUND:                -7.402
REMARK SMILES CCCCCC(=O)N[C@H](CC(=O)O)C(=O)N[C@H]1C(=O)N[C@H](CCCN=C(N)N)C(=O)N[C@@H]2CC[C@H](O)N(C2=O)[C@@H](CC(C)C)C(=O)N(C)[C@@H](Cc2ccccc2)C(=O)N[C@H](C(C)C)C(=O)O[C@@H]1C
REMARK SMILES IDX 30 1 31 2 29 3 32 5 35 6 37 7 34 8 38 9 33 10 39 11 36 12
REMARK SMILES IDX 40 14 41 15 42 16 43 17 44 18 45 19 46 20 47 21 48 22 49 23
REMARK SMILES IDX 50 24 51 25 52 26 56 27 53 28 55 29 54 30 57 31 58 32 59 33
REMARK SMILES IDX 60 35 61 36 62 37 63 38 64 39 65 40 66 41 67 42 68 43 21 45
REMARK SMILES IDX 20 46 18 47 19 48 17 50 16 52 14 53 15 54 9 56 8 57 6 58
REMARK SMILES IDX 7 59 5 61 4 62 3 63 2 64 1 65 10 66 11 67 12 68 13 69 22 71
REMARK SMILES IDX 23 72 24 73 25 74 26 75 27 76 28 77
REMARK H PARENT 31 4 36 13 59 34 20 49 16 55 8 60 13 70 27 78 27 79 28 80
REMARK H PARENT 28 81
REMARK Flexibility Score:  259.900
ROOT
ATOM      1  O   UNL     1       8.140  -1.315   1.966  1.00  0.00    -0.273 OA
ATOM      2  N   UNL     1       6.023  -1.336   2.830  1.00  0.00    -0.343 N 
ATOM      3  C   UNL     1       6.997  -1.773   1.958  1.00  0.00     0.243 C 
ATOM      4  H   UNL     1       5.097  -1.747   2.805  1.00  0.00     0.164 HD
ENDROOT
BRANCH   2   5
ATOM      5  C   UNL     1       6.278  -0.215   3.728  1.00  0.00     0.171 C 
ATOM      6  C   UNL     1       4.641   1.128   5.708  1.00  0.00     0.214 C 
ATOM      7  N   UNL     1       4.651   1.613   4.347  1.00  0.00    -0.303 N 
ATOM      8  C   UNL     1       5.949   0.475   6.124  1.00  0.00     0.057 C 
ATOM      9  C   UNL     1       5.370   0.987   3.341  1.00  0.00     0.247 C 
ATOM     10  C   UNL     1       6.271  -0.669   5.187  1.00  0.00     0.040 C 
ATOM     11  O   UNL     1       5.305   1.357   2.162  1.00  0.00    -0.272 OA
BRANCH   6  12
ATOM     12  O   UNL     1       3.574   0.216   5.832  1.00  0.00    -0.373 OA
ATOM     13  H   UNL     1       3.813  -0.410   6.548  1.00  0.00     0.213 HD
ENDBRANCH   6  12
BRANCH   7  14
ATOM     14  C   UNL     1       3.738   2.730   4.026  1.00  0.00     0.177 C 
BRANCH  14  15
ATOM     15  C   UNL     1       4.396   3.936   3.330  1.00  0.00     0.038 C 
BRANCH  15  16
ATOM     16  C   UNL     1       3.839   4.431   1.977  1.00  0.00    -0.015 C 
ATOM     17  C   UNL     1       4.933   4.588   0.916  1.00  0.00     0.007 C 
ATOM     18  C   UNL     1       3.154   5.791   2.164  1.00  0.00     0.007 C 
ENDBRANCH  15  16
ENDBRANCH  14  15
BRANCH  14  19
ATOM     19  C   UNL     1       2.297   2.187   3.730  1.00  0.00     0.245 C 
ATOM     20  O   UNL     1       2.218   1.049   3.239  1.00  0.00    -0.272 OA
BRANCH  19  21
ATOM     21  N   UNL     1       1.144   2.938   3.879  1.00  0.00    -0.332 N 
ATOM     22  C   UNL     1       0.388   3.544   2.798  1.00  0.00     0.147 C 
BRANCH  21  23
ATOM     23  C   UNL     1       0.632   3.160   5.259  1.00  0.00     0.178 C 
BRANCH  23  24
ATOM     24  C   UNL     1       0.754   1.941   6.197  1.00  0.00     0.070 C 
BRANCH  24  25
ATOM     25  C   UNL     1      -0.455   1.594   7.035  1.00  0.00    -0.045 A 
ATOM     26  C   UNL     1      -0.416   1.707   8.431  1.00  0.00     0.004 A 
ATOM     27  C   UNL     1      -1.636   1.148   6.423  1.00  0.00     0.004 A 
ATOM     28  C   UNL     1      -1.531   1.367   9.200  1.00  0.00     0.000 A 
ATOM     29  C   UNL     1      -2.750   0.810   7.193  1.00  0.00     0.000 A 
ATOM     30  C   UNL     1      -2.696   0.918   8.581  1.00  0.00     0.000 A 
ENDBRANCH  24  25
ENDBRANCH  23  24
BRANCH  23  31
ATOM     31  C   UNL     1       1.103   4.501   5.870  1.00  0.00     0.243 C 
ATOM     32  O   UNL     1       2.146   5.069   5.558  1.00  0.00    -0.273 OA
ATOM     33  N   UNL     1       0.334   4.921   6.942  1.00  0.00    -0.341 N 
ATOM     34  H   UNL     1      -0.522   4.404   7.158  1.00  0.00     0.164 HD
BRANCH  33  35
ATOM     35  C   UNL     1       0.663   6.101   7.748  1.00  0.00     0.194 C 
BRANCH  35  36
ATOM     36  C   UNL     1       1.368   5.773   9.094  1.00  0.00     0.017 C 
ATOM     37  C   UNL     1       2.079   7.010   9.668  1.00  0.00     0.010 C 
ATOM     38  C   UNL     1       2.413   4.657   8.973  1.00  0.00     0.010 C 
ENDBRANCH  35  36
BRANCH  35  39
ATOM     39  C   UNL     1      -0.554   7.048   7.945  1.00  0.00     0.329 C 
ATOM     40  O   UNL     1      -1.475   6.829   8.723  1.00  0.00    -0.250 OA
BRANCH  39  41
ATOM     41  O   UNL     1      -0.439   8.200   7.217  1.00  0.00    -0.458 OA
BRANCH  41  42
ATOM     42  C   UNL     1      -1.367   9.261   7.546  1.00  0.00     0.205 CG0
ATOM     43  C   UNL     1      -2.483   9.228   6.504  1.00  0.00     0.056 C 
ATOM     44  G   UNL     1      -0.602  10.600   7.547  1.00  0.00     0.000 G0
ENDBRANCH  41  42
ENDBRANCH  39  41
ENDBRANCH  35  39
ENDBRANCH  33  35
ENDBRANCH  23  31
ENDBRANCH  21  23
ENDBRANCH  19  21
ENDBRANCH  14  19
ENDBRANCH   7  14
ENDBRANCH   2   5
BRANCH   3  45
ATOM     45  C   UNL     1       6.565  -2.885   0.993  1.00  0.00     0.171 C 
BRANCH  45  46
ATOM     46  N   UNL     1       7.659  -3.847   0.986  1.00  0.00    -0.342 N 
ATOM     47  C   UNL     1       8.606  -3.878  -0.006  1.00  0.00     0.247 C 
ATOM     48  O   UNL     1       8.645  -3.052  -0.918  1.00  0.00    -0.273 OA
ATOM     49  H   UNL     1       7.697  -4.514   1.755  1.00  0.00     0.164 HD
BRANCH  47  50
ATOM     50  C   UNL     1       9.607  -5.038   0.087  1.00  0.00     0.212 CG0
ATOM     51  G   UNL     1      11.005  -4.477  -0.241  1.00  0.00     0.000 G0
BRANCH  50  52
ATOM     52  N   UNL     1       9.494  -5.542   1.453  1.00  0.00    -0.339 N 
ATOM     53  C   UNL     1      10.572  -5.955   2.198  1.00  0.00     0.243 C 
ATOM     54  O   UNL     1      11.715  -5.982   1.750  1.00  0.00    -0.273 OA
ATOM     55  H   UNL     1       8.559  -5.649   1.842  1.00  0.00     0.164 HD
BRANCH  53  56
ATOM     56  C   UNL     1      10.197  -6.528   3.580  1.00  0.00     0.182 C 
BRANCH  56  57
ATOM     57  N   UNL     1      10.070  -5.460   4.576  1.00  0.00    -0.344 N 
ATOM     58  C   UNL     1       8.922  -4.720   4.719  1.00  0.00     0.220 C 
ATOM     59  O   UNL     1       7.952  -4.850   3.979  1.00  0.00    -0.275 OA
ATOM     60  H   UNL     1      10.808  -5.388   5.272  1.00  0.00     0.164 HD
BRANCH  58  61
ATOM     61  C   UNL     1       8.994  -3.710   5.850  1.00  0.00     0.100 C 
BRANCH  61  62
ATOM     62  C   UNL     1       9.551  -2.351   5.427  1.00  0.00     0.010 C 
BRANCH  62  63
ATOM     63  C   UNL     1       9.654  -1.332   6.570  1.00  0.00     0.000 C 
BRANCH  63  64
ATOM     64  C   UNL     1       9.852   0.110   6.108  1.00  0.00    -0.003 C 
ATOM     65  C   UNL     1      10.689   0.177   4.838  1.00  0.00     0.004 C 
ENDBRANCH  63  64
ENDBRANCH  62  63
ENDBRANCH  61  62
ENDBRANCH  58  61
ENDBRANCH  56  57
BRANCH  56  66
ATOM     66  C   UNL     1      11.178  -7.614   4.021  1.00  0.00     0.157 C 
BRANCH  66  67
ATOM     67  C   UNL     1      11.939  -7.194   5.245  1.00  0.00     0.305 C 
ATOM     68  O   UNL     1      11.791  -7.619   6.381  1.00  0.00    -0.252 OA
BRANCH  67  69
ATOM     69  O   UNL     1      12.895  -6.287   4.968  1.00  0.00    -0.481 OA
ATOM     70  H   UNL     1      13.651  -6.538   5.539  1.00  0.00     0.296 HD
ENDBRANCH  67  69
ENDBRANCH  66  67
ENDBRANCH  56  66
ENDBRANCH  53  56
ENDBRANCH  50  52
ENDBRANCH  47  50
ENDBRANCH  45  46
BRANCH  45  71
ATOM     71  C   UNL     1       6.309  -2.309  -0.404  1.00  0.00     0.037 C 
BRANCH  71  72
ATOM     72  C   UNL     1       4.997  -2.818  -1.005  1.00  0.00     0.026 C 
BRANCH  72  73
ATOM     73  C   UNL     1       5.099  -4.287  -1.411  1.00  0.00     0.146 C 
BRANCH  73  74
ATOM     74  N   UNL     1       5.874  -4.357  -2.646  1.00  0.00    -0.254 NA
ATOM     75  C   UNL     1       6.486  -5.452  -2.908  1.00  0.00     0.185 C 
ATOM     76  N   UNL     1       7.206  -5.547  -4.037  1.00  0.00    -0.370 N 
ATOM     77  N   UNL     1       6.526  -6.589  -2.193  1.00  0.00    -0.370 N 
ATOM     78  H   UNL     1       7.235  -4.731  -4.631  1.00  0.00     0.159 HD
ATOM     79  H   UNL     1       7.825  -6.313  -4.237  1.00  0.00     0.159 HD
ATOM     80  H   UNL     1       6.026  -6.665  -1.320  1.00  0.00     0.159 HD
ATOM     81  H   UNL     1       6.948  -7.428  -2.557  1.00  0.00     0.159 HD
ENDBRANCH  73  74
ENDBRANCH  72  73
ENDBRANCH  71  72
ENDBRANCH  45  71
ENDBRANCH   3  45
TORSDOF 20
ENDMDL
MODEL 45
REMARK VINA RESULT:    -4.664      8.291     12.635
REMARK INTER + INTRA:         -20.792
REMARK INTER:                 -15.852
REMARK INTRA:                  -4.941
REMARK UNBOUND:                -7.402
REMARK SMILES CCCCCC(=O)N[C@H](CC(=O)O)C(=O)N[C@H]1C(=O)N[C@H](CCCN=C(N)N)C(=O)N[C@@H]2CC[C@H](O)N(C2=O)[C@@H](CC(C)C)C(=O)N(C)[C@@H](Cc2ccccc2)C(=O)N[C@H](C(C)C)C(=O)O[C@@H]1C
REMARK SMILES IDX 30 1 31 2 29 3 32 5 35 6 37 7 34 8 38 9 33 10 39 11 36 12
REMARK SMILES IDX 40 14 41 15 42 16 43 17 44 18 45 19 46 20 47 21 48 22 49 23
REMARK SMILES IDX 50 24 51 25 52 26 56 27 53 28 55 29 54 30 57 31 58 32 59 33
REMARK SMILES IDX 60 35 61 36 62 37 63 38 64 39 65 40 66 41 67 42 68 43 21 45
REMARK SMILES IDX 20 46 18 47 19 48 17 50 16 52 14 53 15 54 9 56 8 57 6 58
REMARK SMILES IDX 7 59 5 61 4 62 3 63 2 64 1 65 10 66 11 67 12 68 13 69 22 71
REMARK SMILES IDX 23 72 24 73 25 74 26 75 27 76 28 77
REMARK H PARENT 31 4 36 13 59 34 20 49 16 55 8 60 13 70 27 78 27 79 28 80
REMARK H PARENT 28 81
REMARK Flexibility Score:  259.900
ROOT
ATOM      1  O   UNL     1       5.905  -1.512 -10.826  1.00  0.00    -0.273 OA
ATOM      2  N   UNL     1       5.600   0.346  -9.528  1.00  0.00    -0.343 N 
ATOM      3  C   UNL     1       6.164  -0.333 -10.587  1.00  0.00     0.243 C 
ATOM      4  H   UNL     1       5.825   1.320  -9.371  1.00  0.00     0.164 HD
ENDROOT
BRANCH   2   5
ATOM      5  C   UNL     1       4.752  -0.351  -8.567  1.00  0.00     0.171 C 
ATOM      6  C   UNL     1       3.374   0.520  -6.170  1.00  0.00     0.214 C 
ATOM      7  N   UNL     1       4.717  -0.001  -6.067  1.00  0.00    -0.303 N 
ATOM      8  C   UNL     1       2.584  -0.076  -7.324  1.00  0.00     0.057 C 
ATOM      9  C   UNL     1       5.451  -0.387  -7.177  1.00  0.00     0.247 C 
ATOM     10  C   UNL     1       3.316   0.166  -8.626  1.00  0.00     0.040 C 
ATOM     11  O   UNL     1       6.631  -0.750  -7.089  1.00  0.00    -0.272 OA
BRANCH   6  12
ATOM     12  O   UNL     1       3.464   1.920  -6.306  1.00  0.00    -0.373 OA
ATOM     13  H   UNL     1       4.360   2.117  -6.653  1.00  0.00     0.213 HD
ENDBRANCH   6  12
BRANCH   7  14
ATOM     14  C   UNL     1       5.347   0.028  -4.730  1.00  0.00     0.177 C 
BRANCH  14  15
ATOM     15  C   UNL     1       5.349   1.404  -4.035  1.00  0.00     0.038 C 
BRANCH  15  16
ATOM     16  C   UNL     1       4.723   1.548  -2.630  1.00  0.00    -0.015 C 
ATOM     17  C   UNL     1       3.227   1.871  -2.687  1.00  0.00     0.007 C 
ATOM     18  C   UNL     1       5.429   2.672  -1.861  1.00  0.00     0.007 C 
ENDBRANCH  15  16
ENDBRANCH  14  15
BRANCH  14  19
ATOM     19  C   UNL     1       5.158  -1.351  -4.010  1.00  0.00     0.245 C 
ATOM     20  O   UNL     1       4.220  -2.064  -4.404  1.00  0.00    -0.272 OA
BRANCH  19  21
ATOM     21  N   UNL     1       5.894  -1.754  -2.910  1.00  0.00    -0.332 N 
ATOM     22  C   UNL     1       7.195  -1.233  -2.529  1.00  0.00     0.147 C 
BRANCH  21  23
ATOM     23  C   UNL     1       5.320  -2.818  -2.041  1.00  0.00     0.178 C 
BRANCH  23  24
ATOM     24  C   UNL     1       6.339  -3.863  -1.541  1.00  0.00     0.070 C 
BRANCH  24  25
ATOM     25  C   UNL     1       6.920  -4.805  -2.570  1.00  0.00    -0.045 A 
ATOM     26  C   UNL     1       6.093  -5.450  -3.499  1.00  0.00     0.004 A 
ATOM     27  C   UNL     1       8.300  -5.052  -2.604  1.00  0.00     0.004 A 
ATOM     28  C   UNL     1       6.635  -6.332  -4.436  1.00  0.00     0.000 A 
ATOM     29  C   UNL     1       8.841  -5.933  -3.542  1.00  0.00     0.000 A 
ATOM     30  C   UNL     1       8.007  -6.575  -4.455  1.00  0.00     0.000 A 
ENDBRANCH  24  25
ENDBRANCH  23  24
BRANCH  23  31
ATOM     31  C   UNL     1       4.370  -2.263  -0.953  1.00  0.00     0.243 C 
ATOM     32  O   UNL     1       3.149  -2.204  -1.072  1.00  0.00    -0.273 OA
ATOM     33  N   UNL     1       5.032  -1.660   0.104  1.00  0.00    -0.341 N 
ATOM     34  H   UNL     1       6.051  -1.737   0.146  1.00  0.00     0.164 HD
BRANCH  33  35
ATOM     35  C   UNL     1       4.336  -0.962   1.188  1.00  0.00     0.194 C 
BRANCH  35  36
ATOM     36  C   UNL     1       4.234   0.576   0.991  1.00  0.00     0.017 C 
ATOM     37  C   UNL     1       5.297   1.318   1.821  1.00  0.00     0.010 C 
ATOM     38  C   UNL     1       2.866   1.147   1.383  1.00  0.00     0.010 C 
ENDBRANCH  35  36
BRANCH  35  39
ATOM     39  C   UNL     1       4.893  -1.332   2.592  1.00  0.00     0.329 C 
ATOM     40  O   UNL     1       6.080  -1.519   2.831  1.00  0.00    -0.250 OA
BRANCH  39  41
ATOM     41  O   UNL     1       3.919  -1.342   3.552  1.00  0.00    -0.458 OA
BRANCH  41  42
ATOM     42  C   UNL     1       4.347  -1.046   4.902  1.00  0.00     0.205 CG0
ATOM     43  C   UNL     1       3.911   0.384   5.214  1.00  0.00     0.056 C 
ATOM     44  G   UNL     1       5.876  -1.227   4.984  1.00  0.00     0.000 G0
ENDBRANCH  41  42
ENDBRANCH  39  41
ENDBRANCH  35  39
ENDBRANCH  33  35
ENDBRANCH  23  31
ENDBRANCH  21  23
ENDBRANCH  19  21
ENDBRANCH  14  19
ENDBRANCH   7  14
ENDBRANCH   2   5
BRANCH   3  45
ATOM     45  C   UNL     1       7.121   0.490 -11.460  1.00  0.00     0.171 C 
BRANCH  45  46
ATOM     46  N   UNL     1       6.701   0.255 -12.835  1.00  0.00    -0.342 N 
ATOM     47  C   UNL     1       6.142   1.239 -13.612  1.00  0.00     0.247 C 
ATOM     48  O   UNL     1       6.023   2.404 -13.232  1.00  0.00    -0.273 OA
ATOM     49  H   UNL     1       6.834  -0.683 -13.208  1.00  0.00     0.164 HD
BRANCH  47  50
ATOM     50  C   UNL     1       5.647   0.775 -14.990  1.00  0.00     0.212 CG0
ATOM     51  G   UNL     1       5.640   2.004 -15.921  1.00  0.00     0.000 G0
BRANCH  50  52
ATOM     52  N   UNL     1       6.584  -0.263 -15.411  1.00  0.00    -0.339 N 
ATOM     53  C   UNL     1       6.399  -1.039 -16.530  1.00  0.00     0.243 C 
ATOM     54  O   UNL     1       5.398  -0.954 -17.236  1.00  0.00    -0.273 OA
ATOM     55  H   UNL     1       7.379  -0.457 -14.805  1.00  0.00     0.164 HD
BRANCH  53  56
ATOM     56  C   UNL     1       7.475  -2.126 -16.724  1.00  0.00     0.182 C 
BRANCH  56  57
ATOM     57  N   UNL     1       8.798  -1.527 -16.928  1.00  0.00    -0.344 N 
ATOM     58  C   UNL     1       9.944  -2.082 -16.413  1.00  0.00     0.220 C 
ATOM     59  O   UNL     1       9.935  -3.072 -15.690  1.00  0.00    -0.275 OA
ATOM     60  H   UNL     1       8.861  -0.768 -17.601  1.00  0.00     0.164 HD
BRANCH  58  61
ATOM     61  C   UNL     1      11.203  -1.327 -16.798  1.00  0.00     0.100 C 
BRANCH  61  62
ATOM     62  C   UNL     1      11.692  -0.356 -15.723  1.00  0.00     0.010 C 
BRANCH  62  63
ATOM     63  C   UNL     1      13.143  -0.585 -15.282  1.00  0.00     0.000 C 
BRANCH  63  64
ATOM     64  C   UNL     1      13.925   0.698 -15.008  1.00  0.00    -0.003 C 
ATOM     65  C   UNL     1      14.023   0.981 -13.516  1.00  0.00     0.004 C 
ENDBRANCH  63  64
ENDBRANCH  62  63
ENDBRANCH  61  62
ENDBRANCH  58  61
ENDBRANCH  56  57
BRANCH  56  66
ATOM     66  C   UNL     1       7.100  -3.090 -17.848  1.00  0.00     0.157 C 
BRANCH  66  67
ATOM     67  C   UNL     1       8.022  -2.941 -19.024  1.00  0.00     0.305 C 
ATOM     68  O   UNL     1       8.057  -2.010 -19.814  1.00  0.00    -0.252 OA
BRANCH  67  69
ATOM     69  O   UNL     1       8.900  -3.957 -19.118  1.00  0.00    -0.481 OA
ATOM     70  H   UNL     1       8.741  -4.501 -18.318  1.00  0.00     0.296 HD
ENDBRANCH  67  69
ENDBRANCH  66  67
ENDBRANCH  56  66
ENDBRANCH  53  56
ENDBRANCH  50  52
ENDBRANCH  47  50
ENDBRANCH  45  46
BRANCH  45  71
ATOM     71  C   UNL     1       8.570   0.047 -11.227  1.00  0.00     0.037 C 
BRANCH  71  72
ATOM     72  C   UNL     1       9.215  -0.502 -12.502  1.00  0.00     0.026 C 
BRANCH  72  73
ATOM     73  C   UNL     1       9.621  -1.965 -12.340  1.00  0.00     0.146 C 
BRANCH  73  74
ATOM     74  N   UNL     1      11.029  -2.082 -12.709  1.00  0.00    -0.254 NA
ATOM     75  C   UNL     1      11.897  -2.081 -11.766  1.00  0.00     0.185 C 
ATOM     76  N   UNL     1      13.200  -2.189 -12.075  1.00  0.00    -0.370 N 
ATOM     77  N   UNL     1      11.704  -1.986 -10.439  1.00  0.00    -0.370 N 
ATOM     78  H   UNL     1      13.434  -2.258 -13.055  1.00  0.00     0.159 HD
ATOM     79  H   UNL     1      13.940  -2.051 -11.409  1.00  0.00     0.159 HD
ATOM     80  H   UNL     1      10.773  -1.903 -10.061  1.00  0.00     0.159 HD
ATOM     81  H   UNL     1      12.459  -2.113  -9.785  1.00  0.00     0.159 HD
ENDBRANCH  73  74
ENDBRANCH  72  73
ENDBRANCH  71  72
ENDBRANCH  45  71
ENDBRANCH   3  45
TORSDOF 20
ENDMDL
MODEL 46
REMARK VINA RESULT:    -4.656      3.540      5.442
REMARK INTER + INTRA:         -20.767
REMARK INTER:                 -15.219
REMARK INTRA:                  -5.549
REMARK UNBOUND:                -7.402
REMARK SMILES CCCCCC(=O)N[C@H](CC(=O)O)C(=O)N[C@H]1C(=O)N[C@H](CCCN=C(N)N)C(=O)N[C@@H]2CC[C@H](O)N(C2=O)[C@@H](CC(C)C)C(=O)N(C)[C@@H](Cc2ccccc2)C(=O)N[C@H](C(C)C)C(=O)O[C@@H]1C
REMARK SMILES IDX 30 1 31 2 29 3 32 5 35 6 37 7 34 8 38 9 33 10 39 11 36 12
REMARK SMILES IDX 40 14 41 15 42 16 43 17 44 18 45 19 46 20 47 21 48 22 49 23
REMARK SMILES IDX 50 24 51 25 52 26 56 27 53 28 55 29 54 30 57 31 58 32 59 33
REMARK SMILES IDX 60 35 61 36 62 37 63 38 64 39 65 40 66 41 67 42 68 43 21 45
REMARK SMILES IDX 20 46 18 47 19 48 17 50 16 52 14 53 15 54 9 56 8 57 6 58
REMARK SMILES IDX 7 59 5 61 4 62 3 63 2 64 1 65 10 66 11 67 12 68 13 69 22 71
REMARK SMILES IDX 23 72 24 73 25 74 26 75 27 76 28 77
REMARK H PARENT 31 4 36 13 59 34 20 49 16 55 8 60 13 70 27 78 27 79 28 80
REMARK H PARENT 28 81
REMARK Flexibility Score:  259.900
ROOT
ATOM      1  O   UNL     1       9.774  -2.980   3.274  1.00  0.00    -0.273 OA
ATOM      2  N   UNL     1       7.721  -3.145   4.269  1.00  0.00    -0.343 N 
ATOM      3  C   UNL     1       8.822  -3.674   3.630  1.00  0.00     0.243 C 
ATOM      4  H   UNL     1       6.963  -3.749   4.561  1.00  0.00     0.164 HD
ENDROOT
BRANCH   2   5
ATOM      5  C   UNL     1       7.587  -1.703   4.445  1.00  0.00     0.171 C 
ATOM      6  C   UNL     1       5.356  -0.015   5.205  1.00  0.00     0.214 C 
ATOM      7  N   UNL     1       5.593  -0.292   3.807  1.00  0.00    -0.303 N 
ATOM      8  C   UNL     1       6.625  -0.017   6.043  1.00  0.00     0.057 C 
ATOM      9  C   UNL     1       6.610  -1.130   3.379  1.00  0.00     0.247 C 
ATOM     10  C   UNL     1       7.326  -1.351   5.908  1.00  0.00     0.040 C 
ATOM     11  O   UNL     1       6.753  -1.431   2.186  1.00  0.00    -0.272 OA
BRANCH   6  12
ATOM     12  O   UNL     1       4.447  -0.979   5.686  1.00  0.00    -0.373 OA
ATOM     13  H   UNL     1       4.483  -0.943   6.666  1.00  0.00     0.213 HD
ENDBRANCH   6  12
BRANCH   7  14
ATOM     14  C   UNL     1       4.609   0.242   2.842  1.00  0.00     0.177 C 
BRANCH  14  15
ATOM     15  C   UNL     1       3.524  -0.755   2.392  1.00  0.00     0.038 C 
BRANCH  15  16
ATOM     16  C   UNL     1       3.060  -0.762   0.919  1.00  0.00    -0.015 C 
ATOM     17  C   UNL     1       1.648  -1.332   0.754  1.00  0.00     0.007 C 
ATOM     18  C   UNL     1       4.022  -1.610   0.076  1.00  0.00     0.007 C 
ENDBRANCH  15  16
ENDBRANCH  14  15
BRANCH  14  19
ATOM     19  C   UNL     1       4.389   1.775   3.082  1.00  0.00     0.245 C 
ATOM     20  O   UNL     1       5.398   2.499   3.035  1.00  0.00    -0.272 OA
BRANCH  19  21
ATOM     21  N   UNL     1       3.176   2.332   3.445  1.00  0.00    -0.332 N 
ATOM     22  C   UNL     1       2.691   2.481   4.806  1.00  0.00     0.147 C 
BRANCH  21  23
ATOM     23  C   UNL     1       2.278   2.814   2.359  1.00  0.00     0.178 C 
BRANCH  23  24
ATOM     24  C   UNL     1       2.964   3.002   0.990  1.00  0.00     0.070 C 
BRANCH  24  25
ATOM     25  C   UNL     1       3.256   4.419   0.555  1.00  0.00    -0.045 A 
ATOM     26  C   UNL     1       4.573   4.851   0.356  1.00  0.00     0.004 A 
ATOM     27  C   UNL     1       2.206   5.326   0.349  1.00  0.00     0.004 A 
ATOM     28  C   UNL     1       4.836   6.168  -0.029  1.00  0.00     0.000 A 
ATOM     29  C   UNL     1       2.470   6.642  -0.037  1.00  0.00     0.000 A 
ATOM     30  C   UNL     1       3.785   7.062  -0.223  1.00  0.00     0.000 A 
ENDBRANCH  24  25
ENDBRANCH  23  24
BRANCH  23  31
ATOM     31  C   UNL     1       0.928   2.060   2.313  1.00  0.00     0.243 C 
ATOM     32  O   UNL     1       0.650   1.105   3.034  1.00  0.00    -0.273 OA
ATOM     33  N   UNL     1       0.119   2.438   1.255  1.00  0.00    -0.341 N 
ATOM     34  H   UNL     1       0.407   3.237   0.686  1.00  0.00     0.164 HD
BRANCH  33  35
ATOM     35  C   UNL     1      -1.152   1.777   0.945  1.00  0.00     0.194 C 
BRANCH  35  36
ATOM     36  C   UNL     1      -1.211   1.149  -0.476  1.00  0.00     0.017 C 
ATOM     37  C   UNL     1      -0.508   2.043  -1.512  1.00  0.00     0.010 C 
ATOM     38  C   UNL     1      -2.643   0.910  -0.972  1.00  0.00     0.010 C 
ENDBRANCH  35  36
BRANCH  35  39
ATOM     39  C   UNL     1      -2.382   2.683   1.231  1.00  0.00     0.329 C 
ATOM     40  O   UNL     1      -2.520   3.814   0.783  1.00  0.00    -0.250 OA
BRANCH  39  41
ATOM     41  O   UNL     1      -3.338   2.043   1.971  1.00  0.00    -0.458 OA
BRANCH  41  42
ATOM     42  C   UNL     1      -4.461   2.849   2.402  1.00  0.00     0.205 CG0
ATOM     43  C   UNL     1      -5.317   1.980   3.321  1.00  0.00     0.056 C 
ATOM     44  G   UNL     1      -5.232   3.324   1.154  1.00  0.00     0.000 G0
ENDBRANCH  41  42
ENDBRANCH  39  41
ENDBRANCH  35  39
ENDBRANCH  33  35
ENDBRANCH  23  31
ENDBRANCH  21  23
ENDBRANCH  19  21
ENDBRANCH  14  19
ENDBRANCH   7  14
ENDBRANCH   2   5
BRANCH   3  45
ATOM     45  C   UNL     1       8.787  -5.193   3.413  1.00  0.00     0.171 C 
BRANCH  45  46
ATOM     46  N   UNL     1      10.161  -5.580   3.118  1.00  0.00    -0.342 N 
ATOM     47  C   UNL     1      10.644  -6.837   3.379  1.00  0.00     0.247 C 
ATOM     48  O   UNL     1       9.937  -7.748   3.811  1.00  0.00    -0.273 OA
ATOM     49  H   UNL     1      10.766  -4.871   2.706  1.00  0.00     0.164 HD
BRANCH  47  50
ATOM     50  C   UNL     1      12.145  -7.024   3.118  1.00  0.00     0.212 CG0
ATOM     51  G   UNL     1      12.454  -8.531   3.223  1.00  0.00     0.000 G0
BRANCH  50  52
ATOM     52  N   UNL     1      12.380  -6.478   1.784  1.00  0.00    -0.339 N 
ATOM     53  C   UNL     1      13.446  -6.840   0.996  1.00  0.00     0.243 C 
ATOM     54  O   UNL     1      14.318  -7.616   1.378  1.00  0.00    -0.273 OA
ATOM     55  H   UNL     1      11.753  -5.746   1.456  1.00  0.00     0.164 HD
BRANCH  53  56
ATOM     56  C   UNL     1      13.533  -6.066  -0.335  1.00  0.00     0.182 C 
BRANCH  56  57
ATOM     57  N   UNL     1      12.206  -5.622  -0.773  1.00  0.00    -0.344 N 
ATOM     58  C   UNL     1      11.978  -4.360  -1.265  1.00  0.00     0.220 C 
ATOM     59  O   UNL     1      12.847  -3.496  -1.305  1.00  0.00    -0.275 OA
ATOM     60  H   UNL     1      11.485  -6.334  -0.853  1.00  0.00     0.164 HD
BRANCH  58  61
ATOM     61  C   UNL     1      10.545  -4.139  -1.713  1.00  0.00     0.100 C 
BRANCH  61  62
ATOM     62  C   UNL     1      10.412  -3.749  -3.185  1.00  0.00     0.010 C 
BRANCH  62  63
ATOM     63  C   UNL     1       9.247  -4.432  -3.913  1.00  0.00     0.000 C 
BRANCH  63  64
ATOM     64  C   UNL     1       8.951  -5.850  -3.428  1.00  0.00    -0.003 C 
ATOM     65  C   UNL     1       8.018  -6.580  -4.383  1.00  0.00     0.004 C 
ENDBRANCH  63  64
ENDBRANCH  62  63
ENDBRANCH  61  62
ENDBRANCH  58  61
ENDBRANCH  56  57
BRANCH  56  66
ATOM     66  C   UNL     1      14.252  -6.880  -1.409  1.00  0.00     0.157 C 
BRANCH  66  67
ATOM     67  C   UNL     1      13.284  -7.708  -2.204  1.00  0.00     0.305 C 
ATOM     68  O   UNL     1      12.591  -7.332  -3.137  1.00  0.00    -0.252 OA
BRANCH  67  69
ATOM     69  O   UNL     1      13.273  -8.997  -1.814  1.00  0.00    -0.481 OA
ATOM     70  H   UNL     1      13.419  -9.509  -2.637  1.00  0.00     0.296 HD
ENDBRANCH  67  69
ENDBRANCH  66  67
ENDBRANCH  56  66
ENDBRANCH  53  56
ENDBRANCH  50  52
ENDBRANCH  47  50
ENDBRANCH  45  46
BRANCH  45  71
ATOM     71  C   UNL     1       7.841  -5.546   2.260  1.00  0.00     0.037 C 
BRANCH  71  72
ATOM     72  C   UNL     1       8.032  -4.623   1.054  1.00  0.00     0.026 C 
BRANCH  72  73
ATOM     73  C   UNL     1       7.181  -5.069  -0.133  1.00  0.00     0.146 C 
BRANCH  73  74
ATOM     74  N   UNL     1       6.972  -3.908  -0.994  1.00  0.00    -0.254 NA
ATOM     75  C   UNL     1       6.133  -4.020  -1.956  1.00  0.00     0.185 C 
ATOM     76  N   UNL     1       5.919  -2.969  -2.764  1.00  0.00    -0.370 N 
ATOM     77  N   UNL     1       5.387  -5.081  -2.308  1.00  0.00    -0.370 N 
ATOM     78  H   UNL     1       6.447  -2.129  -2.573  1.00  0.00     0.159 HD
ATOM     79  H   UNL     1       5.391  -3.025  -3.618  1.00  0.00     0.159 HD
ATOM     80  H   UNL     1       5.441  -5.943  -1.786  1.00  0.00     0.159 HD
ATOM     81  H   UNL     1       4.674  -5.014  -3.016  1.00  0.00     0.159 HD
ENDBRANCH  73  74
ENDBRANCH  72  73
ENDBRANCH  71  72
ENDBRANCH  45  71
ENDBRANCH   3  45
TORSDOF 20
ENDMDL
MODEL 47
REMARK VINA RESULT:    -4.608      4.405     11.833
REMARK INTER + INTRA:         -20.629
REMARK INTER:                 -14.857
REMARK INTRA:                  -5.772
REMARK UNBOUND:                -7.402
REMARK SMILES CCCCCC(=O)N[C@H](CC(=O)O)C(=O)N[C@H]1C(=O)N[C@H](CCCN=C(N)N)C(=O)N[C@@H]2CC[C@H](O)N(C2=O)[C@@H](CC(C)C)C(=O)N(C)[C@@H](Cc2ccccc2)C(=O)N[C@H](C(C)C)C(=O)O[C@@H]1C
REMARK SMILES IDX 30 1 31 2 29 3 32 5 35 6 37 7 34 8 38 9 33 10 39 11 36 12
REMARK SMILES IDX 40 14 41 15 42 16 43 17 44 18 45 19 46 20 47 21 48 22 49 23
REMARK SMILES IDX 50 24 51 25 52 26 56 27 53 28 55 29 54 30 57 31 58 32 59 33
REMARK SMILES IDX 60 35 61 36 62 37 63 38 64 39 65 40 66 41 67 42 68 43 21 45
REMARK SMILES IDX 20 46 18 47 19 48 17 50 16 52 14 53 15 54 9 56 8 57 6 58
REMARK SMILES IDX 7 59 5 61 4 62 3 63 2 64 1 65 10 66 11 67 12 68 13 69 22 71
REMARK SMILES IDX 23 72 24 73 25 74 26 75 27 76 28 77
REMARK H PARENT 31 4 36 13 59 34 20 49 16 55 8 60 13 70 27 78 27 79 28 80
REMARK H PARENT 28 81
REMARK Flexibility Score:  259.900
ROOT
ATOM      1  O   UNL     1       5.038  -0.077   2.048  1.00  0.00    -0.273 OA
ATOM      2  N   UNL     1       6.447  -1.177   0.620  1.00  0.00    -0.343 N 
ATOM      3  C   UNL     1       5.226  -0.639   0.968  1.00  0.00     0.243 C 
ATOM      4  H   UNL     1       6.569  -1.619  -0.283  1.00  0.00     0.164 HD
ENDROOT
BRANCH   2   5
ATOM      5  C   UNL     1       7.546  -1.207   1.579  1.00  0.00     0.171 C 
ATOM      6  C   UNL     1      10.424  -1.359   1.265  1.00  0.00     0.214 C 
ATOM      7  N   UNL     1       9.658  -2.577   1.399  1.00  0.00    -0.303 N 
ATOM      8  C   UNL     1       9.802  -0.175   1.988  1.00  0.00     0.057 C 
ATOM      9  C   UNL     1       8.276  -2.578   1.502  1.00  0.00     0.247 C 
ATOM     10  C   UNL     1       8.397   0.058   1.477  1.00  0.00     0.040 C 
ATOM     11  O   UNL     1       7.621  -3.628   1.529  1.00  0.00    -0.272 OA
BRANCH   6  12
ATOM     12  O   UNL     1      10.555  -1.083  -0.110  1.00  0.00    -0.373 OA
ATOM     13  H   UNL     1      11.230  -1.700  -0.464  1.00  0.00     0.213 HD
ENDBRANCH   6  12
BRANCH   7  14
ATOM     14  C   UNL     1      10.398  -3.851   1.275  1.00  0.00     0.177 C 
BRANCH  14  15
ATOM     15  C   UNL     1      11.003  -4.126  -0.115  1.00  0.00     0.038 C 
BRANCH  15  16
ATOM     16  C   UNL     1      10.578  -5.391  -0.894  1.00  0.00    -0.015 C 
ATOM     17  C   UNL     1      11.761  -6.079  -1.581  1.00  0.00     0.007 C 
ATOM     18  C   UNL     1       9.549  -5.017  -1.968  1.00  0.00     0.007 C 
ENDBRANCH  15  16
ENDBRANCH  14  15
BRANCH  14  19
ATOM     19  C   UNL     1      11.061  -4.230   2.644  1.00  0.00     0.245 C 
ATOM     20  O   UNL     1      12.278  -4.006   2.756  1.00  0.00    -0.272 OA
BRANCH  19  21
ATOM     21  N   UNL     1      10.400  -4.888   3.666  1.00  0.00    -0.332 N 
ATOM     22  C   UNL     1       9.246  -5.754   3.502  1.00  0.00     0.147 C 
BRANCH  21  23
ATOM     23  C   UNL     1      10.896  -4.691   5.056  1.00  0.00     0.178 C 
BRANCH  23  24
ATOM     24  C   UNL     1       9.847  -4.142   6.044  1.00  0.00     0.070 C 
BRANCH  24  25
ATOM     25  C   UNL     1       9.645  -2.645   6.071  1.00  0.00    -0.045 A 
ATOM     26  C   UNL     1      10.503  -1.818   6.806  1.00  0.00     0.004 A 
ATOM     27  C   UNL     1       8.585  -2.062   5.360  1.00  0.00     0.004 A 
ATOM     28  C   UNL     1      10.299  -0.437   6.839  1.00  0.00     0.000 A 
ATOM     29  C   UNL     1       8.382  -0.681   5.394  1.00  0.00     0.000 A 
ATOM     30  C   UNL     1       9.238   0.130   6.136  1.00  0.00     0.000 A 
ENDBRANCH  24  25
ENDBRANCH  23  24
BRANCH  23  31
ATOM     31  C   UNL     1      11.718  -5.894   5.579  1.00  0.00     0.243 C 
ATOM     32  O   UNL     1      12.900  -6.087   5.309  1.00  0.00    -0.273 OA
ATOM     33  N   UNL     1      10.952  -6.843   6.235  1.00  0.00    -0.341 N 
ATOM     34  H   UNL     1       9.971  -6.627   6.426  1.00  0.00     0.164 HD
BRANCH  33  35
ATOM     35  C   UNL     1      11.496  -8.118   6.710  1.00  0.00     0.194 C 
BRANCH  35  36
ATOM     36  C   UNL     1      10.926  -9.365   5.977  1.00  0.00     0.017 C 
ATOM     37  C   UNL     1      11.975  -9.994   5.043  1.00  0.00     0.010 C 
ATOM     38  C   UNL     1       9.686  -9.053   5.130  1.00  0.00     0.010 C 
ENDBRANCH  35  36
BRANCH  35  39
ATOM     39  C   UNL     1      11.412  -8.265   8.255  1.00  0.00     0.329 C 
ATOM     40  O   UNL     1      11.516  -7.329   9.040  1.00  0.00    -0.250 OA
BRANCH  39  41
ATOM     41  O   UNL     1      11.123  -9.545   8.641  1.00  0.00    -0.458 OA
BRANCH  41  42
ATOM     42  C   UNL     1      12.088 -10.187   9.508  1.00  0.00     0.205 CG0
ATOM     43  C   UNL     1      13.240 -10.668   8.629  1.00  0.00     0.056 C 
ATOM     44  G   UNL     1      11.389 -11.344  10.250  1.00  0.00     0.000 G0
ENDBRANCH  41  42
ENDBRANCH  39  41
ENDBRANCH  35  39
ENDBRANCH  33  35
ENDBRANCH  23  31
ENDBRANCH  21  23
ENDBRANCH  19  21
ENDBRANCH  14  19
ENDBRANCH   7  14
ENDBRANCH   2   5
BRANCH   3  45
ATOM     45  C   UNL     1       4.125  -0.769  -0.092  1.00  0.00     0.171 C 
BRANCH  45  46
ATOM     46  N   UNL     1       3.635   0.584  -0.320  1.00  0.00    -0.342 N 
ATOM     47  C   UNL     1       3.214   1.017  -1.552  1.00  0.00     0.247 C 
ATOM     48  O   UNL     1       3.150   0.277  -2.534  1.00  0.00    -0.273 OA
ATOM     49  H   UNL     1       3.618   1.214   0.480  1.00  0.00     0.164 HD
BRANCH  47  50
ATOM     50  C   UNL     1       2.851   2.507  -1.628  1.00  0.00     0.212 CG0
ATOM     51  G   UNL     1       1.677   2.652  -2.616  1.00  0.00     0.000 G0
BRANCH  50  52
ATOM     52  N   UNL     1       2.508   2.895  -0.263  1.00  0.00    -0.339 N 
ATOM     53  C   UNL     1       1.301   3.452   0.084  1.00  0.00     0.243 C 
ATOM     54  O   UNL     1       0.433   3.717  -0.743  1.00  0.00    -0.273 OA
ATOM     55  H   UNL     1       3.229   2.803   0.450  1.00  0.00     0.164 HD
BRANCH  53  56
ATOM     56  C   UNL     1       1.201   3.859   1.568  1.00  0.00     0.182 C 
BRANCH  56  57
ATOM     57  N   UNL     1       2.294   3.271   2.350  1.00  0.00    -0.344 N 
ATOM     58  C   UNL     1       3.517   3.882   2.479  1.00  0.00     0.220 C 
ATOM     59  O   UNL     1       3.806   4.920   1.894  1.00  0.00    -0.275 OA
ATOM     60  H   UNL     1       2.065   2.468   2.930  1.00  0.00     0.164 HD
BRANCH  58  61
ATOM     61  C   UNL     1       4.475   3.124   3.380  1.00  0.00     0.100 C 
BRANCH  61  62
ATOM     62  C   UNL     1       4.541   3.670   4.807  1.00  0.00     0.010 C 
BRANCH  62  63
ATOM     63  C   UNL     1       4.132   5.143   4.935  1.00  0.00     0.000 C 
BRANCH  63  64
ATOM     64  C   UNL     1       3.139   5.423   6.062  1.00  0.00    -0.003 C 
ATOM     65  C   UNL     1       1.862   4.614   5.891  1.00  0.00     0.004 C 
ENDBRANCH  63  64
ENDBRANCH  62  63
ENDBRANCH  61  62
ENDBRANCH  58  61
ENDBRANCH  56  57
BRANCH  56  66
ATOM     66  C   UNL     1      -0.170   3.521   2.150  1.00  0.00     0.157 C 
BRANCH  66  67
ATOM     67  C   UNL     1      -0.391   2.036   2.197  1.00  0.00     0.305 C 
ATOM     68  O   UNL     1      -0.637   1.301   1.253  1.00  0.00    -0.252 OA
BRANCH  67  69
ATOM     69  O   UNL     1      -0.236   1.535   3.438  1.00  0.00    -0.481 OA
ATOM     70  H   UNL     1       0.098   2.287   3.971  1.00  0.00     0.296 HD
ENDBRANCH  67  69
ENDBRANCH  66  67
ENDBRANCH  56  66
ENDBRANCH  53  56
ENDBRANCH  50  52
ENDBRANCH  47  50
ENDBRANCH  45  46
BRANCH  45  71
ATOM     71  C   UNL     1       3.011  -1.697   0.407  1.00  0.00     0.037 C 
BRANCH  71  72
ATOM     72  C   UNL     1       1.944  -0.940   1.202  1.00  0.00     0.026 C 
BRANCH  72  73
ATOM     73  C   UNL     1       1.729  -1.559   2.581  1.00  0.00     0.146 C 
BRANCH  73  74
ATOM     74  N   UNL     1       1.767  -0.482   3.565  1.00  0.00    -0.254 NA
ATOM     75  C   UNL     1       2.758  -0.447   4.378  1.00  0.00     0.185 C 
ATOM     76  N   UNL     1       2.821   0.533   5.294  1.00  0.00    -0.370 N 
ATOM     77  N   UNL     1       3.807  -1.282   4.466  1.00  0.00    -0.370 N 
ATOM     78  H   UNL     1       2.065   1.202   5.301  1.00  0.00     0.159 HD
ATOM     79  H   UNL     1       3.483   0.542   6.049  1.00  0.00     0.159 HD
ATOM     80  H   UNL     1       3.895  -2.066   3.836  1.00  0.00     0.159 HD
ATOM     81  H   UNL     1       4.588  -1.088   5.072  1.00  0.00     0.159 HD
ENDBRANCH  73  74
ENDBRANCH  72  73
ENDBRANCH  71  72
ENDBRANCH  45  71
ENDBRANCH   3  45
TORSDOF 20
ENDMDL
MODEL 48
REMARK VINA RESULT:    -4.581      6.846     12.470
REMARK INTER + INTRA:         -20.551
REMARK INTER:                 -14.720
REMARK INTRA:                  -5.831
REMARK UNBOUND:                -7.402
REMARK SMILES CCCCCC(=O)N[C@H](CC(=O)O)C(=O)N[C@H]1C(=O)N[C@H](CCCN=C(N)N)C(=O)N[C@@H]2CC[C@H](O)N(C2=O)[C@@H](CC(C)C)C(=O)N(C)[C@@H](Cc2ccccc2)C(=O)N[C@H](C(C)C)C(=O)O[C@@H]1C
REMARK SMILES IDX 30 1 31 2 29 3 32 5 35 6 37 7 34 8 38 9 33 10 39 11 36 12
REMARK SMILES IDX 40 14 41 15 42 16 43 17 44 18 45 19 46 20 47 21 48 22 49 23
REMARK SMILES IDX 50 24 51 25 52 26 56 27 53 28 55 29 54 30 57 31 58 32 59 33
REMARK SMILES IDX 60 35 61 36 62 37 63 38 64 39 65 40 66 41 67 42 68 43 21 45
REMARK SMILES IDX 20 46 18 47 19 48 17 50 16 52 14 53 15 54 9 56 8 57 6 58
REMARK SMILES IDX 7 59 5 61 4 62 3 63 2 64 1 65 10 66 11 67 12 68 13 69 22 71
REMARK SMILES IDX 23 72 24 73 25 74 26 75 27 76 28 77
REMARK H PARENT 31 4 36 13 59 34 20 49 16 55 8 60 13 70 27 78 27 79 28 80
REMARK H PARENT 28 81
REMARK Flexibility Score:  259.900
ROOT
ATOM      1  O   UNL     1      -2.717   0.178  -0.976  1.00  0.00    -0.273 OA
ATOM      2  N   UNL     1      -1.881   2.194  -0.293  1.00  0.00    -0.343 N 
ATOM      3  C   UNL     1      -2.537   1.378  -1.188  1.00  0.00     0.243 C 
ATOM      4  H   UNL     1      -1.764   3.180  -0.495  1.00  0.00     0.164 HD
ENDROOT
BRANCH   2   5
ATOM      5  C   UNL     1      -1.261   1.637   0.904  1.00  0.00     0.171 C 
ATOM      6  C   UNL     1       0.747   2.654   2.732  1.00  0.00     0.214 C 
ATOM      7  N   UNL     1       1.157   1.871   1.590  1.00  0.00    -0.303 N 
ATOM      8  C   UNL     1      -0.633   2.281   3.252  1.00  0.00     0.057 C 
ATOM      9  C   UNL     1       0.255   1.398   0.650  1.00  0.00     0.247 C 
ATOM     10  C   UNL     1      -1.655   2.432   2.147  1.00  0.00     0.040 C 
ATOM     11  O   UNL     1       0.623   0.803  -0.371  1.00  0.00    -0.272 OA
BRANCH   6  12
ATOM     12  O   UNL     1       0.781   4.012   2.358  1.00  0.00    -0.373 OA
ATOM     13  H   UNL     1       0.978   4.040   1.398  1.00  0.00     0.213 HD
ENDBRANCH   6  12
BRANCH   7  14
ATOM     14  C   UNL     1       2.611   1.712   1.374  1.00  0.00     0.177 C 
BRANCH  14  15
ATOM     15  C   UNL     1       3.437   3.009   1.485  1.00  0.00     0.038 C 
BRANCH  15  16
ATOM     16  C   UNL     1       4.791   3.114   0.749  1.00  0.00    -0.015 C 
ATOM     17  C   UNL     1       5.983   2.910   1.687  1.00  0.00     0.007 C 
ATOM     18  C   UNL     1       4.921   4.498   0.099  1.00  0.00     0.007 C 
ENDBRANCH  15  16
ENDBRANCH  14  15
BRANCH  14  19
ATOM     19  C   UNL     1       3.080   0.295   1.852  1.00  0.00     0.245 C 
ATOM     20  O   UNL     1       3.353  -0.532   0.966  1.00  0.00    -0.272 OA
BRANCH  19  21
ATOM     21  N   UNL     1       3.095  -0.107   3.176  1.00  0.00    -0.332 N 
ATOM     22  C   UNL     1       2.134  -1.001   3.797  1.00  0.00     0.147 C 
BRANCH  21  23
ATOM     23  C   UNL     1       4.175   0.425   4.052  1.00  0.00     0.178 C 
BRANCH  23  24
ATOM     24  C   UNL     1       3.713   0.855   5.459  1.00  0.00     0.070 C 
BRANCH  24  25
ATOM     25  C   UNL     1       3.016   2.190   5.576  1.00  0.00    -0.045 A 
ATOM     26  C   UNL     1       3.614   3.357   5.082  1.00  0.00     0.004 A 
ATOM     27  C   UNL     1       1.758   2.281   6.189  1.00  0.00     0.004 A 
ATOM     28  C   UNL     1       2.971   4.590   5.210  1.00  0.00     0.000 A 
ATOM     29  C   UNL     1       1.116   3.514   6.315  1.00  0.00     0.000 A 
ATOM     30  C   UNL     1       1.725   4.668   5.827  1.00  0.00     0.000 A 
ENDBRANCH  24  25
ENDBRANCH  23  24
BRANCH  23  31
ATOM     31  C   UNL     1       5.456  -0.443   4.024  1.00  0.00     0.243 C 
ATOM     32  O   UNL     1       5.842  -1.066   3.039  1.00  0.00    -0.273 OA
ATOM     33  N   UNL     1       6.039  -0.609   5.269  1.00  0.00    -0.341 N 
ATOM     34  H   UNL     1       5.669  -0.067   6.054  1.00  0.00     0.164 HD
BRANCH  33  35
ATOM     35  C   UNL     1       7.190  -1.485   5.502  1.00  0.00     0.194 C 
BRANCH  35  36
ATOM     36  C   UNL     1       6.897  -2.681   6.451  1.00  0.00     0.017 C 
ATOM     37  C   UNL     1       7.730  -3.917   6.069  1.00  0.00     0.010 C 
ATOM     38  C   UNL     1       5.423  -3.104   6.452  1.00  0.00     0.010 C 
ENDBRANCH  35  36
BRANCH  35  39
ATOM     39  C   UNL     1       8.461  -0.701   5.933  1.00  0.00     0.329 C 
ATOM     40  O   UNL     1       8.474   0.157   6.807  1.00  0.00    -0.250 OA
BRANCH  39  41
ATOM     41  O   UNL     1       9.585  -1.137   5.287  1.00  0.00    -0.458 OA
BRANCH  41  42
ATOM     42  C   UNL     1      10.823  -1.062   6.033  1.00  0.00     0.205 CG0
ATOM     43  C   UNL     1      11.946  -0.815   5.027  1.00  0.00     0.056 C 
ATOM     44  G   UNL     1      11.008  -2.379   6.812  1.00  0.00     0.000 G0
ENDBRANCH  41  42
ENDBRANCH  39  41
ENDBRANCH  35  39
ENDBRANCH  33  35
ENDBRANCH  23  31
ENDBRANCH  21  23
ENDBRANCH  19  21
ENDBRANCH  14  19
ENDBRANCH   7  14
ENDBRANCH   2   5
BRANCH   3  45
ATOM     45  C   UNL     1      -3.048   2.071  -2.458  1.00  0.00     0.171 C 
BRANCH  45  46
ATOM     46  N   UNL     1      -4.458   2.345  -2.218  1.00  0.00    -0.342 N 
ATOM     47  C   UNL     1      -4.885   3.435  -1.502  1.00  0.00     0.247 C 
ATOM     48  O   UNL     1      -4.116   4.297  -1.074  1.00  0.00    -0.273 OA
ATOM     49  H   UNL     1      -5.133   1.686  -2.603  1.00  0.00     0.164 HD
BRANCH  47  50
ATOM     50  C   UNL     1      -6.398   3.491  -1.245  1.00  0.00     0.212 CG0
ATOM     51  G   UNL     1      -7.092   3.761  -2.595  1.00  0.00     0.000 G0
BRANCH  50  52
ATOM     52  N   UNL     1      -6.744   2.195  -0.667  1.00  0.00    -0.339 N 
ATOM     53  C   UNL     1      -7.900   1.518  -0.968  1.00  0.00     0.243 C 
ATOM     54  O   UNL     1      -8.762   1.978  -1.712  1.00  0.00    -0.273 OA
ATOM     55  H   UNL     1      -6.121   1.813   0.042  1.00  0.00     0.164 HD
BRANCH  53  56
ATOM     56  C   UNL     1      -8.088   0.212  -0.170  1.00  0.00     0.182 C 
BRANCH  56  57
ATOM     57  N   UNL     1      -9.305   0.265   0.646  1.00  0.00    -0.344 N 
ATOM     58  C   UNL     1      -9.540   1.268   1.554  1.00  0.00     0.220 C 
ATOM     59  O   UNL     1      -8.720   2.147   1.798  1.00  0.00    -0.275 OA
ATOM     60  H   UNL     1     -10.051  -0.383   0.403  1.00  0.00     0.164 HD
BRANCH  58  61
ATOM     61  C   UNL     1     -10.888   1.154   2.242  1.00  0.00     0.100 C 
BRANCH  61  62
ATOM     62  C   UNL     1     -11.527  -0.229   2.119  1.00  0.00     0.010 C 
BRANCH  62  63
ATOM     63  C   UNL     1     -12.952  -0.214   1.550  1.00  0.00     0.000 C 
BRANCH  63  64
ATOM     64  C   UNL     1     -13.193  -1.232   0.437  1.00  0.00    -0.003 C 
ATOM     65  C   UNL     1     -11.929  -2.018   0.119  1.00  0.00     0.004 C 
ENDBRANCH  63  64
ENDBRANCH  62  63
ENDBRANCH  61  62
ENDBRANCH  58  61
ENDBRANCH  56  57
BRANCH  56  66
ATOM     66  C   UNL     1      -6.850  -0.120   0.662  1.00  0.00     0.157 C 
BRANCH  66  67
ATOM     67  C   UNL     1      -7.001  -1.442   1.358  1.00  0.00     0.305 C 
ATOM     68  O   UNL     1      -7.750  -1.699   2.287  1.00  0.00    -0.252 OA
BRANCH  67  69
ATOM     69  O   UNL     1      -6.229  -2.400   0.809  1.00  0.00    -0.481 OA
ATOM     70  H   UNL     1      -5.747  -2.796   1.565  1.00  0.00     0.296 HD
ENDBRANCH  67  69
ENDBRANCH  66  67
ENDBRANCH  56  66
ENDBRANCH  53  56
ENDBRANCH  50  52
ENDBRANCH  47  50
ENDBRANCH  45  46
BRANCH  45  71
ATOM     71  C   UNL     1      -2.847   1.166  -3.679  1.00  0.00     0.037 C 
BRANCH  71  72
ATOM     72  C   UNL     1      -1.877   1.775  -4.694  1.00  0.00     0.026 C 
BRANCH  72  73
ATOM     73  C   UNL     1      -1.185   3.015  -4.134  1.00  0.00     0.146 C 
BRANCH  73  74
ATOM     74  N   UNL     1       0.127   2.609  -3.639  1.00  0.00    -0.254 NA
ATOM     75  C   UNL     1       0.654   3.303  -2.699  1.00  0.00     0.185 C 
ATOM     76  N   UNL     1       1.860   2.954  -2.222  1.00  0.00    -0.370 N 
ATOM     77  N   UNL     1       0.166   4.390  -2.076  1.00  0.00    -0.370 N 
ATOM     78  H   UNL     1       2.303   2.150  -2.643  1.00  0.00     0.159 HD
ATOM     79  H   UNL     1       2.395   3.528  -1.595  1.00  0.00     0.159 HD
ATOM     80  H   UNL     1      -0.736   4.765  -2.328  1.00  0.00     0.159 HD
ATOM     81  H   UNL     1       0.620   4.785  -1.269  1.00  0.00     0.159 HD
ENDBRANCH  73  74
ENDBRANCH  72  73
ENDBRANCH  71  72
ENDBRANCH  45  71
ENDBRANCH   3  45
TORSDOF 20
ENDMDL
MODEL 49
REMARK VINA RESULT:    -4.562      4.710     10.467
REMARK INTER + INTRA:         -20.499
REMARK INTER:                 -13.390
REMARK INTRA:                  -7.109
REMARK UNBOUND:                -7.402
REMARK SMILES CCCCCC(=O)N[C@H](CC(=O)O)C(=O)N[C@H]1C(=O)N[C@H](CCCN=C(N)N)C(=O)N[C@@H]2CC[C@H](O)N(C2=O)[C@@H](CC(C)C)C(=O)N(C)[C@@H](Cc2ccccc2)C(=O)N[C@H](C(C)C)C(=O)O[C@@H]1C
REMARK SMILES IDX 30 1 31 2 29 3 32 5 35 6 37 7 34 8 38 9 33 10 39 11 36 12
REMARK SMILES IDX 40 14 41 15 42 16 43 17 44 18 45 19 46 20 47 21 48 22 49 23
REMARK SMILES IDX 50 24 51 25 52 26 56 27 53 28 55 29 54 30 57 31 58 32 59 33
REMARK SMILES IDX 60 35 61 36 62 37 63 38 64 39 65 40 66 41 67 42 68 43 21 45
REMARK SMILES IDX 20 46 18 47 19 48 17 50 16 52 14 53 15 54 9 56 8 57 6 58
REMARK SMILES IDX 7 59 5 61 4 62 3 63 2 64 1 65 10 66 11 67 12 68 13 69 22 71
REMARK SMILES IDX 23 72 24 73 25 74 26 75 27 76 28 77
REMARK H PARENT 31 4 36 13 59 34 20 49 16 55 8 60 13 70 27 78 27 79 28 80
REMARK H PARENT 28 81
REMARK Flexibility Score:  259.900
ROOT
ATOM      1  O   UNL     1       2.066   1.537  -2.079  1.00  0.00    -0.273 OA
ATOM      2  N   UNL     1       2.124   2.025   0.154  1.00  0.00    -0.343 N 
ATOM      3  C   UNL     1       1.959   2.362  -1.172  1.00  0.00     0.243 C 
ATOM      4  H   UNL     1       2.014   2.727   0.875  1.00  0.00     0.164 HD
ENDROOT
BRANCH   2   5
ATOM      5  C   UNL     1       2.555   0.683   0.531  1.00  0.00     0.171 C 
ATOM      6  C   UNL     1       2.056  -0.957   2.869  1.00  0.00     0.214 C 
ATOM      7  N   UNL     1       3.210  -0.089   2.843  1.00  0.00    -0.303 N 
ATOM      8  C   UNL     1       1.648  -1.456   1.492  1.00  0.00     0.057 C 
ATOM      9  C   UNL     1       3.480   0.757   1.780  1.00  0.00     0.247 C 
ATOM     10  C   UNL     1       1.370  -0.280   0.582  1.00  0.00     0.040 C 
ATOM     11  O   UNL     1       4.422   1.560   1.803  1.00  0.00    -0.272 OA
BRANCH   6  12
ATOM     12  O   UNL     1       0.997  -0.247   3.469  1.00  0.00    -0.373 OA
ATOM     13  H   UNL     1       0.988  -0.494   4.418  1.00  0.00     0.213 HD
ENDBRANCH   6  12
BRANCH   7  14
ATOM     14  C   UNL     1       4.029  -0.027   4.072  1.00  0.00     0.177 C 
BRANCH  14  15
ATOM     15  C   UNL     1       3.312   0.545   5.310  1.00  0.00     0.038 C 
BRANCH  15  16
ATOM     16  C   UNL     1       3.325   2.069   5.561  1.00  0.00    -0.015 C 
ATOM     17  C   UNL     1       2.282   2.810   4.719  1.00  0.00     0.007 C 
ATOM     18  C   UNL     1       4.709   2.639   5.222  1.00  0.00     0.007 C 
ENDBRANCH  15  16
ENDBRANCH  14  15
BRANCH  14  19
ATOM     19  C   UNL     1       5.075  -1.194   4.089  1.00  0.00     0.245 C 
ATOM     20  O   UNL     1       4.833  -2.151   4.844  1.00  0.00    -0.272 OA
BRANCH  19  21
ATOM     21  N   UNL     1       6.279  -1.161   3.408  1.00  0.00    -0.332 N 
ATOM     22  C   UNL     1       7.014   0.040   3.054  1.00  0.00     0.147 C 
BRANCH  21  23
ATOM     23  C   UNL     1       6.876  -2.459   2.987  1.00  0.00     0.178 C 
BRANCH  23  24
ATOM     24  C   UNL     1       7.281  -2.531   1.501  1.00  0.00     0.070 C 
BRANCH  24  25
ATOM     25  C   UNL     1       6.225  -2.985   0.521  1.00  0.00    -0.045 A 
ATOM     26  C   UNL     1       6.243  -4.284  -0.004  1.00  0.00     0.004 A 
ATOM     27  C   UNL     1       5.209  -2.105   0.118  1.00  0.00     0.004 A 
ATOM     28  C   UNL     1       5.272  -4.690  -0.922  1.00  0.00     0.000 A 
ATOM     29  C   UNL     1       4.239  -2.513  -0.799  1.00  0.00     0.000 A 
ATOM     30  C   UNL     1       4.273  -3.805  -1.321  1.00  0.00     0.000 A 
ENDBRANCH  24  25
ENDBRANCH  23  24
BRANCH  23  31
ATOM     31  C   UNL     1       7.942  -2.982   3.979  1.00  0.00     0.243 C 
ATOM     32  O   UNL     1       8.220  -2.433   5.042  1.00  0.00    -0.273 OA
ATOM     33  N   UNL     1       8.696  -4.030   3.478  1.00  0.00    -0.341 N 
ATOM     34  H   UNL     1       8.421  -4.443   2.584  1.00  0.00     0.164 HD
BRANCH  33  35
ATOM     35  C   UNL     1       9.838  -4.606   4.194  1.00  0.00     0.194 C 
BRANCH  35  36
ATOM     36  C   UNL     1      10.893  -5.279   3.271  1.00  0.00     0.017 C 
ATOM     37  C   UNL     1      12.189  -4.453   3.207  1.00  0.00     0.010 C 
ATOM     38  C   UNL     1      10.400  -5.472   1.831  1.00  0.00     0.010 C 
ENDBRANCH  35  36
BRANCH  35  39
ATOM     39  C   UNL     1       9.404  -5.541   5.358  1.00  0.00     0.329 C 
ATOM     40  O   UNL     1       8.398  -6.240   5.337  1.00  0.00    -0.250 OA
BRANCH  39  41
ATOM     41  O   UNL     1      10.318  -5.563   6.375  1.00  0.00    -0.458 OA
BRANCH  41  42
ATOM     42  C   UNL     1      11.001  -6.821   6.596  1.00  0.00     0.205 CG0
ATOM     43  C   UNL     1      10.516  -7.370   7.936  1.00  0.00     0.056 C 
ATOM     44  G   UNL     1      12.521  -6.565   6.578  1.00  0.00     0.000 G0
ENDBRANCH  41  42
ENDBRANCH  39  41
ENDBRANCH  35  39
ENDBRANCH  33  35
ENDBRANCH  23  31
ENDBRANCH  21  23
ENDBRANCH  19  21
ENDBRANCH  14  19
ENDBRANCH   7  14
ENDBRANCH   2   5
BRANCH   3  45
ATOM     45  C   UNL     1       1.611   3.833  -1.437  1.00  0.00     0.171 C 
BRANCH  45  46
ATOM     46  N   UNL     1       1.423   3.940  -2.878  1.00  0.00    -0.342 N 
ATOM     47  C   UNL     1       0.191   4.143  -3.447  1.00  0.00     0.247 C 
ATOM     48  O   UNL     1      -0.831   4.322  -2.782  1.00  0.00    -0.273 OA
ATOM     49  H   UNL     1       2.252   3.853  -3.463  1.00  0.00     0.164 HD
BRANCH  47  50
ATOM     50  C   UNL     1       0.169   4.103  -4.981  1.00  0.00     0.212 CG0
ATOM     51  G   UNL     1       0.768   5.429  -5.491  1.00  0.00     0.000 G0
BRANCH  50  52
ATOM     52  N   UNL     1       0.958   2.932  -5.352  1.00  0.00    -0.339 N 
ATOM     53  C   UNL     1       0.406   1.705  -5.628  1.00  0.00     0.243 C 
ATOM     54  O   UNL     1      -0.798   1.484  -5.531  1.00  0.00    -0.273 OA
ATOM     55  H   UNL     1       1.972   3.023  -5.341  1.00  0.00     0.164 HD
BRANCH  53  56
ATOM     56  C   UNL     1       1.444   0.599  -5.911  1.00  0.00     0.182 C 
BRANCH  56  57
ATOM     57  N   UNL     1       2.804   1.071  -5.634  1.00  0.00    -0.344 N 
ATOM     58  C   UNL     1       3.716   0.320  -4.935  1.00  0.00     0.220 C 
ATOM     59  O   UNL     1       3.436  -0.762  -4.430  1.00  0.00    -0.275 OA
ATOM     60  H   UNL     1       3.107   1.912  -6.119  1.00  0.00     0.164 HD
BRANCH  58  61
ATOM     61  C   UNL     1       5.078   0.980  -4.819  1.00  0.00     0.100 C 
BRANCH  61  62
ATOM     62  C   UNL     1       5.330   1.639  -3.463  1.00  0.00     0.010 C 
BRANCH  62  63
ATOM     63  C   UNL     1       5.701   0.656  -2.346  1.00  0.00     0.000 C 
BRANCH  63  64
ATOM     64  C   UNL     1       6.254   1.319  -1.086  1.00  0.00    -0.003 C 
ATOM     65  C   UNL     1       7.544   0.653  -0.629  1.00  0.00     0.004 C 
ENDBRANCH  63  64
ENDBRANCH  62  63
ENDBRANCH  61  62
ENDBRANCH  58  61
ENDBRANCH  56  57
BRANCH  56  66
ATOM     66  C   UNL     1       1.301   0.047  -7.328  1.00  0.00     0.157 C 
BRANCH  66  67
ATOM     67  C   UNL     1       1.113  -1.443  -7.314  1.00  0.00     0.305 C 
ATOM     68  O   UNL     1       0.191  -2.069  -7.813  1.00  0.00    -0.252 OA
BRANCH  67  69
ATOM     69  O   UNL     1       2.134  -2.082  -6.712  1.00  0.00    -0.481 OA
ATOM     70  H   UNL     1       2.929  -1.820  -7.222  1.00  0.00     0.296 HD
ENDBRANCH  67  69
ENDBRANCH  66  67
ENDBRANCH  56  66
ENDBRANCH  53  56
ENDBRANCH  50  52
ENDBRANCH  47  50
ENDBRANCH  45  46
BRANCH  45  71
ATOM     71  C   UNL     1       2.739   4.746  -0.945  1.00  0.00     0.037 C 
BRANCH  71  72
ATOM     72  C   UNL     1       2.255   5.739   0.115  1.00  0.00     0.026 C 
BRANCH  72  73
ATOM     73  C   UNL     1       2.196   7.162  -0.437  1.00  0.00     0.146 C 
BRANCH  73  74
ATOM     74  N   UNL     1       1.325   7.151  -1.609  1.00  0.00    -0.254 NA
ATOM     75  C   UNL     1       0.097   7.482  -1.445  1.00  0.00     0.185 C 
ATOM     76  N   UNL     1      -0.728   7.483  -2.504  1.00  0.00    -0.370 N 
ATOM     77  N   UNL     1      -0.536   7.850  -0.318  1.00  0.00    -0.370 N 
ATOM     78  H   UNL     1      -0.333   7.210  -3.393  1.00  0.00     0.159 HD
ATOM     79  H   UNL     1      -1.725   7.588  -2.429  1.00  0.00     0.159 HD
ATOM     80  H   UNL     1      -0.038   7.899   0.558  1.00  0.00     0.159 HD
ATOM     81  H   UNL     1      -1.479   8.200  -0.332  1.00  0.00     0.159 HD
ENDBRANCH  73  74
ENDBRANCH  72  73
ENDBRANCH  71  72
ENDBRANCH  45  71
ENDBRANCH   3  45
TORSDOF 20
ENDMDL
MODEL 50
REMARK VINA RESULT:    -4.510      7.525     12.257
REMARK INTER + INTRA:         -20.349
REMARK INTER:                 -11.986
REMARK INTRA:                  -8.362
REMARK UNBOUND:                -7.402
REMARK SMILES CCCCCC(=O)N[C@H](CC(=O)O)C(=O)N[C@H]1C(=O)N[C@H](CCCN=C(N)N)C(=O)N[C@@H]2CC[C@H](O)N(C2=O)[C@@H](CC(C)C)C(=O)N(C)[C@@H](Cc2ccccc2)C(=O)N[C@H](C(C)C)C(=O)O[C@@H]1C
REMARK SMILES IDX 30 1 31 2 29 3 32 5 35 6 37 7 34 8 38 9 33 10 39 11 36 12
REMARK SMILES IDX 40 14 41 15 42 16 43 17 44 18 45 19 46 20 47 21 48 22 49 23
REMARK SMILES IDX 50 24 51 25 52 26 56 27 53 28 55 29 54 30 57 31 58 32 59 33
REMARK SMILES IDX 60 35 61 36 62 37 63 38 64 39 65 40 66 41 67 42 68 43 21 45
REMARK SMILES IDX 20 46 18 47 19 48 17 50 16 52 14 53 15 54 9 56 8 57 6 58
REMARK SMILES IDX 7 59 5 61 4 62 3 63 2 64 1 65 10 66 11 67 12 68 13 69 22 71
REMARK SMILES IDX 23 72 24 73 25 74 26 75 27 76 28 77
REMARK H PARENT 31 4 36 13 59 34 20 49 16 55 8 60 13 70 27 78 27 79 28 80
REMARK H PARENT 28 81
REMARK Flexibility Score:  259.900
ROOT
ATOM      1  O   UNL     1      -0.213   0.987   4.338  1.00  0.00    -0.273 OA
ATOM      2  N   UNL     1      -1.187   3.047   4.530  1.00  0.00    -0.343 N 
ATOM      3  C   UNL     1      -0.344   2.044   4.957  1.00  0.00     0.243 C 
ATOM      4  H   UNL     1      -1.259   3.909   5.057  1.00  0.00     0.164 HD
ENDROOT
BRANCH   2   5
ATOM      5  C   UNL     1      -2.058   2.846   3.377  1.00  0.00     0.171 C 
ATOM      6  C   UNL     1      -4.252   4.389   2.279  1.00  0.00     0.214 C 
ATOM      7  N   UNL     1      -4.526   3.358   3.253  1.00  0.00    -0.303 N 
ATOM      8  C   UNL     1      -3.027   4.101   1.426  1.00  0.00     0.057 C 
ATOM      9  C   UNL     1      -3.521   2.619   3.854  1.00  0.00     0.247 C 
ATOM     10  C   UNL     1      -1.816   3.916   2.314  1.00  0.00     0.040 C 
ATOM     11  O   UNL     1      -3.757   1.798   4.750  1.00  0.00    -0.272 OA
BRANCH   6  12
ATOM     12  O   UNL     1      -4.094   5.605   2.973  1.00  0.00    -0.373 OA
ATOM     13  H   UNL     1      -3.669   6.236   2.353  1.00  0.00     0.213 HD
ENDBRANCH   6  12
BRANCH   7  14
ATOM     14  C   UNL     1      -5.928   3.215   3.701  1.00  0.00     0.177 C 
BRANCH  14  15
ATOM     15  C   UNL     1      -6.267   3.920   5.028  1.00  0.00     0.038 C 
BRANCH  15  16
ATOM     16  C   UNL     1      -6.969   3.128   6.154  1.00  0.00    -0.015 C 
ATOM     17  C   UNL     1      -6.172   3.141   7.462  1.00  0.00     0.007 C 
ATOM     18  C   UNL     1      -7.157   1.669   5.720  1.00  0.00     0.007 C 
ENDBRANCH  15  16
ENDBRANCH  14  15
BRANCH  14  19
ATOM     19  C   UNL     1      -6.885   3.099   2.465  1.00  0.00     0.245 C 
ATOM     20  O   UNL     1      -7.544   4.110   2.171  1.00  0.00    -0.272 OA
BRANCH  19  21
ATOM     21  N   UNL     1      -7.110   1.923   1.772  1.00  0.00    -0.332 N 
ATOM     22  C   UNL     1      -6.848   0.586   2.274  1.00  0.00     0.147 C 
BRANCH  21  23
ATOM     23  C   UNL     1      -7.658   2.023   0.391  1.00  0.00     0.178 C 
BRANCH  23  24
ATOM     24  C   UNL     1      -6.830   1.293  -0.686  1.00  0.00     0.070 C 
BRANCH  24  25
ATOM     25  C   UNL     1      -6.064   2.153  -1.665  1.00  0.00    -0.045 A 
ATOM     26  C   UNL     1      -5.172   3.134  -1.213  1.00  0.00     0.004 A 
ATOM     27  C   UNL     1      -6.242   1.983  -3.046  1.00  0.00     0.004 A 
ATOM     28  C   UNL     1      -4.481   3.936  -2.124  1.00  0.00     0.000 A 
ATOM     29  C   UNL     1      -5.549   2.784  -3.955  1.00  0.00     0.000 A 
ATOM     30  C   UNL     1      -4.671   3.762  -3.493  1.00  0.00     0.000 A 
ENDBRANCH  24  25
ENDBRANCH  23  24
BRANCH  23  31
ATOM     31  C   UNL     1      -9.183   1.765   0.326  1.00  0.00     0.243 C 
ATOM     32  O   UNL     1     -10.019   2.437   0.925  1.00  0.00    -0.273 OA
ATOM     33  N   UNL     1      -9.518   0.589  -0.323  1.00  0.00    -0.341 N 
ATOM     34  H   UNL     1      -8.776   0.070  -0.799  1.00  0.00     0.164 HD
BRANCH  33  35
ATOM     35  C   UNL     1     -10.891   0.084  -0.402  1.00  0.00     0.194 C 
BRANCH  35  36
ATOM     36  C   UNL     1     -11.191  -1.092   0.570  1.00  0.00     0.017 C 
ATOM     37  C   UNL     1     -11.697  -0.579   1.929  1.00  0.00     0.010 C 
ATOM     38  C   UNL     1      -9.970  -1.980   0.840  1.00  0.00     0.010 C 
ENDBRANCH  35  36
BRANCH  35  39
ATOM     39  C   UNL     1     -11.326  -0.241  -1.858  1.00  0.00     0.329 C 
ATOM     40  O   UNL     1     -10.721  -1.006  -2.601  1.00  0.00    -0.250 OA
BRANCH  39  41
ATOM     41  O   UNL     1     -12.511   0.355  -2.192  1.00  0.00    -0.458 OA
BRANCH  41  42
ATOM     42  C   UNL     1     -12.532   1.080  -3.445  1.00  0.00     0.205 CG0
ATOM     43  C   UNL     1     -11.503   2.204  -3.337  1.00  0.00     0.056 C 
ATOM     44  G   UNL     1     -13.961   1.609  -3.682  1.00  0.00     0.000 G0
ENDBRANCH  41  42
ENDBRANCH  39  41
ENDBRANCH  35  39
ENDBRANCH  33  35
ENDBRANCH  23  31
ENDBRANCH  21  23
ENDBRANCH  19  21
ENDBRANCH  14  19
ENDBRANCH   7  14
ENDBRANCH   2   5
BRANCH   3  45
ATOM     45  C   UNL     1       0.436   2.343   6.244  1.00  0.00     0.171 C 
BRANCH  45  46
ATOM     46  N   UNL     1       1.764   1.781   6.040  1.00  0.00    -0.342 N 
ATOM     47  C   UNL     1       2.909   2.521   6.196  1.00  0.00     0.247 C 
ATOM     48  O   UNL     1       2.902   3.688   6.590  1.00  0.00    -0.273 OA
ATOM     49  H   UNL     1       1.818   0.801   5.768  1.00  0.00     0.164 HD
BRANCH  47  50
ATOM     50  C   UNL     1       4.208   1.796   5.818  1.00  0.00     0.212 CG0
ATOM     51  G   UNL     1       4.547   0.817   6.959  1.00  0.00     0.000 G0
BRANCH  50  52
ATOM     52  N   UNL     1       3.927   1.129   4.549  1.00  0.00    -0.339 N 
ATOM     53  C   UNL     1       4.158   1.706   3.324  1.00  0.00     0.243 C 
ATOM     54  O   UNL     1       4.573   2.856   3.202  1.00  0.00    -0.273 OA
ATOM     55  H   UNL     1       3.478   0.216   4.585  1.00  0.00     0.164 HD
BRANCH  53  56
ATOM     56  C   UNL     1       3.702   0.845   2.129  1.00  0.00     0.182 C 
BRANCH  56  57
ATOM     57  N   UNL     1       2.421   1.320   1.597  1.00  0.00    -0.344 N 
ATOM     58  C   UNL     1       2.254   1.668   0.279  1.00  0.00     0.220 C 
ATOM     59  O   UNL     1       3.179   1.678  -0.526  1.00  0.00    -0.275 OA
ATOM     60  H   UNL     1       1.609   1.230   2.203  1.00  0.00     0.164 HD
BRANCH  58  61
ATOM     61  C   UNL     1       0.832   2.073  -0.061  1.00  0.00     0.100 C 
BRANCH  61  62
ATOM     62  C   UNL     1      -0.228   1.111   0.475  1.00  0.00     0.010 C 
BRANCH  62  63
ATOM     63  C   UNL     1      -1.574   1.189  -0.256  1.00  0.00     0.000 C 
BRANCH  63  64
ATOM     64  C   UNL     1      -1.503   1.854  -1.629  1.00  0.00    -0.003 C 
ATOM     65  C   UNL     1      -2.199   1.014  -2.690  1.00  0.00     0.004 C 
ENDBRANCH  63  64
ENDBRANCH  62  63
ENDBRANCH  61  62
ENDBRANCH  58  61
ENDBRANCH  56  57
BRANCH  56  66
ATOM     66  C   UNL     1       3.663  -0.639   2.490  1.00  0.00     0.157 C 
BRANCH  66  67
ATOM     67  C   UNL     1       2.254  -1.158   2.502  1.00  0.00     0.305 C 
ATOM     68  O   UNL     1       1.665  -1.699   1.579  1.00  0.00    -0.252 OA
BRANCH  67  69
ATOM     69  O   UNL     1       1.667  -1.018   3.706  1.00  0.00    -0.481 OA
ATOM     70  H   UNL     1       2.270  -1.469   4.333  1.00  0.00     0.296 HD
ENDBRANCH  67  69
ENDBRANCH  66  67
ENDBRANCH  56  66
ENDBRANCH  53  56
ENDBRANCH  50  52
ENDBRANCH  47  50
ENDBRANCH  45  46
BRANCH  45  71
ATOM     71  C   UNL     1      -0.266   1.712   7.452  1.00  0.00     0.037 C 
BRANCH  71  72
ATOM     72  C   UNL     1      -0.657   2.757   8.501  1.00  0.00     0.026 C 
BRANCH  72  73
ATOM     73  C   UNL     1      -2.170   2.962   8.549  1.00  0.00     0.146 C 
BRANCH  73  74
ATOM     74  N   UNL     1      -2.581   3.558   7.281  1.00  0.00    -0.254 NA
ATOM     75  C   UNL     1      -2.846   4.812   7.266  1.00  0.00     0.185 C 
ATOM     76  N   UNL     1      -3.225   5.388   6.114  1.00  0.00    -0.370 N 
ATOM     77  N   UNL     1      -2.801   5.697   8.277  1.00  0.00    -0.370 N 
ATOM     78  H   UNL     1      -3.292   4.790   5.303  1.00  0.00     0.159 HD
ATOM     79  H   UNL     1      -3.585   6.325   6.056  1.00  0.00     0.159 HD
ATOM     80  H   UNL     1      -2.527   5.405   9.203  1.00  0.00     0.159 HD
ATOM     81  H   UNL     1      -2.919   6.684   8.120  1.00  0.00     0.159 HD
ENDBRANCH  73  74
ENDBRANCH  72  73
ENDBRANCH  71  72
ENDBRANCH  45  71
ENDBRANCH   3  45
TORSDOF 20
ENDMDL
