MODEL 1
REMARK VINA RESULT:    -6.931      0.000      0.000
REMARK INTER + INTRA:         -20.945
REMARK INTER:                 -17.264
REMARK INTRA:                  -3.680
REMARK UNBOUND:                -3.680
REMARK SMILES CCCCCCC[C@H](N)[C@H](O)C(=O)N[C@H](C)C(=O)N(C)[C@H](CC(C)C)C(=O)N[C@@H](Cc1ccc(O)cc1)C(=O)N[C@@H](Cc1ccc(O)cc1)C(=O)O
REMARK SMILES IDX 18 1 17 2 15 3 16 4 14 5 12 6 13 7 10 9 11 10 8 12 9 13 7 16
REMARK SMILES IDX 6 17 5 18 4 19 3 20 2 21 1 22 19 23 20 24 21 25 22 26 23 27
REMARK SMILES IDX 24 28 25 29 26 30 27 31 28 32 29 34 30 35 31 36 32 37 37 38
REMARK SMILES IDX 33 39 36 40 34 41 35 42 38 44 39 45 40 46 41 48 42 49 43 50
REMARK SMILES IDX 44 51 49 52 45 53 48 54 46 55 47 56 50 58 51 59 52 60
REMARK H PARENT 14 8 11 11 9 14 9 15 28 33 35 43 40 47 47 57 52 61
ROOT
ATOM      1  O   UNL     1      -0.927   2.708  -3.622  1.00  0.00    -0.272 OA
ATOM      2  C   UNL     1      -1.009   1.829  -4.492  1.00  0.00     0.245 C 
ENDROOT
BRANCH   2   3
ATOM      3  C   UNL     1      -1.151   2.262  -5.973  1.00  0.00     0.168 C 
ATOM      4  C   UNL     1      -1.986   3.533  -6.087  1.00  0.00     0.041 C 
BRANCH   3   5
ATOM      5  N   UNL     1       0.103   2.370  -6.701  1.00  0.00    -0.342 N 
ATOM      6  C   UNL     1       0.604   1.325  -7.447  1.00  0.00     0.251 C 
ATOM      7  O   UNL     1       0.063   0.226  -7.521  1.00  0.00    -0.272 OA
ATOM      8  H   UNL     1       0.660   3.222  -6.687  1.00  0.00     0.164 HD
BRANCH   6   9
ATOM      9  C   UNL     1       1.862   1.710  -8.242  1.00  0.00     0.219 C 
BRANCH   9  10
ATOM     10  O   UNL     1       2.956   0.812  -8.015  1.00  0.00    -0.382 OA
ATOM     11  H   UNL     1       2.546   0.069  -7.520  1.00  0.00     0.211 HD
ENDBRANCH   9  10
BRANCH   9  12
ATOM     12  C   UNL     1       1.595   1.881  -9.760  1.00  0.00     0.089 C 
BRANCH  12  13
ATOM     13  N   UNL     1       0.263   2.504  -9.933  1.00  0.00    -0.325 NA
ATOM     14  H   UNL     1      -0.235   2.485  -9.041  1.00  0.00     0.119 HD
ATOM     15  H   UNL     1      -0.295   1.924 -10.563  1.00  0.00     0.119 HD
ENDBRANCH  12  13
BRANCH  12  16
ATOM     16  C   UNL     1       2.661   2.677 -10.551  1.00  0.00     0.022 C 
BRANCH  16  17
ATOM     17  C   UNL     1       3.758   1.912 -11.304  1.00  0.00     0.002 C 
BRANCH  17  18
ATOM     18  C   UNL     1       4.260   2.591 -12.576  1.00  0.00     0.000 C 
BRANCH  18  19
ATOM     19  C   UNL     1       4.231   1.690 -13.818  1.00  0.00    -0.000 C 
BRANCH  19  20
ATOM     20  C   UNL     1       5.603   1.352 -14.408  1.00  0.00    -0.000 C 
BRANCH  20  21
ATOM     21  C   UNL     1       5.553   0.208 -15.425  1.00  0.00    -0.003 C 
ATOM     22  C   UNL     1       6.799  -0.660 -15.345  1.00  0.00     0.004 C 
ENDBRANCH  20  21
ENDBRANCH  19  20
ENDBRANCH  18  19
ENDBRANCH  17  18
ENDBRANCH  16  17
ENDBRANCH  12  16
ENDBRANCH   9  12
ENDBRANCH   6   9
ENDBRANCH   3   5
ENDBRANCH   2   3
BRANCH   2  23
ATOM     23  N   UNL     1      -0.852   0.491  -4.146  1.00  0.00    -0.332 N 
ATOM     24  C   UNL     1       0.432  -0.173  -3.976  1.00  0.00     0.147 C 
BRANCH  23  25
ATOM     25  C   UNL     1      -2.038  -0.338  -3.794  1.00  0.00     0.174 C 
BRANCH  25  26
ATOM     26  C   UNL     1      -1.691  -1.515  -2.853  1.00  0.00     0.038 C 
BRANCH  26  27
ATOM     27  C   UNL     1      -2.313  -1.487  -1.438  1.00  0.00    -0.015 C 
ATOM     28  C   UNL     1      -1.263  -1.304  -0.342  1.00  0.00     0.007 C 
ATOM     29  C   UNL     1      -3.432  -0.460  -1.287  1.00  0.00     0.007 C 
ENDBRANCH  26  27
ENDBRANCH  25  26
BRANCH  25  30
ATOM     30  C   UNL     1      -2.787  -0.767  -5.076  1.00  0.00     0.243 C 
ATOM     31  O   UNL     1      -2.188  -1.092  -6.101  1.00  0.00    -0.273 OA
ATOM     32  N   UNL     1      -4.156  -0.755  -4.996  1.00  0.00    -0.342 N 
ATOM     33  H   UNL     1      -4.575  -0.612  -4.074  1.00  0.00     0.164 HD
BRANCH  32  34
ATOM     34  C   UNL     1      -5.028  -1.105  -6.121  1.00  0.00     0.175 C 
BRANCH  34  35
ATOM     35  C   UNL     1      -5.916  -2.313  -5.784  1.00  0.00     0.070 C 
BRANCH  35  36
ATOM     36  C   UNL     1      -5.400  -3.109  -4.606  1.00  0.00    -0.045 A 
ATOM     37  C   UNL     1      -4.449  -4.121  -4.806  1.00  0.00     0.007 A 
ATOM     38  C   UNL     1      -5.874  -2.866  -3.311  1.00  0.00     0.007 A 
ATOM     39  C   UNL     1      -3.976  -4.870  -3.728  1.00  0.00     0.046 A 
ATOM     40  C   UNL     1      -5.403  -3.616  -2.231  1.00  0.00     0.046 A 
ATOM     41  C   UNL     1      -4.456  -4.612  -2.450  1.00  0.00     0.115 A 
BRANCH  41  42
ATOM     42  O   UNL     1      -3.971  -5.368  -1.424  1.00  0.00    -0.508 OA
ATOM     43  H   UNL     1      -3.994  -4.833  -0.614  1.00  0.00     0.293 HD
ENDBRANCH  41  42
ENDBRANCH  35  36
ENDBRANCH  34  35
BRANCH  34  44
ATOM     44  C   UNL     1      -5.863   0.143  -6.485  1.00  0.00     0.243 C 
ATOM     45  O   UNL     1      -5.500   1.017  -7.267  1.00  0.00    -0.273 OA
ATOM     46  N   UNL     1      -7.021   0.262  -5.746  1.00  0.00    -0.341 N 
ATOM     47  H   UNL     1      -7.222  -0.427  -5.026  1.00  0.00     0.164 HD
BRANCH  46  48
ATOM     48  C   UNL     1      -7.940   1.397  -5.866  1.00  0.00     0.196 C 
BRANCH  48  49
ATOM     49  C   UNL     1      -9.304   0.956  -6.425  1.00  0.00     0.072 C 
BRANCH  49  50
ATOM     50  C   UNL     1      -9.661   1.663  -7.713  1.00  0.00    -0.045 A 
ATOM     51  C   UNL     1      -8.651   2.019  -8.618  1.00  0.00     0.007 A 
ATOM     52  C   UNL     1     -10.990   1.989  -8.011  1.00  0.00     0.007 A 
ATOM     53  C   UNL     1      -8.967   2.683  -9.803  1.00  0.00     0.046 A 
ATOM     54  C   UNL     1     -11.306   2.655  -9.198  1.00  0.00     0.046 A 
ATOM     55  C   UNL     1     -10.291   2.995 -10.084  1.00  0.00     0.115 A 
BRANCH  55  56
ATOM     56  O   UNL     1     -10.558   3.646 -11.253  1.00  0.00    -0.508 OA
ATOM     57  H   UNL     1     -10.110   3.176 -11.974  1.00  0.00     0.293 HD
ENDBRANCH  55  56
ENDBRANCH  49  50
ENDBRANCH  48  49
BRANCH  48  58
ATOM     58  C   UNL     1      -8.131   2.033  -4.483  1.00  0.00     0.326 C 
ATOM     59  O   UNL     1      -8.529   3.160  -4.236  1.00  0.00    -0.250 OA
BRANCH  58  60
ATOM     60  O   UNL     1      -7.822   1.201  -3.457  1.00  0.00    -0.480 OA
ATOM     61  H   UNL     1      -8.700   0.946  -3.100  1.00  0.00     0.296 HD
ENDBRANCH  58  60
ENDBRANCH  48  58
ENDBRANCH  46  48
ENDBRANCH  34  44
ENDBRANCH  32  34
ENDBRANCH  25  30
ENDBRANCH  23  25
ENDBRANCH   2  23
TORSDOF 28
ENDMDL
MODEL 2
REMARK VINA RESULT:    -6.930      3.681     10.856
REMARK INTER + INTRA:         -20.940
REMARK INTER:                 -15.445
REMARK INTRA:                  -5.495
REMARK UNBOUND:                -3.680
REMARK SMILES CCCCCCC[C@H](N)[C@H](O)C(=O)N[C@H](C)C(=O)N(C)[C@H](CC(C)C)C(=O)N[C@@H](Cc1ccc(O)cc1)C(=O)N[C@@H](Cc1ccc(O)cc1)C(=O)O
REMARK SMILES IDX 18 1 17 2 15 3 16 4 14 5 12 6 13 7 10 9 11 10 8 12 9 13 7 16
REMARK SMILES IDX 6 17 5 18 4 19 3 20 2 21 1 22 19 23 20 24 21 25 22 26 23 27
REMARK SMILES IDX 24 28 25 29 26 30 27 31 28 32 29 34 30 35 31 36 32 37 37 38
REMARK SMILES IDX 33 39 36 40 34 41 35 42 38 44 39 45 40 46 41 48 42 49 43 50
REMARK SMILES IDX 44 51 49 52 45 53 48 54 46 55 47 56 50 58 51 59 52 60
REMARK H PARENT 14 8 11 11 9 14 9 15 28 33 35 43 40 47 47 57 52 61
ROOT
ATOM      1  O   UNL     1      -5.868   0.968  -8.013  1.00  0.00    -0.272 OA
ATOM      2  C   UNL     1      -6.727   1.643  -7.428  1.00  0.00     0.245 C 
ENDROOT
BRANCH   2   3
ATOM      3  C   UNL     1      -7.140   1.234  -5.992  1.00  0.00     0.168 C 
ATOM      4  C   UNL     1      -8.630   0.921  -5.924  1.00  0.00     0.041 C 
BRANCH   3   5
ATOM      5  N   UNL     1      -6.336   0.174  -5.404  1.00  0.00    -0.342 N 
ATOM      6  C   UNL     1      -5.164   0.438  -4.728  1.00  0.00     0.251 C 
ATOM      7  O   UNL     1      -4.692   1.564  -4.607  1.00  0.00    -0.272 OA
ATOM      8  H   UNL     1      -6.608  -0.804  -5.469  1.00  0.00     0.164 HD
BRANCH   6   9
ATOM      9  C   UNL     1      -4.561  -0.814  -4.071  1.00  0.00     0.219 C 
BRANCH   9  10
ATOM     10  O   UNL     1      -5.411  -1.373  -3.063  1.00  0.00    -0.382 OA
ATOM     11  H   UNL     1      -4.838  -2.036  -2.618  1.00  0.00     0.211 HD
ENDBRANCH   9  10
BRANCH   9  12
ATOM     12  C   UNL     1      -4.139  -1.897  -5.098  1.00  0.00     0.089 C 
BRANCH  12  13
ATOM     13  N   UNL     1      -3.904  -1.237  -6.403  1.00  0.00    -0.325 NA
ATOM     14  H   UNL     1      -3.927  -0.224  -6.276  1.00  0.00     0.119 HD
ATOM     15  H   UNL     1      -4.688  -1.446  -7.025  1.00  0.00     0.119 HD
ENDBRANCH  12  13
BRANCH  12  16
ATOM     16  C   UNL     1      -2.914  -2.759  -4.710  1.00  0.00     0.022 C 
BRANCH  16  17
ATOM     17  C   UNL     1      -2.977  -4.280  -4.910  1.00  0.00     0.002 C 
BRANCH  17  18
ATOM     18  C   UNL     1      -4.344  -4.819  -5.326  1.00  0.00     0.000 C 
BRANCH  18  19
ATOM     19  C   UNL     1      -4.745  -6.118  -4.615  1.00  0.00    -0.000 C 
BRANCH  19  20
ATOM     20  C   UNL     1      -5.334  -5.937  -3.213  1.00  0.00    -0.000 C 
BRANCH  20  21
ATOM     21  C   UNL     1      -6.307  -4.759  -3.119  1.00  0.00    -0.003 C 
ATOM     22  C   UNL     1      -7.621  -5.068  -3.820  1.00  0.00     0.004 C 
ENDBRANCH  20  21
ENDBRANCH  19  20
ENDBRANCH  18  19
ENDBRANCH  17  18
ENDBRANCH  16  17
ENDBRANCH  12  16
ENDBRANCH   9  12
ENDBRANCH   6   9
ENDBRANCH   3   5
ENDBRANCH   2   3
BRANCH   2  23
ATOM     23  N   UNL     1      -7.211   2.810  -8.011  1.00  0.00    -0.332 N 
ATOM     24  C   UNL     1      -8.236   2.854  -9.043  1.00  0.00     0.147 C 
BRANCH  23  25
ATOM     25  C   UNL     1      -6.778   4.140  -7.500  1.00  0.00     0.174 C 
BRANCH  25  26
ATOM     26  C   UNL     1      -7.698   5.292  -7.967  1.00  0.00     0.038 C 
BRANCH  26  27
ATOM     27  C   UNL     1      -7.298   6.723  -7.543  1.00  0.00    -0.015 C 
ATOM     28  C   UNL     1      -8.075   7.797  -8.303  1.00  0.00     0.007 C 
ATOM     29  C   UNL     1      -7.391   6.958  -6.037  1.00  0.00     0.007 C 
ENDBRANCH  26  27
ENDBRANCH  25  26
BRANCH  25  30
ATOM     30  C   UNL     1      -5.283   4.370  -7.817  1.00  0.00     0.243 C 
ATOM     31  O   UNL     1      -4.820   4.183  -8.941  1.00  0.00    -0.273 OA
ATOM     32  N   UNL     1      -4.511   4.790  -6.764  1.00  0.00    -0.342 N 
ATOM     33  H   UNL     1      -4.992   5.058  -5.902  1.00  0.00     0.164 HD
BRANCH  32  34
ATOM     34  C   UNL     1      -3.070   5.032  -6.873  1.00  0.00     0.175 C 
BRANCH  34  35
ATOM     35  C   UNL     1      -2.719   6.485  -6.516  1.00  0.00     0.070 C 
BRANCH  35  36
ATOM     36  C   UNL     1      -3.438   7.491  -7.386  1.00  0.00    -0.045 A 
ATOM     37  C   UNL     1      -3.381   7.378  -8.783  1.00  0.00     0.007 A 
ATOM     38  C   UNL     1      -4.148   8.556  -6.817  1.00  0.00     0.007 A 
ATOM     39  C   UNL     1      -4.029   8.309  -9.595  1.00  0.00     0.046 A 
ATOM     40  C   UNL     1      -4.797   9.490  -7.629  1.00  0.00     0.046 A 
ATOM     41  C   UNL     1      -4.732   9.357  -9.012  1.00  0.00     0.115 A 
BRANCH  41  42
ATOM     42  O   UNL     1      -5.349  10.247  -9.840  1.00  0.00    -0.508 OA
ATOM     43  H   UNL     1      -5.536   9.800 -10.682  1.00  0.00     0.293 HD
ENDBRANCH  41  42
ENDBRANCH  35  36
ENDBRANCH  34  35
BRANCH  34  44
ATOM     44  C   UNL     1      -2.344   4.021  -5.957  1.00  0.00     0.243 C 
ATOM     45  O   UNL     1      -2.429   4.009  -4.732  1.00  0.00    -0.273 OA
ATOM     46  N   UNL     1      -1.472   3.195  -6.634  1.00  0.00    -0.341 N 
ATOM     47  H   UNL     1      -1.349   3.322  -7.636  1.00  0.00     0.164 HD
BRANCH  46  48
ATOM     48  C   UNL     1      -0.623   2.203  -5.972  1.00  0.00     0.196 C 
BRANCH  48  49
ATOM     49  C   UNL     1      -1.455   1.037  -5.414  1.00  0.00     0.072 C 
BRANCH  49  50
ATOM     50  C   UNL     1      -0.958   0.558  -4.069  1.00  0.00    -0.045 A 
ATOM     51  C   UNL     1      -1.384   1.200  -2.897  1.00  0.00     0.007 A 
ATOM     52  C   UNL     1      -0.056  -0.510  -3.972  1.00  0.00     0.007 A 
ATOM     53  C   UNL     1      -0.922   0.775  -1.651  1.00  0.00     0.046 A 
ATOM     54  C   UNL     1       0.408  -0.934  -2.725  1.00  0.00     0.046 A 
ATOM     55  C   UNL     1      -0.031  -0.288  -1.574  1.00  0.00     0.115 A 
BRANCH  55  56
ATOM     56  O   UNL     1       0.399  -0.671  -0.338  1.00  0.00    -0.508 OA
ATOM     57  H   UNL     1      -0.374  -0.938   0.185  1.00  0.00     0.293 HD
ENDBRANCH  55  56
ENDBRANCH  49  50
ENDBRANCH  48  49
BRANCH  48  58
ATOM     58  C   UNL     1       0.402   1.668  -6.982  1.00  0.00     0.326 C 
ATOM     59  O   UNL     1       1.440   2.202  -7.335  1.00  0.00    -0.250 OA
BRANCH  58  60
ATOM     60  O   UNL     1       0.071   0.457  -7.497  1.00  0.00    -0.480 OA
ATOM     61  H   UNL     1       0.873   0.201  -8.004  1.00  0.00     0.296 HD
ENDBRANCH  58  60
ENDBRANCH  48  58
ENDBRANCH  46  48
ENDBRANCH  34  44
ENDBRANCH  32  34
ENDBRANCH  25  30
ENDBRANCH  23  25
ENDBRANCH   2  23
TORSDOF 28
ENDMDL
MODEL 3
REMARK VINA RESULT:    -6.889      3.789     11.064
REMARK INTER + INTRA:         -20.839
REMARK INTER:                 -18.453
REMARK INTRA:                  -2.386
REMARK UNBOUND:                -3.680
REMARK SMILES CCCCCCC[C@H](N)[C@H](O)C(=O)N[C@H](C)C(=O)N(C)[C@H](CC(C)C)C(=O)N[C@@H](Cc1ccc(O)cc1)C(=O)N[C@@H](Cc1ccc(O)cc1)C(=O)O
REMARK SMILES IDX 18 1 17 2 15 3 16 4 14 5 12 6 13 7 10 9 11 10 8 12 9 13 7 16
REMARK SMILES IDX 6 17 5 18 4 19 3 20 2 21 1 22 19 23 20 24 21 25 22 26 23 27
REMARK SMILES IDX 24 28 25 29 26 30 27 31 28 32 29 34 30 35 31 36 32 37 37 38
REMARK SMILES IDX 33 39 36 40 34 41 35 42 38 44 39 45 40 46 41 48 42 49 43 50
REMARK SMILES IDX 44 51 49 52 45 53 48 54 46 55 47 56 50 58 51 59 52 60
REMARK H PARENT 14 8 11 11 9 14 9 15 28 33 35 43 40 47 47 57 52 61
ROOT
ATOM      1  O   UNL     1      -2.521   3.509  -3.709  1.00  0.00    -0.272 OA
ATOM      2  C   UNL     1      -2.432   2.273  -3.723  1.00  0.00     0.245 C 
ENDROOT
BRANCH   2   3
ATOM      3  C   UNL     1      -2.107   1.539  -2.398  1.00  0.00     0.168 C 
ATOM      4  C   UNL     1      -1.797   2.537  -1.288  1.00  0.00     0.041 C 
BRANCH   3   5
ATOM      5  N   UNL     1      -3.097   0.557  -1.984  1.00  0.00    -0.342 N 
ATOM      6  C   UNL     1      -4.379   0.921  -1.630  1.00  0.00     0.251 C 
ATOM      7  O   UNL     1      -4.767   2.084  -1.597  1.00  0.00    -0.272 OA
ATOM      8  H   UNL     1      -2.881  -0.436  -1.939  1.00  0.00     0.164 HD
BRANCH   6   9
ATOM      9  C   UNL     1      -5.289  -0.290  -1.368  1.00  0.00     0.219 C 
BRANCH   9  10
ATOM     10  O   UNL     1      -5.902  -0.250  -0.073  1.00  0.00    -0.382 OA
ATOM     11  H   UNL     1      -6.648  -0.884  -0.151  1.00  0.00     0.211 HD
ENDBRANCH   9  10
BRANCH   9  12
ATOM     12  C   UNL     1      -6.354  -0.502  -2.475  1.00  0.00     0.089 C 
BRANCH  12  13
ATOM     13  N   UNL     1      -6.222   0.590  -3.466  1.00  0.00    -0.325 NA
ATOM     14  H   UNL     1      -5.862   1.425  -3.001  1.00  0.00     0.119 HD
ATOM     15  H   UNL     1      -7.153   0.850  -3.799  1.00  0.00     0.119 HD
ENDBRANCH  12  13
BRANCH  12  16
ATOM     16  C   UNL     1      -6.326  -1.875  -3.189  1.00  0.00     0.022 C 
BRANCH  16  17
ATOM     17  C   UNL     1      -6.520  -3.152  -2.360  1.00  0.00     0.002 C 
BRANCH  17  18
ATOM     18  C   UNL     1      -7.675  -4.044  -2.810  1.00  0.00     0.000 C 
BRANCH  18  19
ATOM     19  C   UNL     1      -7.286  -5.082  -3.871  1.00  0.00    -0.000 C 
BRANCH  19  20
ATOM     20  C   UNL     1      -5.881  -5.670  -3.720  1.00  0.00    -0.000 C 
BRANCH  20  21
ATOM     21  C   UNL     1      -5.086  -5.667  -5.029  1.00  0.00    -0.003 C 
ATOM     22  C   UNL     1      -4.010  -6.742  -5.027  1.00  0.00     0.004 C 
ENDBRANCH  20  21
ENDBRANCH  19  20
ENDBRANCH  18  19
ENDBRANCH  17  18
ENDBRANCH  16  17
ENDBRANCH  12  16
ENDBRANCH   9  12
ENDBRANCH   6   9
ENDBRANCH   3   5
ENDBRANCH   2   3
BRANCH   2  23
ATOM     23  N   UNL     1      -2.742   1.566  -4.880  1.00  0.00    -0.332 N 
ATOM     24  C   UNL     1      -3.979   1.714  -5.632  1.00  0.00     0.147 C 
BRANCH  23  25
ATOM     25  C   UNL     1      -1.730   0.673  -5.508  1.00  0.00     0.174 C 
BRANCH  25  26
ATOM     26  C   UNL     1      -1.241  -0.445  -4.558  1.00  0.00     0.038 C 
BRANCH  26  27
ATOM     27  C   UNL     1      -1.751  -1.876  -4.839  1.00  0.00    -0.015 C 
ATOM     28  C   UNL     1      -2.787  -2.338  -3.814  1.00  0.00     0.007 C 
ATOM     29  C   UNL     1      -2.279  -2.065  -6.259  1.00  0.00     0.007 C 
ENDBRANCH  26  27
ENDBRANCH  25  26
BRANCH  25  30
ATOM     30  C   UNL     1      -0.586   1.514  -6.120  1.00  0.00     0.243 C 
ATOM     31  O   UNL     1      -0.627   2.742  -6.152  1.00  0.00    -0.273 OA
ATOM     32  N   UNL     1       0.469   0.799  -6.628  1.00  0.00    -0.342 N 
ATOM     33  H   UNL     1       0.495  -0.206  -6.438  1.00  0.00     0.164 HD
BRANCH  32  34
ATOM     34  C   UNL     1       1.627   1.427  -7.270  1.00  0.00     0.175 C 
BRANCH  34  35
ATOM     35  C   UNL     1       2.869   0.526  -7.185  1.00  0.00     0.070 C 
BRANCH  35  36
ATOM     36  C   UNL     1       4.033   1.057  -7.991  1.00  0.00    -0.045 A 
ATOM     37  C   UNL     1       4.736   2.187  -7.548  1.00  0.00     0.007 A 
ATOM     38  C   UNL     1       4.410   0.449  -9.196  1.00  0.00     0.007 A 
ATOM     39  C   UNL     1       5.803   2.693  -8.292  1.00  0.00     0.046 A 
ATOM     40  C   UNL     1       5.476   0.955  -9.942  1.00  0.00     0.046 A 
ATOM     41  C   UNL     1       6.165   2.073  -9.482  1.00  0.00     0.115 A 
BRANCH  41  42
ATOM     42  O   UNL     1       7.210   2.600 -10.181  1.00  0.00    -0.508 OA
ATOM     43  H   UNL     1       7.208   2.212 -11.071  1.00  0.00     0.293 HD
ENDBRANCH  41  42
ENDBRANCH  35  36
ENDBRANCH  34  35
BRANCH  34  44
ATOM     44  C   UNL     1       1.247   1.750  -8.733  1.00  0.00     0.243 C 
ATOM     45  O   UNL     1       0.607   1.001  -9.465  1.00  0.00    -0.273 OA
ATOM     46  N   UNL     1       1.808   2.920  -9.200  1.00  0.00    -0.341 N 
ATOM     47  H   UNL     1       2.428   3.448  -8.590  1.00  0.00     0.164 HD
BRANCH  46  48
ATOM     48  C   UNL     1       1.647   3.398 -10.575  1.00  0.00     0.196 C 
BRANCH  48  49
ATOM     49  C   UNL     1       2.344   2.465 -11.578  1.00  0.00     0.072 C 
BRANCH  49  50
ATOM     50  C   UNL     1       3.211   3.214 -12.564  1.00  0.00    -0.045 A 
ATOM     51  C   UNL     1       3.051   2.998 -13.941  1.00  0.00     0.007 A 
ATOM     52  C   UNL     1       4.193   4.111 -12.124  1.00  0.00     0.007 A 
ATOM     53  C   UNL     1       3.854   3.674 -14.859  1.00  0.00     0.046 A 
ATOM     54  C   UNL     1       4.998   4.787 -13.044  1.00  0.00     0.046 A 
ATOM     55  C   UNL     1       4.821   4.563 -14.405  1.00  0.00     0.115 A 
BRANCH  55  56
ATOM     56  O   UNL     1       5.586   5.202 -15.335  1.00  0.00    -0.508 OA
ATOM     57  H   UNL     1       5.108   5.991 -15.636  1.00  0.00     0.293 HD
ENDBRANCH  55  56
ENDBRANCH  49  50
ENDBRANCH  48  49
BRANCH  48  58
ATOM     58  C   UNL     1       0.149   3.480 -10.902  1.00  0.00     0.326 C 
ATOM     59  O   UNL     1      -0.661   4.279 -10.462  1.00  0.00    -0.250 OA
BRANCH  58  60
ATOM     60  O   UNL     1      -0.261   2.544 -11.795  1.00  0.00    -0.480 OA
ATOM     61  H   UNL     1       0.581   2.175 -12.139  1.00  0.00     0.296 HD
ENDBRANCH  58  60
ENDBRANCH  48  58
ENDBRANCH  46  48
ENDBRANCH  34  44
ENDBRANCH  32  34
ENDBRANCH  25  30
ENDBRANCH  23  25
ENDBRANCH   2  23
TORSDOF 28
ENDMDL
MODEL 4
REMARK VINA RESULT:    -6.832      2.538     10.545
REMARK INTER + INTRA:         -20.698
REMARK INTER:                 -17.830
REMARK INTRA:                  -2.868
REMARK UNBOUND:                -3.680
REMARK SMILES CCCCCCC[C@H](N)[C@H](O)C(=O)N[C@H](C)C(=O)N(C)[C@H](CC(C)C)C(=O)N[C@@H](Cc1ccc(O)cc1)C(=O)N[C@@H](Cc1ccc(O)cc1)C(=O)O
REMARK SMILES IDX 18 1 17 2 15 3 16 4 14 5 12 6 13 7 10 9 11 10 8 12 9 13 7 16
REMARK SMILES IDX 6 17 5 18 4 19 3 20 2 21 1 22 19 23 20 24 21 25 22 26 23 27
REMARK SMILES IDX 24 28 25 29 26 30 27 31 28 32 29 34 30 35 31 36 32 37 37 38
REMARK SMILES IDX 33 39 36 40 34 41 35 42 38 44 39 45 40 46 41 48 42 49 43 50
REMARK SMILES IDX 44 51 49 52 45 53 48 54 46 55 47 56 50 58 51 59 52 60
REMARK H PARENT 14 8 11 11 9 14 9 15 28 33 35 43 40 47 47 57 52 61
ROOT
ATOM      1  O   UNL     1      -4.756   2.874  -8.736  1.00  0.00    -0.272 OA
ATOM      2  C   UNL     1      -5.092   3.390  -7.660  1.00  0.00     0.245 C 
ENDROOT
BRANCH   2   3
ATOM      3  C   UNL     1      -5.939   2.553  -6.669  1.00  0.00     0.168 C 
ATOM      4  C   UNL     1      -7.426   2.685  -6.982  1.00  0.00     0.041 C 
BRANCH   3   5
ATOM      5  N   UNL     1      -5.534   1.162  -6.543  1.00  0.00    -0.342 N 
ATOM      6  C   UNL     1      -5.637   0.479  -5.349  1.00  0.00     0.251 C 
ATOM      7  O   UNL     1      -6.032   0.993  -4.308  1.00  0.00    -0.272 OA
ATOM      8  H   UNL     1      -5.158   0.639  -7.330  1.00  0.00     0.164 HD
BRANCH   6   9
ATOM      9  C   UNL     1      -5.287  -1.012  -5.485  1.00  0.00     0.219 C 
BRANCH   9  10
ATOM     10  O   UNL     1      -4.199  -1.244  -6.387  1.00  0.00    -0.382 OA
ATOM     11  H   UNL     1      -4.590  -1.070  -7.271  1.00  0.00     0.211 HD
ENDBRANCH   9  10
BRANCH   9  12
ATOM     12  C   UNL     1      -5.029  -1.703  -4.121  1.00  0.00     0.089 C 
BRANCH  12  13
ATOM     13  N   UNL     1      -4.174  -0.814  -3.301  1.00  0.00    -0.325 NA
ATOM     14  H   UNL     1      -4.556   0.133  -3.323  1.00  0.00     0.119 HD
ATOM     15  H   UNL     1      -3.254  -0.742  -3.741  1.00  0.00     0.119 HD
ENDBRANCH  12  13
BRANCH  12  16
ATOM     16  C   UNL     1      -6.287  -2.116  -3.321  1.00  0.00     0.022 C 
BRANCH  16  17
ATOM     17  C   UNL     1      -6.115  -2.835  -1.976  1.00  0.00     0.002 C 
BRANCH  17  18
ATOM     18  C   UNL     1      -6.500  -4.313  -1.980  1.00  0.00     0.000 C 
BRANCH  18  19
ATOM     19  C   UNL     1      -5.522  -5.211  -2.749  1.00  0.00    -0.000 C 
BRANCH  19  20
ATOM     20  C   UNL     1      -5.968  -5.598  -4.162  1.00  0.00    -0.000 C 
BRANCH  20  21
ATOM     21  C   UNL     1      -4.831  -5.543  -5.186  1.00  0.00    -0.003 C 
ATOM     22  C   UNL     1      -4.366  -6.938  -5.574  1.00  0.00     0.004 C 
ENDBRANCH  20  21
ENDBRANCH  19  20
ENDBRANCH  18  19
ENDBRANCH  17  18
ENDBRANCH  16  17
ENDBRANCH  12  16
ENDBRANCH   9  12
ENDBRANCH   6   9
ENDBRANCH   3   5
ENDBRANCH   2   3
BRANCH   2  23
ATOM     23  N   UNL     1      -4.610   4.647  -7.310  1.00  0.00    -0.332 N 
ATOM     24  C   UNL     1      -5.437   5.746  -6.836  1.00  0.00     0.147 C 
BRANCH  23  25
ATOM     25  C   UNL     1      -3.144   4.907  -7.281  1.00  0.00     0.174 C 
BRANCH  25  26
ATOM     26  C   UNL     1      -2.512   4.949  -8.692  1.00  0.00     0.038 C 
BRANCH  26  27
ATOM     27  C   UNL     1      -3.242   5.793  -9.761  1.00  0.00    -0.015 C 
ATOM     28  C   UNL     1      -3.142   7.294  -9.490  1.00  0.00     0.007 C 
ATOM     29  C   UNL     1      -2.804   5.475 -11.189  1.00  0.00     0.007 C 
ENDBRANCH  26  27
ENDBRANCH  25  26
BRANCH  25  30
ATOM     30  C   UNL     1      -2.447   3.919  -6.317  1.00  0.00     0.243 C 
ATOM     31  O   UNL     1      -2.766   3.834  -5.132  1.00  0.00    -0.273 OA
ATOM     32  N   UNL     1      -1.451   3.155  -6.869  1.00  0.00    -0.342 N 
ATOM     33  H   UNL     1      -1.342   3.182  -7.886  1.00  0.00     0.164 HD
BRANCH  32  34
ATOM     34  C   UNL     1      -0.665   2.186  -6.100  1.00  0.00     0.175 C 
BRANCH  34  35
ATOM     35  C   UNL     1      -1.571   1.161  -5.401  1.00  0.00     0.070 C 
BRANCH  35  36
ATOM     36  C   UNL     1      -1.006   0.687  -4.081  1.00  0.00    -0.045 A 
ATOM     37  C   UNL     1      -0.854   1.589  -3.017  1.00  0.00     0.007 A 
ATOM     38  C   UNL     1      -0.607  -0.645  -3.907  1.00  0.00     0.007 A 
ATOM     39  C   UNL     1      -0.320   1.164  -1.800  1.00  0.00     0.046 A 
ATOM     40  C   UNL     1      -0.071  -1.072  -2.689  1.00  0.00     0.046 A 
ATOM     41  C   UNL     1       0.066  -0.162  -1.645  1.00  0.00     0.115 A 
BRANCH  41  42
ATOM     42  O   UNL     1       0.585  -0.537  -0.442  1.00  0.00    -0.508 OA
ATOM     43  H   UNL     1       1.034   0.232  -0.051  1.00  0.00     0.293 HD
ENDBRANCH  41  42
ENDBRANCH  35  36
ENDBRANCH  34  35
BRANCH  34  44
ATOM     44  C   UNL     1       0.336   1.510  -7.064  1.00  0.00     0.243 C 
ATOM     45  O   UNL     1       0.287   0.329  -7.399  1.00  0.00    -0.273 OA
ATOM     46  N   UNL     1       1.387   2.325  -7.425  1.00  0.00    -0.341 N 
ATOM     47  H   UNL     1       1.446   3.260  -7.028  1.00  0.00     0.164 HD
BRANCH  46  48
ATOM     48  C   UNL     1       2.495   1.884  -8.275  1.00  0.00     0.196 C 
BRANCH  48  49
ATOM     49  C   UNL     1       2.243   2.236  -9.751  1.00  0.00     0.072 C 
BRANCH  49  50
ATOM     50  C   UNL     1       3.211   1.548 -10.687  1.00  0.00    -0.045 A 
ATOM     51  C   UNL     1       3.585   2.170 -11.887  1.00  0.00     0.007 A 
ATOM     52  C   UNL     1       3.729   0.282 -10.385  1.00  0.00     0.007 A 
ATOM     53  C   UNL     1       4.467   1.539 -12.764  1.00  0.00     0.046 A 
ATOM     54  C   UNL     1       4.611  -0.350 -11.264  1.00  0.00     0.046 A 
ATOM     55  C   UNL     1       4.973   0.285 -12.447  1.00  0.00     0.115 A 
BRANCH  55  56
ATOM     56  O   UNL     1       5.831  -0.298 -13.332  1.00  0.00    -0.508 OA
ATOM     57  H   UNL     1       5.721  -1.261 -13.275  1.00  0.00     0.293 HD
ENDBRANCH  55  56
ENDBRANCH  49  50
ENDBRANCH  48  49
BRANCH  48  58
ATOM     58  C   UNL     1       3.789   2.557  -7.799  1.00  0.00     0.326 C 
ATOM     59  O   UNL     1       4.778   2.012  -7.334  1.00  0.00    -0.250 OA
BRANCH  58  60
ATOM     60  O   UNL     1       3.784   3.906  -7.945  1.00  0.00    -0.480 OA
ATOM     61  H   UNL     1       4.501   4.065  -8.596  1.00  0.00     0.296 HD
ENDBRANCH  58  60
ENDBRANCH  48  58
ENDBRANCH  46  48
ENDBRANCH  34  44
ENDBRANCH  32  34
ENDBRANCH  25  30
ENDBRANCH  23  25
ENDBRANCH   2  23
TORSDOF 28
ENDMDL
MODEL 5
REMARK VINA RESULT:    -6.803      3.637     10.476
REMARK INTER + INTRA:         -20.625
REMARK INTER:                 -16.618
REMARK INTRA:                  -4.007
REMARK UNBOUND:                -3.680
REMARK SMILES CCCCCCC[C@H](N)[C@H](O)C(=O)N[C@H](C)C(=O)N(C)[C@H](CC(C)C)C(=O)N[C@@H](Cc1ccc(O)cc1)C(=O)N[C@@H](Cc1ccc(O)cc1)C(=O)O
REMARK SMILES IDX 18 1 17 2 15 3 16 4 14 5 12 6 13 7 10 9 11 10 8 12 9 13 7 16
REMARK SMILES IDX 6 17 5 18 4 19 3 20 2 21 1 22 19 23 20 24 21 25 22 26 23 27
REMARK SMILES IDX 24 28 25 29 26 30 27 31 28 32 29 34 30 35 31 36 32 37 37 38
REMARK SMILES IDX 33 39 36 40 34 41 35 42 38 44 39 45 40 46 41 48 42 49 43 50
REMARK SMILES IDX 44 51 49 52 45 53 48 54 46 55 47 56 50 58 51 59 52 60
REMARK H PARENT 14 8 11 11 9 14 9 15 28 33 35 43 40 47 47 57 52 61
ROOT
ATOM      1  O   UNL     1      -0.472   1.800  -2.812  1.00  0.00    -0.272 OA
ATOM      2  C   UNL     1      -1.547   2.391  -2.993  1.00  0.00     0.245 C 
ENDROOT
BRANCH   2   3
ATOM      3  C   UNL     1      -2.676   2.211  -1.948  1.00  0.00     0.168 C 
ATOM      4  C   UNL     1      -2.763   3.425  -1.029  1.00  0.00     0.041 C 
BRANCH   3   5
ATOM      5  N   UNL     1      -3.973   1.859  -2.504  1.00  0.00    -0.342 N 
ATOM      6  C   UNL     1      -4.492   0.586  -2.394  1.00  0.00     0.251 C 
ATOM      7  O   UNL     1      -3.893  -0.344  -1.864  1.00  0.00    -0.272 OA
ATOM      8  H   UNL     1      -4.548   2.539  -2.997  1.00  0.00     0.164 HD
BRANCH   6   9
ATOM      9  C   UNL     1      -5.930   0.481  -2.927  1.00  0.00     0.219 C 
BRANCH   9  10
ATOM     10  O   UNL     1      -6.717   1.639  -2.624  1.00  0.00    -0.382 OA
ATOM     11  H   UNL     1      -6.889   1.556  -1.660  1.00  0.00     0.211 HD
ENDBRANCH   9  10
BRANCH   9  12
ATOM     12  C   UNL     1      -5.995   0.152  -4.441  1.00  0.00     0.089 C 
BRANCH  12  13
ATOM     13  N   UNL     1      -4.852   0.811  -5.113  1.00  0.00    -0.325 NA
ATOM     14  H   UNL     1      -4.689   0.362  -6.016  1.00  0.00     0.119 HD
ATOM     15  H   UNL     1      -4.003   0.636  -4.570  1.00  0.00     0.119 HD
ENDBRANCH  12  13
BRANCH  12  16
ATOM     16  C   UNL     1      -6.031  -1.352  -4.807  1.00  0.00     0.022 C 
BRANCH  16  17
ATOM     17  C   UNL     1      -4.752  -2.026  -5.320  1.00  0.00     0.002 C 
BRANCH  17  18
ATOM     18  C   UNL     1      -4.041  -2.917  -4.304  1.00  0.00     0.000 C 
BRANCH  18  19
ATOM     19  C   UNL     1      -4.989  -3.662  -3.355  1.00  0.00    -0.000 C 
BRANCH  19  20
ATOM     20  C   UNL     1      -5.515  -5.001  -3.881  1.00  0.00    -0.000 C 
BRANCH  20  21
ATOM     21  C   UNL     1      -7.042  -5.046  -3.984  1.00  0.00    -0.003 C 
ATOM     22  C   UNL     1      -7.698  -4.293  -2.837  1.00  0.00     0.004 C 
ENDBRANCH  20  21
ENDBRANCH  19  20
ENDBRANCH  18  19
ENDBRANCH  17  18
ENDBRANCH  16  17
ENDBRANCH  12  16
ENDBRANCH   9  12
ENDBRANCH   6   9
ENDBRANCH   3   5
ENDBRANCH   2   3
BRANCH   2  23
ATOM     23  N   UNL     1      -1.679   3.289  -4.047  1.00  0.00    -0.332 N 
ATOM     24  C   UNL     1      -1.435   4.720  -3.949  1.00  0.00     0.147 C 
BRANCH  23  25
ATOM     25  C   UNL     1      -1.967   2.795  -5.422  1.00  0.00     0.174 C 
BRANCH  25  26
ATOM     26  C   UNL     1      -0.688   2.433  -6.212  1.00  0.00     0.038 C 
BRANCH  26  27
ATOM     27  C   UNL     1      -0.133   1.003  -6.029  1.00  0.00    -0.015 C 
ATOM     28  C   UNL     1      -1.241  -0.033  -5.837  1.00  0.00     0.007 C 
ATOM     29  C   UNL     1       0.816   0.572  -7.145  1.00  0.00     0.007 C 
ENDBRANCH  26  27
ENDBRANCH  25  26
BRANCH  25  30
ATOM     30  C   UNL     1      -2.894   3.788  -6.160  1.00  0.00     0.243 C 
ATOM     31  O   UNL     1      -4.119   3.716  -6.082  1.00  0.00    -0.273 OA
ATOM     32  N   UNL     1      -2.260   4.746  -6.910  1.00  0.00    -0.342 N 
ATOM     33  H   UNL     1      -1.245   4.829  -6.812  1.00  0.00     0.164 HD
BRANCH  32  34
ATOM     34  C   UNL     1      -2.977   5.752  -7.697  1.00  0.00     0.175 C 
BRANCH  34  35
ATOM     35  C   UNL     1      -3.002   7.110  -6.979  1.00  0.00     0.070 C 
BRANCH  35  36
ATOM     36  C   UNL     1      -4.400   7.666  -6.829  1.00  0.00    -0.045 A 
ATOM     37  C   UNL     1      -5.505   6.801  -6.845  1.00  0.00     0.007 A 
ATOM     38  C   UNL     1      -4.616   9.044  -6.694  1.00  0.00     0.007 A 
ATOM     39  C   UNL     1      -6.800   7.306  -6.720  1.00  0.00     0.046 A 
ATOM     40  C   UNL     1      -5.912   9.550  -6.571  1.00  0.00     0.046 A 
ATOM     41  C   UNL     1      -6.993   8.675  -6.584  1.00  0.00     0.115 A 
BRANCH  41  42
ATOM     42  O   UNL     1      -8.274   9.128  -6.468  1.00  0.00    -0.508 OA
ATOM     43  H   UNL     1      -8.389   9.876  -7.077  1.00  0.00     0.293 HD
ENDBRANCH  41  42
ENDBRANCH  35  36
ENDBRANCH  34  35
BRANCH  34  44
ATOM     44  C   UNL     1      -2.301   5.845  -9.084  1.00  0.00     0.243 C 
ATOM     45  O   UNL     1      -2.338   6.836  -9.809  1.00  0.00    -0.273 OA
ATOM     46  N   UNL     1      -1.751   4.654  -9.507  1.00  0.00    -0.341 N 
ATOM     47  H   UNL     1      -1.849   3.828  -8.921  1.00  0.00     0.164 HD
BRANCH  46  48
ATOM     48  C   UNL     1      -1.117   4.479 -10.816  1.00  0.00     0.196 C 
BRANCH  48  49
ATOM     49  C   UNL     1      -0.414   3.115 -10.920  1.00  0.00     0.072 C 
BRANCH  49  50
ATOM     50  C   UNL     1       1.092   3.229 -10.850  1.00  0.00    -0.045 A 
ATOM     51  C   UNL     1       1.846   2.194 -10.278  1.00  0.00     0.007 A 
ATOM     52  C   UNL     1       1.751   4.368 -11.331  1.00  0.00     0.007 A 
ATOM     53  C   UNL     1       3.235   2.295 -10.196  1.00  0.00     0.046 A 
ATOM     54  C   UNL     1       3.142   4.469 -11.248  1.00  0.00     0.046 A 
ATOM     55  C   UNL     1       3.872   3.430 -10.682  1.00  0.00     0.115 A 
BRANCH  55  56
ATOM     56  O   UNL     1       5.231   3.490 -10.581  1.00  0.00    -0.508 OA
ATOM     57  H   UNL     1       5.535   2.711 -10.088  1.00  0.00     0.293 HD
ENDBRANCH  55  56
ENDBRANCH  49  50
ENDBRANCH  48  49
BRANCH  48  58
ATOM     58  C   UNL     1      -2.189   4.590 -11.909  1.00  0.00     0.326 C 
ATOM     59  O   UNL     1      -3.195   3.910 -12.030  1.00  0.00    -0.250 OA
BRANCH  58  60
ATOM     60  O   UNL     1      -1.946   5.579 -12.806  1.00  0.00    -0.480 OA
ATOM     61  H   UNL     1      -1.582   6.303 -12.251  1.00  0.00     0.296 HD
ENDBRANCH  58  60
ENDBRANCH  48  58
ENDBRANCH  46  48
ENDBRANCH  34  44
ENDBRANCH  32  34
ENDBRANCH  25  30
ENDBRANCH  23  25
ENDBRANCH   2  23
TORSDOF 28
ENDMDL
MODEL 6
REMARK VINA RESULT:    -6.698      2.714      7.203
REMARK INTER + INTRA:         -20.363
REMARK INTER:                 -15.920
REMARK INTRA:                  -4.443
REMARK UNBOUND:                -3.680
REMARK SMILES CCCCCCC[C@H](N)[C@H](O)C(=O)N[C@H](C)C(=O)N(C)[C@H](CC(C)C)C(=O)N[C@@H](Cc1ccc(O)cc1)C(=O)N[C@@H](Cc1ccc(O)cc1)C(=O)O
REMARK SMILES IDX 18 1 17 2 15 3 16 4 14 5 12 6 13 7 10 9 11 10 8 12 9 13 7 16
REMARK SMILES IDX 6 17 5 18 4 19 3 20 2 21 1 22 19 23 20 24 21 25 22 26 23 27
REMARK SMILES IDX 24 28 25 29 26 30 27 31 28 32 29 34 30 35 31 36 32 37 37 38
REMARK SMILES IDX 33 39 36 40 34 41 35 42 38 44 39 45 40 46 41 48 42 49 43 50
REMARK SMILES IDX 44 51 49 52 45 53 48 54 46 55 47 56 50 58 51 59 52 60
REMARK H PARENT 14 8 11 11 9 14 9 15 28 33 35 43 40 47 47 57 52 61
ROOT
ATOM      1  O   UNL     1      -5.651   1.694  -8.223  1.00  0.00    -0.272 OA
ATOM      2  C   UNL     1      -6.345   2.563  -8.771  1.00  0.00     0.245 C 
ENDROOT
BRANCH   2   3
ATOM      3  C   UNL     1      -5.658   3.556  -9.742  1.00  0.00     0.168 C 
ATOM      4  C   UNL     1      -6.535   4.781  -9.975  1.00  0.00     0.041 C 
BRANCH   3   5
ATOM      5  N   UNL     1      -4.298   3.924  -9.379  1.00  0.00    -0.342 N 
ATOM      6  C   UNL     1      -3.364   4.285 -10.327  1.00  0.00     0.251 C 
ATOM      7  O   UNL     1      -3.588   4.284 -11.532  1.00  0.00    -0.272 OA
ATOM      8  H   UNL     1      -3.984   3.928  -8.411  1.00  0.00     0.164 HD
BRANCH   6   9
ATOM      9  C   UNL     1      -2.044   4.769  -9.705  1.00  0.00     0.219 C 
BRANCH   9  10
ATOM     10  O   UNL     1      -1.388   3.752  -8.938  1.00  0.00    -0.382 OA
ATOM     11  H   UNL     1      -0.443   3.849  -9.186  1.00  0.00     0.211 HD
ENDBRANCH   9  10
BRANCH   9  12
ATOM     12  C   UNL     1      -1.072   5.387 -10.745  1.00  0.00     0.089 C 
BRANCH  12  13
ATOM     13  N   UNL     1      -0.453   6.592 -10.147  1.00  0.00    -0.325 NA
ATOM     14  H   UNL     1      -0.954   6.838  -9.292  1.00  0.00     0.119 HD
ATOM     15  H   UNL     1      -0.595   7.384 -10.778  1.00  0.00     0.119 HD
ENDBRANCH  12  13
BRANCH  12  16
ATOM     16  C   UNL     1       0.024   4.442 -11.293  1.00  0.00     0.022 C 
BRANCH  16  17
ATOM     17  C   UNL     1       1.477   4.935 -11.346  1.00  0.00     0.002 C 
BRANCH  17  18
ATOM     18  C   UNL     1       2.477   4.077 -10.574  1.00  0.00     0.000 C 
BRANCH  18  19
ATOM     19  C   UNL     1       2.328   2.570 -10.819  1.00  0.00    -0.000 C 
BRANCH  19  20
ATOM     20  C   UNL     1       3.421   1.941 -11.688  1.00  0.00    -0.000 C 
BRANCH  20  21
ATOM     21  C   UNL     1       4.490   1.211 -10.870  1.00  0.00    -0.003 C 
ATOM     22  C   UNL     1       4.212  -0.283 -10.802  1.00  0.00     0.004 C 
ENDBRANCH  20  21
ENDBRANCH  19  20
ENDBRANCH  18  19
ENDBRANCH  17  18
ENDBRANCH  16  17
ENDBRANCH  12  16
ENDBRANCH   9  12
ENDBRANCH   6   9
ENDBRANCH   3   5
ENDBRANCH   2   3
BRANCH   2  23
ATOM     23  N   UNL     1      -7.726   2.559  -8.605  1.00  0.00    -0.332 N 
ATOM     24  C   UNL     1      -8.674   2.066  -9.593  1.00  0.00     0.147 C 
BRANCH  23  25
ATOM     25  C   UNL     1      -8.327   2.958  -7.303  1.00  0.00     0.174 C 
BRANCH  25  26
ATOM     26  C   UNL     1      -7.828   4.336  -6.807  1.00  0.00     0.038 C 
BRANCH  26  27
ATOM     27  C   UNL     1      -8.786   5.534  -6.987  1.00  0.00    -0.015 C 
ATOM     28  C   UNL     1      -8.042   6.846  -7.231  1.00  0.00     0.007 C 
ATOM     29  C   UNL     1      -9.845   5.309  -8.063  1.00  0.00     0.007 C 
ENDBRANCH  26  27
ENDBRANCH  25  26
BRANCH  25  30
ATOM     30  C   UNL     1      -8.154   1.824  -6.267  1.00  0.00     0.243 C 
ATOM     31  O   UNL     1      -9.073   1.057  -5.983  1.00  0.00    -0.273 OA
ATOM     32  N   UNL     1      -6.915   1.736  -5.685  1.00  0.00    -0.342 N 
ATOM     33  H   UNL     1      -6.167   2.315  -6.075  1.00  0.00     0.164 HD
BRANCH  32  34
ATOM     34  C   UNL     1      -6.579   0.741  -4.663  1.00  0.00     0.175 C 
BRANCH  34  35
ATOM     35  C   UNL     1      -6.699  -0.688  -5.214  1.00  0.00     0.070 C 
BRANCH  35  36
ATOM     36  C   UNL     1      -6.250  -1.737  -4.221  1.00  0.00    -0.045 A 
ATOM     37  C   UNL     1      -5.208  -2.616  -4.552  1.00  0.00     0.007 A 
ATOM     38  C   UNL     1      -6.878  -1.862  -2.975  1.00  0.00     0.007 A 
ATOM     39  C   UNL     1      -4.797  -3.596  -3.648  1.00  0.00     0.046 A 
ATOM     40  C   UNL     1      -6.468  -2.843  -2.069  1.00  0.00     0.046 A 
ATOM     41  C   UNL     1      -5.429  -3.702  -2.414  1.00  0.00     0.115 A 
BRANCH  41  42
ATOM     42  O   UNL     1      -4.999  -4.674  -1.561  1.00  0.00    -0.508 OA
ATOM     43  H   UNL     1      -5.706  -4.850  -0.918  1.00  0.00     0.293 HD
ENDBRANCH  41  42
ENDBRANCH  35  36
ENDBRANCH  34  35
BRANCH  34  44
ATOM     44  C   UNL     1      -5.153   1.045  -4.151  1.00  0.00     0.243 C 
ATOM     45  O   UNL     1      -4.872   1.282  -2.980  1.00  0.00    -0.273 OA
ATOM     46  N   UNL     1      -4.220   1.157  -5.160  1.00  0.00    -0.341 N 
ATOM     47  H   UNL     1      -4.524   1.068  -6.127  1.00  0.00     0.164 HD
BRANCH  46  48
ATOM     48  C   UNL     1      -2.817   1.507  -4.925  1.00  0.00     0.196 C 
BRANCH  48  49
ATOM     49  C   UNL     1      -1.903   0.278  -5.065  1.00  0.00     0.072 C 
BRANCH  49  50
ATOM     50  C   UNL     1      -1.370  -0.205  -3.735  1.00  0.00    -0.045 A 
ATOM     51  C   UNL     1      -2.197  -0.948  -2.879  1.00  0.00     0.007 A 
ATOM     52  C   UNL     1      -0.063   0.094  -3.330  1.00  0.00     0.007 A 
ATOM     53  C   UNL     1      -1.721  -1.388  -1.644  1.00  0.00     0.046 A 
ATOM     54  C   UNL     1       0.413  -0.345  -2.093  1.00  0.00     0.046 A 
ATOM     55  C   UNL     1      -0.420  -1.084  -1.261  1.00  0.00     0.115 A 
BRANCH  55  56
ATOM     56  O   UNL     1       0.006  -1.531  -0.045  1.00  0.00    -0.508 OA
ATOM     57  H   UNL     1       0.695  -2.199  -0.189  1.00  0.00     0.293 HD
ENDBRANCH  55  56
ENDBRANCH  49  50
ENDBRANCH  48  49
BRANCH  48  58
ATOM     58  C   UNL     1      -2.394   2.581  -5.937  1.00  0.00     0.326 C 
ATOM     59  O   UNL     1      -1.288   3.080  -6.066  1.00  0.00    -0.250 OA
BRANCH  58  60
ATOM     60  O   UNL     1      -3.397   2.973  -6.762  1.00  0.00    -0.480 OA
ATOM     61  H   UNL     1      -2.926   3.237  -7.581  1.00  0.00     0.296 HD
ENDBRANCH  58  60
ENDBRANCH  48  58
ENDBRANCH  46  48
ENDBRANCH  34  44
ENDBRANCH  32  34
ENDBRANCH  25  30
ENDBRANCH  23  25
ENDBRANCH   2  23
TORSDOF 28
ENDMDL
MODEL 7
REMARK VINA RESULT:    -6.610     11.502     17.876
REMARK INTER + INTRA:         -20.143
REMARK INTER:                 -16.617
REMARK INTRA:                  -3.526
REMARK UNBOUND:                -3.680
REMARK SMILES CCCCCCC[C@H](N)[C@H](O)C(=O)N[C@H](C)C(=O)N(C)[C@H](CC(C)C)C(=O)N[C@@H](Cc1ccc(O)cc1)C(=O)N[C@@H](Cc1ccc(O)cc1)C(=O)O
REMARK SMILES IDX 18 1 17 2 15 3 16 4 14 5 12 6 13 7 10 9 11 10 8 12 9 13 7 16
REMARK SMILES IDX 6 17 5 18 4 19 3 20 2 21 1 22 19 23 20 24 21 25 22 26 23 27
REMARK SMILES IDX 24 28 25 29 26 30 27 31 28 32 29 34 30 35 31 36 32 37 37 38
REMARK SMILES IDX 33 39 36 40 34 41 35 42 38 44 39 45 40 46 41 48 42 49 43 50
REMARK SMILES IDX 44 51 49 52 45 53 48 54 46 55 47 56 50 58 51 59 52 60
REMARK H PARENT 14 8 11 11 9 14 9 15 28 33 35 43 40 47 47 57 52 61
ROOT
ATOM      1  O   UNL     1      -3.516  -0.258   5.635  1.00  0.00    -0.272 OA
ATOM      2  C   UNL     1      -3.875  -1.059   6.511  1.00  0.00     0.245 C 
ENDROOT
BRANCH   2   3
ATOM      3  C   UNL     1      -5.069  -1.999   6.210  1.00  0.00     0.168 C 
ATOM      4  C   UNL     1      -5.606  -2.621   7.495  1.00  0.00     0.041 C 
BRANCH   3   5
ATOM      5  N   UNL     1      -6.130  -1.404   5.413  1.00  0.00    -0.342 N 
ATOM      6  C   UNL     1      -6.702  -2.069   4.349  1.00  0.00     0.251 C 
ATOM      7  O   UNL     1      -6.339  -3.178   3.971  1.00  0.00    -0.272 OA
ATOM      8  H   UNL     1      -6.490  -0.473   5.608  1.00  0.00     0.164 HD
BRANCH   6   9
ATOM      9  C   UNL     1      -7.894  -1.311   3.745  1.00  0.00     0.219 C 
BRANCH   9  10
ATOM     10  O   UNL     1      -7.719  -1.024   2.352  1.00  0.00    -0.382 OA
ATOM     11  H   UNL     1      -7.378  -0.103   2.347  1.00  0.00     0.211 HD
ENDBRANCH   9  10
BRANCH   9  12
ATOM     12  C   UNL     1      -9.254  -2.015   3.995  1.00  0.00     0.089 C 
BRANCH  12  13
ATOM     13  N   UNL     1      -9.011  -3.220   4.820  1.00  0.00    -0.325 NA
ATOM     14  H   UNL     1      -8.433  -2.967   5.623  1.00  0.00     0.119 HD
ATOM     15  H   UNL     1      -8.444  -3.881   4.282  1.00  0.00     0.119 HD
ENDBRANCH  12  13
BRANCH  12  16
ATOM     16  C   UNL     1     -10.359  -1.144   4.639  1.00  0.00     0.022 C 
BRANCH  16  17
ATOM     17  C   UNL     1     -10.744  -1.389   6.105  1.00  0.00     0.002 C 
BRANCH  17  18
ATOM     18  C   UNL     1     -10.054  -0.474   7.114  1.00  0.00     0.000 C 
BRANCH  18  19
ATOM     19  C   UNL     1      -8.960  -1.165   7.938  1.00  0.00    -0.000 C 
BRANCH  19  20
ATOM     20  C   UNL     1      -8.056  -0.223   8.739  1.00  0.00    -0.000 C 
BRANCH  20  21
ATOM     21  C   UNL     1      -7.723  -0.755  10.135  1.00  0.00    -0.003 C 
ATOM     22  C   UNL     1      -8.980  -1.162  10.888  1.00  0.00     0.004 C 
ENDBRANCH  20  21
ENDBRANCH  19  20
ENDBRANCH  18  19
ENDBRANCH  17  18
ENDBRANCH  16  17
ENDBRANCH  12  16
ENDBRANCH   9  12
ENDBRANCH   6   9
ENDBRANCH   3   5
ENDBRANCH   2   3
BRANCH   2  23
ATOM     23  N   UNL     1      -3.138  -1.185   7.684  1.00  0.00    -0.332 N 
ATOM     24  C   UNL     1      -3.266  -0.308   8.838  1.00  0.00     0.147 C 
BRANCH  23  25
ATOM     25  C   UNL     1      -2.229  -2.347   7.877  1.00  0.00     0.174 C 
BRANCH  25  26
ATOM     26  C   UNL     1      -1.920  -2.629   9.367  1.00  0.00     0.038 C 
BRANCH  26  27
ATOM     27  C   UNL     1      -1.943  -4.106   9.819  1.00  0.00    -0.015 C 
ATOM     28  C   UNL     1      -2.545  -4.281  11.213  1.00  0.00     0.007 C 
ATOM     29  C   UNL     1      -2.625  -5.037   8.820  1.00  0.00     0.007 C 
ENDBRANCH  26  27
ENDBRANCH  25  26
BRANCH  25  30
ATOM     30  C   UNL     1      -0.965  -2.187   7.001  1.00  0.00     0.243 C 
ATOM     31  O   UNL     1      -0.956  -2.497   5.810  1.00  0.00    -0.273 OA
ATOM     32  N   UNL     1       0.139  -1.684   7.638  1.00  0.00    -0.342 N 
ATOM     33  H   UNL     1       0.014  -1.319   8.586  1.00  0.00     0.164 HD
BRANCH  32  34
ATOM     34  C   UNL     1       1.430  -1.490   6.973  1.00  0.00     0.175 C 
BRANCH  34  35
ATOM     35  C   UNL     1       1.902  -0.032   7.084  1.00  0.00     0.070 C 
BRANCH  35  36
ATOM     36  C   UNL     1       1.818   0.712   5.770  1.00  0.00    -0.045 A 
ATOM     37  C   UNL     1       0.722   0.508   4.917  1.00  0.00     0.007 A 
ATOM     38  C   UNL     1       2.835   1.591   5.374  1.00  0.00     0.007 A 
ATOM     39  C   UNL     1       0.642   1.179   3.697  1.00  0.00     0.046 A 
ATOM     40  C   UNL     1       2.756   2.262   4.152  1.00  0.00     0.046 A 
ATOM     41  C   UNL     1       1.659   2.051   3.324  1.00  0.00     0.115 A 
BRANCH  41  42
ATOM     42  O   UNL     1       1.544   2.684   2.122  1.00  0.00    -0.508 OA
ATOM     43  H   UNL     1       2.208   2.313   1.517  1.00  0.00     0.293 HD
ENDBRANCH  41  42
ENDBRANCH  35  36
ENDBRANCH  34  35
BRANCH  34  44
ATOM     44  C   UNL     1       2.444  -2.474   7.598  1.00  0.00     0.243 C 
ATOM     45  O   UNL     1       2.516  -2.728   8.797  1.00  0.00    -0.273 OA
ATOM     46  N   UNL     1       3.368  -2.958   6.695  1.00  0.00    -0.341 N 
ATOM     47  H   UNL     1       3.339  -2.627   5.734  1.00  0.00     0.164 HD
BRANCH  46  48
ATOM     48  C   UNL     1       4.466  -3.852   7.068  1.00  0.00     0.196 C 
BRANCH  48  49
ATOM     49  C   UNL     1       4.705  -4.924   5.992  1.00  0.00     0.072 C 
BRANCH  49  50
ATOM     50  C   UNL     1       4.243  -6.297   6.426  1.00  0.00    -0.045 A 
ATOM     51  C   UNL     1       4.671  -7.433   5.724  1.00  0.00     0.007 A 
ATOM     52  C   UNL     1       3.371  -6.454   7.511  1.00  0.00     0.007 A 
ATOM     53  C   UNL     1       4.241  -8.703   6.107  1.00  0.00     0.046 A 
ATOM     54  C   UNL     1       2.940  -7.726   7.894  1.00  0.00     0.046 A 
ATOM     55  C   UNL     1       3.379  -8.841   7.188  1.00  0.00     0.115 A 
BRANCH  55  56
ATOM     56  O   UNL     1       2.981 -10.099   7.529  1.00  0.00    -0.508 OA
ATOM     57  H   UNL     1       3.254 -10.708   6.824  1.00  0.00     0.293 HD
ENDBRANCH  55  56
ENDBRANCH  49  50
ENDBRANCH  48  49
BRANCH  48  58
ATOM     58  C   UNL     1       5.743  -3.021   7.258  1.00  0.00     0.326 C 
ATOM     59  O   UNL     1       6.720  -3.311   7.929  1.00  0.00    -0.250 OA
BRANCH  58  60
ATOM     60  O   UNL     1       5.735  -1.850   6.572  1.00  0.00    -0.480 OA
ATOM     61  H   UNL     1       5.405  -2.111   5.685  1.00  0.00     0.296 HD
ENDBRANCH  58  60
ENDBRANCH  48  58
ENDBRANCH  46  48
ENDBRANCH  34  44
ENDBRANCH  32  34
ENDBRANCH  25  30
ENDBRANCH  23  25
ENDBRANCH   2  23
TORSDOF 28
ENDMDL
MODEL 8
REMARK VINA RESULT:    -6.522      4.242     11.304
REMARK INTER + INTRA:         -19.926
REMARK INTER:                 -17.009
REMARK INTRA:                  -2.916
REMARK UNBOUND:                -3.680
REMARK SMILES CCCCCCC[C@H](N)[C@H](O)C(=O)N[C@H](C)C(=O)N(C)[C@H](CC(C)C)C(=O)N[C@@H](Cc1ccc(O)cc1)C(=O)N[C@@H](Cc1ccc(O)cc1)C(=O)O
REMARK SMILES IDX 18 1 17 2 15 3 16 4 14 5 12 6 13 7 10 9 11 10 8 12 9 13 7 16
REMARK SMILES IDX 6 17 5 18 4 19 3 20 2 21 1 22 19 23 20 24 21 25 22 26 23 27
REMARK SMILES IDX 24 28 25 29 26 30 27 31 28 32 29 34 30 35 31 36 32 37 37 38
REMARK SMILES IDX 33 39 36 40 34 41 35 42 38 44 39 45 40 46 41 48 42 49 43 50
REMARK SMILES IDX 44 51 49 52 45 53 48 54 46 55 47 56 50 58 51 59 52 60
REMARK H PARENT 14 8 11 11 9 14 9 15 28 33 35 43 40 47 47 57 52 61
ROOT
ATOM      1  O   UNL     1      -7.019   2.419  -5.787  1.00  0.00    -0.272 OA
ATOM      2  C   UNL     1      -6.234   2.326  -6.743  1.00  0.00     0.245 C 
ENDROOT
BRANCH   2   3
ATOM      3  C   UNL     1      -4.807   1.784  -6.479  1.00  0.00     0.168 C 
ATOM      4  C   UNL     1      -3.823   2.929  -6.265  1.00  0.00     0.041 C 
BRANCH   3   5
ATOM      5  N   UNL     1      -4.717   0.787  -5.423  1.00  0.00    -0.342 N 
ATOM      6  C   UNL     1      -3.830  -0.266  -5.490  1.00  0.00     0.251 C 
ATOM      7  O   UNL     1      -3.088  -0.467  -6.446  1.00  0.00    -0.272 OA
ATOM      8  H   UNL     1      -5.306   0.829  -4.595  1.00  0.00     0.164 HD
BRANCH   6   9
ATOM      9  C   UNL     1      -3.809  -1.108  -4.204  1.00  0.00     0.219 C 
BRANCH   9  10
ATOM     10  O   UNL     1      -4.525  -0.491  -3.128  1.00  0.00    -0.382 OA
ATOM     11  H   UNL     1      -5.457  -0.756  -3.289  1.00  0.00     0.211 HD
ENDBRANCH   9  10
BRANCH   9  12
ATOM     12  C   UNL     1      -4.291  -2.566  -4.422  1.00  0.00     0.089 C 
BRANCH  12  13
ATOM     13  N   UNL     1      -5.416  -2.546  -5.385  1.00  0.00    -0.325 NA
ATOM     14  H   UNL     1      -5.851  -1.622  -5.375  1.00  0.00     0.119 HD
ATOM     15  H   UNL     1      -6.143  -3.187  -5.058  1.00  0.00     0.119 HD
ENDBRANCH  12  13
BRANCH  12  16
ATOM     16  C   UNL     1      -3.213  -3.575  -4.884  1.00  0.00     0.022 C 
BRANCH  16  17
ATOM     17  C   UNL     1      -3.262  -5.015  -4.356  1.00  0.00     0.002 C 
BRANCH  17  18
ATOM     18  C   UNL     1      -4.308  -5.909  -5.017  1.00  0.00     0.000 C 
BRANCH  18  19
ATOM     19  C   UNL     1      -5.401  -6.404  -4.060  1.00  0.00    -0.000 C 
BRANCH  19  20
ATOM     20  C   UNL     1      -6.553  -5.423  -3.826  1.00  0.00    -0.000 C 
BRANCH  20  21
ATOM     21  C   UNL     1      -6.601  -4.885  -2.393  1.00  0.00    -0.003 C 
ATOM     22  C   UNL     1      -7.205  -3.490  -2.344  1.00  0.00     0.004 C 
ENDBRANCH  20  21
ENDBRANCH  19  20
ENDBRANCH  18  19
ENDBRANCH  17  18
ENDBRANCH  16  17
ENDBRANCH  12  16
ENDBRANCH   9  12
ENDBRANCH   6   9
ENDBRANCH   3   5
ENDBRANCH   2   3
BRANCH   2  23
ATOM     23  N   UNL     1      -6.676   2.589  -8.035  1.00  0.00    -0.332 N 
ATOM     24  C   UNL     1      -6.341   1.787  -9.202  1.00  0.00     0.147 C 
BRANCH  23  25
ATOM     25  C   UNL     1      -7.660   3.678  -8.284  1.00  0.00     0.174 C 
BRANCH  25  26
ATOM     26  C   UNL     1      -8.924   3.189  -9.029  1.00  0.00     0.038 C 
BRANCH  26  27
ATOM     27  C   UNL     1     -10.047   2.566  -8.170  1.00  0.00    -0.015 C 
ATOM     28  C   UNL     1      -9.896   1.052  -8.019  1.00  0.00     0.007 C 
ATOM     29  C   UNL     1     -10.204   3.229  -6.804  1.00  0.00     0.007 C 
ENDBRANCH  26  27
ENDBRANCH  25  26
BRANCH  25  30
ATOM     30  C   UNL     1      -6.963   4.879  -8.965  1.00  0.00     0.243 C 
ATOM     31  O   UNL     1      -7.552   5.604  -9.765  1.00  0.00    -0.273 OA
ATOM     32  N   UNL     1      -5.650   5.075  -8.622  1.00  0.00    -0.342 N 
ATOM     33  H   UNL     1      -5.275   4.520  -7.849  1.00  0.00     0.164 HD
BRANCH  32  34
ATOM     34  C   UNL     1      -4.825   6.145  -9.188  1.00  0.00     0.175 C 
BRANCH  34  35
ATOM     35  C   UNL     1      -4.139   6.965  -8.084  1.00  0.00     0.070 C 
BRANCH  35  36
ATOM     36  C   UNL     1      -4.580   8.411  -8.069  1.00  0.00    -0.045 A 
ATOM     37  C   UNL     1      -4.185   9.276  -9.101  1.00  0.00     0.007 A 
ATOM     38  C   UNL     1      -5.364   8.912  -7.022  1.00  0.00     0.007 A 
ATOM     39  C   UNL     1      -4.575  10.615  -9.089  1.00  0.00     0.046 A 
ATOM     40  C   UNL     1      -5.755  10.254  -7.009  1.00  0.00     0.046 A 
ATOM     41  C   UNL     1      -5.357  11.093  -8.044  1.00  0.00     0.115 A 
BRANCH  41  42
ATOM     42  O   UNL     1      -5.714  12.409  -8.068  1.00  0.00    -0.508 OA
ATOM     43  H   UNL     1      -4.966  12.921  -8.417  1.00  0.00     0.293 HD
ENDBRANCH  41  42
ENDBRANCH  35  36
ENDBRANCH  34  35
BRANCH  34  44
ATOM     44  C   UNL     1      -3.802   5.503 -10.152  1.00  0.00     0.243 C 
ATOM     45  O   UNL     1      -4.007   4.481 -10.801  1.00  0.00    -0.273 OA
ATOM     46  N   UNL     1      -2.565   6.112 -10.125  1.00  0.00    -0.341 N 
ATOM     47  H   UNL     1      -2.409   6.885  -9.482  1.00  0.00     0.164 HD
BRANCH  46  48
ATOM     48  C   UNL     1      -1.417   5.640 -10.901  1.00  0.00     0.196 C 
BRANCH  48  49
ATOM     49  C   UNL     1      -1.168   4.139 -10.675  1.00  0.00     0.072 C 
BRANCH  49  50
ATOM     50  C   UNL     1       0.297   3.773 -10.761  1.00  0.00    -0.045 A 
ATOM     51  C   UNL     1       0.730   2.515 -10.318  1.00  0.00     0.007 A 
ATOM     52  C   UNL     1       1.238   4.681 -11.261  1.00  0.00     0.007 A 
ATOM     53  C   UNL     1       2.080   2.170 -10.380  1.00  0.00     0.046 A 
ATOM     54  C   UNL     1       2.591   4.337 -11.323  1.00  0.00     0.046 A 
ATOM     55  C   UNL     1       3.000   3.083 -10.882  1.00  0.00     0.115 A 
BRANCH  55  56
ATOM     56  O   UNL     1       4.310   2.708 -10.925  1.00  0.00    -0.508 OA
ATOM     57  H   UNL     1       4.836   3.381 -10.464  1.00  0.00     0.293 HD
ENDBRANCH  55  56
ENDBRANCH  49  50
ENDBRANCH  48  49
BRANCH  48  58
ATOM     58  C   UNL     1      -1.680   5.899 -12.391  1.00  0.00     0.326 C 
ATOM     59  O   UNL     1      -1.476   6.932 -13.008  1.00  0.00    -0.250 OA
BRANCH  58  60
ATOM     60  O   UNL     1      -2.182   4.823 -13.047  1.00  0.00    -0.480 OA
ATOM     61  H   UNL     1      -1.403   4.466 -13.525  1.00  0.00     0.296 HD
ENDBRANCH  58  60
ENDBRANCH  48  58
ENDBRANCH  46  48
ENDBRANCH  34  44
ENDBRANCH  32  34
ENDBRANCH  25  30
ENDBRANCH  23  25
ENDBRANCH   2  23
TORSDOF 28
ENDMDL
MODEL 9
REMARK VINA RESULT:    -6.504      6.825     12.050
REMARK INTER + INTRA:         -19.880
REMARK INTER:                 -15.724
REMARK INTRA:                  -4.156
REMARK UNBOUND:                -3.680
REMARK SMILES CCCCCCC[C@H](N)[C@H](O)C(=O)N[C@H](C)C(=O)N(C)[C@H](CC(C)C)C(=O)N[C@@H](Cc1ccc(O)cc1)C(=O)N[C@@H](Cc1ccc(O)cc1)C(=O)O
REMARK SMILES IDX 18 1 17 2 15 3 16 4 14 5 12 6 13 7 10 9 11 10 8 12 9 13 7 16
REMARK SMILES IDX 6 17 5 18 4 19 3 20 2 21 1 22 19 23 20 24 21 25 22 26 23 27
REMARK SMILES IDX 24 28 25 29 26 30 27 31 28 32 29 34 30 35 31 36 32 37 37 38
REMARK SMILES IDX 33 39 36 40 34 41 35 42 38 44 39 45 40 46 41 48 42 49 43 50
REMARK SMILES IDX 44 51 49 52 45 53 48 54 46 55 47 56 50 58 51 59 52 60
REMARK H PARENT 14 8 11 11 9 14 9 15 28 33 35 43 40 47 47 57 52 61
ROOT
ATOM      1  O   UNL     1      -0.670   4.671  -3.789  1.00  0.00    -0.272 OA
ATOM      2  C   UNL     1      -1.531   3.821  -3.517  1.00  0.00     0.245 C 
ENDROOT
BRANCH   2   3
ATOM      3  C   UNL     1      -2.319   3.166  -4.678  1.00  0.00     0.168 C 
ATOM      4  C   UNL     1      -2.318   4.067  -5.909  1.00  0.00     0.041 C 
BRANCH   3   5
ATOM      5  N   UNL     1      -1.916   1.807  -5.001  1.00  0.00    -0.342 N 
ATOM      6  C   UNL     1      -2.609   0.711  -4.532  1.00  0.00     0.251 C 
ATOM      7  O   UNL     1      -3.578   0.793  -3.785  1.00  0.00    -0.272 OA
ATOM      8  H   UNL     1      -1.105   1.612  -5.585  1.00  0.00     0.164 HD
BRANCH   6   9
ATOM      9  C   UNL     1      -2.090  -0.614  -5.114  1.00  0.00     0.219 C 
BRANCH   9  10
ATOM     10  O   UNL     1      -1.594  -1.504  -4.106  1.00  0.00    -0.382 OA
ATOM     11  H   UNL     1      -1.013  -0.932  -3.559  1.00  0.00     0.211 HD
ENDBRANCH   9  10
BRANCH   9  12
ATOM     12  C   UNL     1      -3.128  -1.329  -6.018  1.00  0.00     0.089 C 
BRANCH  12  13
ATOM     13  N   UNL     1      -2.403  -2.000  -7.121  1.00  0.00    -0.325 NA
ATOM     14  H   UNL     1      -2.899  -1.834  -7.999  1.00  0.00     0.119 HD
ATOM     15  H   UNL     1      -2.444  -3.012  -6.978  1.00  0.00     0.119 HD
ENDBRANCH  12  13
BRANCH  12  16
ATOM     16  C   UNL     1      -4.065  -2.336  -5.309  1.00  0.00     0.022 C 
BRANCH  16  17
ATOM     17  C   UNL     1      -5.508  -2.493  -5.808  1.00  0.00     0.002 C 
BRANCH  17  18
ATOM     18  C   UNL     1      -6.264  -3.687  -5.230  1.00  0.00     0.000 C 
BRANCH  18  19
ATOM     19  C   UNL     1      -5.980  -3.946  -3.744  1.00  0.00    -0.000 C 
BRANCH  19  20
ATOM     20  C   UNL     1      -5.739  -5.412  -3.375  1.00  0.00    -0.000 C 
BRANCH  20  21
ATOM     21  C   UNL     1      -5.262  -6.258  -4.558  1.00  0.00    -0.003 C 
ATOM     22  C   UNL     1      -3.744  -6.291  -4.641  1.00  0.00     0.004 C 
ENDBRANCH  20  21
ENDBRANCH  19  20
ENDBRANCH  18  19
ENDBRANCH  17  18
ENDBRANCH  16  17
ENDBRANCH  12  16
ENDBRANCH   9  12
ENDBRANCH   6   9
ENDBRANCH   3   5
ENDBRANCH   2   3
BRANCH   2  23
ATOM     23  N   UNL     1      -1.687   3.385  -2.205  1.00  0.00    -0.332 N 
ATOM     24  C   UNL     1      -2.897   3.560  -1.415  1.00  0.00     0.147 C 
BRANCH  23  25
ATOM     25  C   UNL     1      -0.625   2.570  -1.553  1.00  0.00     0.174 C 
BRANCH  25  26
ATOM     26  C   UNL     1      -1.185   1.333  -0.812  1.00  0.00     0.038 C 
BRANCH  26  27
ATOM     27  C   UNL     1      -0.641  -0.047  -1.243  1.00  0.00    -0.015 C 
ATOM     28  C   UNL     1       0.647   0.061  -2.059  1.00  0.00     0.007 C 
ATOM     29  C   UNL     1      -0.460  -1.019  -0.080  1.00  0.00     0.007 C 
ENDBRANCH  26  27
ENDBRANCH  25  26
BRANCH  25  30
ATOM     30  C   UNL     1       0.270   3.470  -0.671  1.00  0.00     0.243 C 
ATOM     31  O   UNL     1       1.465   3.634  -0.912  1.00  0.00    -0.273 OA
ATOM     32  N   UNL     1      -0.354   4.066   0.395  1.00  0.00    -0.342 N 
ATOM     33  H   UNL     1      -1.373   3.996   0.446  1.00  0.00     0.164 HD
BRANCH  32  34
ATOM     34  C   UNL     1       0.343   4.929   1.352  1.00  0.00     0.175 C 
BRANCH  34  35
ATOM     35  C   UNL     1       0.606   6.322   0.759  1.00  0.00     0.070 C 
BRANCH  35  36
ATOM     36  C   UNL     1       1.857   6.967   1.314  1.00  0.00    -0.045 A 
ATOM     37  C   UNL     1       2.662   6.266   2.225  1.00  0.00     0.007 A 
ATOM     38  C   UNL     1       2.215   8.271   0.950  1.00  0.00     0.007 A 
ATOM     39  C   UNL     1       3.810   6.858   2.753  1.00  0.00     0.046 A 
ATOM     40  C   UNL     1       3.364   8.864   1.479  1.00  0.00     0.046 A 
ATOM     41  C   UNL     1       4.152   8.151   2.375  1.00  0.00     0.115 A 
BRANCH  41  42
ATOM     42  O   UNL     1       5.280   8.694   2.917  1.00  0.00    -0.508 OA
ATOM     43  H   UNL     1       5.934   7.985   3.033  1.00  0.00     0.293 HD
ENDBRANCH  41  42
ENDBRANCH  35  36
ENDBRANCH  34  35
BRANCH  34  44
ATOM     44  C   UNL     1      -0.508   5.001   2.640  1.00  0.00     0.243 C 
ATOM     45  O   UNL     1      -0.597   4.095   3.464  1.00  0.00    -0.273 OA
ATOM     46  N   UNL     1      -1.279   6.141   2.725  1.00  0.00    -0.341 N 
ATOM     47  H   UNL     1      -1.259   6.809   1.959  1.00  0.00     0.164 HD
BRANCH  46  48
ATOM     48  C   UNL     1      -2.216   6.400   3.821  1.00  0.00     0.196 C 
BRANCH  48  49
ATOM     49  C   UNL     1      -2.145   7.864   4.284  1.00  0.00     0.072 C 
BRANCH  49  50
ATOM     50  C   UNL     1      -0.730   8.319   4.561  1.00  0.00    -0.045 A 
ATOM     51  C   UNL     1      -0.200   9.416   3.866  1.00  0.00     0.007 A 
ATOM     52  C   UNL     1       0.075   7.647   5.490  1.00  0.00     0.007 A 
ATOM     53  C   UNL     1       1.109   9.836   4.103  1.00  0.00     0.046 A 
ATOM     54  C   UNL     1       1.386   8.068   5.727  1.00  0.00     0.046 A 
ATOM     55  C   UNL     1       1.891   9.160   5.031  1.00  0.00     0.115 A 
BRANCH  55  56
ATOM     56  O   UNL     1       3.166   9.602   5.232  1.00  0.00    -0.508 OA
ATOM     57  H   UNL     1       3.218  10.527   4.944  1.00  0.00     0.293 HD
ENDBRANCH  55  56
ENDBRANCH  49  50
ENDBRANCH  48  49
BRANCH  48  58
ATOM     58  C   UNL     1      -3.640   6.078   3.346  1.00  0.00     0.326 C 
ATOM     59  O   UNL     1      -4.324   5.118   3.658  1.00  0.00    -0.250 OA
BRANCH  58  60
ATOM     60  O   UNL     1      -4.149   7.006   2.496  1.00  0.00    -0.480 OA
ATOM     61  H   UNL     1      -5.097   6.759   2.434  1.00  0.00     0.296 HD
ENDBRANCH  58  60
ENDBRANCH  48  58
ENDBRANCH  46  48
ENDBRANCH  34  44
ENDBRANCH  32  34
ENDBRANCH  25  30
ENDBRANCH  23  25
ENDBRANCH   2  23
TORSDOF 28
ENDMDL
MODEL 10
REMARK VINA RESULT:    -6.495     10.222     14.371
REMARK INTER + INTRA:         -19.859
REMARK INTER:                 -16.812
REMARK INTRA:                  -3.047
REMARK UNBOUND:                -3.680
REMARK SMILES CCCCCCC[C@H](N)[C@H](O)C(=O)N[C@H](C)C(=O)N(C)[C@H](CC(C)C)C(=O)N[C@@H](Cc1ccc(O)cc1)C(=O)N[C@@H](Cc1ccc(O)cc1)C(=O)O
REMARK SMILES IDX 18 1 17 2 15 3 16 4 14 5 12 6 13 7 10 9 11 10 8 12 9 13 7 16
REMARK SMILES IDX 6 17 5 18 4 19 3 20 2 21 1 22 19 23 20 24 21 25 22 26 23 27
REMARK SMILES IDX 24 28 25 29 26 30 27 31 28 32 29 34 30 35 31 36 32 37 37 38
REMARK SMILES IDX 33 39 36 40 34 41 35 42 38 44 39 45 40 46 41 48 42 49 43 50
REMARK SMILES IDX 44 51 49 52 45 53 48 54 46 55 47 56 50 58 51 59 52 60
REMARK H PARENT 14 8 11 11 9 14 9 15 28 33 35 43 40 47 47 57 52 61
ROOT
ATOM      1  O   UNL     1       7.126   7.007   3.081  1.00  0.00    -0.272 OA
ATOM      2  C   UNL     1       6.212   7.806   2.830  1.00  0.00     0.245 C 
ENDROOT
BRANCH   2   3
ATOM      3  C   UNL     1       6.352   8.726   1.591  1.00  0.00     0.168 C 
ATOM      4  C   UNL     1       5.754  10.102   1.868  1.00  0.00     0.041 C 
BRANCH   3   5
ATOM      5  N   UNL     1       7.698   8.820   1.049  1.00  0.00    -0.342 N 
ATOM      6  C   UNL     1       7.959   9.456  -0.146  1.00  0.00     0.251 C 
ATOM      7  O   UNL     1       7.087   9.948  -0.855  1.00  0.00    -0.272 OA
ATOM      8  H   UNL     1       8.499   8.418   1.530  1.00  0.00     0.164 HD
BRANCH   6   9
ATOM      9  C   UNL     1       9.462   9.557  -0.450  1.00  0.00     0.219 C 
BRANCH   9  10
ATOM     10  O   UNL     1      10.278   9.256   0.688  1.00  0.00    -0.382 OA
ATOM     11  H   UNL     1       9.635   9.221   1.430  1.00  0.00     0.211 HD
ENDBRANCH   9  10
BRANCH   9  12
ATOM     12  C   UNL     1       9.894   8.712  -1.677  1.00  0.00     0.089 C 
BRANCH  12  13
ATOM     13  N   UNL     1       9.046   9.094  -2.829  1.00  0.00    -0.325 NA
ATOM     14  H   UNL     1       8.074   9.164  -2.523  1.00  0.00     0.119 HD
ATOM     15  H   UNL     1       9.056   8.333  -3.514  1.00  0.00     0.119 HD
ENDBRANCH  12  13
BRANCH  12  16
ATOM     16  C   UNL     1      11.389   8.795  -2.066  1.00  0.00     0.022 C 
BRANCH  16  17
ATOM     17  C   UNL     1      12.040   7.609  -2.790  1.00  0.00     0.002 C 
BRANCH  17  18
ATOM     18  C   UNL     1      12.215   6.352  -1.940  1.00  0.00     0.000 C 
BRANCH  18  19
ATOM     19  C   UNL     1      13.580   5.671  -2.106  1.00  0.00    -0.000 C 
BRANCH  19  20
ATOM     20  C   UNL     1      13.755   4.873  -3.401  1.00  0.00    -0.000 C 
BRANCH  20  21
ATOM     21  C   UNL     1      14.355   3.483  -3.173  1.00  0.00    -0.003 C 
ATOM     22  C   UNL     1      14.877   2.885  -4.470  1.00  0.00     0.004 C 
ENDBRANCH  20  21
ENDBRANCH  19  20
ENDBRANCH  18  19
ENDBRANCH  17  18
ENDBRANCH  16  17
ENDBRANCH  12  16
ENDBRANCH   9  12
ENDBRANCH   6   9
ENDBRANCH   3   5
ENDBRANCH   2   3
BRANCH   2  23
ATOM     23  N   UNL     1       5.039   7.780   3.578  1.00  0.00    -0.332 N 
ATOM     24  C   UNL     1       4.958   8.088   4.998  1.00  0.00     0.147 C 
BRANCH  23  25
ATOM     25  C   UNL     1       3.728   7.548   2.911  1.00  0.00     0.174 C 
BRANCH  25  26
ATOM     26  C   UNL     1       2.563   8.300   3.596  1.00  0.00     0.038 C 
BRANCH  26  27
ATOM     27  C   UNL     1       1.362   8.690   2.706  1.00  0.00    -0.015 C 
ATOM     28  C   UNL     1       0.871  10.112   2.975  1.00  0.00     0.007 C 
ATOM     29  C   UNL     1       1.619   8.484   1.215  1.00  0.00     0.007 C 
ENDBRANCH  26  27
ENDBRANCH  25  26
BRANCH  25  30
ATOM     30  C   UNL     1       3.477   6.032   2.745  1.00  0.00     0.243 C 
ATOM     31  O   UNL     1       3.118   5.326   3.686  1.00  0.00    -0.273 OA
ATOM     32  N   UNL     1       3.685   5.530   1.486  1.00  0.00    -0.342 N 
ATOM     33  H   UNL     1       3.843   6.200   0.729  1.00  0.00     0.164 HD
BRANCH  32  34
ATOM     34  C   UNL     1       3.522   4.113   1.151  1.00  0.00     0.175 C 
BRANCH  34  35
ATOM     35  C   UNL     1       2.523   3.923  -0.001  1.00  0.00     0.070 C 
BRANCH  35  36
ATOM     36  C   UNL     1       1.144   4.451   0.328  1.00  0.00    -0.045 A 
ATOM     37  C   UNL     1       0.500   4.045   1.506  1.00  0.00     0.007 A 
ATOM     38  C   UNL     1       0.484   5.328  -0.543  1.00  0.00     0.007 A 
ATOM     39  C   UNL     1      -0.778   4.516   1.811  1.00  0.00     0.046 A 
ATOM     40  C   UNL     1      -0.795   5.799  -0.239  1.00  0.00     0.046 A 
ATOM     41  C   UNL     1      -1.414   5.389   0.937  1.00  0.00     0.115 A 
BRANCH  41  42
ATOM     42  O   UNL     1      -2.663   5.823   1.271  1.00  0.00    -0.508 OA
ATOM     43  H   UNL     1      -2.572   6.578   1.876  1.00  0.00     0.293 HD
ENDBRANCH  41  42
ENDBRANCH  35  36
ENDBRANCH  34  35
BRANCH  34  44
ATOM     44  C   UNL     1       4.915   3.539   0.807  1.00  0.00     0.243 C 
ATOM     45  O   UNL     1       5.929   3.737   1.470  1.00  0.00    -0.273 OA
ATOM     46  N   UNL     1       4.953   2.877  -0.402  1.00  0.00    -0.341 N 
ATOM     47  H   UNL     1       4.111   2.840  -0.971  1.00  0.00     0.164 HD
BRANCH  46  48
ATOM     48  C   UNL     1       6.176   2.307  -0.971  1.00  0.00     0.196 C 
BRANCH  48  49
ATOM     49  C   UNL     1       7.394   3.204  -0.692  1.00  0.00     0.072 C 
BRANCH  49  50
ATOM     50  C   UNL     1       8.454   3.096  -1.764  1.00  0.00    -0.045 A 
ATOM     51  C   UNL     1       8.093   3.196  -3.116  1.00  0.00     0.007 A 
ATOM     52  C   UNL     1       9.796   2.875  -1.432  1.00  0.00     0.007 A 
ATOM     53  C   UNL     1       9.060   3.085  -4.115  1.00  0.00     0.046 A 
ATOM     54  C   UNL     1      10.765   2.763  -2.432  1.00  0.00     0.046 A 
ATOM     55  C   UNL     1      10.388   2.870  -3.766  1.00  0.00     0.115 A 
BRANCH  55  56
ATOM     56  O   UNL     1      11.301   2.765  -4.773  1.00  0.00    -0.508 OA
ATOM     57  H   UNL     1      10.886   3.066  -5.596  1.00  0.00     0.293 HD
ENDBRANCH  55  56
ENDBRANCH  49  50
ENDBRANCH  48  49
BRANCH  48  58
ATOM     58  C   UNL     1       6.409   0.917  -0.361  1.00  0.00     0.326 C 
ATOM     59  O   UNL     1       7.195   0.065  -0.744  1.00  0.00    -0.250 OA
BRANCH  58  60
ATOM     60  O   UNL     1       5.640   0.668   0.728  1.00  0.00    -0.480 OA
ATOM     61  H   UNL     1       5.007   1.418   0.734  1.00  0.00     0.296 HD
ENDBRANCH  58  60
ENDBRANCH  48  58
ENDBRANCH  46  48
ENDBRANCH  34  44
ENDBRANCH  32  34
ENDBRANCH  25  30
ENDBRANCH  23  25
ENDBRANCH   2  23
TORSDOF 28
ENDMDL
