MODEL 1
REMARK VINA RESULT:    -5.423      0.000      0.000
REMARK INTER + INTRA:         -20.494
REMARK INTER:                 -15.569
REMARK INTRA:                  -4.926
REMARK UNBOUND:                -4.926
REMARK SMILES CCCCCC(=O)N[C@H](CC(=O)O)C(=O)N[C@H]1C(=O)N[C@H](CCCN=C(N)N)C(=O)N[C@@H]2CC[C@H](O)N(C2=O)[C@@H](CC(C)C)C(=O)N(C)[C@@H](Cc2ccccc2)C(=O)N[C@H](C(C)C)C(=O)O[C@@H]1C
REMARK SMILES IDX 30 1 31 2 29 3 32 5 35 6 37 7 34 8 38 9 33 10 39 11 36 12
REMARK SMILES IDX 40 14 41 15 42 16 43 17 44 18 45 19 46 20 47 21 48 22 49 23
REMARK SMILES IDX 50 24 51 25 52 26 56 27 53 28 55 29 54 30 57 31 58 32 59 33
REMARK SMILES IDX 60 35 61 36 62 37 63 38 64 39 65 40 66 41 67 42 68 43 21 45
REMARK SMILES IDX 20 46 18 47 19 48 17 50 16 52 14 53 15 54 9 56 8 57 6 58
REMARK SMILES IDX 7 59 5 61 4 62 3 63 2 64 1 65 10 66 11 67 12 68 13 69 22 71
REMARK SMILES IDX 23 72 24 73 25 74 26 75 27 76 28 77
REMARK H PARENT 31 4 36 13 59 34 20 49 16 55 8 60 13 70 27 78 27 79 28 80
REMARK H PARENT 28 81
REMARK Flexibility Score:  259.900
ROOT
ATOM      1  O   UNL     1       0.177  -0.397  -8.451  1.00  0.00    -0.273 OA
ATOM      2  N   UNL     1       2.329  -1.103  -8.772  1.00  0.00    -0.343 N 
ATOM      3  C   UNL     1       1.058  -0.799  -9.211  1.00  0.00     0.243 C 
ATOM      4  H   UNL     1       3.032  -1.416  -9.429  1.00  0.00     0.164 HD
ENDROOT
BRANCH   2   5
ATOM      5  C   UNL     1       2.649  -1.073  -7.349  1.00  0.00     0.171 C 
ATOM      6  C   UNL     1       5.128  -0.665  -5.902  1.00  0.00     0.214 C 
ATOM      7  N   UNL     1       4.726  -2.005  -6.259  1.00  0.00    -0.303 N 
ATOM      8  C   UNL     1       3.954   0.275  -5.675  1.00  0.00     0.057 C 
ATOM      9  C   UNL     1       3.581  -2.267  -6.994  1.00  0.00     0.247 C 
ATOM     10  C   UNL     1       3.089   0.324  -6.915  1.00  0.00     0.040 C 
ATOM     11  O   UNL     1       3.289  -3.410  -7.369  1.00  0.00    -0.272 OA
BRANCH   6  12
ATOM     12  O   UNL     1       5.957  -0.176  -6.931  1.00  0.00    -0.373 OA
ATOM     13  H   UNL     1       5.382   0.317  -7.554  1.00  0.00     0.213 HD
ENDBRANCH   6  12
BRANCH   7  14
ATOM     14  C   UNL     1       5.670  -3.096  -5.934  1.00  0.00     0.177 C 
BRANCH  14  15
ATOM     15  C   UNL     1       7.158  -2.767  -6.162  1.00  0.00     0.038 C 
BRANCH  15  16
ATOM     16  C   UNL     1       7.816  -3.117  -7.515  1.00  0.00    -0.015 C 
ATOM     17  C   UNL     1       8.439  -4.516  -7.517  1.00  0.00     0.007 C 
ATOM     18  C   UNL     1       8.919  -2.100  -7.834  1.00  0.00     0.007 C 
ENDBRANCH  15  16
ENDBRANCH  14  15
BRANCH  14  19
ATOM     19  C   UNL     1       5.104  -3.974  -4.765  1.00  0.00     0.245 C 
ATOM     20  O   UNL     1       4.970  -3.418  -3.663  1.00  0.00    -0.272 OA
BRANCH  19  21
ATOM     21  N   UNL     1       4.860  -5.332  -4.869  1.00  0.00    -0.332 N 
ATOM     22  C   UNL     1       3.904  -6.080  -4.071  1.00  0.00     0.147 C 
BRANCH  21  23
ATOM     23  C   UNL     1       5.644  -6.105  -5.872  1.00  0.00     0.178 C 
BRANCH  23  24
ATOM     24  C   UNL     1       6.523  -7.225  -5.279  1.00  0.00     0.070 C 
BRANCH  24  25
ATOM     25  C   UNL     1       7.367  -6.874  -4.076  1.00  0.00    -0.045 A 
ATOM     26  C   UNL     1       7.181  -7.529  -2.852  1.00  0.00     0.004 A 
ATOM     27  C   UNL     1       8.351  -5.877  -4.169  1.00  0.00     0.004 A 
ATOM     28  C   UNL     1       7.954  -7.186  -1.741  1.00  0.00     0.000 A 
ATOM     29  C   UNL     1       9.123  -5.536  -3.058  1.00  0.00     0.000 A 
ATOM     30  C   UNL     1       8.922  -6.189  -1.844  1.00  0.00     0.000 A 
ENDBRANCH  24  25
ENDBRANCH  23  24
BRANCH  23  31
ATOM     31  C   UNL     1       4.805  -6.519  -7.105  1.00  0.00     0.243 C 
ATOM     32  O   UNL     1       3.618  -6.829  -7.055  1.00  0.00    -0.273 OA
ATOM     33  N   UNL     1       5.559  -6.691  -8.253  1.00  0.00    -0.341 N 
ATOM     34  H   UNL     1       6.545  -6.420  -8.232  1.00  0.00     0.164 HD
BRANCH  33  35
ATOM     35  C   UNL     1       4.997  -7.193  -9.510  1.00  0.00     0.194 C 
BRANCH  35  36
ATOM     36  C   UNL     1       6.026  -7.923 -10.419  1.00  0.00     0.017 C 
ATOM     37  C   UNL     1       6.380  -9.312  -9.861  1.00  0.00     0.010 C 
ATOM     38  C   UNL     1       7.339  -7.148 -10.588  1.00  0.00     0.010 C 
ENDBRANCH  35  36
BRANCH  35  39
ATOM     39  C   UNL     1       4.204  -6.106 -10.288  1.00  0.00     0.329 C 
ATOM     40  O   UNL     1       4.726  -5.175 -10.889  1.00  0.00    -0.250 OA
BRANCH  39  41
ATOM     41  O   UNL     1       2.859  -6.352 -10.299  1.00  0.00    -0.458 OA
BRANCH  41  42
ATOM     42  C   UNL     1       1.998  -5.222 -10.023  1.00  0.00     0.205 CG0
ATOM     43  C   UNL     1       0.898  -5.708  -9.081  1.00  0.00     0.056 C 
ATOM     44  G   UNL     1       1.439  -4.690 -11.358  1.00  0.00     0.000 G0
ENDBRANCH  41  42
ENDBRANCH  39  41
ENDBRANCH  35  39
ENDBRANCH  33  35
ENDBRANCH  23  31
ENDBRANCH  21  23
ENDBRANCH  19  21
ENDBRANCH  14  19
ENDBRANCH   7  14
ENDBRANCH   2   5
BRANCH   3  45
ATOM     45  C   UNL     1       0.824  -0.975 -10.718  1.00  0.00     0.171 C 
BRANCH  45  46
ATOM     46  N   UNL     1       1.395  -2.272 -11.056  1.00  0.00    -0.342 N 
ATOM     47  C   UNL     1       0.640  -3.416 -11.114  1.00  0.00     0.247 C 
ATOM     48  O   UNL     1      -0.582  -3.419 -10.958  1.00  0.00    -0.273 OA
ATOM     49  H   UNL     1       2.394  -2.305 -11.248  1.00  0.00     0.164 HD
BRANCH  47  50
ATOM     50  C   UNL     1       1.433  -4.707 -11.363  1.00  0.00     0.212 CG0
ATOM     51  G   UNL     1       1.995  -5.178 -10.007  1.00  0.00     0.000 G0
BRANCH  50  52
ATOM     52  N   UNL     1       0.479  -5.644 -11.949  1.00  0.00    -0.339 N 
ATOM     53  C   UNL     1       0.796  -6.504 -12.973  1.00  0.00     0.243 C 
ATOM     54  O   UNL     1       1.899  -6.513 -13.512  1.00  0.00    -0.273 OA
ATOM     55  H   UNL     1      -0.484  -5.606 -11.620  1.00  0.00     0.164 HD
BRANCH  53  56
ATOM     56  C   UNL     1      -0.397  -7.336 -13.485  1.00  0.00     0.182 C 
BRANCH  56  57
ATOM     57  N   UNL     1      -1.066  -6.664 -14.603  1.00  0.00    -0.344 N 
ATOM     58  C   UNL     1      -0.717  -6.889 -15.913  1.00  0.00     0.220 C 
ATOM     59  O   UNL     1       0.223  -7.607 -16.234  1.00  0.00    -0.275 OA
ATOM     60  H   UNL     1      -1.912  -6.142 -14.387  1.00  0.00     0.164 HD
BRANCH  58  61
ATOM     61  C   UNL     1      -1.581  -6.131 -16.904  1.00  0.00     0.100 C 
BRANCH  61  62
ATOM     62  C   UNL     1      -2.268  -4.902 -16.309  1.00  0.00     0.010 C 
BRANCH  62  63
ATOM     63  C   UNL     1      -3.098  -4.097 -17.318  1.00  0.00     0.000 C 
BRANCH  63  64
ATOM     64  C   UNL     1      -2.932  -2.583 -17.200  1.00  0.00    -0.003 C 
ATOM     65  C   UNL     1      -1.491  -2.161 -17.450  1.00  0.00     0.004 C 
ENDBRANCH  63  64
ENDBRANCH  62  63
ENDBRANCH  61  62
ENDBRANCH  58  61
ENDBRANCH  56  57
BRANCH  56  66
ATOM     66  C   UNL     1      -1.367  -7.680 -12.355  1.00  0.00     0.157 C 
BRANCH  66  67
ATOM     67  C   UNL     1      -1.201  -9.105 -11.912  1.00  0.00     0.305 C 
ATOM     68  O   UNL     1      -0.173  -9.636 -11.521  1.00  0.00    -0.252 OA
BRANCH  67  69
ATOM     69  O   UNL     1      -2.363  -9.785 -11.932  1.00  0.00    -0.481 OA
ATOM     70  H   UNL     1      -2.189 -10.561 -12.506  1.00  0.00     0.296 HD
ENDBRANCH  67  69
ENDBRANCH  66  67
ENDBRANCH  56  66
ENDBRANCH  53  56
ENDBRANCH  50  52
ENDBRANCH  47  50
ENDBRANCH  45  46
BRANCH  45  71
ATOM     71  C   UNL     1       1.496   0.160 -11.499  1.00  0.00     0.037 C 
BRANCH  71  72
ATOM     72  C   UNL     1       0.480   1.017 -12.258  1.00  0.00     0.026 C 
BRANCH  72  73
ATOM     73  C   UNL     1       0.521   2.473 -11.798  1.00  0.00     0.146 C 
BRANCH  73  74
ATOM     74  N   UNL     1      -0.839   2.868 -11.443  1.00  0.00    -0.254 NA
ATOM     75  C   UNL     1      -1.137   2.936 -10.198  1.00  0.00     0.185 C 
ATOM     76  N   UNL     1      -2.380   3.298  -9.840  1.00  0.00    -0.370 N 
ATOM     77  N   UNL     1      -0.360   2.690  -9.129  1.00  0.00    -0.370 N 
ATOM     78  H   UNL     1      -3.032   3.494 -10.586  1.00  0.00     0.159 HD
ATOM     79  H   UNL     1      -2.725   3.233  -8.899  1.00  0.00     0.159 HD
ATOM     80  H   UNL     1       0.602   2.411  -9.246  1.00  0.00     0.159 HD
ATOM     81  H   UNL     1      -0.672   2.889  -8.193  1.00  0.00     0.159 HD
ENDBRANCH  73  74
ENDBRANCH  72  73
ENDBRANCH  71  72
ENDBRANCH  45  71
ENDBRANCH   3  45
TORSDOF 20
ENDMDL
MODEL 2
REMARK VINA RESULT:    -5.407      2.767      9.196
REMARK INTER + INTRA:         -20.447
REMARK INTER:                 -16.013
REMARK INTRA:                  -4.434
REMARK UNBOUND:                -4.926
REMARK SMILES CCCCCC(=O)N[C@H](CC(=O)O)C(=O)N[C@H]1C(=O)N[C@H](CCCN=C(N)N)C(=O)N[C@@H]2CC[C@H](O)N(C2=O)[C@@H](CC(C)C)C(=O)N(C)[C@@H](Cc2ccccc2)C(=O)N[C@H](C(C)C)C(=O)O[C@@H]1C
REMARK SMILES IDX 30 1 31 2 29 3 32 5 35 6 37 7 34 8 38 9 33 10 39 11 36 12
REMARK SMILES IDX 40 14 41 15 42 16 43 17 44 18 45 19 46 20 47 21 48 22 49 23
REMARK SMILES IDX 50 24 51 25 52 26 56 27 53 28 55 29 54 30 57 31 58 32 59 33
REMARK SMILES IDX 60 35 61 36 62 37 63 38 64 39 65 40 66 41 67 42 68 43 21 45
REMARK SMILES IDX 20 46 18 47 19 48 17 50 16 52 14 53 15 54 9 56 8 57 6 58
REMARK SMILES IDX 7 59 5 61 4 62 3 63 2 64 1 65 10 66 11 67 12 68 13 69 22 71
REMARK SMILES IDX 23 72 24 73 25 74 26 75 27 76 28 77
REMARK H PARENT 31 4 36 13 59 34 20 49 16 55 8 60 13 70 27 78 27 79 28 80
REMARK H PARENT 28 81
REMARK Flexibility Score:  259.900
ROOT
ATOM      1  O   UNL     1       1.414  -2.823 -11.920  1.00  0.00    -0.273 OA
ATOM      2  N   UNL     1       3.053  -1.679 -13.032  1.00  0.00    -0.343 N 
ATOM      3  C   UNL     1       2.023  -1.772 -12.121  1.00  0.00     0.243 C 
ATOM      4  H   UNL     1       3.541  -0.801 -13.161  1.00  0.00     0.164 HD
ENDROOT
BRANCH   2   5
ATOM      5  C   UNL     1       3.388  -2.809 -13.892  1.00  0.00     0.171 C 
ATOM      6  C   UNL     1       2.975  -5.667 -13.629  1.00  0.00     0.214 C 
ATOM      7  N   UNL     1       4.200  -5.078 -13.140  1.00  0.00    -0.303 N 
ATOM      8  C   UNL     1       2.380  -4.921 -14.813  1.00  0.00     0.057 C 
ATOM      9  C   UNL     1       4.439  -3.714 -13.188  1.00  0.00     0.247 C 
ATOM     10  C   UNL     1       2.126  -3.478 -14.434  1.00  0.00     0.040 C 
ATOM     11  O   UNL     1       5.452  -3.208 -12.688  1.00  0.00    -0.272 OA
BRANCH   6  12
ATOM     12  O   UNL     1       2.058  -5.705 -12.560  1.00  0.00    -0.373 OA
ATOM     13  H   UNL     1       2.251  -6.517 -12.044  1.00  0.00     0.213 HD
ENDBRANCH   6  12
BRANCH   7  14
ATOM     14  C   UNL     1       5.143  -5.977 -12.442  1.00  0.00     0.177 C 
BRANCH  14  15
ATOM     15  C   UNL     1       5.506  -5.559 -11.003  1.00  0.00     0.038 C 
BRANCH  15  16
ATOM     16  C   UNL     1       6.909  -5.886 -10.446  1.00  0.00    -0.015 C 
ATOM     17  C   UNL     1       7.001  -5.673  -8.932  1.00  0.00     0.007 C 
ATOM     18  C   UNL     1       7.957  -4.992 -11.122  1.00  0.00     0.007 C 
ENDBRANCH  15  16
ENDBRANCH  14  15
BRANCH  14  19
ATOM     19  C   UNL     1       4.957  -7.452 -12.937  1.00  0.00     0.245 C 
ATOM     20  O   UNL     1       5.169  -7.668 -14.142  1.00  0.00    -0.272 OA
BRANCH  19  21
ATOM     21  N   UNL     1       4.470  -8.476 -12.145  1.00  0.00    -0.332 N 
ATOM     22  C   UNL     1       5.260  -9.562 -11.592  1.00  0.00     0.147 C 
BRANCH  21  23
ATOM     23  C   UNL     1       3.014  -8.484 -11.834  1.00  0.00     0.178 C 
BRANCH  23  24
ATOM     24  C   UNL     1       2.252  -9.726 -12.340  1.00  0.00     0.070 C 
BRANCH  24  25
ATOM     25  C   UNL     1       0.798  -9.540 -12.706  1.00  0.00    -0.045 A 
ATOM     26  C   UNL     1       0.418  -9.274 -14.027  1.00  0.00     0.004 A 
ATOM     27  C   UNL     1      -0.196  -9.628 -11.719  1.00  0.00     0.004 A 
ATOM     28  C   UNL     1      -0.926  -9.087 -14.354  1.00  0.00     0.000 A 
ATOM     29  C   UNL     1      -1.540  -9.441 -12.048  1.00  0.00     0.000 A 
ATOM     30  C   UNL     1      -1.904  -9.168 -13.365  1.00  0.00     0.000 A 
ENDBRANCH  24  25
ENDBRANCH  23  24
BRANCH  23  31
ATOM     31  C   UNL     1       2.706  -8.082 -10.372  1.00  0.00     0.243 C 
ATOM     32  O   UNL     1       2.790  -8.850  -9.416  1.00  0.00    -0.273 OA
ATOM     33  N   UNL     1       2.145  -6.822 -10.251  1.00  0.00    -0.341 N 
ATOM     34  H   UNL     1       2.097  -6.230 -11.084  1.00  0.00     0.164 HD
BRANCH  33  35
ATOM     35  C   UNL     1       1.665  -6.280  -8.977  1.00  0.00     0.194 C 
BRANCH  35  36
ATOM     36  C   UNL     1       0.123  -6.099  -8.904  1.00  0.00     0.017 C 
ATOM     37  C   UNL     1      -0.514  -7.108  -7.933  1.00  0.00     0.010 C 
ATOM     38  C   UNL     1      -0.570  -6.269 -10.262  1.00  0.00     0.010 C 
ENDBRANCH  35  36
BRANCH  35  39
ATOM     39  C   UNL     1       2.421  -4.990  -8.552  1.00  0.00     0.329 C 
ATOM     40  O   UNL     1       3.501  -4.987  -7.972  1.00  0.00    -0.250 OA
BRANCH  39  41
ATOM     41  O   UNL     1       1.789  -3.854  -8.976  1.00  0.00    -0.458 OA
BRANCH  41  42
ATOM     42  C   UNL     1       1.153  -3.054  -7.951  1.00  0.00     0.205 CG0
ATOM     43  C   UNL     1      -0.284  -2.798  -8.402  1.00  0.00     0.056 C 
ATOM     44  G   UNL     1       1.957  -1.750  -7.775  1.00  0.00     0.000 G0
ENDBRANCH  41  42
ENDBRANCH  39  41
ENDBRANCH  35  39
ENDBRANCH  33  35
ENDBRANCH  23  31
ENDBRANCH  21  23
ENDBRANCH  19  21
ENDBRANCH  14  19
ENDBRANCH   7  14
ENDBRANCH   2   5
BRANCH   3  45
ATOM     45  C   UNL     1       1.703  -0.479 -11.358  1.00  0.00     0.171 C 
BRANCH  45  46
ATOM     46  N   UNL     1       1.438  -0.888  -9.985  1.00  0.00    -0.342 N 
ATOM     47  C   UNL     1       2.441  -1.216  -9.108  1.00  0.00     0.247 C 
ATOM     48  O   UNL     1       3.635  -1.119  -9.392  1.00  0.00    -0.273 OA
ATOM     49  H   UNL     1       0.464  -0.927  -9.691  1.00  0.00     0.164 HD
BRANCH  47  50
ATOM     50  C   UNL     1       1.967  -1.742  -7.746  1.00  0.00     0.212 CG0
ATOM     51  G   UNL     1       1.171  -3.038  -7.996  1.00  0.00     0.000 G0
BRANCH  50  52
ATOM     52  N   UNL     1       3.183  -1.953  -6.965  1.00  0.00    -0.339 N 
ATOM     53  C   UNL     1       3.707  -1.013  -6.112  1.00  0.00     0.243 C 
ATOM     54  O   UNL     1       3.218   0.106  -5.980  1.00  0.00    -0.273 OA
ATOM     55  H   UNL     1       3.696  -2.820  -7.115  1.00  0.00     0.164 HD
BRANCH  53  56
ATOM     56  C   UNL     1       5.043  -1.428  -5.464  1.00  0.00     0.182 C 
BRANCH  56  57
ATOM     57  N   UNL     1       4.837  -1.910  -4.095  1.00  0.00    -0.344 N 
ATOM     58  C   UNL     1       4.391  -3.180  -3.821  1.00  0.00     0.220 C 
ATOM     59  O   UNL     1       4.067  -3.973  -4.698  1.00  0.00    -0.275 OA
ATOM     60  H   UNL     1       5.188  -1.324  -3.342  1.00  0.00     0.164 HD
BRANCH  58  61
ATOM     61  C   UNL     1       4.307  -3.481  -2.336  1.00  0.00     0.100 C 
BRANCH  61  62
ATOM     62  C   UNL     1       5.658  -3.799  -1.694  1.00  0.00     0.010 C 
BRANCH  62  63
ATOM     63  C   UNL     1       6.229  -5.169  -2.081  1.00  0.00     0.000 C 
BRANCH  63  64
ATOM     64  C   UNL     1       7.737  -5.171  -2.332  1.00  0.00    -0.003 C 
ATOM     65  C   UNL     1       8.376  -3.864  -1.885  1.00  0.00     0.004 C 
ENDBRANCH  63  64
ENDBRANCH  62  63
ENDBRANCH  61  62
ENDBRANCH  58  61
ENDBRANCH  56  57
BRANCH  56  66
ATOM     66  C   UNL     1       6.072  -0.301  -5.530  1.00  0.00     0.157 C 
BRANCH  66  67
ATOM     67  C   UNL     1       7.021  -0.362  -4.368  1.00  0.00     0.305 C 
ATOM     68  O   UNL     1       7.838  -1.240  -4.135  1.00  0.00    -0.252 OA
BRANCH  67  69
ATOM     69  O   UNL     1       6.931   0.722  -3.575  1.00  0.00    -0.481 OA
ATOM     70  H   UNL     1       6.962   1.485  -4.190  1.00  0.00     0.296 HD
ENDBRANCH  67  69
ENDBRANCH  66  67
ENDBRANCH  56  66
ENDBRANCH  53  56
ENDBRANCH  50  52
ENDBRANCH  47  50
ENDBRANCH  45  46
BRANCH  45  71
ATOM     71  C   UNL     1       0.492   0.223 -11.983  1.00  0.00     0.037 C 
BRANCH  71  72
ATOM     72  C   UNL     1       0.846   1.611 -12.523  1.00  0.00     0.026 C 
BRANCH  72  73
ATOM     73  C   UNL     1       0.272   2.718 -11.641  1.00  0.00     0.146 C 
BRANCH  73  74
ATOM     74  N   UNL     1       0.066   2.165 -10.306  1.00  0.00    -0.254 NA
ATOM     75  C   UNL     1      -0.950   2.572  -9.639  1.00  0.00     0.185 C 
ATOM     76  N   UNL     1      -1.167   2.081  -8.409  1.00  0.00    -0.370 N 
ATOM     77  N   UNL     1      -1.891   3.465  -9.994  1.00  0.00    -0.370 N 
ATOM     78  H   UNL     1      -0.500   1.406  -8.061  1.00  0.00     0.159 HD
ATOM     79  H   UNL     1      -1.852   2.455  -7.776  1.00  0.00     0.159 HD
ATOM     80  H   UNL     1      -1.858   3.915 -10.896  1.00  0.00     0.159 HD
ATOM     81  H   UNL     1      -2.710   3.621  -9.430  1.00  0.00     0.159 HD
ENDBRANCH  73  74
ENDBRANCH  72  73
ENDBRANCH  71  72
ENDBRANCH  45  71
ENDBRANCH   3  45
TORSDOF 20
ENDMDL
MODEL 3
REMARK VINA RESULT:    -5.174      3.000      9.478
REMARK INTER + INTRA:         -19.778
REMARK INTER:                 -14.318
REMARK INTRA:                  -5.460
REMARK UNBOUND:                -4.926
REMARK SMILES CCCCCC(=O)N[C@H](CC(=O)O)C(=O)N[C@H]1C(=O)N[C@H](CCCN=C(N)N)C(=O)N[C@@H]2CC[C@H](O)N(C2=O)[C@@H](CC(C)C)C(=O)N(C)[C@@H](Cc2ccccc2)C(=O)N[C@H](C(C)C)C(=O)O[C@@H]1C
REMARK SMILES IDX 30 1 31 2 29 3 32 5 35 6 37 7 34 8 38 9 33 10 39 11 36 12
REMARK SMILES IDX 40 14 41 15 42 16 43 17 44 18 45 19 46 20 47 21 48 22 49 23
REMARK SMILES IDX 50 24 51 25 52 26 56 27 53 28 55 29 54 30 57 31 58 32 59 33
REMARK SMILES IDX 60 35 61 36 62 37 63 38 64 39 65 40 66 41 67 42 68 43 21 45
REMARK SMILES IDX 20 46 18 47 19 48 17 50 16 52 14 53 15 54 9 56 8 57 6 58
REMARK SMILES IDX 7 59 5 61 4 62 3 63 2 64 1 65 10 66 11 67 12 68 13 69 22 71
REMARK SMILES IDX 23 72 24 73 25 74 26 75 27 76 28 77
REMARK H PARENT 31 4 36 13 59 34 20 49 16 55 8 60 13 70 27 78 27 79 28 80
REMARK H PARENT 28 81
REMARK Flexibility Score:  259.900
ROOT
ATOM      1  O   UNL     1       5.950  -3.410 -10.251  1.00  0.00    -0.273 OA
ATOM      2  N   UNL     1       6.719  -5.511  -9.779  1.00  0.00    -0.343 N 
ATOM      3  C   UNL     1       5.952  -4.397  -9.515  1.00  0.00     0.243 C 
ATOM      4  H   UNL     1       6.685  -6.311  -9.159  1.00  0.00     0.164 HD
ENDROOT
BRANCH   2   5
ATOM      5  C   UNL     1       7.662  -5.517 -10.892  1.00  0.00     0.171 C 
ATOM      6  C   UNL     1       8.045  -3.740 -13.150  1.00  0.00     0.214 C 
ATOM      7  N   UNL     1       7.165  -4.877 -13.283  1.00  0.00    -0.303 N 
ATOM      8  C   UNL     1       9.181  -3.970 -12.166  1.00  0.00     0.057 C 
ATOM      9  C   UNL     1       6.897  -5.736 -12.229  1.00  0.00     0.247 C 
ATOM     10  C   UNL     1       8.617  -4.328 -10.808  1.00  0.00     0.040 C 
ATOM     11  O   UNL     1       6.075  -6.657 -12.326  1.00  0.00    -0.272 OA
BRANCH   6  12
ATOM     12  O   UNL     1       7.266  -2.635 -12.753  1.00  0.00    -0.373 OA
ATOM     13  H   UNL     1       6.525  -2.986 -12.214  1.00  0.00     0.213 HD
ENDBRANCH   6  12
BRANCH   7  14
ATOM     14  C   UNL     1       6.432  -5.012 -14.560  1.00  0.00     0.177 C 
BRANCH  14  15
ATOM     15  C   UNL     1       6.831  -6.227 -15.419  1.00  0.00     0.038 C 
BRANCH  15  16
ATOM     16  C   UNL     1       7.559  -6.002 -16.763  1.00  0.00    -0.015 C 
ATOM     17  C   UNL     1       9.003  -5.530 -16.573  1.00  0.00     0.007 C 
ATOM     18  C   UNL     1       6.813  -4.945 -17.587  1.00  0.00     0.007 C 
ENDBRANCH  15  16
ENDBRANCH  14  15
BRANCH  14  19
ATOM     19  C   UNL     1       4.980  -4.440 -14.416  1.00  0.00     0.245 C 
ATOM     20  O   UNL     1       4.878  -3.224 -14.182  1.00  0.00    -0.272 OA
BRANCH  19  21
ATOM     21  N   UNL     1       3.838  -5.222 -14.424  1.00  0.00    -0.332 N 
ATOM     22  C   UNL     1       3.607  -6.367 -15.287  1.00  0.00     0.147 C 
BRANCH  21  23
ATOM     23  C   UNL     1       2.743  -4.864 -13.481  1.00  0.00     0.178 C 
BRANCH  23  24
ATOM     24  C   UNL     1       1.561  -4.107 -14.121  1.00  0.00     0.070 C 
BRANCH  24  25
ATOM     25  C   UNL     1       1.145  -2.806 -13.474  1.00  0.00    -0.045 A 
ATOM     26  C   UNL     1       1.800  -1.608 -13.786  1.00  0.00     0.004 A 
ATOM     27  C   UNL     1       0.096  -2.783 -12.543  1.00  0.00     0.004 A 
ATOM     28  C   UNL     1       1.421  -0.413 -13.171  1.00  0.00     0.000 A 
ATOM     29  C   UNL     1      -0.283  -1.588 -11.930  1.00  0.00     0.000 A 
ATOM     30  C   UNL     1       0.382  -0.404 -12.243  1.00  0.00     0.000 A 
ENDBRANCH  24  25
ENDBRANCH  23  24
BRANCH  23  31
ATOM     31  C   UNL     1       2.340  -6.033 -12.551  1.00  0.00     0.243 C 
ATOM     32  O   UNL     1       3.119  -6.897 -12.157  1.00  0.00    -0.273 OA
ATOM     33  N   UNL     1       0.974  -6.132 -12.347  1.00  0.00    -0.341 N 
ATOM     34  H   UNL     1       0.375  -5.385 -12.705  1.00  0.00     0.164 HD
BRANCH  33  35
ATOM     35  C   UNL     1       0.356  -7.231 -11.600  1.00  0.00     0.194 C 
BRANCH  35  36
ATOM     36  C   UNL     1      -0.637  -8.088 -12.435  1.00  0.00     0.017 C 
ATOM     37  C   UNL     1      -0.699  -9.535 -11.918  1.00  0.00     0.010 C 
ATOM     38  C   UNL     1      -0.277  -8.148 -13.925  1.00  0.00     0.010 C 
ENDBRANCH  35  36
BRANCH  35  39
ATOM     39  C   UNL     1      -0.271  -6.762 -10.257  1.00  0.00     0.329 C 
ATOM     40  O   UNL     1      -0.569  -7.516  -9.338  1.00  0.00    -0.250 OA
BRANCH  39  41
ATOM     41  O   UNL     1      -0.373  -5.400 -10.178  1.00  0.00    -0.458 OA
BRANCH  41  42
ATOM     42  C   UNL     1       0.244  -4.776  -9.027  1.00  0.00     0.205 CG0
ATOM     43  C   UNL     1      -0.794  -3.843  -8.406  1.00  0.00     0.056 C 
ATOM     44  G   UNL     1       1.508  -4.027  -9.492  1.00  0.00     0.000 G0
ENDBRANCH  41  42
ENDBRANCH  39  41
ENDBRANCH  35  39
ENDBRANCH  33  35
ENDBRANCH  23  31
ENDBRANCH  21  23
ENDBRANCH  19  21
ENDBRANCH  14  19
ENDBRANCH   7  14
ENDBRANCH   2   5
BRANCH   3  45
ATOM     45  C   UNL     1       5.084  -4.481  -8.252  1.00  0.00     0.171 C 
BRANCH  45  46
ATOM     46  N   UNL     1       3.781  -3.954  -8.635  1.00  0.00    -0.342 N 
ATOM     47  C   UNL     1       2.749  -4.764  -9.040  1.00  0.00     0.247 C 
ATOM     48  O   UNL     1       2.825  -5.993  -9.041  1.00  0.00    -0.273 OA
ATOM     49  H   UNL     1       3.657  -2.944  -8.594  1.00  0.00     0.164 HD
BRANCH  47  50
ATOM     50  C   UNL     1       1.494  -4.024  -9.523  1.00  0.00     0.212 CG0
ATOM     51  G   UNL     1       0.266  -4.790  -8.992  1.00  0.00     0.000 G0
BRANCH  50  52
ATOM     52  N   UNL     1       1.607  -2.671  -8.984  1.00  0.00    -0.339 N 
ATOM     53  C   UNL     1       2.392  -1.696  -9.549  1.00  0.00     0.243 C 
ATOM     54  O   UNL     1       3.105  -1.904 -10.527  1.00  0.00    -0.273 OA
ATOM     55  H   UNL     1       1.127  -2.469  -8.110  1.00  0.00     0.164 HD
BRANCH  53  56
ATOM     56  C   UNL     1       2.420  -0.374  -8.755  1.00  0.00     0.182 C 
BRANCH  56  57
ATOM     57  N   UNL     1       3.508  -0.374  -7.771  1.00  0.00    -0.344 N 
ATOM     58  C   UNL     1       3.394  -0.989  -6.548  1.00  0.00     0.220 C 
ATOM     59  O   UNL     1       2.355  -1.515  -6.164  1.00  0.00    -0.275 OA
ATOM     60  H   UNL     1       4.414  -0.040  -8.087  1.00  0.00     0.164 HD
BRANCH  58  61
ATOM     61  C   UNL     1       4.661  -0.913  -5.717  1.00  0.00     0.100 C 
BRANCH  61  62
ATOM     62  C   UNL     1       5.902  -0.522  -6.520  1.00  0.00     0.010 C 
BRANCH  62  63
ATOM     63  C   UNL     1       7.103  -0.109  -5.659  1.00  0.00     0.000 C 
BRANCH  63  64
ATOM     64  C   UNL     1       6.750   0.219  -4.209  1.00  0.00    -0.003 C 
ATOM     65  C   UNL     1       7.925  -0.046  -3.278  1.00  0.00     0.004 C 
ENDBRANCH  63  64
ENDBRANCH  62  63
ENDBRANCH  61  62
ENDBRANCH  58  61
ENDBRANCH  56  57
BRANCH  56  66
ATOM     66  C   UNL     1       1.065  -0.076  -8.116  1.00  0.00     0.157 C 
BRANCH  66  67
ATOM     67  C   UNL     1       0.479   1.198  -8.652  1.00  0.00     0.305 C 
ATOM     68  O   UNL     1       0.872   1.836  -9.617  1.00  0.00    -0.252 OA
BRANCH  67  69
ATOM     69  O   UNL     1      -0.617   1.584  -7.971  1.00  0.00    -0.481 OA
ATOM     70  H   UNL     1      -0.270   2.075  -7.196  1.00  0.00     0.296 HD
ENDBRANCH  67  69
ENDBRANCH  66  67
ENDBRANCH  56  66
ENDBRANCH  53  56
ENDBRANCH  50  52
ENDBRANCH  47  50
ENDBRANCH  45  46
BRANCH  45  71
ATOM     71  C   UNL     1       5.713  -3.666  -7.117  1.00  0.00     0.037 C 
BRANCH  71  72
ATOM     72  C   UNL     1       6.143  -4.549  -5.943  1.00  0.00     0.026 C 
BRANCH  72  73
ATOM     73  C   UNL     1       5.453  -5.911  -5.986  1.00  0.00     0.146 C 
BRANCH  73  74
ATOM     74  N   UNL     1       4.490  -5.959  -4.889  1.00  0.00    -0.254 NA
ATOM     75  C   UNL     1       3.302  -6.361  -5.153  1.00  0.00     0.185 C 
ATOM     76  N   UNL     1       2.394  -6.417  -4.166  1.00  0.00    -0.370 N 
ATOM     77  N   UNL     1       2.786  -6.759  -6.329  1.00  0.00    -0.370 N 
ATOM     78  H   UNL     1       2.698  -6.126  -3.247  1.00  0.00     0.159 HD
ATOM     79  H   UNL     1       1.415  -6.580  -4.322  1.00  0.00     0.159 HD
ATOM     80  H   UNL     1       3.356  -6.773  -7.162  1.00  0.00     0.159 HD
ATOM     81  H   UNL     1       1.867  -7.165  -6.393  1.00  0.00     0.159 HD
ENDBRANCH  73  74
ENDBRANCH  72  73
ENDBRANCH  71  72
ENDBRANCH  45  71
ENDBRANCH   3  45
TORSDOF 20
ENDMDL
MODEL 4
REMARK VINA RESULT:    -4.987      4.159      5.819
REMARK INTER + INTRA:         -19.241
REMARK INTER:                 -13.554
REMARK INTRA:                  -5.687
REMARK UNBOUND:                -4.926
REMARK SMILES CCCCCC(=O)N[C@H](CC(=O)O)C(=O)N[C@H]1C(=O)N[C@H](CCCN=C(N)N)C(=O)N[C@@H]2CC[C@H](O)N(C2=O)[C@@H](CC(C)C)C(=O)N(C)[C@@H](Cc2ccccc2)C(=O)N[C@H](C(C)C)C(=O)O[C@@H]1C
REMARK SMILES IDX 30 1 31 2 29 3 32 5 35 6 37 7 34 8 38 9 33 10 39 11 36 12
REMARK SMILES IDX 40 14 41 15 42 16 43 17 44 18 45 19 46 20 47 21 48 22 49 23
REMARK SMILES IDX 50 24 51 25 52 26 56 27 53 28 55 29 54 30 57 31 58 32 59 33
REMARK SMILES IDX 60 35 61 36 62 37 63 38 64 39 65 40 66 41 67 42 68 43 21 45
REMARK SMILES IDX 20 46 18 47 19 48 17 50 16 52 14 53 15 54 9 56 8 57 6 58
REMARK SMILES IDX 7 59 5 61 4 62 3 63 2 64 1 65 10 66 11 67 12 68 13 69 22 71
REMARK SMILES IDX 23 72 24 73 25 74 26 75 27 76 28 77
REMARK H PARENT 31 4 36 13 59 34 20 49 16 55 8 60 13 70 27 78 27 79 28 80
REMARK H PARENT 28 81
REMARK Flexibility Score:  259.900
ROOT
ATOM      1  O   UNL     1       0.692  -1.416 -10.182  1.00  0.00    -0.273 OA
ATOM      2  N   UNL     1       2.878  -0.898  -9.750  1.00  0.00    -0.343 N 
ATOM      3  C   UNL     1       1.815  -1.131 -10.598  1.00  0.00     0.243 C 
ATOM      4  H   UNL     1       3.784  -0.651 -10.128  1.00  0.00     0.164 HD
ENDROOT
BRANCH   2   5
ATOM      5  C   UNL     1       2.738  -1.100  -8.312  1.00  0.00     0.171 C 
ATOM      6  C   UNL     1       4.547  -0.682  -6.086  1.00  0.00     0.214 C 
ATOM      7  N   UNL     1       4.512  -1.969  -6.740  1.00  0.00    -0.303 N 
ATOM      8  C   UNL     1       3.216   0.052  -6.129  1.00  0.00     0.057 C 
ATOM      9  C   UNL     1       3.709  -2.221  -7.841  1.00  0.00     0.247 C 
ATOM     10  C   UNL     1       2.776   0.232  -7.565  1.00  0.00     0.040 C 
ATOM     11  O   UNL     1       3.748  -3.298  -8.449  1.00  0.00    -0.272 OA
BRANCH   6  12
ATOM     12  O   UNL     1       5.553   0.087  -6.703  1.00  0.00    -0.373 OA
ATOM     13  H   UNL     1       5.917   0.688  -6.018  1.00  0.00     0.213 HD
ENDBRANCH   6  12
BRANCH   7  14
ATOM     14  C   UNL     1       5.484  -2.982  -6.279  1.00  0.00     0.177 C 
BRANCH  14  15
ATOM     15  C   UNL     1       6.777  -2.417  -5.660  1.00  0.00     0.038 C 
BRANCH  15  16
ATOM     16  C   UNL     1       8.142  -2.771  -6.291  1.00  0.00    -0.015 C 
ATOM     17  C   UNL     1       8.101  -2.749  -7.822  1.00  0.00     0.007 C 
ATOM     18  C   UNL     1       8.573  -4.173  -5.842  1.00  0.00     0.007 C 
ENDBRANCH  15  16
ENDBRANCH  14  15
BRANCH  14  19
ATOM     19  C   UNL     1       4.737  -4.273  -5.797  1.00  0.00     0.245 C 
ATOM     20  O   UNL     1       3.675  -4.105  -5.175  1.00  0.00    -0.272 OA
BRANCH  19  21
ATOM     21  N   UNL     1       5.246  -5.553  -5.928  1.00  0.00    -0.332 N 
ATOM     22  C   UNL     1       5.415  -6.507  -4.847  1.00  0.00     0.147 C 
BRANCH  21  23
ATOM     23  C   UNL     1       5.671  -5.998  -7.284  1.00  0.00     0.178 C 
BRANCH  23  24
ATOM     24  C   UNL     1       6.833  -7.012  -7.296  1.00  0.00     0.070 C 
BRANCH  24  25
ATOM     25  C   UNL     1       7.639  -7.121  -8.569  1.00  0.00    -0.045 A 
ATOM     26  C   UNL     1       7.891  -8.368  -9.155  1.00  0.00     0.004 A 
ATOM     27  C   UNL     1       8.152  -5.968  -9.182  1.00  0.00     0.004 A 
ATOM     28  C   UNL     1       8.652  -8.461 -10.323  1.00  0.00     0.000 A 
ATOM     29  C   UNL     1       8.911  -6.062 -10.350  1.00  0.00     0.000 A 
ATOM     30  C   UNL     1       9.163  -7.309 -10.918  1.00  0.00     0.000 A 
ENDBRANCH  24  25
ENDBRANCH  23  24
BRANCH  23  31
ATOM     31  C   UNL     1       4.480  -6.361  -8.201  1.00  0.00     0.243 C 
ATOM     32  O   UNL     1       3.406  -6.797  -7.792  1.00  0.00    -0.273 OA
ATOM     33  N   UNL     1       4.790  -6.329  -9.550  1.00  0.00    -0.341 N 
ATOM     34  H   UNL     1       5.703  -5.962  -9.829  1.00  0.00     0.164 HD
BRANCH  33  35
ATOM     35  C   UNL     1       3.853  -6.749 -10.596  1.00  0.00     0.194 C 
BRANCH  35  36
ATOM     36  C   UNL     1       4.164  -8.146 -11.203  1.00  0.00     0.017 C 
ATOM     37  C   UNL     1       4.247  -9.226 -10.110  1.00  0.00     0.010 C 
ATOM     38  C   UNL     1       5.482  -8.185 -11.986  1.00  0.00     0.010 C 
ENDBRANCH  35  36
BRANCH  35  39
ATOM     39  C   UNL     1       3.660  -5.668 -11.696  1.00  0.00     0.329 C 
ATOM     40  O   UNL     1       2.617  -5.498 -12.316  1.00  0.00    -0.250 OA
BRANCH  39  41
ATOM     41  O   UNL     1       4.760  -4.867 -11.836  1.00  0.00    -0.458 OA
BRANCH  41  42
ATOM     42  C   UNL     1       5.106  -4.484 -13.188  1.00  0.00     0.205 CG0
ATOM     43  C   UNL     1       6.411  -5.193 -13.541  1.00  0.00     0.056 C 
ATOM     44  G   UNL     1       5.234  -2.948 -13.246  1.00  0.00     0.000 G0
ENDBRANCH  41  42
ENDBRANCH  39  41
ENDBRANCH  35  39
ENDBRANCH  33  35
ENDBRANCH  23  31
ENDBRANCH  21  23
ENDBRANCH  19  21
ENDBRANCH  14  19
ENDBRANCH   7  14
ENDBRANCH   2   5
BRANCH   3  45
ATOM     45  C   UNL     1       2.125  -0.988 -12.094  1.00  0.00     0.171 C 
BRANCH  45  46
ATOM     46  N   UNL     1       3.465  -1.531 -12.272  1.00  0.00    -0.342 N 
ATOM     47  C   UNL     1       3.798  -2.336 -13.333  1.00  0.00     0.247 C 
ATOM     48  O   UNL     1       3.014  -2.597 -14.246  1.00  0.00    -0.273 OA
ATOM     49  H   UNL     1       4.161  -1.294 -11.568  1.00  0.00     0.164 HD
BRANCH  47  50
ATOM     50  C   UNL     1       5.219  -2.915 -13.288  1.00  0.00     0.212 CG0
ATOM     51  G   UNL     1       5.096  -4.449 -13.197  1.00  0.00     0.000 G0
BRANCH  50  52
ATOM     52  N   UNL     1       5.864  -2.460 -14.517  1.00  0.00    -0.339 N 
ATOM     53  C   UNL     1       7.131  -1.930 -14.554  1.00  0.00     0.243 C 
ATOM     54  O   UNL     1       7.802  -1.749 -13.542  1.00  0.00    -0.273 OA
ATOM     55  H   UNL     1       5.316  -2.482 -15.375  1.00  0.00     0.164 HD
BRANCH  53  56
ATOM     56  C   UNL     1       7.566  -1.440 -15.950  1.00  0.00     0.182 C 
BRANCH  56  57
ATOM     57  N   UNL     1       7.875  -2.571 -16.832  1.00  0.00    -0.344 N 
ATOM     58  C   UNL     1       6.937  -3.135 -17.662  1.00  0.00     0.220 C 
ATOM     59  O   UNL     1       5.762  -2.783 -17.670  1.00  0.00    -0.275 OA
ATOM     60  H   UNL     1       8.854  -2.824 -16.929  1.00  0.00     0.164 HD
BRANCH  58  61
ATOM     61  C   UNL     1       7.492  -4.251 -18.526  1.00  0.00     0.100 C 
BRANCH  61  62
ATOM     62  C   UNL     1       6.538  -4.709 -19.629  1.00  0.00     0.010 C 
BRANCH  62  63
ATOM     63  C   UNL     1       6.838  -4.107 -21.008  1.00  0.00     0.000 C 
BRANCH  63  64
ATOM     64  C   UNL     1       5.891  -2.981 -21.420  1.00  0.00    -0.003 C 
ATOM     65  C   UNL     1       4.483  -3.219 -20.893  1.00  0.00     0.004 C 
ENDBRANCH  63  64
ENDBRANCH  62  63
ENDBRANCH  61  62
ENDBRANCH  58  61
ENDBRANCH  56  57
BRANCH  56  66
ATOM     66  C   UNL     1       8.722  -0.446 -15.859  1.00  0.00     0.157 C 
BRANCH  66  67
ATOM     67  C   UNL     1       8.239   0.966 -16.021  1.00  0.00     0.305 C 
ATOM     68  O   UNL     1       7.880   1.724 -15.133  1.00  0.00    -0.252 OA
BRANCH  67  69
ATOM     69  O   UNL     1       8.281   1.378 -17.303  1.00  0.00    -0.481 OA
ATOM     70  H   UNL     1       8.090   2.339 -17.263  1.00  0.00     0.296 HD
ENDBRANCH  67  69
ENDBRANCH  66  67
ENDBRANCH  56  66
ENDBRANCH  53  56
ENDBRANCH  50  52
ENDBRANCH  47  50
ENDBRANCH  45  46
BRANCH  45  71
ATOM     71  C   UNL     1       2.050   0.483 -12.517  1.00  0.00     0.037 C 
BRANCH  71  72
ATOM     72  C   UNL     1       0.628   1.039 -12.418  1.00  0.00     0.026 C 
BRANCH  72  73
ATOM     73  C   UNL     1       0.591   2.346 -11.627  1.00  0.00     0.146 C 
BRANCH  73  74
ATOM     74  N   UNL     1       0.632   2.010 -10.207  1.00  0.00    -0.254 NA
ATOM     75  C   UNL     1      -0.269   2.512  -9.446  1.00  0.00     0.185 C 
ATOM     76  N   UNL     1      -0.258   2.221  -8.135  1.00  0.00    -0.370 N 
ATOM     77  N   UNL     1      -1.285   3.332  -9.767  1.00  0.00    -0.370 N 
ATOM     78  H   UNL     1       0.481   1.615  -7.808  1.00  0.00     0.159 HD
ATOM     79  H   UNL     1      -0.837   2.687  -7.460  1.00  0.00     0.159 HD
ATOM     80  H   UNL     1      -1.421   3.632 -10.721  1.00  0.00     0.159 HD
ATOM     81  H   UNL     1      -2.002   3.570  -9.102  1.00  0.00     0.159 HD
ENDBRANCH  73  74
ENDBRANCH  72  73
ENDBRANCH  71  72
ENDBRANCH  45  71
ENDBRANCH   3  45
TORSDOF 20
ENDMDL
MODEL 5
REMARK VINA RESULT:    -4.979      3.915      5.474
REMARK INTER + INTRA:         -19.218
REMARK INTER:                 -13.906
REMARK INTRA:                  -5.312
REMARK UNBOUND:                -4.926
REMARK SMILES CCCCCC(=O)N[C@H](CC(=O)O)C(=O)N[C@H]1C(=O)N[C@H](CCCN=C(N)N)C(=O)N[C@@H]2CC[C@H](O)N(C2=O)[C@@H](CC(C)C)C(=O)N(C)[C@@H](Cc2ccccc2)C(=O)N[C@H](C(C)C)C(=O)O[C@@H]1C
REMARK SMILES IDX 30 1 31 2 29 3 32 5 35 6 37 7 34 8 38 9 33 10 39 11 36 12
REMARK SMILES IDX 40 14 41 15 42 16 43 17 44 18 45 19 46 20 47 21 48 22 49 23
REMARK SMILES IDX 50 24 51 25 52 26 56 27 53 28 55 29 54 30 57 31 58 32 59 33
REMARK SMILES IDX 60 35 61 36 62 37 63 38 64 39 65 40 66 41 67 42 68 43 21 45
REMARK SMILES IDX 20 46 18 47 19 48 17 50 16 52 14 53 15 54 9 56 8 57 6 58
REMARK SMILES IDX 7 59 5 61 4 62 3 63 2 64 1 65 10 66 11 67 12 68 13 69 22 71
REMARK SMILES IDX 23 72 24 73 25 74 26 75 27 76 28 77
REMARK H PARENT 31 4 36 13 59 34 20 49 16 55 8 60 13 70 27 78 27 79 28 80
REMARK H PARENT 28 81
REMARK Flexibility Score:  259.900
ROOT
ATOM      1  O   UNL     1       0.920  -1.639  -9.623  1.00  0.00    -0.273 OA
ATOM      2  N   UNL     1       3.054  -0.888  -9.286  1.00  0.00    -0.343 N 
ATOM      3  C   UNL     1       1.991  -1.247 -10.087  1.00  0.00     0.243 C 
ATOM      4  H   UNL     1       3.915  -0.557  -9.703  1.00  0.00     0.164 HD
ENDROOT
BRANCH   2   5
ATOM      5  C   UNL     1       2.989  -1.072  -7.841  1.00  0.00     0.171 C 
ATOM      6  C   UNL     1       4.962  -0.789  -5.735  1.00  0.00     0.214 C 
ATOM      7  N   UNL     1       4.784  -2.072  -6.374  1.00  0.00    -0.303 N 
ATOM      8  C   UNL     1       3.692   0.047  -5.701  1.00  0.00     0.057 C 
ATOM      9  C   UNL     1       3.896  -2.264  -7.420  1.00  0.00     0.247 C 
ATOM     10  C   UNL     1       3.179   0.256  -7.109  1.00  0.00     0.040 C 
ATOM     11  O   UNL     1       3.813  -3.344  -8.020  1.00  0.00    -0.272 OA
BRANCH   6  12
ATOM     12  O   UNL     1       5.984  -0.105  -6.420  1.00  0.00    -0.373 OA
ATOM     13  H   UNL     1       6.832  -0.349  -5.991  1.00  0.00     0.213 HD
ENDBRANCH   6  12
BRANCH   7  14
ATOM     14  C   UNL     1       5.701  -3.157  -5.965  1.00  0.00     0.177 C 
BRANCH  14  15
ATOM     15  C   UNL     1       7.184  -2.755  -5.851  1.00  0.00     0.038 C 
BRANCH  15  16
ATOM     16  C   UNL     1       8.117  -2.929  -7.070  1.00  0.00    -0.015 C 
ATOM     17  C   UNL     1       8.777  -1.613  -7.494  1.00  0.00     0.007 C 
ATOM     18  C   UNL     1       7.317  -3.471  -8.261  1.00  0.00     0.007 C 
ENDBRANCH  15  16
ENDBRANCH  14  15
BRANCH  14  19
ATOM     19  C   UNL     1       4.961  -4.170  -5.025  1.00  0.00     0.245 C 
ATOM     20  O   UNL     1       4.522  -3.719  -3.954  1.00  0.00    -0.272 OA
BRANCH  19  21
ATOM     21  N   UNL     1       4.875  -5.529  -5.270  1.00  0.00    -0.332 N 
ATOM     22  C   UNL     1       4.213  -6.499  -4.416  1.00  0.00     0.147 C 
BRANCH  21  23
ATOM     23  C   UNL     1       5.520  -6.055  -6.504  1.00  0.00     0.178 C 
BRANCH  23  24
ATOM     24  C   UNL     1       6.562  -7.167  -6.264  1.00  0.00     0.070 C 
BRANCH  24  25
ATOM     25  C   UNL     1       7.369  -7.090  -4.989  1.00  0.00    -0.045 A 
ATOM     26  C   UNL     1       8.374  -6.126  -4.833  1.00  0.00     0.004 A 
ATOM     27  C   UNL     1       7.125  -7.990  -3.941  1.00  0.00     0.004 A 
ATOM     28  C   UNL     1       9.127  -6.071  -3.658  1.00  0.00     0.000 A 
ATOM     29  C   UNL     1       7.878  -7.934  -2.767  1.00  0.00     0.000 A 
ATOM     30  C   UNL     1       8.881  -6.976  -2.628  1.00  0.00     0.000 A 
ENDBRANCH  24  25
ENDBRANCH  23  24
BRANCH  23  31
ATOM     31  C   UNL     1       4.508  -6.345  -7.638  1.00  0.00     0.243 C 
ATOM     32  O   UNL     1       3.426  -6.901  -7.468  1.00  0.00    -0.273 OA
ATOM     33  N   UNL     1       5.007  -6.090  -8.904  1.00  0.00    -0.341 N 
ATOM     34  H   UNL     1       5.918  -5.631  -8.983  1.00  0.00     0.164 HD
BRANCH  33  35
ATOM     35  C   UNL     1       4.270  -6.401 -10.132  1.00  0.00     0.194 C 
BRANCH  35  36
ATOM     36  C   UNL     1       4.895  -7.549 -10.974  1.00  0.00     0.017 C 
ATOM     37  C   UNL     1       3.839  -8.599 -11.359  1.00  0.00     0.010 C 
ATOM     38  C   UNL     1       6.029  -8.283 -10.248  1.00  0.00     0.010 C 
ENDBRANCH  35  36
BRANCH  35  39
ATOM     39  C   UNL     1       3.982  -5.140 -10.993  1.00  0.00     0.329 C 
ATOM     40  O   UNL     1       2.858  -4.753 -11.289  1.00  0.00    -0.250 OA
BRANCH  39  41
ATOM     41  O   UNL     1       5.123  -4.456 -11.311  1.00  0.00    -0.458 OA
BRANCH  41  42
ATOM     42  C   UNL     1       5.371  -4.244 -12.721  1.00  0.00     0.205 CG0
ATOM     43  C   UNL     1       6.696  -4.926 -13.057  1.00  0.00     0.056 C 
ATOM     44  G   UNL     1       5.403  -2.727 -12.993  1.00  0.00     0.000 G0
ENDBRANCH  41  42
ENDBRANCH  39  41
ENDBRANCH  35  39
ENDBRANCH  33  35
ENDBRANCH  23  31
ENDBRANCH  21  23
ENDBRANCH  19  21
ENDBRANCH  14  19
ENDBRANCH   7  14
ENDBRANCH   2   5
BRANCH   3  45
ATOM     45  C   UNL     1       2.228  -1.105 -11.597  1.00  0.00     0.171 C 
BRANCH  45  46
ATOM     46  N   UNL     1       3.592  -1.566 -11.826  1.00  0.00    -0.342 N 
ATOM     47  C   UNL     1       3.972  -2.191 -12.987  1.00  0.00     0.247 C 
ATOM     48  O   UNL     1       3.213  -2.342 -13.944  1.00  0.00    -0.273 OA
ATOM     49  H   UNL     1       4.267  -1.410 -11.080  1.00  0.00     0.164 HD
BRANCH  47  50
ATOM     50  C   UNL     1       5.414  -2.717 -12.999  1.00  0.00     0.212 CG0
ATOM     51  G   UNL     1       5.359  -4.238 -12.758  1.00  0.00     0.000 G0
BRANCH  50  52
ATOM     52  N   UNL     1       5.948  -2.359 -14.310  1.00  0.00    -0.339 N 
ATOM     53  C   UNL     1       7.152  -1.722 -14.488  1.00  0.00     0.243 C 
ATOM     54  O   UNL     1       7.852  -1.354 -13.548  1.00  0.00    -0.273 OA
ATOM     55  H   UNL     1       5.363  -2.538 -15.124  1.00  0.00     0.164 HD
BRANCH  53  56
ATOM     56  C   UNL     1       7.465  -1.371 -15.957  1.00  0.00     0.182 C 
BRANCH  56  57
ATOM     57  N   UNL     1       7.741  -2.579 -16.740  1.00  0.00    -0.344 N 
ATOM     58  C   UNL     1       6.881  -3.043 -17.705  1.00  0.00     0.220 C 
ATOM     59  O   UNL     1       5.792  -2.524 -17.929  1.00  0.00    -0.275 OA
ATOM     60  H   UNL     1       8.672  -2.979 -16.658  1.00  0.00     0.164 HD
BRANCH  58  61
ATOM     61  C   UNL     1       7.396  -4.273 -18.429  1.00  0.00     0.100 C 
BRANCH  61  62
ATOM     62  C   UNL     1       7.166  -5.578 -17.666  1.00  0.00     0.010 C 
BRANCH  62  63
ATOM     63  C   UNL     1       5.812  -5.657 -16.951  1.00  0.00     0.000 C 
BRANCH  63  64
ATOM     64  C   UNL     1       5.496  -7.028 -16.355  1.00  0.00    -0.003 C 
ATOM     65  C   UNL     1       6.645  -8.003 -16.567  1.00  0.00     0.004 C 
ENDBRANCH  63  64
ENDBRANCH  62  63
ENDBRANCH  61  62
ENDBRANCH  58  61
ENDBRANCH  56  57
BRANCH  56  66
ATOM     66  C   UNL     1       8.595  -0.347 -16.059  1.00  0.00     0.157 C 
BRANCH  66  67
ATOM     67  C   UNL     1       8.064   1.017 -16.396  1.00  0.00     0.305 C 
ATOM     68  O   UNL     1       7.792   1.911 -15.610  1.00  0.00    -0.252 OA
BRANCH  67  69
ATOM     69  O   UNL     1       7.949   1.208 -17.724  1.00  0.00    -0.481 OA
ATOM     70  H   UNL     1       6.984   1.201 -17.895  1.00  0.00     0.296 HD
ENDBRANCH  67  69
ENDBRANCH  66  67
ENDBRANCH  56  66
ENDBRANCH  53  56
ENDBRANCH  50  52
ENDBRANCH  47  50
ENDBRANCH  45  46
BRANCH  45  71
ATOM     71  C   UNL     1       2.043   0.353 -12.031  1.00  0.00     0.037 C 
BRANCH  71  72
ATOM     72  C   UNL     1       0.569   0.710 -12.236  1.00  0.00     0.026 C 
BRANCH  72  73
ATOM     73  C   UNL     1       0.192   1.984 -11.484  1.00  0.00     0.146 C 
BRANCH  73  74
ATOM     74  N   UNL     1       0.005   1.636 -10.079  1.00  0.00    -0.254 NA
ATOM     75  C   UNL     1      -0.903   2.259  -9.423  1.00  0.00     0.185 C 
ATOM     76  N   UNL     1      -1.099   1.960  -8.128  1.00  0.00    -0.370 N 
ATOM     77  N   UNL     1      -1.740   3.222  -9.845  1.00  0.00    -0.370 N 
ATOM     78  H   UNL     1      -0.504   1.249  -7.728  1.00  0.00     0.159 HD
ATOM     79  H   UNL     1      -1.685   2.501  -7.518  1.00  0.00     0.159 HD
ATOM     80  H   UNL     1      -1.710   3.547 -10.800  1.00  0.00     0.159 HD
ATOM     81  H   UNL     1      -2.493   3.558  -9.268  1.00  0.00     0.159 HD
ENDBRANCH  73  74
ENDBRANCH  72  73
ENDBRANCH  71  72
ENDBRANCH  45  71
ENDBRANCH   3  45
TORSDOF 20
ENDMDL
MODEL 6
REMARK VINA RESULT:    -4.946      2.293      9.411
REMARK INTER + INTRA:         -19.125
REMARK INTER:                 -14.723
REMARK INTRA:                  -4.403
REMARK UNBOUND:                -4.926
REMARK SMILES CCCCCC(=O)N[C@H](CC(=O)O)C(=O)N[C@H]1C(=O)N[C@H](CCCN=C(N)N)C(=O)N[C@@H]2CC[C@H](O)N(C2=O)[C@@H](CC(C)C)C(=O)N(C)[C@@H](Cc2ccccc2)C(=O)N[C@H](C(C)C)C(=O)O[C@@H]1C
REMARK SMILES IDX 30 1 31 2 29 3 32 5 35 6 37 7 34 8 38 9 33 10 39 11 36 12
REMARK SMILES IDX 40 14 41 15 42 16 43 17 44 18 45 19 46 20 47 21 48 22 49 23
REMARK SMILES IDX 50 24 51 25 52 26 56 27 53 28 55 29 54 30 57 31 58 32 59 33
REMARK SMILES IDX 60 35 61 36 62 37 63 38 64 39 65 40 66 41 67 42 68 43 21 45
REMARK SMILES IDX 20 46 18 47 19 48 17 50 16 52 14 53 15 54 9 56 8 57 6 58
REMARK SMILES IDX 7 59 5 61 4 62 3 63 2 64 1 65 10 66 11 67 12 68 13 69 22 71
REMARK SMILES IDX 23 72 24 73 25 74 26 75 27 76 28 77
REMARK H PARENT 31 4 36 13 59 34 20 49 16 55 8 60 13 70 27 78 27 79 28 80
REMARK H PARENT 28 81
REMARK Flexibility Score:  259.900
ROOT
ATOM      1  O   UNL     1       0.708  -2.571 -10.741  1.00  0.00    -0.273 OA
ATOM      2  N   UNL     1       2.611  -1.321 -10.955  1.00  0.00    -0.343 N 
ATOM      3  C   UNL     1       1.613  -1.920 -10.218  1.00  0.00     0.243 C 
ATOM      4  H   UNL     1       3.347  -0.805 -10.490  1.00  0.00     0.164 HD
ENDROOT
BRANCH   2   5
ATOM      5  C   UNL     1       2.568  -1.336 -12.414  1.00  0.00     0.171 C 
ATOM      6  C   UNL     1       1.191  -3.031 -14.320  1.00  0.00     0.214 C 
ATOM      7  N   UNL     1       2.525  -3.381 -13.892  1.00  0.00    -0.303 N 
ATOM      8  C   UNL     1       0.930  -1.533 -14.311  1.00  0.00     0.057 C 
ATOM      9  C   UNL     1       3.219  -2.644 -12.947  1.00  0.00     0.247 C 
ATOM     10  C   UNL     1       1.173  -0.979 -12.925  1.00  0.00     0.040 C 
ATOM     11  O   UNL     1       4.326  -2.999 -12.522  1.00  0.00    -0.272 OA
BRANCH   6  12
ATOM     12  O   UNL     1       0.280  -3.694 -13.475  1.00  0.00    -0.373 OA
ATOM     13  H   UNL     1      -0.213  -4.336 -14.030  1.00  0.00     0.213 HD
ENDBRANCH   6  12
BRANCH   7  14
ATOM     14  C   UNL     1       3.078  -4.656 -14.397  1.00  0.00     0.177 C 
BRANCH  14  15
ATOM     15  C   UNL     1       3.682  -5.580 -13.323  1.00  0.00     0.038 C 
BRANCH  15  16
ATOM     16  C   UNL     1       4.777  -6.596 -13.720  1.00  0.00    -0.015 C 
ATOM     17  C   UNL     1       5.114  -7.566 -12.584  1.00  0.00     0.007 C 
ATOM     18  C   UNL     1       6.059  -5.850 -14.111  1.00  0.00     0.007 C 
ENDBRANCH  15  16
ENDBRANCH  14  15
BRANCH  14  19
ATOM     19  C   UNL     1       2.279  -5.133 -15.659  1.00  0.00     0.245 C 
ATOM     20  O   UNL     1       2.248  -4.356 -16.628  1.00  0.00    -0.272 OA
BRANCH  19  21
ATOM     21  N   UNL     1       1.532  -6.296 -15.704  1.00  0.00    -0.332 N 
ATOM     22  C   UNL     1       1.788  -7.429 -16.577  1.00  0.00     0.147 C 
BRANCH  21  23
ATOM     23  C   UNL     1       0.358  -6.405 -14.795  1.00  0.00     0.178 C 
BRANCH  23  24
ATOM     24  C   UNL     1      -0.961  -6.803 -15.489  1.00  0.00     0.070 C 
BRANCH  24  25
ATOM     25  C   UNL     1      -1.657  -5.740 -16.306  1.00  0.00    -0.045 A 
ATOM     26  C   UNL     1      -2.050  -4.529 -15.722  1.00  0.00     0.004 A 
ATOM     27  C   UNL     1      -1.924  -5.954 -17.666  1.00  0.00     0.004 A 
ATOM     28  C   UNL     1      -2.708  -3.558 -16.480  1.00  0.00     0.000 A 
ATOM     29  C   UNL     1      -2.581  -4.982 -18.423  1.00  0.00     0.000 A 
ATOM     30  C   UNL     1      -2.975  -3.786 -17.828  1.00  0.00     0.000 A 
ENDBRANCH  24  25
ENDBRANCH  23  24
BRANCH  23  31
ATOM     31  C   UNL     1       0.671  -7.184 -13.495  1.00  0.00     0.243 C 
ATOM     32  O   UNL     1       1.387  -8.182 -13.448  1.00  0.00    -0.273 OA
ATOM     33  N   UNL     1      -0.078  -6.769 -12.408  1.00  0.00    -0.341 N 
ATOM     34  H   UNL     1      -0.661  -5.935 -12.510  1.00  0.00     0.164 HD
BRANCH  33  35
ATOM     35  C   UNL     1      -0.035  -7.439 -11.105  1.00  0.00     0.194 C 
BRANCH  35  36
ATOM     36  C   UNL     1      -1.054  -8.604 -10.956  1.00  0.00     0.017 C 
ATOM     37  C   UNL     1      -0.383  -9.968 -11.193  1.00  0.00     0.010 C 
ATOM     38  C   UNL     1      -2.237  -8.500 -11.927  1.00  0.00     0.010 C 
ENDBRANCH  35  36
BRANCH  35  39
ATOM     39  C   UNL     1      -0.116  -6.441  -9.916  1.00  0.00     0.329 C 
ATOM     40  O   UNL     1      -0.901  -5.502  -9.861  1.00  0.00    -0.250 OA
BRANCH  39  41
ATOM     41  O   UNL     1       0.728  -6.779  -8.895  1.00  0.00    -0.458 OA
BRANCH  41  42
ATOM     42  C   UNL     1       2.100  -6.335  -9.023  1.00  0.00     0.205 CG0
ATOM     43  C   UNL     1       2.980  -7.582  -9.066  1.00  0.00     0.056 C 
ATOM     44  G   UNL     1       2.433  -5.418  -7.829  1.00  0.00     0.000 G0
ENDBRANCH  41  42
ENDBRANCH  39  41
ENDBRANCH  35  39
ENDBRANCH  33  35
ENDBRANCH  23  31
ENDBRANCH  21  23
ENDBRANCH  19  21
ENDBRANCH  14  19
ENDBRANCH   7  14
ENDBRANCH   2   5
BRANCH   3  45
ATOM     45  C   UNL     1       1.719  -1.737  -8.698  1.00  0.00     0.171 C 
BRANCH  45  46
ATOM     46  N   UNL     1       1.692  -3.081  -8.137  1.00  0.00    -0.342 N 
ATOM     47  C   UNL     1       2.681  -4.001  -8.381  1.00  0.00     0.247 C 
ATOM     48  O   UNL     1       3.695  -3.736  -9.029  1.00  0.00    -0.273 OA
ATOM     49  H   UNL     1       0.898  -3.324  -7.547  1.00  0.00     0.164 HD
BRANCH  47  50
ATOM     50  C   UNL     1       2.422  -5.402  -7.810  1.00  0.00     0.212 CG0
ATOM     51  G   UNL     1       2.126  -6.343  -8.995  1.00  0.00     0.000 G0
BRANCH  50  52
ATOM     52  N   UNL     1       3.636  -5.756  -7.081  1.00  0.00    -0.339 N 
ATOM     53  C   UNL     1       3.671  -5.960  -5.722  1.00  0.00     0.243 C 
ATOM     54  O   UNL     1       2.686  -5.806  -5.005  1.00  0.00    -0.273 OA
ATOM     55  H   UNL     1       4.509  -5.790  -7.604  1.00  0.00     0.164 HD
BRANCH  53  56
ATOM     56  C   UNL     1       5.081  -6.239  -5.165  1.00  0.00     0.182 C 
BRANCH  56  57
ATOM     57  N   UNL     1       6.057  -6.383  -6.250  1.00  0.00    -0.344 N 
ATOM     58  C   UNL     1       6.966  -5.401  -6.557  1.00  0.00     0.220 C 
ATOM     59  O   UNL     1       6.979  -4.310  -5.998  1.00  0.00    -0.275 OA
ATOM     60  H   UNL     1       6.147  -7.305  -6.669  1.00  0.00     0.164 HD
BRANCH  58  61
ATOM     61  C   UNL     1       7.916  -5.789  -7.676  1.00  0.00     0.100 C 
BRANCH  61  62
ATOM     62  C   UNL     1       7.555  -7.107  -8.361  1.00  0.00     0.010 C 
BRANCH  62  63
ATOM     63  C   UNL     1       7.428  -7.008  -9.886  1.00  0.00     0.000 C 
BRANCH  63  64
ATOM     64  C   UNL     1       7.762  -5.630 -10.454  1.00  0.00    -0.003 C 
ATOM     65  C   UNL     1       8.719  -5.732 -11.633  1.00  0.00     0.004 C 
ENDBRANCH  63  64
ENDBRANCH  62  63
ENDBRANCH  61  62
ENDBRANCH  58  61
ENDBRANCH  56  57
BRANCH  56  66
ATOM     66  C   UNL     1       5.083  -7.442  -4.224  1.00  0.00     0.157 C 
BRANCH  66  67
ATOM     67  C   UNL     1       6.402  -7.578  -3.518  1.00  0.00     0.305 C 
ATOM     68  O   UNL     1       7.425  -8.073  -3.965  1.00  0.00    -0.252 OA
BRANCH  67  69
ATOM     69  O   UNL     1       6.382  -7.030  -2.288  1.00  0.00    -0.481 OA
ATOM     70  H   UNL     1       5.629  -7.463  -1.833  1.00  0.00     0.296 HD
ENDBRANCH  67  69
ENDBRANCH  66  67
ENDBRANCH  56  66
ENDBRANCH  53  56
ENDBRANCH  50  52
ENDBRANCH  47  50
ENDBRANCH  45  46
BRANCH  45  71
ATOM     71  C   UNL     1       0.555  -0.885  -8.180  1.00  0.00     0.037 C 
BRANCH  71  72
ATOM     72  C   UNL     1       0.061   0.114  -9.230  1.00  0.00     0.026 C 
BRANCH  72  73
ATOM     73  C   UNL     1       0.254   1.556  -8.765  1.00  0.00     0.146 C 
BRANCH  73  74
ATOM     74  N   UNL     1      -1.032   2.238  -8.877  1.00  0.00    -0.254 NA
ATOM     75  C   UNL     1      -1.288   2.859  -9.968  1.00  0.00     0.185 C 
ATOM     76  N   UNL     1      -2.463   3.495 -10.101  1.00  0.00    -0.370 N 
ATOM     77  N   UNL     1      -0.524   2.985 -11.068  1.00  0.00    -0.370 N 
ATOM     78  H   UNL     1      -3.095   3.456  -9.314  1.00  0.00     0.159 HD
ATOM     79  H   UNL     1      -2.673   4.118 -10.861  1.00  0.00     0.159 HD
ATOM     80  H   UNL     1       0.387   2.555 -11.113  1.00  0.00     0.159 HD
ATOM     81  H   UNL     1      -0.880   3.402 -11.912  1.00  0.00     0.159 HD
ENDBRANCH  73  74
ENDBRANCH  72  73
ENDBRANCH  71  72
ENDBRANCH  45  71
ENDBRANCH   3  45
TORSDOF 20
ENDMDL
MODEL 7
REMARK VINA RESULT:    -4.945      3.159      8.872
REMARK INTER + INTRA:         -19.122
REMARK INTER:                 -12.920
REMARK INTRA:                  -6.202
REMARK UNBOUND:                -4.926
REMARK SMILES CCCCCC(=O)N[C@H](CC(=O)O)C(=O)N[C@H]1C(=O)N[C@H](CCCN=C(N)N)C(=O)N[C@@H]2CC[C@H](O)N(C2=O)[C@@H](CC(C)C)C(=O)N(C)[C@@H](Cc2ccccc2)C(=O)N[C@H](C(C)C)C(=O)O[C@@H]1C
REMARK SMILES IDX 30 1 31 2 29 3 32 5 35 6 37 7 34 8 38 9 33 10 39 11 36 12
REMARK SMILES IDX 40 14 41 15 42 16 43 17 44 18 45 19 46 20 47 21 48 22 49 23
REMARK SMILES IDX 50 24 51 25 52 26 56 27 53 28 55 29 54 30 57 31 58 32 59 33
REMARK SMILES IDX 60 35 61 36 62 37 63 38 64 39 65 40 66 41 67 42 68 43 21 45
REMARK SMILES IDX 20 46 18 47 19 48 17 50 16 52 14 53 15 54 9 56 8 57 6 58
REMARK SMILES IDX 7 59 5 61 4 62 3 63 2 64 1 65 10 66 11 67 12 68 13 69 22 71
REMARK SMILES IDX 23 72 24 73 25 74 26 75 27 76 28 77
REMARK H PARENT 31 4 36 13 59 34 20 49 16 55 8 60 13 70 27 78 27 79 28 80
REMARK H PARENT 28 81
REMARK Flexibility Score:  259.900
ROOT
ATOM      1  O   UNL     1       2.336  -1.427  -7.343  1.00  0.00    -0.273 OA
ATOM      2  N   UNL     1       2.463  -3.613  -8.005  1.00  0.00    -0.343 N 
ATOM      3  C   UNL     1       2.979  -2.475  -7.422  1.00  0.00     0.243 C 
ATOM      4  H   UNL     1       3.016  -4.461  -8.039  1.00  0.00     0.164 HD
ENDROOT
BRANCH   2   5
ATOM      5  C   UNL     1       1.162  -3.586  -8.664  1.00  0.00     0.171 C 
ATOM      6  C   UNL     1      -1.037  -5.473  -8.748  1.00  0.00     0.214 C 
ATOM      7  N   UNL     1      -0.007  -5.537  -9.758  1.00  0.00    -0.303 N 
ATOM      8  C   UNL     1      -1.263  -4.069  -8.208  1.00  0.00     0.057 C 
ATOM      9  C   UNL     1       1.097  -4.700  -9.748  1.00  0.00     0.247 C 
ATOM     10  C   UNL     1       0.030  -3.525  -7.640  1.00  0.00     0.040 C 
ATOM     11  O   UNL     1       2.018  -4.819 -10.566  1.00  0.00    -0.272 OA
BRANCH   6  12
ATOM     12  O   UNL     1      -0.674  -6.349  -7.706  1.00  0.00    -0.373 OA
ATOM     13  H   UNL     1      -0.042  -6.997  -8.083  1.00  0.00     0.213 HD
ENDBRANCH   6  12
BRANCH   7  14
ATOM     14  C   UNL     1      -0.096  -6.641 -10.737  1.00  0.00     0.177 C 
BRANCH  14  15
ATOM     15  C   UNL     1      -0.653  -7.967 -10.182  1.00  0.00     0.038 C 
BRANCH  15  16
ATOM     16  C   UNL     1       0.307  -9.154  -9.943  1.00  0.00    -0.015 C 
ATOM     17  C   UNL     1       1.738  -8.698  -9.643  1.00  0.00     0.007 C 
ATOM     18  C   UNL     1       0.339 -10.053 -11.185  1.00  0.00     0.007 C 
ENDBRANCH  15  16
ENDBRANCH  14  15
BRANCH  14  19
ATOM     19  C   UNL     1      -0.368  -6.074 -12.173  1.00  0.00     0.245 C 
ATOM     20  O   UNL     1      -1.549  -5.809 -12.455  1.00  0.00    -0.272 OA
BRANCH  19  21
ATOM     21  N   UNL     1       0.600  -5.964 -13.154  1.00  0.00    -0.332 N 
ATOM     22  C   UNL     1       0.673  -4.911 -14.152  1.00  0.00     0.147 C 
BRANCH  21  23
ATOM     23  C   UNL     1       1.657  -7.012 -13.211  1.00  0.00     0.178 C 
BRANCH  23  24
ATOM     24  C   UNL     1       1.647  -7.869 -14.493  1.00  0.00     0.070 C 
BRANCH  24  25
ATOM     25  C   UNL     1       0.299  -8.293 -15.028  1.00  0.00    -0.045 A 
ATOM     26  C   UNL     1      -0.156  -7.836 -16.271  1.00  0.00     0.004 A 
ATOM     27  C   UNL     1      -0.521  -9.151 -14.279  1.00  0.00     0.004 A 
ATOM     28  C   UNL     1      -1.411  -8.219 -16.750  1.00  0.00     0.000 A 
ATOM     29  C   UNL     1      -1.774  -9.534 -14.760  1.00  0.00     0.000 A 
ATOM     30  C   UNL     1      -2.219  -9.065 -15.994  1.00  0.00     0.000 A 
ENDBRANCH  24  25
ENDBRANCH  23  24
BRANCH  23  31
ATOM     31  C   UNL     1       3.050  -6.488 -12.788  1.00  0.00     0.243 C 
ATOM     32  O   UNL     1       3.671  -5.621 -13.396  1.00  0.00    -0.273 OA
ATOM     33  N   UNL     1       3.625  -7.217 -11.761  1.00  0.00    -0.341 N 
ATOM     34  H   UNL     1       3.060  -7.932 -11.296  1.00  0.00     0.164 HD
BRANCH  33  35
ATOM     35  C   UNL     1       4.988  -6.977 -11.277  1.00  0.00     0.194 C 
BRANCH  35  36
ATOM     36  C   UNL     1       6.073  -7.839 -11.981  1.00  0.00     0.017 C 
ATOM     37  C   UNL     1       6.755  -7.061 -13.119  1.00  0.00     0.010 C 
ATOM     38  C   UNL     1       5.518  -9.137 -12.581  1.00  0.00     0.010 C 
ENDBRANCH  35  36
BRANCH  35  39
ATOM     39  C   UNL     1       5.096  -7.059  -9.729  1.00  0.00     0.329 C 
ATOM     40  O   UNL     1       5.005  -8.100  -9.089  1.00  0.00    -0.250 OA
BRANCH  39  41
ATOM     41  O   UNL     1       5.390  -5.849  -9.163  1.00  0.00    -0.458 OA
BRANCH  41  42
ATOM     42  C   UNL     1       6.794  -5.568  -8.945  1.00  0.00     0.205 CG0
ATOM     43  C   UNL     1       7.122  -5.979  -7.512  1.00  0.00     0.056 C 
ATOM     44  G   UNL     1       7.040  -4.068  -9.200  1.00  0.00     0.000 G0
ENDBRANCH  41  42
ENDBRANCH  39  41
ENDBRANCH  35  39
ENDBRANCH  33  35
ENDBRANCH  23  31
ENDBRANCH  21  23
ENDBRANCH  19  21
ENDBRANCH  14  19
ENDBRANCH   7  14
ENDBRANCH   2   5
BRANCH   3  45
ATOM     45  C   UNL     1       4.401  -2.610  -6.861  1.00  0.00     0.171 C 
BRANCH  45  46
ATOM     46  N   UNL     1       5.135  -3.405  -7.837  1.00  0.00    -0.342 N 
ATOM     47  C   UNL     1       6.475  -3.225  -8.074  1.00  0.00     0.247 C 
ATOM     48  O   UNL     1       7.167  -2.434  -7.432  1.00  0.00    -0.273 OA
ATOM     49  H   UNL     1       4.612  -4.111  -8.351  1.00  0.00     0.164 HD
BRANCH  47  50
ATOM     50  C   UNL     1       7.050  -4.066  -9.223  1.00  0.00     0.212 CG0
ATOM     51  G   UNL     1       6.758  -5.547  -8.910  1.00  0.00     0.000 G0
BRANCH  50  52
ATOM     52  N   UNL     1       6.378  -3.588 -10.429  1.00  0.00    -0.339 N 
ATOM     53  C   UNL     1       7.009  -3.452 -11.641  1.00  0.00     0.243 C 
ATOM     54  O   UNL     1       8.208  -3.673 -11.792  1.00  0.00    -0.273 OA
ATOM     55  H   UNL     1       5.411  -3.283 -10.342  1.00  0.00     0.164 HD
BRANCH  53  56
ATOM     56  C   UNL     1       6.120  -2.849 -12.747  1.00  0.00     0.182 C 
BRANCH  56  57
ATOM     57  N   UNL     1       4.714  -2.813 -12.332  1.00  0.00    -0.344 N 
ATOM     58  C   UNL     1       3.798  -1.967 -12.906  1.00  0.00     0.220 C 
ATOM     59  O   UNL     1       4.104  -1.133 -13.752  1.00  0.00    -0.275 OA
ATOM     60  H   UNL     1       4.399  -3.553 -11.710  1.00  0.00     0.164 HD
BRANCH  58  61
ATOM     61  C   UNL     1       2.392  -2.143 -12.362  1.00  0.00     0.100 C 
BRANCH  61  62
ATOM     62  C   UNL     1       1.547  -0.870 -12.416  1.00  0.00     0.010 C 
BRANCH  62  63
ATOM     63  C   UNL     1       0.194  -0.985 -11.702  1.00  0.00     0.000 C 
BRANCH  63  64
ATOM     64  C   UNL     1       0.182  -0.415 -10.285  1.00  0.00    -0.003 C 
ATOM     65  C   UNL     1      -0.075   1.085 -10.292  1.00  0.00     0.004 C 
ENDBRANCH  63  64
ENDBRANCH  62  63
ENDBRANCH  61  62
ENDBRANCH  58  61
ENDBRANCH  56  57
BRANCH  56  66
ATOM     66  C   UNL     1       6.310  -3.575 -14.078  1.00  0.00     0.157 C 
BRANCH  66  67
ATOM     67  C   UNL     1       6.966  -2.686 -15.094  1.00  0.00     0.305 C 
ATOM     68  O   UNL     1       8.164  -2.500 -15.241  1.00  0.00    -0.252 OA
BRANCH  67  69
ATOM     69  O   UNL     1       6.073  -2.107 -15.920  1.00  0.00    -0.481 OA
ATOM     70  H   UNL     1       5.799  -2.821 -16.532  1.00  0.00     0.296 HD
ENDBRANCH  67  69
ENDBRANCH  66  67
ENDBRANCH  56  66
ENDBRANCH  53  56
ENDBRANCH  50  52
ENDBRANCH  47  50
ENDBRANCH  45  46
BRANCH  45  71
ATOM     71  C   UNL     1       4.370  -3.288  -5.487  1.00  0.00     0.037 C 
BRANCH  71  72
ATOM     72  C   UNL     1       4.848  -2.354  -4.373  1.00  0.00     0.026 C 
BRANCH  72  73
ATOM     73  C   UNL     1       5.034  -3.102  -3.055  1.00  0.00     0.146 C 
BRANCH  73  74
ATOM     74  N   UNL     1       5.495  -4.451  -3.368  1.00  0.00    -0.254 NA
ATOM     75  C   UNL     1       5.105  -5.409  -2.610  1.00  0.00     0.185 C 
ATOM     76  N   UNL     1       5.511  -6.661  -2.873  1.00  0.00    -0.370 N 
ATOM     77  N   UNL     1       4.307  -5.359  -1.529  1.00  0.00    -0.370 N 
ATOM     78  H   UNL     1       6.122  -6.786  -3.667  1.00  0.00     0.159 HD
ATOM     79  H   UNL     1       5.368  -7.433  -2.246  1.00  0.00     0.159 HD
ATOM     80  H   UNL     1       3.922  -4.481  -1.214  1.00  0.00     0.159 HD
ATOM     81  H   UNL     1       3.975  -6.196  -1.078  1.00  0.00     0.159 HD
ENDBRANCH  73  74
ENDBRANCH  72  73
ENDBRANCH  71  72
ENDBRANCH  45  71
ENDBRANCH   3  45
TORSDOF 20
ENDMDL
MODEL 8
REMARK VINA RESULT:    -4.931      2.859      9.792
REMARK INTER + INTRA:         -19.082
REMARK INTER:                 -13.485
REMARK INTRA:                  -5.597
REMARK UNBOUND:                -4.926
REMARK SMILES CCCCCC(=O)N[C@H](CC(=O)O)C(=O)N[C@H]1C(=O)N[C@H](CCCN=C(N)N)C(=O)N[C@@H]2CC[C@H](O)N(C2=O)[C@@H](CC(C)C)C(=O)N(C)[C@@H](Cc2ccccc2)C(=O)N[C@H](C(C)C)C(=O)O[C@@H]1C
REMARK SMILES IDX 30 1 31 2 29 3 32 5 35 6 37 7 34 8 38 9 33 10 39 11 36 12
REMARK SMILES IDX 40 14 41 15 42 16 43 17 44 18 45 19 46 20 47 21 48 22 49 23
REMARK SMILES IDX 50 24 51 25 52 26 56 27 53 28 55 29 54 30 57 31 58 32 59 33
REMARK SMILES IDX 60 35 61 36 62 37 63 38 64 39 65 40 66 41 67 42 68 43 21 45
REMARK SMILES IDX 20 46 18 47 19 48 17 50 16 52 14 53 15 54 9 56 8 57 6 58
REMARK SMILES IDX 7 59 5 61 4 62 3 63 2 64 1 65 10 66 11 67 12 68 13 69 22 71
REMARK SMILES IDX 23 72 24 73 25 74 26 75 27 76 28 77
REMARK H PARENT 31 4 36 13 59 34 20 49 16 55 8 60 13 70 27 78 27 79 28 80
REMARK H PARENT 28 81
REMARK Flexibility Score:  259.900
ROOT
ATOM      1  O   UNL     1       6.182  -4.532  -9.333  1.00  0.00    -0.273 OA
ATOM      2  N   UNL     1       6.382  -6.806  -9.188  1.00  0.00    -0.343 N 
ATOM      3  C   UNL     1       5.930  -5.583  -8.742  1.00  0.00     0.243 C 
ATOM      4  H   UNL     1       6.143  -7.651  -8.684  1.00  0.00     0.164 HD
ENDROOT
BRANCH   2   5
ATOM      5  C   UNL     1       7.288  -6.892 -10.328  1.00  0.00     0.171 C 
ATOM      6  C   UNL     1       8.152  -4.952 -12.301  1.00  0.00     0.214 C 
ATOM      7  N   UNL     1       6.991  -5.769 -12.569  1.00  0.00    -0.303 N 
ATOM      8  C   UNL     1       9.178  -5.637 -11.412  1.00  0.00     0.057 C 
ATOM      9  C   UNL     1       6.495  -6.678 -11.649  1.00  0.00     0.247 C 
ATOM     10  C   UNL     1       8.535  -6.038 -10.103  1.00  0.00     0.040 C 
ATOM     11  O   UNL     1       5.451  -7.312 -11.851  1.00  0.00    -0.272 OA
BRANCH   6  12
ATOM     12  O   UNL     1       7.707  -3.754 -11.707  1.00  0.00    -0.373 OA
ATOM     13  H   UNL     1       6.765  -3.884 -11.469  1.00  0.00     0.213 HD
ENDBRANCH   6  12
BRANCH   7  14
ATOM     14  C   UNL     1       6.252  -5.494 -13.819  1.00  0.00     0.177 C 
BRANCH  14  15
ATOM     15  C   UNL     1       6.388  -6.572 -14.912  1.00  0.00     0.038 C 
BRANCH  15  16
ATOM     16  C   UNL     1       7.266  -6.292 -16.152  1.00  0.00    -0.015 C 
ATOM     17  C   UNL     1       6.444  -5.833 -17.359  1.00  0.00     0.007 C 
ATOM     18  C   UNL     1       8.028  -7.564 -16.545  1.00  0.00     0.007 C 
ENDBRANCH  15  16
ENDBRANCH  14  15
BRANCH  14  19
ATOM     19  C   UNL     1       4.953  -4.671 -13.513  1.00  0.00     0.245 C 
ATOM     20  O   UNL     1       5.063  -3.733 -12.706  1.00  0.00    -0.272 OA
BRANCH  19  21
ATOM     21  N   UNL     1       3.700  -5.000 -13.997  1.00  0.00    -0.332 N 
ATOM     22  C   UNL     1       3.384  -5.304 -15.381  1.00  0.00     0.147 C 
BRANCH  21  23
ATOM     23  C   UNL     1       2.568  -5.039 -13.030  1.00  0.00     0.178 C 
BRANCH  23  24
ATOM     24  C   UNL     1       1.345  -4.192 -13.433  1.00  0.00     0.070 C 
BRANCH  24  25
ATOM     25  C   UNL     1       1.358  -2.733 -13.039  1.00  0.00    -0.045 A 
ATOM     26  C   UNL     1       2.374  -1.878 -13.485  1.00  0.00     0.004 A 
ATOM     27  C   UNL     1       0.349  -2.214 -12.213  1.00  0.00     0.004 A 
ATOM     28  C   UNL     1       2.388  -0.535 -13.102  1.00  0.00     0.000 A 
ATOM     29  C   UNL     1       0.364  -0.871 -11.833  1.00  0.00     0.000 A 
ATOM     30  C   UNL     1       1.386  -0.033 -12.275  1.00  0.00     0.000 A 
ENDBRANCH  24  25
ENDBRANCH  23  24
BRANCH  23  31
ATOM     31  C   UNL     1       2.238  -6.471 -12.544  1.00  0.00     0.243 C 
ATOM     32  O   UNL     1       2.953  -7.448 -12.751  1.00  0.00    -0.273 OA
ATOM     33  N   UNL     1       0.966  -6.594 -12.012  1.00  0.00    -0.341 N 
ATOM     34  H   UNL     1       0.414  -5.745 -11.870  1.00  0.00     0.164 HD
BRANCH  33  35
ATOM     35  C   UNL     1       0.394  -7.879 -11.598  1.00  0.00     0.194 C 
BRANCH  35  36
ATOM     36  C   UNL     1      -0.707  -8.421 -12.552  1.00  0.00     0.017 C 
ATOM     37  C   UNL     1      -0.624  -7.756 -13.937  1.00  0.00     0.010 C 
ATOM     38  C   UNL     1      -2.129  -8.199 -12.021  1.00  0.00     0.010 C 
ENDBRANCH  35  36
BRANCH  35  39
ATOM     39  C   UNL     1      -0.072  -7.876 -10.116  1.00  0.00     0.329 C 
ATOM     40  O   UNL     1      -0.099  -8.872  -9.402  1.00  0.00    -0.250 OA
BRANCH  39  41
ATOM     41  O   UNL     1      -0.368  -6.618  -9.666  1.00  0.00    -0.458 OA
BRANCH  41  42
ATOM     42  C   UNL     1       0.378  -6.157  -8.515  1.00  0.00     0.205 CG0
ATOM     43  C   UNL     1      -0.592  -5.383  -7.625  1.00  0.00     0.056 C 
ATOM     44  G   UNL     1       1.551  -5.285  -9.007  1.00  0.00     0.000 G0
ENDBRANCH  41  42
ENDBRANCH  39  41
ENDBRANCH  35  39
ENDBRANCH  33  35
ENDBRANCH  23  31
ENDBRANCH  21  23
ENDBRANCH  19  21
ENDBRANCH  14  19
ENDBRANCH   7  14
ENDBRANCH   2   5
BRANCH   3  45
ATOM     45  C   UNL     1       5.073  -5.623  -7.469  1.00  0.00     0.171 C 
BRANCH  45  46
ATOM     46  N   UNL     1       3.747  -5.174  -7.873  1.00  0.00    -0.342 N 
ATOM     47  C   UNL     1       2.875  -5.979  -8.561  1.00  0.00     0.247 C 
ATOM     48  O   UNL     1       3.118  -7.158  -8.822  1.00  0.00    -0.273 OA
ATOM     49  H   UNL     1       3.483  -4.221  -7.627  1.00  0.00     0.164 HD
BRANCH  47  50
ATOM     50  C   UNL     1       1.575  -5.296  -9.010  1.00  0.00     0.212 CG0
ATOM     51  G   UNL     1       0.398  -6.159  -8.515  1.00  0.00     0.000 G0
BRANCH  50  52
ATOM     52  N   UNL     1       1.608  -3.965  -8.409  1.00  0.00    -0.339 N 
ATOM     53  C   UNL     1       2.250  -2.893  -8.981  1.00  0.00     0.243 C 
ATOM     54  O   UNL     1       2.894  -2.986 -10.022  1.00  0.00    -0.273 OA
ATOM     55  H   UNL     1       1.185  -3.850  -7.490  1.00  0.00     0.164 HD
BRANCH  53  56
ATOM     56  C   UNL     1       2.221  -1.613  -8.122  1.00  0.00     0.182 C 
BRANCH  56  57
ATOM     57  N   UNL     1       2.885  -1.830  -6.832  1.00  0.00    -0.344 N 
ATOM     58  C   UNL     1       4.195  -1.482  -6.611  1.00  0.00     0.220 C 
ATOM     59  O   UNL     1       4.920  -1.034  -7.492  1.00  0.00    -0.275 OA
ATOM     60  H   UNL     1       2.294  -2.102  -6.050  1.00  0.00     0.164 HD
BRANCH  58  61
ATOM     61  C   UNL     1       4.654  -1.743  -5.188  1.00  0.00     0.100 C 
BRANCH  61  62
ATOM     62  C   UNL     1       3.525  -1.701  -4.158  1.00  0.00     0.010 C 
BRANCH  62  63
ATOM     63  C   UNL     1       3.814  -2.495  -2.878  1.00  0.00     0.000 C 
BRANCH  63  64
ATOM     64  C   UNL     1       5.288  -2.842  -2.675  1.00  0.00    -0.003 C 
ATOM     65  C   UNL     1       5.480  -3.771  -1.485  1.00  0.00     0.004 C 
ENDBRANCH  63  64
ENDBRANCH  62  63
ENDBRANCH  61  62
ENDBRANCH  58  61
ENDBRANCH  56  57
BRANCH  56  66
ATOM     66  C   UNL     1       0.799  -1.081  -7.956  1.00  0.00     0.157 C 
BRANCH  66  67
ATOM     67  C   UNL     1       0.676   0.319  -8.485  1.00  0.00     0.305 C 
ATOM     68  O   UNL     1       1.589   1.093  -8.727  1.00  0.00    -0.252 OA
BRANCH  67  69
ATOM     69  O   UNL     1      -0.602   0.661  -8.734  1.00  0.00    -0.481 OA
ATOM     70  H   UNL     1      -0.960   0.942  -7.866  1.00  0.00     0.296 HD
ENDBRANCH  67  69
ENDBRANCH  66  67
ENDBRANCH  56  66
ENDBRANCH  53  56
ENDBRANCH  50  52
ENDBRANCH  47  50
ENDBRANCH  45  46
BRANCH  45  71
ATOM     71  C   UNL     1       5.674  -4.714  -6.392  1.00  0.00     0.037 C 
BRANCH  71  72
ATOM     72  C   UNL     1       6.811  -5.399  -5.629  1.00  0.00     0.026 C 
BRANCH  72  73
ATOM     73  C   UNL     1       6.289  -6.165  -4.415  1.00  0.00     0.146 C 
BRANCH  73  74
ATOM     74  N   UNL     1       7.342  -6.170  -3.404  1.00  0.00    -0.254 NA
ATOM     75  C   UNL     1       7.474  -7.221  -2.682  1.00  0.00     0.185 C 
ATOM     76  N   UNL     1       8.434  -7.257  -1.744  1.00  0.00    -0.370 N 
ATOM     77  N   UNL     1       6.764  -8.363  -2.713  1.00  0.00    -0.370 N 
ATOM     78  H   UNL     1       9.011  -6.433  -1.648  1.00  0.00     0.159 HD
ATOM     79  H   UNL     1       8.504  -7.980  -1.050  1.00  0.00     0.159 HD
ATOM     80  H   UNL     1       6.010  -8.480  -3.373  1.00  0.00     0.159 HD
ATOM     81  H   UNL     1       7.035  -9.168  -2.173  1.00  0.00     0.159 HD
ENDBRANCH  73  74
ENDBRANCH  72  73
ENDBRANCH  71  72
ENDBRANCH  45  71
ENDBRANCH   3  45
TORSDOF 20
ENDMDL
MODEL 9
REMARK VINA RESULT:    -4.730      3.758     10.188
REMARK INTER + INTRA:         -18.504
REMARK INTER:                 -13.037
REMARK INTRA:                  -5.467
REMARK UNBOUND:                -4.926
REMARK SMILES CCCCCC(=O)N[C@H](CC(=O)O)C(=O)N[C@H]1C(=O)N[C@H](CCCN=C(N)N)C(=O)N[C@@H]2CC[C@H](O)N(C2=O)[C@@H](CC(C)C)C(=O)N(C)[C@@H](Cc2ccccc2)C(=O)N[C@H](C(C)C)C(=O)O[C@@H]1C
REMARK SMILES IDX 30 1 31 2 29 3 32 5 35 6 37 7 34 8 38 9 33 10 39 11 36 12
REMARK SMILES IDX 40 14 41 15 42 16 43 17 44 18 45 19 46 20 47 21 48 22 49 23
REMARK SMILES IDX 50 24 51 25 52 26 56 27 53 28 55 29 54 30 57 31 58 32 59 33
REMARK SMILES IDX 60 35 61 36 62 37 63 38 64 39 65 40 66 41 67 42 68 43 21 45
REMARK SMILES IDX 20 46 18 47 19 48 17 50 16 52 14 53 15 54 9 56 8 57 6 58
REMARK SMILES IDX 7 59 5 61 4 62 3 63 2 64 1 65 10 66 11 67 12 68 13 69 22 71
REMARK SMILES IDX 23 72 24 73 25 74 26 75 27 76 28 77
REMARK H PARENT 31 4 36 13 59 34 20 49 16 55 8 60 13 70 27 78 27 79 28 80
REMARK H PARENT 28 81
REMARK Flexibility Score:  259.900
ROOT
ATOM      1  O   UNL     1       5.701  -4.399 -10.499  1.00  0.00    -0.273 OA
ATOM      2  N   UNL     1       5.832  -6.675 -10.686  1.00  0.00    -0.343 N 
ATOM      3  C   UNL     1       5.263  -5.514 -10.211  1.00  0.00     0.243 C 
ATOM      4  H   UNL     1       5.436  -7.574 -10.440  1.00  0.00     0.164 HD
ENDROOT
BRANCH   2   5
ATOM      5  C   UNL     1       7.066  -6.633 -11.465  1.00  0.00     0.171 C 
ATOM      6  C   UNL     1       8.218  -4.626 -13.211  1.00  0.00     0.214 C 
ATOM      7  N   UNL     1       7.353  -5.639 -13.768  1.00  0.00    -0.303 N 
ATOM      8  C   UNL     1       8.987  -5.097 -11.987  1.00  0.00     0.057 C 
ATOM      9  C   UNL     1       6.730  -6.596 -12.983  1.00  0.00     0.247 C 
ATOM     10  C   UNL     1       8.019  -5.569 -10.923  1.00  0.00     0.040 C 
ATOM     11  O   UNL     1       5.923  -7.407 -13.456  1.00  0.00    -0.272 OA
BRANCH   6  12
ATOM     12  O   UNL     1       7.422  -3.508 -12.892  1.00  0.00    -0.373 OA
ATOM     13  H   UNL     1       7.234  -3.554 -11.930  1.00  0.00     0.213 HD
ENDBRANCH   6  12
BRANCH   7  14
ATOM     14  C   UNL     1       7.034  -5.532 -15.207  1.00  0.00     0.177 C 
BRANCH  14  15
ATOM     15  C   UNL     1       7.888  -6.416 -16.136  1.00  0.00     0.038 C 
BRANCH  15  16
ATOM     16  C   UNL     1       8.929  -5.758 -17.069  1.00  0.00    -0.015 C 
ATOM     17  C   UNL     1       9.108  -4.264 -16.782  1.00  0.00     0.007 C 
ATOM     18  C   UNL     1       8.490  -5.917 -18.530  1.00  0.00     0.007 C 
ENDBRANCH  15  16
ENDBRANCH  14  15
BRANCH  14  19
ATOM     19  C   UNL     1       5.512  -5.214 -15.404  1.00  0.00     0.245 C 
ATOM     20  O   UNL     1       5.040  -4.290 -14.720  1.00  0.00    -0.272 OA
BRANCH  19  21
ATOM     21  N   UNL     1       4.664  -5.966 -16.198  1.00  0.00    -0.332 N 
ATOM     22  C   UNL     1       4.668  -7.414 -16.300  1.00  0.00     0.147 C 
BRANCH  21  23
ATOM     23  C   UNL     1       3.665  -5.240 -17.030  1.00  0.00     0.178 C 
BRANCH  23  24
ATOM     24  C   UNL     1       4.088  -5.014 -18.496  1.00  0.00     0.070 C 
BRANCH  24  25
ATOM     25  C   UNL     1       4.691  -3.671 -18.838  1.00  0.00    -0.045 A 
ATOM     26  C   UNL     1       5.826  -3.201 -18.165  1.00  0.00     0.004 A 
ATOM     27  C   UNL     1       4.116  -2.872 -19.837  1.00  0.00     0.004 A 
ATOM     28  C   UNL     1       6.366  -1.951 -18.476  1.00  0.00     0.000 A 
ATOM     29  C   UNL     1       4.658  -1.623 -20.148  1.00  0.00     0.000 A 
ATOM     30  C   UNL     1       5.781  -1.163 -19.464  1.00  0.00     0.000 A 
ENDBRANCH  24  25
ENDBRANCH  23  24
BRANCH  23  31
ATOM     31  C   UNL     1       2.224  -5.772 -16.843  1.00  0.00     0.243 C 
ATOM     32  O   UNL     1       1.664  -6.531 -17.630  1.00  0.00    -0.273 OA
ATOM     33  N   UNL     1       1.543  -5.168 -15.800  1.00  0.00    -0.341 N 
ATOM     34  H   UNL     1       2.061  -4.539 -15.181  1.00  0.00     0.164 HD
BRANCH  33  35
ATOM     35  C   UNL     1       0.129  -5.428 -15.512  1.00  0.00     0.194 C 
BRANCH  35  36
ATOM     36  C   UNL     1      -0.848  -4.405 -16.157  1.00  0.00     0.017 C 
ATOM     37  C   UNL     1      -1.528  -4.993 -17.406  1.00  0.00     0.010 C 
ATOM     38  C   UNL     1      -0.165  -3.099 -16.578  1.00  0.00     0.010 C 
ENDBRANCH  35  36
BRANCH  35  39
ATOM     39  C   UNL     1      -0.147  -5.617 -13.994  1.00  0.00     0.329 C 
ATOM     40  O   UNL     1      -0.350  -6.702 -13.463  1.00  0.00    -0.250 OA
BRANCH  39  41
ATOM     41  O   UNL     1      -0.052  -4.443 -13.298  1.00  0.00    -0.458 OA
BRANCH  41  42
ATOM     42  C   UNL     1       0.275  -4.556 -11.893  1.00  0.00     0.205 CG0
ATOM     43  C   UNL     1      -0.880  -3.939 -11.107  1.00  0.00     0.056 C 
ATOM     44  G   UNL     1       1.613  -3.833 -11.640  1.00  0.00     0.000 G0
ENDBRANCH  41  42
ENDBRANCH  39  41
ENDBRANCH  35  39
ENDBRANCH  33  35
ENDBRANCH  23  31
ENDBRANCH  21  23
ENDBRANCH  19  21
ENDBRANCH  14  19
ENDBRANCH   7  14
ENDBRANCH   2   5
BRANCH   3  45
ATOM     45  C   UNL     1       4.032  -5.704  -9.315  1.00  0.00     0.171 C 
BRANCH  45  46
ATOM     46  N   UNL     1       2.998  -4.844  -9.877  1.00  0.00    -0.342 N 
ATOM     47  C   UNL     1       2.616  -4.916 -11.193  1.00  0.00     0.247 C 
ATOM     48  O   UNL     1       3.064  -5.757 -11.974  1.00  0.00    -0.273 OA
ATOM     49  H   UNL     1       2.561  -4.171  -9.250  1.00  0.00     0.164 HD
BRANCH  47  50
ATOM     50  C   UNL     1       1.605  -3.849 -11.635  1.00  0.00     0.212 CG0
ATOM     51  G   UNL     1       0.259  -4.557 -11.888  1.00  0.00     0.000 G0
BRANCH  50  52
ATOM     52  N   UNL     1       1.552  -2.885 -10.540  1.00  0.00    -0.339 N 
ATOM     53  C   UNL     1       2.175  -1.661 -10.579  1.00  0.00     0.243 C 
ATOM     54  O   UNL     1       2.874  -1.304 -11.524  1.00  0.00    -0.273 OA
ATOM     55  H   UNL     1       1.081  -3.168  -9.683  1.00  0.00     0.164 HD
BRANCH  53  56
ATOM     56  C   UNL     1       2.052  -0.851  -9.273  1.00  0.00     0.182 C 
BRANCH  56  57
ATOM     57  N   UNL     1       2.766  -1.510  -8.175  1.00  0.00    -0.344 N 
ATOM     58  C   UNL     1       3.251  -0.819  -7.092  1.00  0.00     0.220 C 
ATOM     59  O   UNL     1       3.187   0.403  -7.002  1.00  0.00    -0.275 OA
ATOM     60  H   UNL     1       2.752  -2.527  -8.161  1.00  0.00     0.164 HD
BRANCH  58  61
ATOM     61  C   UNL     1       3.903  -1.710  -6.051  1.00  0.00     0.100 C 
BRANCH  61  62
ATOM     62  C   UNL     1       5.412  -1.872  -6.236  1.00  0.00     0.010 C 
BRANCH  62  63
ATOM     63  C   UNL     1       6.054  -2.890  -5.286  1.00  0.00     0.000 C 
BRANCH  63  64
ATOM     64  C   UNL     1       7.430  -3.383  -5.732  1.00  0.00    -0.003 C 
ATOM     65  C   UNL     1       7.414  -4.874  -6.037  1.00  0.00     0.004 C 
ENDBRANCH  63  64
ENDBRANCH  62  63
ENDBRANCH  61  62
ENDBRANCH  58  61
ENDBRANCH  56  57
BRANCH  56  66
ATOM     66  C   UNL     1       0.591  -0.570  -8.924  1.00  0.00     0.157 C 
BRANCH  66  67
ATOM     67  C   UNL     1       0.258   0.882  -9.106  1.00  0.00     0.305 C 
ATOM     68  O   UNL     1      -0.241   1.402 -10.093  1.00  0.00    -0.252 OA
BRANCH  67  69
ATOM     69  O   UNL     1       0.525   1.610  -8.005  1.00  0.00    -0.481 OA
ATOM     70  H   UNL     1       0.447   0.977  -7.261  1.00  0.00     0.296 HD
ENDBRANCH  67  69
ENDBRANCH  66  67
ENDBRANCH  56  66
ENDBRANCH  53  56
ENDBRANCH  50  52
ENDBRANCH  47  50
ENDBRANCH  45  46
BRANCH  45  71
ATOM     71  C   UNL     1       4.360  -5.322  -7.868  1.00  0.00     0.037 C 
BRANCH  71  72
ATOM     72  C   UNL     1       3.106  -4.954  -7.071  1.00  0.00     0.026 C 
BRANCH  72  73
ATOM     73  C   UNL     1       2.284  -6.191  -6.717  1.00  0.00     0.146 C 
BRANCH  73  74
ATOM     74  N   UNL     1       0.912  -5.760  -6.469  1.00  0.00    -0.254 NA
ATOM     75  C   UNL     1       0.034  -6.006  -7.370  1.00  0.00     0.185 C 
ATOM     76  N   UNL     1      -1.237  -5.622  -7.170  1.00  0.00    -0.370 N 
ATOM     77  N   UNL     1       0.189  -6.623  -8.554  1.00  0.00    -0.370 N 
ATOM     78  H   UNL     1      -1.440  -5.142  -6.305  1.00  0.00     0.159 HD
ATOM     79  H   UNL     1      -1.943  -5.650  -7.885  1.00  0.00     0.159 HD
ATOM     80  H   UNL     1       1.093  -6.970  -8.838  1.00  0.00     0.159 HD
ATOM     81  H   UNL     1      -0.599  -6.863  -9.132  1.00  0.00     0.159 HD
ENDBRANCH  73  74
ENDBRANCH  72  73
ENDBRANCH  71  72
ENDBRANCH  45  71
ENDBRANCH   3  45
TORSDOF 20
ENDMDL
MODEL 10
REMARK VINA RESULT:    -4.592      2.264      9.755
REMARK INTER + INTRA:         -18.107
REMARK INTER:                 -14.601
REMARK INTRA:                  -3.506
REMARK UNBOUND:                -4.926
REMARK SMILES CCCCCC(=O)N[C@H](CC(=O)O)C(=O)N[C@H]1C(=O)N[C@H](CCCN=C(N)N)C(=O)N[C@@H]2CC[C@H](O)N(C2=O)[C@@H](CC(C)C)C(=O)N(C)[C@@H](Cc2ccccc2)C(=O)N[C@H](C(C)C)C(=O)O[C@@H]1C
REMARK SMILES IDX 30 1 31 2 29 3 32 5 35 6 37 7 34 8 38 9 33 10 39 11 36 12
REMARK SMILES IDX 40 14 41 15 42 16 43 17 44 18 45 19 46 20 47 21 48 22 49 23
REMARK SMILES IDX 50 24 51 25 52 26 56 27 53 28 55 29 54 30 57 31 58 32 59 33
REMARK SMILES IDX 60 35 61 36 62 37 63 38 64 39 65 40 66 41 67 42 68 43 21 45
REMARK SMILES IDX 20 46 18 47 19 48 17 50 16 52 14 53 15 54 9 56 8 57 6 58
REMARK SMILES IDX 7 59 5 61 4 62 3 63 2 64 1 65 10 66 11 67 12 68 13 69 22 71
REMARK SMILES IDX 23 72 24 73 25 74 26 75 27 76 28 77
REMARK H PARENT 31 4 36 13 59 34 20 49 16 55 8 60 13 70 27 78 27 79 28 80
REMARK H PARENT 28 81
REMARK Flexibility Score:  259.900
ROOT
ATOM      1  O   UNL     1       0.847  -2.568 -10.685  1.00  0.00    -0.273 OA
ATOM      2  N   UNL     1       2.655  -1.246 -11.148  1.00  0.00    -0.343 N 
ATOM      3  C   UNL     1       1.795  -1.892 -10.286  1.00  0.00     0.243 C 
ATOM      4  H   UNL     1       3.433  -0.710 -10.784  1.00  0.00     0.164 HD
ENDROOT
BRANCH   2   5
ATOM      5  C   UNL     1       2.402  -1.243 -12.585  1.00  0.00     0.171 C 
ATOM      6  C   UNL     1       1.045  -3.106 -14.344  1.00  0.00     0.214 C 
ATOM      7  N   UNL     1       2.466  -3.243 -14.124  1.00  0.00    -0.303 N 
ATOM      8  C   UNL     1       0.556  -1.670 -14.238  1.00  0.00     0.057 C 
ATOM      9  C   UNL     1       3.166  -2.419 -13.258  1.00  0.00     0.247 C 
ATOM     10  C   UNL     1       0.909  -1.108 -12.878  1.00  0.00     0.040 C 
ATOM     11  O   UNL     1       4.366  -2.598 -13.009  1.00  0.00    -0.272 OA
BRANCH   6  12
ATOM     12  O   UNL     1       0.384  -3.922 -13.406  1.00  0.00    -0.373 OA
ATOM     13  H   UNL     1       0.994  -4.041 -12.647  1.00  0.00     0.213 HD
ENDBRANCH   6  12
BRANCH   7  14
ATOM     14  C   UNL     1       3.133  -4.402 -14.754  1.00  0.00     0.177 C 
BRANCH  14  15
ATOM     15  C   UNL     1       4.016  -5.242 -13.811  1.00  0.00     0.038 C 
BRANCH  15  16
ATOM     16  C   UNL     1       5.473  -5.561 -14.216  1.00  0.00    -0.015 C 
ATOM     17  C   UNL     1       5.669  -7.035 -14.582  1.00  0.00     0.007 C 
ATOM     18  C   UNL     1       6.419  -5.224 -13.055  1.00  0.00     0.007 C 
ENDBRANCH  15  16
ENDBRANCH  14  15
BRANCH  14  19
ATOM     19  C   UNL     1       2.250  -4.972 -15.917  1.00  0.00     0.245 C 
ATOM     20  O   UNL     1       1.929  -4.178 -16.817  1.00  0.00    -0.272 OA
BRANCH  19  21
ATOM     21  N   UNL     1       1.728  -6.253 -15.932  1.00  0.00    -0.332 N 
ATOM     22  C   UNL     1       2.196  -7.344 -16.768  1.00  0.00     0.147 C 
BRANCH  21  23
ATOM     23  C   UNL     1       0.583  -6.549 -15.028  1.00  0.00     0.178 C 
BRANCH  23  24
ATOM     24  C   UNL     1      -0.667  -7.115 -15.733  1.00  0.00     0.070 C 
BRANCH  24  25
ATOM     25  C   UNL     1      -1.635  -6.116 -16.324  1.00  0.00    -0.045 A 
ATOM     26  C   UNL     1      -1.714  -4.810 -15.823  1.00  0.00     0.004 A 
ATOM     27  C   UNL     1      -2.474  -6.486 -17.385  1.00  0.00     0.004 A 
ATOM     28  C   UNL     1      -2.623  -3.898 -16.363  1.00  0.00     0.000 A 
ATOM     29  C   UNL     1      -3.381  -5.573 -17.926  1.00  0.00     0.000 A 
ATOM     30  C   UNL     1      -3.456  -4.280 -17.412  1.00  0.00     0.000 A 
ENDBRANCH  24  25
ENDBRANCH  23  24
BRANCH  23  31
ATOM     31  C   UNL     1       1.005  -7.306 -13.746  1.00  0.00     0.243 C 
ATOM     32  O   UNL     1       1.668  -8.340 -13.745  1.00  0.00    -0.273 OA
ATOM     33  N   UNL     1       0.412  -6.817 -12.594  1.00  0.00    -0.341 N 
ATOM     34  H   UNL     1      -0.134  -5.954 -12.658  1.00  0.00     0.164 HD
BRANCH  33  35
ATOM     35  C   UNL     1       0.573  -7.449 -11.282  1.00  0.00     0.194 C 
BRANCH  35  36
ATOM     36  C   UNL     1      -0.583  -8.414 -10.896  1.00  0.00     0.017 C 
ATOM     37  C   UNL     1      -0.045  -9.703 -10.251  1.00  0.00     0.010 C 
ATOM     38  C   UNL     1      -1.450  -8.828 -12.092  1.00  0.00     0.010 C 
ENDBRANCH  35  36
BRANCH  35  39
ATOM     39  C   UNL     1       0.872  -6.421 -10.155  1.00  0.00     0.329 C 
ATOM     40  O   UNL     1       0.394  -5.294 -10.111  1.00  0.00    -0.250 OA
BRANCH  39  41
ATOM     41  O   UNL     1       1.660  -6.946  -9.168  1.00  0.00    -0.458 OA
BRANCH  41  42
ATOM     42  C   UNL     1       2.960  -6.333  -8.993  1.00  0.00     0.205 CG0
ATOM     43  C   UNL     1       3.967  -7.460  -8.771  1.00  0.00     0.056 C 
ATOM     44  G   UNL     1       2.889  -5.362  -7.798  1.00  0.00     0.000 G0
ENDBRANCH  41  42
ENDBRANCH  39  41
ENDBRANCH  35  39
ENDBRANCH  33  35
ENDBRANCH  23  31
ENDBRANCH  21  23
ENDBRANCH  19  21
ENDBRANCH  14  19
ENDBRANCH   7  14
ENDBRANCH   2   5
BRANCH   3  45
ATOM     45  C   UNL     1       2.114  -1.726  -8.794  1.00  0.00     0.171 C 
BRANCH  45  46
ATOM     46  N   UNL     1       2.087  -3.070  -8.233  1.00  0.00    -0.342 N 
ATOM     47  C   UNL     1       3.153  -3.929  -8.329  1.00  0.00     0.247 C 
ATOM     48  O   UNL     1       4.231  -3.604  -8.827  1.00  0.00    -0.273 OA
ATOM     49  H   UNL     1       1.233  -3.361  -7.762  1.00  0.00     0.164 HD
BRANCH  47  50
ATOM     50  C   UNL     1       2.898  -5.345  -7.791  1.00  0.00     0.212 CG0
ATOM     51  G   UNL     1       2.946  -6.315  -8.988  1.00  0.00     0.000 G0
BRANCH  50  52
ATOM     52  N   UNL     1       3.952  -5.585  -6.810  1.00  0.00    -0.339 N 
ATOM     53  C   UNL     1       3.733  -5.602  -5.454  1.00  0.00     0.243 C 
ATOM     54  O   UNL     1       2.636  -5.363  -4.957  1.00  0.00    -0.273 OA
ATOM     55  H   UNL     1       4.906  -5.680  -7.154  1.00  0.00     0.164 HD
BRANCH  53  56
ATOM     56  C   UNL     1       5.013  -5.789  -4.614  1.00  0.00     0.182 C 
BRANCH  56  57
ATOM     57  N   UNL     1       5.568  -4.494  -4.206  1.00  0.00    -0.344 N 
ATOM     58  C   UNL     1       5.409  -3.991  -2.938  1.00  0.00     0.220 C 
ATOM     59  O   UNL     1       4.732  -4.552  -2.082  1.00  0.00    -0.275 OA
ATOM     60  H   UNL     1       6.218  -4.049  -4.849  1.00  0.00     0.164 HD
BRANCH  58  61
ATOM     61  C   UNL     1       6.117  -2.667  -2.722  1.00  0.00     0.100 C 
BRANCH  61  62
ATOM     62  C   UNL     1       6.222  -1.812  -3.986  1.00  0.00     0.010 C 
BRANCH  62  63
ATOM     63  C   UNL     1       5.038  -0.859  -4.199  1.00  0.00     0.000 C 
BRANCH  63  64
ATOM     64  C   UNL     1       4.636  -0.677  -5.661  1.00  0.00    -0.003 C 
ATOM     65  C   UNL     1       5.591   0.261  -6.386  1.00  0.00     0.004 C 
ENDBRANCH  63  64
ENDBRANCH  62  63
ENDBRANCH  61  62
ENDBRANCH  58  61
ENDBRANCH  56  57
BRANCH  56  66
ATOM     66  C   UNL     1       6.040  -6.653  -5.342  1.00  0.00     0.157 C 
BRANCH  66  67
ATOM     67  C   UNL     1       6.970  -7.326  -4.374  1.00  0.00     0.305 C 
ATOM     68  O   UNL     1       7.103  -7.069  -3.187  1.00  0.00    -0.252 OA
BRANCH  67  69
ATOM     69  O   UNL     1       7.658  -8.335  -4.942  1.00  0.00    -0.481 OA
ATOM     70  H   UNL     1       6.985  -9.024  -5.125  1.00  0.00     0.296 HD
ENDBRANCH  67  69
ENDBRANCH  66  67
ENDBRANCH  56  66
ENDBRANCH  53  56
ENDBRANCH  50  52
ENDBRANCH  47  50
ENDBRANCH  45  46
BRANCH  45  71
ATOM     71  C   UNL     1       1.080  -0.814  -8.125  1.00  0.00     0.037 C 
BRANCH  71  72
ATOM     72  C   UNL     1       0.266  -0.018  -9.149  1.00  0.00     0.026 C 
BRANCH  72  73
ATOM     73  C   UNL     1       0.678   1.452  -9.171  1.00  0.00     0.146 C 
BRANCH  73  74
ATOM     74  N   UNL     1      -0.521   2.256  -8.957  1.00  0.00    -0.254 NA
ATOM     75  C   UNL     1      -1.003   2.891  -9.961  1.00  0.00     0.185 C 
ATOM     76  N   UNL     1      -2.107   3.638  -9.796  1.00  0.00    -0.370 N 
ATOM     77  N   UNL     1      -0.557   2.934 -11.228  1.00  0.00    -0.370 N 
ATOM     78  H   UNL     1      -2.505   3.668  -8.868  1.00  0.00     0.159 HD
ATOM     79  H   UNL     1      -2.455   4.273 -10.492  1.00  0.00     0.159 HD
ATOM     80  H   UNL     1       0.265   2.415 -11.501  1.00  0.00     0.159 HD
ATOM     81  H   UNL     1      -1.086   3.377 -11.960  1.00  0.00     0.159 HD
ENDBRANCH  73  74
ENDBRANCH  72  73
ENDBRANCH  71  72
ENDBRANCH  45  71
ENDBRANCH   3  45
TORSDOF 20
ENDMDL
