MODEL 1
REMARK VINA RESULT:    -6.447      0.000      0.000
REMARK INTER + INTRA:         -25.329
REMARK INTER:                 -18.507
REMARK INTRA:                  -6.822
REMARK UNBOUND:                -6.822
REMARK SMILES CCCCCC(=O)N[C@H](CC(=O)O)C(=O)N[C@H]1C(=O)N[C@H](CCCN=C(N)N)C(=O)N[C@@H]2CC[C@H](O)N(C2=O)[C@@H](CC(C)C)C(=O)N(C)[C@@H](Cc2ccccc2)C(=O)N[C@H](C(C)C)C(=O)O[C@@H]1C
REMARK SMILES IDX 30 1 31 2 29 3 32 5 35 6 37 7 34 8 38 9 33 10 39 11 36 12
REMARK SMILES IDX 40 14 41 15 42 16 43 17 44 18 45 19 46 20 47 21 48 22 49 23
REMARK SMILES IDX 50 24 51 25 52 26 56 27 53 28 55 29 54 30 57 31 58 32 59 33
REMARK SMILES IDX 60 35 61 36 62 37 63 38 64 39 65 40 66 41 67 42 68 43 21 45
REMARK SMILES IDX 20 46 18 47 19 48 17 50 16 52 14 53 15 54 9 56 8 57 6 58
REMARK SMILES IDX 7 59 5 61 4 62 3 63 2 64 1 65 10 66 11 67 12 68 13 69 22 71
REMARK SMILES IDX 23 72 24 73 25 74 26 75 27 76 28 77
REMARK H PARENT 31 4 36 13 59 34 20 49 16 55 8 60 13 70 27 78 27 79 28 80
REMARK H PARENT 28 81
REMARK Flexibility Score:  259.900
ROOT
ATOM      1  O   UNL     1      -7.406  -4.254  -4.283  1.00  0.00    -0.273 OA
ATOM      2  N   UNL     1      -9.594  -4.848  -3.980  1.00  0.00    -0.343 N 
ATOM      3  C   UNL     1      -8.566  -4.272  -4.696  1.00  0.00     0.243 C 
ATOM      4  H   UNL     1     -10.533  -4.857  -4.358  1.00  0.00     0.164 HD
ENDROOT
BRANCH   2   5
ATOM      5  C   UNL     1      -9.365  -5.360  -2.634  1.00  0.00     0.171 C 
ATOM      6  C   UNL     1     -11.163  -6.154  -0.503  1.00  0.00     0.214 C 
ATOM      7  N   UNL     1     -10.693  -4.789  -0.565  1.00  0.00    -0.303 N 
ATOM      8  C   UNL     1     -10.172  -7.157  -1.071  1.00  0.00     0.057 C 
ATOM      9  C   UNL     1      -9.875  -4.331  -1.584  1.00  0.00     0.247 C 
ATOM     10  C   UNL     1      -9.851  -6.803  -2.507  1.00  0.00     0.040 C 
ATOM     11  O   UNL     1      -9.547  -3.141  -1.678  1.00  0.00    -0.272 OA
BRANCH   6  12
ATOM     12  O   UNL     1     -12.386  -6.221  -1.199  1.00  0.00    -0.373 OA
ATOM     13  H   UNL     1     -12.424  -7.101  -1.629  1.00  0.00     0.213 HD
ENDBRANCH   6  12
BRANCH   7  14
ATOM     14  C   UNL     1     -11.243  -3.845   0.431  1.00  0.00     0.177 C 
BRANCH  14  15
ATOM     15  C   UNL     1     -12.780  -3.734   0.452  1.00  0.00     0.038 C 
BRANCH  15  16
ATOM     16  C   UNL     1     -13.441  -2.344   0.583  1.00  0.00    -0.015 C 
ATOM     17  C   UNL     1     -12.519  -1.213   0.119  1.00  0.00     0.007 C 
ATOM     18  C   UNL     1     -13.818  -2.085   2.048  1.00  0.00     0.007 C 
ENDBRANCH  15  16
ENDBRANCH  14  15
BRANCH  14  19
ATOM     19  C   UNL     1     -10.312  -3.781   1.691  1.00  0.00     0.245 C 
ATOM     20  O   UNL     1      -9.123  -3.477   1.493  1.00  0.00    -0.272 OA
BRANCH  19  21
ATOM     21  N   UNL     1     -10.710  -4.148   2.964  1.00  0.00    -0.332 N 
ATOM     22  C   UNL     1     -10.931  -3.237   4.073  1.00  0.00     0.147 C 
BRANCH  21  23
ATOM     23  C   UNL     1     -10.925  -5.596   3.236  1.00  0.00     0.178 C 
BRANCH  23  24
ATOM     24  C   UNL     1      -9.761  -6.294   3.969  1.00  0.00     0.070 C 
BRANCH  24  25
ATOM     25  C   UNL     1      -8.917  -7.254   3.162  1.00  0.00    -0.045 A 
ATOM     26  C   UNL     1      -8.909  -8.623   3.455  1.00  0.00     0.004 A 
ATOM     27  C   UNL     1      -8.123  -6.782   2.106  1.00  0.00     0.004 A 
ATOM     28  C   UNL     1      -8.113  -9.501   2.716  1.00  0.00     0.000 A 
ATOM     29  C   UNL     1      -7.329  -7.660   1.367  1.00  0.00     0.000 A 
ATOM     30  C   UNL     1      -7.322  -9.019   1.675  1.00  0.00     0.000 A 
ENDBRANCH  24  25
ENDBRANCH  23  24
BRANCH  23  31
ATOM     31  C   UNL     1     -12.330  -5.902   3.807  1.00  0.00     0.243 C 
ATOM     32  O   UNL     1     -13.380  -5.613   3.238  1.00  0.00    -0.273 OA
ATOM     33  N   UNL     1     -12.308  -6.367   5.111  1.00  0.00    -0.341 N 
ATOM     34  H   UNL     1     -11.403  -6.584   5.534  1.00  0.00     0.164 HD
BRANCH  33  35
ATOM     35  C   UNL     1     -13.524  -6.609   5.893  1.00  0.00     0.194 C 
BRANCH  35  36
ATOM     36  C   UNL     1     -14.051  -5.358   6.652  1.00  0.00     0.017 C 
ATOM     37  C   UNL     1     -15.266  -4.742   5.937  1.00  0.00     0.010 C 
ATOM     38  C   UNL     1     -12.997  -4.254   6.801  1.00  0.00     0.010 C 
ENDBRANCH  35  36
BRANCH  35  39
ATOM     39  C   UNL     1     -13.397  -7.844   6.828  1.00  0.00     0.329 C 
ATOM     40  O   UNL     1     -13.037  -8.954   6.454  1.00  0.00    -0.250 OA
BRANCH  39  41
ATOM     41  O   UNL     1     -13.648  -7.534   8.136  1.00  0.00    -0.458 OA
BRANCH  41  42
ATOM     42  C   UNL     1     -14.602  -8.379   8.823  1.00  0.00     0.205 CG0
ATOM     43  C   UNL     1     -15.996  -7.847   8.499  1.00  0.00     0.056 C 
ATOM     44  G   UNL     1     -14.293  -8.342  10.333  1.00  0.00     0.000 G0
ENDBRANCH  41  42
ENDBRANCH  39  41
ENDBRANCH  35  39
ENDBRANCH  33  35
ENDBRANCH  23  31
ENDBRANCH  21  23
ENDBRANCH  19  21
ENDBRANCH  14  19
ENDBRANCH   7  14
ENDBRANCH   2   5
BRANCH   3  45
ATOM     45  C   UNL     1      -8.964  -3.674  -6.052  1.00  0.00     0.171 C 
BRANCH  45  46
ATOM     46  N   UNL     1      -7.829  -3.911  -6.935  1.00  0.00    -0.342 N 
ATOM     47  C   UNL     1      -7.911  -4.723  -8.038  1.00  0.00     0.247 C 
ATOM     48  O   UNL     1      -8.963  -5.251  -8.402  1.00  0.00    -0.273 OA
ATOM     49  H   UNL     1      -6.953  -3.448  -6.701  1.00  0.00     0.164 HD
BRANCH  47  50
ATOM     50  C   UNL     1      -6.585  -4.953  -8.776  1.00  0.00     0.212 CG0
ATOM     51  G   UNL     1      -5.789  -3.634  -8.729  1.00  0.00     0.000 G0
BRANCH  50  52
ATOM     52  N   UNL     1      -5.929  -6.049  -8.067  1.00  0.00    -0.339 N 
ATOM     53  C   UNL     1      -5.812  -7.318  -8.580  1.00  0.00     0.243 C 
ATOM     54  O   UNL     1      -6.300  -7.644  -9.658  1.00  0.00    -0.273 OA
ATOM     55  H   UNL     1      -5.601  -5.870  -7.120  1.00  0.00     0.164 HD
BRANCH  53  56
ATOM     56  C   UNL     1      -5.158  -8.327  -7.614  1.00  0.00     0.182 C 
BRANCH  56  57
ATOM     57  N   UNL     1      -5.221  -7.847  -6.230  1.00  0.00    -0.344 N 
ATOM     58  C   UNL     1      -5.565  -8.666  -5.182  1.00  0.00     0.220 C 
ATOM     59  O   UNL     1      -5.913  -9.831  -5.337  1.00  0.00    -0.275 OA
ATOM     60  H   UNL     1      -4.844  -6.921  -6.046  1.00  0.00     0.164 HD
BRANCH  58  61
ATOM     61  C   UNL     1      -5.507  -7.973  -3.833  1.00  0.00     0.100 C 
BRANCH  61  62
ATOM     62  C   UNL     1      -6.636  -8.375  -2.885  1.00  0.00     0.010 C 
BRANCH  62  63
ATOM     63  C   UNL     1      -6.230  -9.412  -1.829  1.00  0.00     0.000 C 
BRANCH  63  64
ATOM     64  C   UNL     1      -7.250 -10.531  -1.624  1.00  0.00    -0.003 C 
ATOM     65  C   UNL     1      -8.538 -10.254  -2.386  1.00  0.00     0.004 C 
ENDBRANCH  63  64
ENDBRANCH  62  63
ENDBRANCH  61  62
ENDBRANCH  58  61
ENDBRANCH  56  57
BRANCH  56  66
ATOM     66  C   UNL     1      -3.732  -8.668  -8.042  1.00  0.00     0.157 C 
BRANCH  66  67
ATOM     67  C   UNL     1      -3.664 -10.030  -8.670  1.00  0.00     0.305 C 
ATOM     68  O   UNL     1      -4.235 -10.399  -9.685  1.00  0.00    -0.252 OA
BRANCH  67  69
ATOM     69  O   UNL     1      -2.829 -10.857  -8.011  1.00  0.00    -0.481 OA
ATOM     70  H   UNL     1      -3.399 -11.593  -7.702  1.00  0.00     0.296 HD
ENDBRANCH  67  69
ENDBRANCH  66  67
ENDBRANCH  56  66
ENDBRANCH  53  56
ENDBRANCH  50  52
ENDBRANCH  47  50
ENDBRANCH  45  46
BRANCH  45  71
ATOM     71  C   UNL     1      -9.266  -2.178  -5.908  1.00  0.00     0.037 C 
BRANCH  71  72
ATOM     72  C   UNL     1      -8.060  -1.310  -6.275  1.00  0.00     0.026 C 
BRANCH  72  73
ATOM     73  C   UNL     1      -7.789  -0.249  -5.211  1.00  0.00     0.146 C 
BRANCH  73  74
ATOM     74  N   UNL     1      -7.022  -0.877  -4.139  1.00  0.00    -0.254 NA
ATOM     75  C   UNL     1      -7.538  -0.896  -2.965  1.00  0.00     0.185 C 
ATOM     76  N   UNL     1      -6.857  -1.468  -1.959  1.00  0.00    -0.370 N 
ATOM     77  N   UNL     1      -8.721  -0.407  -2.554  1.00  0.00    -0.370 N 
ATOM     78  H   UNL     1      -5.951  -1.855  -2.181  1.00  0.00     0.159 HD
ATOM     79  H   UNL     1      -7.129  -1.393  -0.994  1.00  0.00     0.159 HD
ATOM     80  H   UNL     1      -9.343   0.048  -3.205  1.00  0.00     0.159 HD
ATOM     81  H   UNL     1      -9.072  -0.584  -1.627  1.00  0.00     0.159 HD
ENDBRANCH  73  74
ENDBRANCH  72  73
ENDBRANCH  71  72
ENDBRANCH  45  71
ENDBRANCH   3  45
TORSDOF 20
ENDMDL
MODEL 2
REMARK VINA RESULT:    -6.377      1.822      3.444
REMARK INTER + INTRA:         -25.130
REMARK INTER:                 -18.987
REMARK INTRA:                  -6.143
REMARK UNBOUND:                -6.822
REMARK SMILES CCCCCC(=O)N[C@H](CC(=O)O)C(=O)N[C@H]1C(=O)N[C@H](CCCN=C(N)N)C(=O)N[C@@H]2CC[C@H](O)N(C2=O)[C@@H](CC(C)C)C(=O)N(C)[C@@H](Cc2ccccc2)C(=O)N[C@H](C(C)C)C(=O)O[C@@H]1C
REMARK SMILES IDX 30 1 31 2 29 3 32 5 35 6 37 7 34 8 38 9 33 10 39 11 36 12
REMARK SMILES IDX 40 14 41 15 42 16 43 17 44 18 45 19 46 20 47 21 48 22 49 23
REMARK SMILES IDX 50 24 51 25 52 26 56 27 53 28 55 29 54 30 57 31 58 32 59 33
REMARK SMILES IDX 60 35 61 36 62 37 63 38 64 39 65 40 66 41 67 42 68 43 21 45
REMARK SMILES IDX 20 46 18 47 19 48 17 50 16 52 14 53 15 54 9 56 8 57 6 58
REMARK SMILES IDX 7 59 5 61 4 62 3 63 2 64 1 65 10 66 11 67 12 68 13 69 22 71
REMARK SMILES IDX 23 72 24 73 25 74 26 75 27 76 28 77
REMARK H PARENT 31 4 36 13 59 34 20 49 16 55 8 60 13 70 27 78 27 79 28 80
REMARK H PARENT 28 81
REMARK Flexibility Score:  259.900
ROOT
ATOM      1  O   UNL     1      -7.433  -4.206  -4.075  1.00  0.00    -0.273 OA
ATOM      2  N   UNL     1      -9.547  -4.981  -3.670  1.00  0.00    -0.343 N 
ATOM      3  C   UNL     1      -8.636  -4.188  -4.336  1.00  0.00     0.243 C 
ATOM      4  H   UNL     1     -10.527  -4.950  -3.922  1.00  0.00     0.164 HD
ENDROOT
BRANCH   2   5
ATOM      5  C   UNL     1      -9.130  -5.797  -2.535  1.00  0.00     0.171 C 
ATOM      6  C   UNL     1     -10.613  -7.260  -0.519  1.00  0.00     0.214 C 
ATOM      7  N   UNL     1     -10.235  -5.889  -0.267  1.00  0.00    -0.303 N 
ATOM      8  C   UNL     1      -9.640  -7.996  -1.427  1.00  0.00     0.057 C 
ATOM      9  C   UNL     1      -9.571  -5.117  -1.207  1.00  0.00     0.247 C 
ATOM     10  C   UNL     1      -9.512  -7.261  -2.744  1.00  0.00     0.040 C 
ATOM     11  O   UNL     1      -9.327  -3.918  -1.018  1.00  0.00    -0.272 OA
BRANCH   6  12
ATOM     12  O   UNL     1     -11.904  -7.254  -1.083  1.00  0.00    -0.373 OA
ATOM     13  H   UNL     1     -12.383  -8.026  -0.712  1.00  0.00     0.213 HD
ENDBRANCH   6  12
BRANCH   7  14
ATOM     14  C   UNL     1     -10.717  -5.281   0.991  1.00  0.00     0.177 C 
BRANCH  14  15
ATOM     15  C   UNL     1     -12.081  -4.572   0.897  1.00  0.00     0.038 C 
BRANCH  15  16
ATOM     16  C   UNL     1     -12.133  -3.031   0.799  1.00  0.00    -0.015 C 
ATOM     17  C   UNL     1     -11.279  -2.349   1.873  1.00  0.00     0.007 C 
ATOM     18  C   UNL     1     -13.580  -2.549   0.959  1.00  0.00     0.007 C 
ENDBRANCH  15  16
ENDBRANCH  14  15
BRANCH  14  19
ATOM     19  C   UNL     1     -10.206  -6.105   2.223  1.00  0.00     0.245 C 
ATOM     20  O   UNL     1      -8.981  -6.100   2.431  1.00  0.00    -0.272 OA
BRANCH  19  21
ATOM     21  N   UNL     1     -11.018  -6.910   3.003  1.00  0.00    -0.332 N 
ATOM     22  C   UNL     1     -11.234  -8.332   2.806  1.00  0.00     0.147 C 
BRANCH  21  23
ATOM     23  C   UNL     1     -11.746  -6.274   4.135  1.00  0.00     0.178 C 
BRANCH  23  24
ATOM     24  C   UNL     1     -13.277  -6.206   3.962  1.00  0.00     0.070 C 
BRANCH  24  25
ATOM     25  C   UNL     1     -13.997  -5.063   4.639  1.00  0.00    -0.045 A 
ATOM     26  C   UNL     1     -15.086  -5.302   5.487  1.00  0.00     0.004 A 
ATOM     27  C   UNL     1     -13.584  -3.740   4.422  1.00  0.00     0.004 A 
ATOM     28  C   UNL     1     -15.756  -4.239   6.095  1.00  0.00     0.000 A 
ATOM     29  C   UNL     1     -14.255  -2.678   5.032  1.00  0.00     0.000 A 
ATOM     30  C   UNL     1     -15.342  -2.928   5.866  1.00  0.00     0.000 A 
ENDBRANCH  24  25
ENDBRANCH  23  24
BRANCH  23  31
ATOM     31  C   UNL     1     -11.268  -6.776   5.519  1.00  0.00     0.243 C 
ATOM     32  O   UNL     1     -10.243  -6.390   6.073  1.00  0.00    -0.273 OA
ATOM     33  N   UNL     1     -12.003  -7.846   6.002  1.00  0.00    -0.341 N 
ATOM     34  H   UNL     1     -12.845  -8.126   5.493  1.00  0.00     0.164 HD
BRANCH  33  35
ATOM     35  C   UNL     1     -11.659  -8.559   7.235  1.00  0.00     0.194 C 
BRANCH  35  36
ATOM     36  C   UNL     1     -10.990  -9.943   7.002  1.00  0.00     0.017 C 
ATOM     37  C   UNL     1     -10.348 -10.479   8.293  1.00  0.00     0.010 C 
ATOM     38  C   UNL     1      -9.899  -9.914   5.925  1.00  0.00     0.010 C 
ENDBRANCH  35  36
BRANCH  35  39
ATOM     39  C   UNL     1     -12.852  -8.651   8.227  1.00  0.00     0.329 C 
ATOM     40  O   UNL     1     -13.944  -9.128   7.943  1.00  0.00    -0.250 OA
BRANCH  39  41
ATOM     41  O   UNL     1     -12.521  -8.217   9.481  1.00  0.00    -0.458 OA
BRANCH  41  42
ATOM     42  C   UNL     1     -12.836  -9.113  10.573  1.00  0.00     0.205 CG0
ATOM     43  C   UNL     1     -11.915  -8.753  11.736  1.00  0.00     0.056 C 
ATOM     44  G   UNL     1     -12.639 -10.564  10.091  1.00  0.00     0.000 G0
ENDBRANCH  41  42
ENDBRANCH  39  41
ENDBRANCH  35  39
ENDBRANCH  33  35
ENDBRANCH  23  31
ENDBRANCH  21  23
ENDBRANCH  19  21
ENDBRANCH  14  19
ENDBRANCH   7  14
ENDBRANCH   2   5
BRANCH   3  45
ATOM     45  C   UNL     1      -9.224  -3.296  -5.438  1.00  0.00     0.171 C 
BRANCH  45  46
ATOM     46  N   UNL     1      -8.182  -3.183  -6.450  1.00  0.00    -0.342 N 
ATOM     47  C   UNL     1      -8.208  -3.903  -7.618  1.00  0.00     0.247 C 
ATOM     48  O   UNL     1      -9.146  -4.639  -7.928  1.00  0.00    -0.273 OA
ATOM     49  H   UNL     1      -7.414  -2.542  -6.258  1.00  0.00     0.164 HD
BRANCH  47  50
ATOM     50  C   UNL     1      -6.965  -3.748  -8.505  1.00  0.00     0.212 CG0
ATOM     51  G   UNL     1      -6.518  -2.275  -8.430  1.00  0.00     0.000 G0
BRANCH  50  52
ATOM     52  N   UNL     1      -5.979  -4.679  -7.961  1.00  0.00    -0.339 N 
ATOM     53  C   UNL     1      -5.715  -5.908  -8.514  1.00  0.00     0.243 C 
ATOM     54  O   UNL     1      -6.330  -6.344  -9.484  1.00  0.00    -0.273 OA
ATOM     55  H   UNL     1      -5.516  -4.421  -7.092  1.00  0.00     0.164 HD
BRANCH  53  56
ATOM     56  C   UNL     1      -4.699  -6.750  -7.716  1.00  0.00     0.182 C 
BRANCH  56  57
ATOM     57  N   UNL     1      -5.071  -6.820  -6.299  1.00  0.00    -0.344 N 
ATOM     58  C   UNL     1      -5.288  -8.012  -5.653  1.00  0.00     0.220 C 
ATOM     59  O   UNL     1      -5.258  -9.094  -6.230  1.00  0.00    -0.275 OA
ATOM     60  H   UNL     1      -5.006  -5.958  -5.763  1.00  0.00     0.164 HD
BRANCH  58  61
ATOM     61  C   UNL     1      -5.603  -7.849  -4.178  1.00  0.00     0.100 C 
BRANCH  61  62
ATOM     62  C   UNL     1      -6.289  -9.065  -3.556  1.00  0.00     0.010 C 
BRANCH  62  63
ATOM     63  C   UNL     1      -6.193  -9.126  -2.026  1.00  0.00     0.000 C 
BRANCH  63  64
ATOM     64  C   UNL     1      -6.041 -10.538  -1.463  1.00  0.00    -0.003 C 
ATOM     65  C   UNL     1      -4.587 -10.985  -1.469  1.00  0.00     0.004 C 
ENDBRANCH  63  64
ENDBRANCH  62  63
ENDBRANCH  61  62
ENDBRANCH  58  61
ENDBRANCH  56  57
BRANCH  56  66
ATOM     66  C   UNL     1      -3.272  -6.240  -7.913  1.00  0.00     0.157 C 
BRANCH  66  67
ATOM     67  C   UNL     1      -2.474  -7.177  -8.774  1.00  0.00     0.305 C 
ATOM     68  O   UNL     1      -1.787  -6.879  -9.739  1.00  0.00    -0.252 OA
BRANCH  67  69
ATOM     69  O   UNL     1      -2.540  -8.450  -8.342  1.00  0.00    -0.481 OA
ATOM     70  H   UNL     1      -3.407  -8.516  -7.889  1.00  0.00     0.296 HD
ENDBRANCH  67  69
ENDBRANCH  66  67
ENDBRANCH  56  66
ENDBRANCH  53  56
ENDBRANCH  50  52
ENDBRANCH  47  50
ENDBRANCH  45  46
BRANCH  45  71
ATOM     71  C   UNL     1      -9.610  -1.927  -4.868  1.00  0.00     0.037 C 
BRANCH  71  72
ATOM     72  C   UNL     1      -8.552  -0.861  -5.165  1.00  0.00     0.026 C 
BRANCH  72  73
ATOM     73  C   UNL     1      -8.141  -0.111  -3.899  1.00  0.00     0.146 C 
BRANCH  73  74
ATOM     74  N   UNL     1      -7.203  -0.955  -3.165  1.00  0.00    -0.254 NA
ATOM     75  C   UNL     1      -7.505  -1.280  -1.962  1.00  0.00     0.185 C 
ATOM     76  N   UNL     1      -6.663  -2.056  -1.261  1.00  0.00    -0.370 N 
ATOM     77  N   UNL     1      -8.594  -0.950  -1.245  1.00  0.00    -0.370 N 
ATOM     78  H   UNL     1      -5.813  -2.344  -1.725  1.00  0.00     0.159 HD
ATOM     79  H   UNL     1      -6.760  -2.230  -0.276  1.00  0.00     0.159 HD
ATOM     80  H   UNL     1      -9.317  -0.372  -1.646  1.00  0.00     0.159 HD
ATOM     81  H   UNL     1      -8.778  -1.361  -0.345  1.00  0.00     0.159 HD
ENDBRANCH  73  74
ENDBRANCH  72  73
ENDBRANCH  71  72
ENDBRANCH  45  71
ENDBRANCH   3  45
TORSDOF 20
ENDMDL
MODEL 3
REMARK VINA RESULT:    -6.348      7.479     13.857
REMARK INTER + INTRA:         -25.046
REMARK INTER:                 -18.228
REMARK INTRA:                  -6.817
REMARK UNBOUND:                -6.822
REMARK SMILES CCCCCC(=O)N[C@H](CC(=O)O)C(=O)N[C@H]1C(=O)N[C@H](CCCN=C(N)N)C(=O)N[C@@H]2CC[C@H](O)N(C2=O)[C@@H](CC(C)C)C(=O)N(C)[C@@H](Cc2ccccc2)C(=O)N[C@H](C(C)C)C(=O)O[C@@H]1C
REMARK SMILES IDX 30 1 31 2 29 3 32 5 35 6 37 7 34 8 38 9 33 10 39 11 36 12
REMARK SMILES IDX 40 14 41 15 42 16 43 17 44 18 45 19 46 20 47 21 48 22 49 23
REMARK SMILES IDX 50 24 51 25 52 26 56 27 53 28 55 29 54 30 57 31 58 32 59 33
REMARK SMILES IDX 60 35 61 36 62 37 63 38 64 39 65 40 66 41 67 42 68 43 21 45
REMARK SMILES IDX 20 46 18 47 19 48 17 50 16 52 14 53 15 54 9 56 8 57 6 58
REMARK SMILES IDX 7 59 5 61 4 62 3 63 2 64 1 65 10 66 11 67 12 68 13 69 22 71
REMARK SMILES IDX 23 72 24 73 25 74 26 75 27 76 28 77
REMARK H PARENT 31 4 36 13 59 34 20 49 16 55 8 60 13 70 27 78 27 79 28 80
REMARK H PARENT 28 81
REMARK Flexibility Score:  259.900
ROOT
ATOM      1  O   UNL     1     -14.737  -4.948   5.964  1.00  0.00    -0.273 OA
ATOM      2  N   UNL     1     -12.929  -3.749   6.689  1.00  0.00    -0.343 N 
ATOM      3  C   UNL     1     -14.091  -4.463   6.893  1.00  0.00     0.243 C 
ATOM      4  H   UNL     1     -12.416  -3.377   7.479  1.00  0.00     0.164 HD
ENDROOT
BRANCH   2   5
ATOM      5  C   UNL     1     -12.478  -3.435   5.338  1.00  0.00     0.171 C 
ATOM      6  C   UNL     1     -10.236  -1.905   4.321  1.00  0.00     0.214 C 
ATOM      7  N   UNL     1     -11.500  -1.245   4.553  1.00  0.00    -0.303 N 
ATOM      8  C   UNL     1     -10.382  -3.372   3.950  1.00  0.00     0.057 C 
ATOM      9  C   UNL     1     -12.595  -1.905   5.085  1.00  0.00     0.247 C 
ATOM     10  C   UNL     1     -11.137  -4.103   5.039  1.00  0.00     0.040 C 
ATOM     11  O   UNL     1     -13.647  -1.313   5.361  1.00  0.00    -0.272 OA
BRANCH   6  12
ATOM     12  O   UNL     1      -9.458  -1.767   5.488  1.00  0.00    -0.373 OA
ATOM     13  H   UNL     1      -9.056  -0.873   5.462  1.00  0.00     0.213 HD
ENDBRANCH   6  12
BRANCH   7  14
ATOM     14  C   UNL     1     -11.542   0.217   4.337  1.00  0.00     0.177 C 
BRANCH  14  15
ATOM     15  C   UNL     1     -11.142   1.072   5.555  1.00  0.00     0.038 C 
BRANCH  15  16
ATOM     16  C   UNL     1     -12.209   1.443   6.609  1.00  0.00    -0.015 C 
ATOM     17  C   UNL     1     -13.267   2.403   6.057  1.00  0.00     0.007 C 
ATOM     18  C   UNL     1     -11.537   2.110   7.815  1.00  0.00     0.007 C 
ENDBRANCH  15  16
ENDBRANCH  14  15
BRANCH  14  19
ATOM     19  C   UNL     1     -11.211   0.555   2.843  1.00  0.00     0.245 C 
ATOM     20  O   UNL     1     -11.865  -0.046   1.975  1.00  0.00    -0.272 OA
BRANCH  19  21
ATOM     21  N   UNL     1     -10.175   1.385   2.451  1.00  0.00    -0.332 N 
ATOM     22  C   UNL     1      -8.779   0.997   2.344  1.00  0.00     0.147 C 
BRANCH  21  23
ATOM     23  C   UNL     1     -10.503   2.799   2.119  1.00  0.00     0.178 C 
BRANCH  23  24
ATOM     24  C   UNL     1      -9.753   3.850   2.962  1.00  0.00     0.070 C 
BRANCH  24  25
ATOM     25  C   UNL     1     -10.538   4.550   4.047  1.00  0.00    -0.045 A 
ATOM     26  C   UNL     1     -11.768   5.157   3.765  1.00  0.00     0.004 A 
ATOM     27  C   UNL     1     -10.039   4.604   5.358  1.00  0.00     0.004 A 
ATOM     28  C   UNL     1     -12.479   5.816   4.770  1.00  0.00     0.000 A 
ATOM     29  C   UNL     1     -10.752   5.262   6.361  1.00  0.00     0.000 A 
ATOM     30  C   UNL     1     -11.970   5.870   6.066  1.00  0.00     0.000 A 
ENDBRANCH  24  25
ENDBRANCH  23  24
BRANCH  23  31
ATOM     31  C   UNL     1     -10.516   3.074   0.597  1.00  0.00     0.243 C 
ATOM     32  O   UNL     1     -11.359   2.623  -0.175  1.00  0.00    -0.273 OA
ATOM     33  N   UNL     1      -9.383   3.726   0.142  1.00  0.00    -0.341 N 
ATOM     34  H   UNL     1      -8.713   4.073   0.833  1.00  0.00     0.164 HD
BRANCH  33  35
ATOM     35  C   UNL     1      -9.125   3.984  -1.277  1.00  0.00     0.194 C 
BRANCH  35  36
ATOM     36  C   UNL     1      -7.780   3.401  -1.795  1.00  0.00     0.017 C 
ATOM     37  C   UNL     1      -7.413   2.102  -1.057  1.00  0.00     0.010 C 
ATOM     38  C   UNL     1      -6.601   4.368  -1.636  1.00  0.00     0.010 C 
ENDBRANCH  35  36
BRANCH  35  39
ATOM     39  C   UNL     1      -9.289   5.484  -1.651  1.00  0.00     0.329 C 
ATOM     40  O   UNL     1      -9.342   6.394  -0.832  1.00  0.00    -0.250 OA
BRANCH  39  41
ATOM     41  O   UNL     1      -9.281   5.687  -3.003  1.00  0.00    -0.458 OA
BRANCH  41  42
ATOM     42  C   UNL     1      -8.906   7.012  -3.451  1.00  0.00     0.205 CG0
ATOM     43  C   UNL     1      -7.803   6.844  -4.494  1.00  0.00     0.056 C 
ATOM     44  G   UNL     1      -8.443   7.831  -2.229  1.00  0.00     0.000 G0
ENDBRANCH  41  42
ENDBRANCH  39  41
ENDBRANCH  35  39
ENDBRANCH  33  35
ENDBRANCH  23  31
ENDBRANCH  21  23
ENDBRANCH  19  21
ENDBRANCH  14  19
ENDBRANCH   7  14
ENDBRANCH   2   5
BRANCH   3  45
ATOM     45  C   UNL     1     -14.510  -4.630   8.360  1.00  0.00     0.171 C 
BRANCH  45  46
ATOM     46  N   UNL     1     -14.619  -6.066   8.577  1.00  0.00    -0.342 N 
ATOM     47  C   UNL     1     -13.732  -6.761   9.360  1.00  0.00     0.247 C 
ATOM     48  O   UNL     1     -12.827  -6.215   9.991  1.00  0.00    -0.273 OA
ATOM     49  H   UNL     1     -15.388  -6.550   8.118  1.00  0.00     0.164 HD
BRANCH  47  50
ATOM     50  C   UNL     1     -13.930  -8.284   9.372  1.00  0.00     0.212 CG0
ATOM     51  G   UNL     1     -15.364  -8.572   8.885  1.00  0.00     0.000 G0
BRANCH  50  52
ATOM     52  N   UNL     1     -12.900  -8.818   8.485  1.00  0.00    -0.339 N 
ATOM     53  C   UNL     1     -12.894  -8.615   7.126  1.00  0.00     0.243 C 
ATOM     54  O   UNL     1     -13.789  -8.009   6.543  1.00  0.00    -0.273 OA
ATOM     55  H   UNL     1     -12.191  -9.423   8.894  1.00  0.00     0.164 HD
BRANCH  53  56
ATOM     56  C   UNL     1     -11.756  -9.348   6.388  1.00  0.00     0.182 C 
BRANCH  56  57
ATOM     57  N   UNL     1     -10.695  -8.415   5.997  1.00  0.00    -0.344 N 
ATOM     58  C   UNL     1      -9.687  -8.045   6.855  1.00  0.00     0.220 C 
ATOM     59  O   UNL     1      -9.644  -8.410   8.024  1.00  0.00    -0.275 OA
ATOM     60  H   UNL     1     -10.636  -8.170   5.012  1.00  0.00     0.164 HD
BRANCH  58  61
ATOM     61  C   UNL     1      -8.667  -7.118   6.220  1.00  0.00     0.100 C 
BRANCH  61  62
ATOM     62  C   UNL     1      -8.507  -5.785   6.952  1.00  0.00     0.010 C 
BRANCH  62  63
ATOM     63  C   UNL     1      -7.108  -5.167   6.831  1.00  0.00     0.000 C 
BRANCH  63  64
ATOM     64  C   UNL     1      -7.042  -3.688   7.208  1.00  0.00    -0.003 C 
ATOM     65  C   UNL     1      -6.663  -3.504   8.670  1.00  0.00     0.004 C 
ENDBRANCH  63  64
ENDBRANCH  62  63
ENDBRANCH  61  62
ENDBRANCH  58  61
ENDBRANCH  56  57
BRANCH  56  66
ATOM     66  C   UNL     1     -12.285 -10.150   5.200  1.00  0.00     0.157 C 
BRANCH  66  67
ATOM     67  C   UNL     1     -11.908  -9.504   3.897  1.00  0.00     0.305 C 
ATOM     68  O   UNL     1     -11.047  -9.879   3.116  1.00  0.00    -0.252 OA
BRANCH  67  69
ATOM     69  O   UNL     1     -12.678  -8.437   3.614  1.00  0.00    -0.481 OA
ATOM     70  H   UNL     1     -13.008  -8.128   4.484  1.00  0.00     0.296 HD
ENDBRANCH  67  69
ENDBRANCH  66  67
ENDBRANCH  56  66
ENDBRANCH  53  56
ENDBRANCH  50  52
ENDBRANCH  47  50
ENDBRANCH  45  46
BRANCH  45  71
ATOM     71  C   UNL     1     -15.842  -3.916   8.618  1.00  0.00     0.037 C 
BRANCH  71  72
ATOM     72  C   UNL     1     -17.023  -4.890   8.636  1.00  0.00     0.026 C 
BRANCH  72  73
ATOM     73  C   UNL     1     -17.329  -5.373  10.052  1.00  0.00     0.146 C 
BRANCH  73  74
ATOM     74  N   UNL     1     -17.388  -6.831  10.024  1.00  0.00    -0.254 NA
ATOM     75  C   UNL     1     -17.124  -7.462  11.108  1.00  0.00     0.185 C 
ATOM     76  N   UNL     1     -17.170  -8.805  11.114  1.00  0.00    -0.370 N 
ATOM     77  N   UNL     1     -16.788  -6.969  12.313  1.00  0.00    -0.370 N 
ATOM     78  H   UNL     1     -17.409  -9.258  10.244  1.00  0.00     0.159 HD
ATOM     79  H   UNL     1     -16.838  -9.367  11.878  1.00  0.00     0.159 HD
ATOM     80  H   UNL     1     -16.718  -5.973  12.459  1.00  0.00     0.159 HD
ATOM     81  H   UNL     1     -16.716  -7.560  13.124  1.00  0.00     0.159 HD
ENDBRANCH  73  74
ENDBRANCH  72  73
ENDBRANCH  71  72
ENDBRANCH  45  71
ENDBRANCH   3  45
TORSDOF 20
ENDMDL
MODEL 4
REMARK VINA RESULT:    -6.341      2.790      5.531
REMARK INTER + INTRA:         -25.025
REMARK INTER:                 -18.738
REMARK INTRA:                  -6.287
REMARK UNBOUND:                -6.822
REMARK SMILES CCCCCC(=O)N[C@H](CC(=O)O)C(=O)N[C@H]1C(=O)N[C@H](CCCN=C(N)N)C(=O)N[C@@H]2CC[C@H](O)N(C2=O)[C@@H](CC(C)C)C(=O)N(C)[C@@H](Cc2ccccc2)C(=O)N[C@H](C(C)C)C(=O)O[C@@H]1C
REMARK SMILES IDX 30 1 31 2 29 3 32 5 35 6 37 7 34 8 38 9 33 10 39 11 36 12
REMARK SMILES IDX 40 14 41 15 42 16 43 17 44 18 45 19 46 20 47 21 48 22 49 23
REMARK SMILES IDX 50 24 51 25 52 26 56 27 53 28 55 29 54 30 57 31 58 32 59 33
REMARK SMILES IDX 60 35 61 36 62 37 63 38 64 39 65 40 66 41 67 42 68 43 21 45
REMARK SMILES IDX 20 46 18 47 19 48 17 50 16 52 14 53 15 54 9 56 8 57 6 58
REMARK SMILES IDX 7 59 5 61 4 62 3 63 2 64 1 65 10 66 11 67 12 68 13 69 22 71
REMARK SMILES IDX 23 72 24 73 25 74 26 75 27 76 28 77
REMARK H PARENT 31 4 36 13 59 34 20 49 16 55 8 60 13 70 27 78 27 79 28 80
REMARK H PARENT 28 81
REMARK Flexibility Score:  259.900
ROOT
ATOM      1  O   UNL     1      -9.174  -6.921  -3.512  1.00  0.00    -0.273 OA
ATOM      2  N   UNL     1      -8.412  -5.488  -1.900  1.00  0.00    -0.343 N 
ATOM      3  C   UNL     1      -8.308  -6.144  -3.108  1.00  0.00     0.243 C 
ATOM      4  H   UNL     1      -7.687  -4.845  -1.607  1.00  0.00     0.164 HD
ENDROOT
BRANCH   2   5
ATOM      5  C   UNL     1      -9.510  -5.784  -0.987  1.00  0.00     0.171 C 
ATOM      6  C   UNL     1     -10.101  -4.925   1.718  1.00  0.00     0.214 C 
ATOM      7  N   UNL     1      -9.336  -6.132   1.507  1.00  0.00    -0.303 N 
ATOM      8  C   UNL     1     -11.088  -4.635   0.599  1.00  0.00     0.057 C 
ATOM      9  C   UNL     1      -8.976  -6.571   0.244  1.00  0.00     0.247 C 
ATOM     10  C   UNL     1     -10.353  -4.537  -0.720  1.00  0.00     0.040 C 
ATOM     11  O   UNL     1      -8.247  -7.558   0.075  1.00  0.00    -0.272 OA
BRANCH   6  12
ATOM     12  O   UNL     1      -9.191  -3.859   1.862  1.00  0.00    -0.373 OA
ATOM     13  H   UNL     1      -8.643  -4.054   2.652  1.00  0.00     0.213 HD
ENDBRANCH   6  12
BRANCH   7  14
ATOM     14  C   UNL     1      -8.817  -6.816   2.711  1.00  0.00     0.177 C 
BRANCH  14  15
ATOM     15  C   UNL     1      -7.578  -6.164   3.353  1.00  0.00     0.038 C 
BRANCH  15  16
ATOM     16  C   UNL     1      -6.324  -7.022   3.631  1.00  0.00    -0.015 C 
ATOM     17  C   UNL     1      -6.400  -8.400   2.968  1.00  0.00     0.007 C 
ATOM     18  C   UNL     1      -6.158  -7.224   5.142  1.00  0.00     0.007 C 
ENDBRANCH  15  16
ENDBRANCH  14  15
BRANCH  14  19
ATOM     19  C   UNL     1      -9.989  -7.503   3.493  1.00  0.00     0.245 C 
ATOM     20  O   UNL     1     -11.132  -7.357   3.030  1.00  0.00    -0.272 OA
BRANCH  19  21
ATOM     21  N   UNL     1      -9.831  -8.152   4.705  1.00  0.00    -0.332 N 
ATOM     22  C   UNL     1      -9.308  -9.495   4.880  1.00  0.00     0.147 C 
BRANCH  21  23
ATOM     23  C   UNL     1     -10.239  -7.427   5.940  1.00  0.00     0.178 C 
BRANCH  23  24
ATOM     24  C   UNL     1     -10.180  -5.889   5.836  1.00  0.00     0.070 C 
BRANCH  24  25
ATOM     25  C   UNL     1      -9.017  -5.198   6.510  1.00  0.00    -0.045 A 
ATOM     26  C   UNL     1      -8.499  -4.002   5.997  1.00  0.00     0.004 A 
ATOM     27  C   UNL     1      -8.436  -5.750   7.661  1.00  0.00     0.004 A 
ATOM     28  C   UNL     1      -7.413  -3.378   6.615  1.00  0.00     0.000 A 
ATOM     29  C   UNL     1      -7.352  -5.125   8.279  1.00  0.00     0.000 A 
ATOM     30  C   UNL     1      -6.840  -3.940   7.754  1.00  0.00     0.000 A 
ENDBRANCH  24  25
ENDBRANCH  23  24
BRANCH  23  31
ATOM     31  C   UNL     1     -11.536  -7.988   6.569  1.00  0.00     0.243 C 
ATOM     32  O   UNL     1     -12.513  -8.352   5.919  1.00  0.00    -0.273 OA
ATOM     33  N   UNL     1     -11.578  -7.872   7.948  1.00  0.00    -0.341 N 
ATOM     34  H   UNL     1     -10.735  -7.556   8.434  1.00  0.00     0.164 HD
BRANCH  33  35
ATOM     35  C   UNL     1     -12.755  -8.228   8.745  1.00  0.00     0.194 C 
BRANCH  35  36
ATOM     36  C   UNL     1     -13.732  -7.045   8.998  1.00  0.00     0.017 C 
ATOM     37  C   UNL     1     -14.987  -7.157   8.114  1.00  0.00     0.010 C 
ATOM     38  C   UNL     1     -13.102  -5.673   8.728  1.00  0.00     0.010 C 
ENDBRANCH  35  36
BRANCH  35  39
ATOM     39  C   UNL     1     -12.386  -8.967  10.061  1.00  0.00     0.329 C 
ATOM     40  O   UNL     1     -11.288  -8.898  10.601  1.00  0.00    -0.250 OA
BRANCH  39  41
ATOM     41  O   UNL     1     -13.451  -9.635  10.599  1.00  0.00    -0.458 OA
BRANCH  41  42
ATOM     42  C   UNL     1     -13.399  -9.881  12.025  1.00  0.00     0.205 CG0
ATOM     43  C   UNL     1     -13.674 -11.368  12.239  1.00  0.00     0.056 C 
ATOM     44  G   UNL     1     -14.444  -8.983  12.717  1.00  0.00     0.000 G0
ENDBRANCH  41  42
ENDBRANCH  39  41
ENDBRANCH  35  39
ENDBRANCH  33  35
ENDBRANCH  23  31
ENDBRANCH  21  23
ENDBRANCH  19  21
ENDBRANCH  14  19
ENDBRANCH   7  14
ENDBRANCH   2   5
BRANCH   3  45
ATOM     45  C   UNL     1      -7.049  -5.822  -3.924  1.00  0.00     0.171 C 
BRANCH  45  46
ATOM     46  N   UNL     1      -7.513  -5.069  -5.082  1.00  0.00    -0.342 N 
ATOM     47  C   UNL     1      -7.885  -3.751  -5.003  1.00  0.00     0.247 C 
ATOM     48  O   UNL     1      -7.787  -3.090  -3.968  1.00  0.00    -0.273 OA
ATOM     49  H   UNL     1      -7.556  -5.563  -5.972  1.00  0.00     0.164 HD
BRANCH  47  50
ATOM     50  C   UNL     1      -8.464  -3.160  -6.296  1.00  0.00     0.212 CG0
ATOM     51  G   UNL     1      -8.748  -1.666  -6.041  1.00  0.00     0.000 G0
BRANCH  50  52
ATOM     52  N   UNL     1      -7.446  -3.388  -7.318  1.00  0.00    -0.339 N 
ATOM     53  C   UNL     1      -7.426  -4.495  -8.131  1.00  0.00     0.243 C 
ATOM     54  O   UNL     1      -8.237  -5.410  -8.023  1.00  0.00    -0.273 OA
ATOM     55  H   UNL     1      -6.682  -2.718  -7.381  1.00  0.00     0.164 HD
BRANCH  53  56
ATOM     56  C   UNL     1      -6.207  -4.559  -9.073  1.00  0.00     0.182 C 
BRANCH  56  57
ATOM     57  N   UNL     1      -5.212  -5.518  -8.582  1.00  0.00    -0.344 N 
ATOM     58  C   UNL     1      -4.616  -5.395  -7.351  1.00  0.00     0.220 C 
ATOM     59  O   UNL     1      -4.818  -4.440  -6.609  1.00  0.00    -0.275 OA
ATOM     60  H   UNL     1      -5.092  -6.373  -9.119  1.00  0.00     0.164 HD
BRANCH  58  61
ATOM     61  C   UNL     1      -3.663  -6.531  -7.027  1.00  0.00     0.100 C 
BRANCH  61  62
ATOM     62  C   UNL     1      -3.337  -7.422  -8.226  1.00  0.00     0.010 C 
BRANCH  62  63
ATOM     63  C   UNL     1      -3.656  -8.907  -8.009  1.00  0.00     0.000 C 
BRANCH  63  64
ATOM     64  C   UNL     1      -5.147  -9.239  -8.039  1.00  0.00    -0.003 C 
ATOM     65  C   UNL     1      -5.531 -10.172  -6.900  1.00  0.00     0.004 C 
ENDBRANCH  63  64
ENDBRANCH  62  63
ENDBRANCH  61  62
ENDBRANCH  58  61
ENDBRANCH  56  57
BRANCH  56  66
ATOM     66  C   UNL     1      -5.607  -3.174  -9.308  1.00  0.00     0.157 C 
BRANCH  66  67
ATOM     67  C   UNL     1      -5.718  -2.770 -10.750  1.00  0.00     0.305 C 
ATOM     68  O   UNL     1      -4.996  -1.989 -11.349  1.00  0.00    -0.252 OA
BRANCH  67  69
ATOM     69  O   UNL     1      -6.712  -3.417 -11.387  1.00  0.00    -0.481 OA
ATOM     70  H   UNL     1      -7.395  -3.566 -10.699  1.00  0.00     0.296 HD
ENDBRANCH  67  69
ENDBRANCH  66  67
ENDBRANCH  56  66
ENDBRANCH  53  56
ENDBRANCH  50  52
ENDBRANCH  47  50
ENDBRANCH  45  46
BRANCH  45  71
ATOM     71  C   UNL     1      -6.336  -7.114  -4.338  1.00  0.00     0.037 C 
BRANCH  71  72
ATOM     72  C   UNL     1      -5.914  -7.952  -3.129  1.00  0.00     0.026 C 
BRANCH  72  73
ATOM     73  C   UNL     1      -6.268  -9.425  -3.316  1.00  0.00     0.146 C 
BRANCH  73  74
ATOM     74  N   UNL     1      -6.592  -9.977  -2.004  1.00  0.00    -0.254 NA
ATOM     75  C   UNL     1      -7.829 -10.056  -1.676  1.00  0.00     0.185 C 
ATOM     76  N   UNL     1      -8.159 -10.561  -0.476  1.00  0.00    -0.370 N 
ATOM     77  N   UNL     1      -8.915  -9.695  -2.382  1.00  0.00    -0.370 N 
ATOM     78  H   UNL     1      -7.399 -10.851   0.122  1.00  0.00     0.159 HD
ATOM     79  H   UNL     1      -9.088 -10.520  -0.095  1.00  0.00     0.159 HD
ATOM     80  H   UNL     1      -8.819  -9.302  -3.307  1.00  0.00     0.159 HD
ATOM     81  H   UNL     1      -9.846  -9.912  -2.067  1.00  0.00     0.159 HD
ENDBRANCH  73  74
ENDBRANCH  72  73
ENDBRANCH  71  72
ENDBRANCH  45  71
ENDBRANCH   3  45
TORSDOF 20
ENDMDL
MODEL 5
REMARK VINA RESULT:    -6.319      3.022      4.557
REMARK INTER + INTRA:         -24.963
REMARK INTER:                 -16.972
REMARK INTRA:                  -7.991
REMARK UNBOUND:                -6.822
REMARK SMILES CCCCCC(=O)N[C@H](CC(=O)O)C(=O)N[C@H]1C(=O)N[C@H](CCCN=C(N)N)C(=O)N[C@@H]2CC[C@H](O)N(C2=O)[C@@H](CC(C)C)C(=O)N(C)[C@@H](Cc2ccccc2)C(=O)N[C@H](C(C)C)C(=O)O[C@@H]1C
REMARK SMILES IDX 30 1 31 2 29 3 32 5 35 6 37 7 34 8 38 9 33 10 39 11 36 12
REMARK SMILES IDX 40 14 41 15 42 16 43 17 44 18 45 19 46 20 47 21 48 22 49 23
REMARK SMILES IDX 50 24 51 25 52 26 56 27 53 28 55 29 54 30 57 31 58 32 59 33
REMARK SMILES IDX 60 35 61 36 62 37 63 38 64 39 65 40 66 41 67 42 68 43 21 45
REMARK SMILES IDX 20 46 18 47 19 48 17 50 16 52 14 53 15 54 9 56 8 57 6 58
REMARK SMILES IDX 7 59 5 61 4 62 3 63 2 64 1 65 10 66 11 67 12 68 13 69 22 71
REMARK SMILES IDX 23 72 24 73 25 74 26 75 27 76 28 77
REMARK H PARENT 31 4 36 13 59 34 20 49 16 55 8 60 13 70 27 78 27 79 28 80
REMARK H PARENT 28 81
REMARK Flexibility Score:  259.900
ROOT
ATOM      1  O   UNL     1      -7.790  -3.815  -3.888  1.00  0.00    -0.273 OA
ATOM      2  N   UNL     1      -9.588  -3.953  -2.482  1.00  0.00    -0.343 N 
ATOM      3  C   UNL     1      -8.943  -3.488  -3.608  1.00  0.00     0.243 C 
ATOM      4  H   UNL     1     -10.543  -3.673  -2.291  1.00  0.00     0.164 HD
ENDROOT
BRANCH   2   5
ATOM      5  C   UNL     1      -8.878  -4.769  -1.503  1.00  0.00     0.171 C 
ATOM      6  C   UNL     1      -9.782  -6.439   0.687  1.00  0.00     0.214 C 
ATOM      7  N   UNL     1      -9.476  -5.049   0.933  1.00  0.00    -0.303 N 
ATOM      8  C   UNL     1      -8.960  -7.045  -0.439  1.00  0.00     0.057 C 
ATOM      9  C   UNL     1      -9.088  -4.184  -0.077  1.00  0.00     0.247 C 
ATOM     10  C   UNL     1      -9.171  -6.254  -1.711  1.00  0.00     0.040 C 
ATOM     11  O   UNL     1      -8.912  -2.975   0.126  1.00  0.00    -0.272 OA
BRANCH   6  12
ATOM     12  O   UNL     1     -11.158  -6.532   0.399  1.00  0.00    -0.373 OA
ATOM     13  H   UNL     1     -11.393  -5.745  -0.138  1.00  0.00     0.213 HD
ENDBRANCH   6  12
BRANCH   7  14
ATOM     14  C   UNL     1      -9.734  -4.536   2.296  1.00  0.00     0.177 C 
BRANCH  14  15
ATOM     15  C   UNL     1     -11.195  -4.136   2.580  1.00  0.00     0.038 C 
BRANCH  15  16
ATOM     16  C   UNL     1     -11.488  -2.866   3.410  1.00  0.00    -0.015 C 
ATOM     17  C   UNL     1     -12.831  -2.227   3.045  1.00  0.00     0.007 C 
ATOM     18  C   UNL     1     -10.383  -1.828   3.178  1.00  0.00     0.007 C 
ENDBRANCH  15  16
ENDBRANCH  14  15
BRANCH  14  19
ATOM     19  C   UNL     1      -8.763  -5.211   3.324  1.00  0.00     0.245 C 
ATOM     20  O   UNL     1      -7.547  -5.130   3.081  1.00  0.00    -0.272 OA
BRANCH  19  21
ATOM     21  N   UNL     1      -9.185  -5.971   4.400  1.00  0.00    -0.332 N 
ATOM     22  C   UNL     1      -9.337  -7.416   4.404  1.00  0.00     0.147 C 
BRANCH  21  23
ATOM     23  C   UNL     1      -9.527  -5.260   5.663  1.00  0.00     0.178 C 
BRANCH  23  24
ATOM     24  C   UNL     1     -10.706  -5.870   6.448  1.00  0.00     0.070 C 
BRANCH  24  25
ATOM     25  C   UNL     1     -12.097  -5.438   6.047  1.00  0.00    -0.045 A 
ATOM     26  C   UNL     1     -12.832  -6.169   5.105  1.00  0.00     0.004 A 
ATOM     27  C   UNL     1     -12.672  -4.290   6.613  1.00  0.00     0.004 A 
ATOM     28  C   UNL     1     -14.111  -5.753   4.727  1.00  0.00     0.000 A 
ATOM     29  C   UNL     1     -13.950  -3.876   6.236  1.00  0.00     0.000 A 
ATOM     30  C   UNL     1     -14.668  -4.607   5.290  1.00  0.00     0.000 A 
ENDBRANCH  24  25
ENDBRANCH  23  24
BRANCH  23  31
ATOM     31  C   UNL     1      -8.284  -4.916   6.517  1.00  0.00     0.243 C 
ATOM     32  O   UNL     1      -7.659  -3.862   6.427  1.00  0.00    -0.273 OA
ATOM     33  N   UNL     1      -7.818  -5.980   7.271  1.00  0.00    -0.341 N 
ATOM     34  H   UNL     1      -8.379  -6.835   7.302  1.00  0.00     0.164 HD
BRANCH  33  35
ATOM     35  C   UNL     1      -6.587  -5.919   8.063  1.00  0.00     0.194 C 
BRANCH  35  36
ATOM     36  C   UNL     1      -5.459  -6.862   7.557  1.00  0.00     0.017 C 
ATOM     37  C   UNL     1      -4.104  -6.504   8.192  1.00  0.00     0.010 C 
ATOM     38  C   UNL     1      -5.276  -6.822   6.034  1.00  0.00     0.010 C 
ENDBRANCH  35  36
BRANCH  35  39
ATOM     39  C   UNL     1      -6.847  -6.092   9.586  1.00  0.00     0.329 C 
ATOM     40  O   UNL     1      -7.038  -5.161  10.359  1.00  0.00    -0.250 OA
BRANCH  39  41
ATOM     41  O   UNL     1      -6.926  -7.406   9.954  1.00  0.00    -0.458 OA
BRANCH  41  42
ATOM     42  C   UNL     1      -8.076  -7.781  10.750  1.00  0.00     0.205 CG0
ATOM     43  C   UNL     1      -9.166  -8.243   9.785  1.00  0.00     0.056 C 
ATOM     44  G   UNL     1      -8.510  -6.563  11.590  1.00  0.00     0.000 G0
ENDBRANCH  41  42
ENDBRANCH  39  41
ENDBRANCH  35  39
ENDBRANCH  33  35
ENDBRANCH  23  31
ENDBRANCH  21  23
ENDBRANCH  19  21
ENDBRANCH  14  19
ENDBRANCH   7  14
ENDBRANCH   2   5
BRANCH   3  45
ATOM     45  C   UNL     1      -9.770  -2.551  -4.499  1.00  0.00     0.171 C 
BRANCH  45  46
ATOM     46  N   UNL     1      -9.015  -2.419  -5.738  1.00  0.00    -0.342 N 
ATOM     47  C   UNL     1      -9.540  -2.759  -6.960  1.00  0.00     0.247 C 
ATOM     48  O   UNL     1     -10.706  -3.129  -7.106  1.00  0.00    -0.273 OA
ATOM     49  H   UNL     1      -8.064  -2.062  -5.669  1.00  0.00     0.164 HD
BRANCH  47  50
ATOM     50  C   UNL     1      -8.558  -2.671  -8.137  1.00  0.00     0.212 CG0
ATOM     51  G   UNL     1      -8.060  -1.215  -8.222  1.00  0.00     0.000 G0
BRANCH  50  52
ATOM     52  N   UNL     1      -7.498  -3.628  -7.831  1.00  0.00    -0.339 N 
ATOM     53  C   UNL     1      -7.614  -4.980  -8.046  1.00  0.00     0.243 C 
ATOM     54  O   UNL     1      -8.646  -5.497  -8.466  1.00  0.00    -0.273 OA
ATOM     55  H   UNL     1      -6.658  -3.274  -7.377  1.00  0.00     0.164 HD
BRANCH  53  56
ATOM     56  C   UNL     1      -6.399  -5.798  -7.566  1.00  0.00     0.182 C 
BRANCH  56  57
ATOM     57  N   UNL     1      -6.363  -5.877  -6.102  1.00  0.00    -0.344 N 
ATOM     58  C   UNL     1      -6.084  -7.045  -5.434  1.00  0.00     0.220 C 
ATOM     59  O   UNL     1      -5.920  -8.115  -6.010  1.00  0.00    -0.275 OA
ATOM     60  H   UNL     1      -6.392  -4.998  -5.593  1.00  0.00     0.164 HD
BRANCH  58  61
ATOM     61  C   UNL     1      -6.042  -6.880  -3.926  1.00  0.00     0.100 C 
BRANCH  61  62
ATOM     62  C   UNL     1      -5.667  -8.159  -3.177  1.00  0.00     0.010 C 
BRANCH  62  63
ATOM     63  C   UNL     1      -6.867  -9.018  -2.761  1.00  0.00     0.000 C 
BRANCH  63  64
ATOM     64  C   UNL     1      -6.574  -9.996  -1.625  1.00  0.00    -0.003 C 
ATOM     65  C   UNL     1      -5.172 -10.577  -1.740  1.00  0.00     0.004 C 
ENDBRANCH  63  64
ENDBRANCH  62  63
ENDBRANCH  61  62
ENDBRANCH  58  61
ENDBRANCH  56  57
BRANCH  56  66
ATOM     66  C   UNL     1      -5.094  -5.257  -8.146  1.00  0.00     0.157 C 
BRANCH  66  67
ATOM     67  C   UNL     1      -4.325  -4.474  -7.121  1.00  0.00     0.305 C 
ATOM     68  O   UNL     1      -4.583  -3.353  -6.710  1.00  0.00    -0.252 OA
BRANCH  67  69
ATOM     69  O   UNL     1      -3.288  -5.170  -6.618  1.00  0.00    -0.481 OA
ATOM     70  H   UNL     1      -2.583  -4.503  -6.478  1.00  0.00     0.296 HD
ENDBRANCH  67  69
ENDBRANCH  66  67
ENDBRANCH  56  66
ENDBRANCH  53  56
ENDBRANCH  50  52
ENDBRANCH  47  50
ENDBRANCH  45  46
BRANCH  45  71
ATOM     71  C   UNL     1      -9.967  -1.196  -3.810  1.00  0.00     0.037 C 
BRANCH  71  72
ATOM     72  C   UNL     1      -9.067  -0.111  -4.406  1.00  0.00     0.026 C 
BRANCH  72  73
ATOM     73  C   UNL     1      -8.169   0.518  -3.342  1.00  0.00     0.146 C 
BRANCH  73  74
ATOM     74  N   UNL     1      -7.208  -0.493  -2.914  1.00  0.00    -0.254 NA
ATOM     75  C   UNL     1      -7.162  -0.786  -1.666  1.00  0.00     0.185 C 
ATOM     76  N   UNL     1      -6.288  -1.713  -1.242  1.00  0.00    -0.370 N 
ATOM     77  N   UNL     1      -7.890  -0.285  -0.654  1.00  0.00    -0.370 N 
ATOM     78  H   UNL     1      -5.695  -2.136  -1.941  1.00  0.00     0.159 HD
ATOM     79  H   UNL     1      -6.095  -1.889  -0.272  1.00  0.00     0.159 HD
ATOM     80  H   UNL     1      -8.591   0.420  -0.825  1.00  0.00     0.159 HD
ATOM     81  H   UNL     1      -7.846  -0.676   0.273  1.00  0.00     0.159 HD
ENDBRANCH  73  74
ENDBRANCH  72  73
ENDBRANCH  71  72
ENDBRANCH  45  71
ENDBRANCH   3  45
TORSDOF 20
ENDMDL
MODEL 6
REMARK VINA RESULT:    -6.224      8.715     13.115
REMARK INTER + INTRA:         -24.690
REMARK INTER:                 -19.121
REMARK INTRA:                  -5.569
REMARK UNBOUND:                -6.822
REMARK SMILES CCCCCC(=O)N[C@H](CC(=O)O)C(=O)N[C@H]1C(=O)N[C@H](CCCN=C(N)N)C(=O)N[C@@H]2CC[C@H](O)N(C2=O)[C@@H](CC(C)C)C(=O)N(C)[C@@H](Cc2ccccc2)C(=O)N[C@H](C(C)C)C(=O)O[C@@H]1C
REMARK SMILES IDX 30 1 31 2 29 3 32 5 35 6 37 7 34 8 38 9 33 10 39 11 36 12
REMARK SMILES IDX 40 14 41 15 42 16 43 17 44 18 45 19 46 20 47 21 48 22 49 23
REMARK SMILES IDX 50 24 51 25 52 26 56 27 53 28 55 29 54 30 57 31 58 32 59 33
REMARK SMILES IDX 60 35 61 36 62 37 63 38 64 39 65 40 66 41 67 42 68 43 21 45
REMARK SMILES IDX 20 46 18 47 19 48 17 50 16 52 14 53 15 54 9 56 8 57 6 58
REMARK SMILES IDX 7 59 5 61 4 62 3 63 2 64 1 65 10 66 11 67 12 68 13 69 22 71
REMARK SMILES IDX 23 72 24 73 25 74 26 75 27 76 28 77
REMARK H PARENT 31 4 36 13 59 34 20 49 16 55 8 60 13 70 27 78 27 79 28 80
REMARK H PARENT 28 81
REMARK Flexibility Score:  259.900
ROOT
ATOM      1  O   UNL     1       0.868   1.275  -8.426  1.00  0.00    -0.273 OA
ATOM      2  N   UNL     1      -0.680  -0.141  -9.337  1.00  0.00    -0.343 N 
ATOM      3  C   UNL     1       0.445   0.652  -9.401  1.00  0.00     0.243 C 
ATOM      4  H   UNL     1      -0.990  -0.650 -10.155  1.00  0.00     0.164 HD
ENDROOT
BRANCH   2   5
ATOM      5  C   UNL     1      -1.493  -0.181  -8.126  1.00  0.00     0.171 C 
ATOM      6  C   UNL     1      -3.068  -2.274  -6.885  1.00  0.00     0.214 C 
ATOM      7  N   UNL     1      -3.693  -1.383  -7.834  1.00  0.00    -0.303 N 
ATOM      8  C   UNL     1      -1.925  -1.630  -6.117  1.00  0.00     0.057 C 
ATOM      9  C   UNL     1      -2.987  -0.395  -8.501  1.00  0.00     0.247 C 
ATOM     10  C   UNL     1      -0.881  -1.117  -7.085  1.00  0.00     0.040 C 
ATOM     11  O   UNL     1      -3.510   0.308  -9.375  1.00  0.00    -0.272 OA
BRANCH   6  12
ATOM     12  O   UNL     1      -2.611  -3.404  -7.592  1.00  0.00    -0.373 OA
ATOM     13  H   UNL     1      -3.216  -4.144  -7.373  1.00  0.00     0.213 HD
ENDBRANCH   6  12
BRANCH   7  14
ATOM     14  C   UNL     1      -5.102  -1.659  -8.184  1.00  0.00     0.177 C 
BRANCH  14  15
ATOM     15  C   UNL     1      -5.307  -2.581  -9.402  1.00  0.00     0.038 C 
BRANCH  15  16
ATOM     16  C   UNL     1      -6.726  -2.768  -9.984  1.00  0.00    -0.015 C 
ATOM     17  C   UNL     1      -6.782  -3.878 -11.038  1.00  0.00     0.007 C 
ATOM     18  C   UNL     1      -7.196  -1.462 -10.636  1.00  0.00     0.007 C 
ENDBRANCH  15  16
ENDBRANCH  14  15
BRANCH  14  19
ATOM     19  C   UNL     1      -5.996  -1.645  -6.896  1.00  0.00     0.245 C 
ATOM     20  O   UNL     1      -5.507  -1.120  -5.882  1.00  0.00    -0.272 OA
BRANCH  19  21
ATOM     21  N   UNL     1      -7.224  -2.274  -6.803  1.00  0.00    -0.332 N 
ATOM     22  C   UNL     1      -8.499  -1.695  -7.188  1.00  0.00     0.147 C 
BRANCH  21  23
ATOM     23  C   UNL     1      -7.258  -3.658  -6.254  1.00  0.00     0.178 C 
BRANCH  23  24
ATOM     24  C   UNL     1      -5.988  -4.490  -6.522  1.00  0.00     0.070 C 
BRANCH  24  25
ATOM     25  C   UNL     1      -6.082  -5.571  -7.575  1.00  0.00    -0.045 A 
ATOM     26  C   UNL     1      -7.327  -5.989  -8.064  1.00  0.00     0.004 A 
ATOM     27  C   UNL     1      -4.919  -6.175  -8.075  1.00  0.00     0.004 A 
ATOM     28  C   UNL     1      -7.406  -7.000  -9.024  1.00  0.00     0.000 A 
ATOM     29  C   UNL     1      -5.001  -7.184  -9.035  1.00  0.00     0.000 A 
ATOM     30  C   UNL     1      -6.245  -7.598  -9.507  1.00  0.00     0.000 A 
ENDBRANCH  24  25
ENDBRANCH  23  24
BRANCH  23  31
ATOM     31  C   UNL     1      -7.781  -3.717  -4.799  1.00  0.00     0.243 C 
ATOM     32  O   UNL     1      -7.694  -2.788  -3.999  1.00  0.00    -0.273 OA
ATOM     33  N   UNL     1      -8.192  -4.981  -4.410  1.00  0.00    -0.341 N 
ATOM     34  H   UNL     1      -8.237  -5.716  -5.119  1.00  0.00     0.164 HD
BRANCH  33  35
ATOM     35  C   UNL     1      -8.613  -5.298  -3.042  1.00  0.00     0.194 C 
BRANCH  35  36
ATOM     36  C   UNL     1      -7.713  -6.345  -2.328  1.00  0.00     0.017 C 
ATOM     37  C   UNL     1      -6.228  -6.132  -2.669  1.00  0.00     0.010 C 
ATOM     38  C   UNL     1      -8.064  -7.793  -2.693  1.00  0.00     0.010 C 
ENDBRANCH  35  36
BRANCH  35  39
ATOM     39  C   UNL     1     -10.120  -5.669  -2.951  1.00  0.00     0.329 C 
ATOM     40  O   UNL     1     -10.772  -6.124  -3.883  1.00  0.00    -0.250 OA
BRANCH  39  41
ATOM     41  O   UNL     1     -10.618  -5.513  -1.687  1.00  0.00    -0.458 OA
BRANCH  41  42
ATOM     42  C   UNL     1     -11.522  -6.544  -1.223  1.00  0.00     0.205 CG0
ATOM     43  C   UNL     1     -10.790  -7.337  -0.143  1.00  0.00     0.056 C 
ATOM     44  G   UNL     1     -11.928  -7.420  -2.425  1.00  0.00     0.000 G0
ENDBRANCH  41  42
ENDBRANCH  39  41
ENDBRANCH  35  39
ENDBRANCH  33  35
ENDBRANCH  23  31
ENDBRANCH  21  23
ENDBRANCH  19  21
ENDBRANCH  14  19
ENDBRANCH   7  14
ENDBRANCH   2   5
BRANCH   3  45
ATOM     45  C   UNL     1       1.147   0.688 -10.765  1.00  0.00     0.171 C 
BRANCH  45  46
ATOM     46  N   UNL     1       2.239   1.642 -10.621  1.00  0.00    -0.342 N 
ATOM     47  C   UNL     1       3.551   1.251 -10.529  1.00  0.00     0.247 C 
ATOM     48  O   UNL     1       3.907   0.076 -10.634  1.00  0.00    -0.273 OA
ATOM     49  H   UNL     1       1.993   2.630 -10.586  1.00  0.00     0.164 HD
BRANCH  47  50
ATOM     50  C   UNL     1       4.550   2.384 -10.256  1.00  0.00     0.212 CG0
ATOM     51  G   UNL     1       5.606   2.356 -11.379  1.00  0.00     0.000 G0
BRANCH  50  52
ATOM     52  N   UNL     1       3.755   3.609 -10.242  1.00  0.00    -0.339 N 
ATOM     53  C   UNL     1       3.569   4.402 -11.349  1.00  0.00     0.243 C 
ATOM     54  O   UNL     1       4.104   4.167 -12.429  1.00  0.00    -0.273 OA
ATOM     55  H   UNL     1       3.376   3.917  -9.349  1.00  0.00     0.164 HD
BRANCH  53  56
ATOM     56  C   UNL     1       2.764   5.688 -11.071  1.00  0.00     0.182 C 
BRANCH  56  57
ATOM     57  N   UNL     1       1.327   5.405 -10.999  1.00  0.00    -0.344 N 
ATOM     58  C   UNL     1       0.606   5.553  -9.839  1.00  0.00     0.220 C 
ATOM     59  O   UNL     1       1.122   5.860  -8.771  1.00  0.00    -0.275 OA
ATOM     60  H   UNL     1       0.844   5.248 -11.879  1.00  0.00     0.164 HD
BRANCH  58  61
ATOM     61  C   UNL     1      -0.874   5.262 -10.011  1.00  0.00     0.100 C 
BRANCH  61  62
ATOM     62  C   UNL     1      -1.240   3.792  -9.803  1.00  0.00     0.010 C 
BRANCH  62  63
ATOM     63  C   UNL     1      -2.151   3.537  -8.595  1.00  0.00     0.000 C 
BRANCH  63  64
ATOM     64  C   UNL     1      -2.815   4.793  -8.034  1.00  0.00    -0.003 C 
ATOM     65  C   UNL     1      -2.886   4.753  -6.515  1.00  0.00     0.004 C 
ENDBRANCH  63  64
ENDBRANCH  62  63
ENDBRANCH  61  62
ENDBRANCH  58  61
ENDBRANCH  56  57
BRANCH  56  66
ATOM     66  C   UNL     1       3.086   6.780 -12.089  1.00  0.00     0.157 C 
BRANCH  66  67
ATOM     67  C   UNL     1       2.323   8.040 -11.795  1.00  0.00     0.305 C 
ATOM     68  O   UNL     1       1.179   8.300 -12.136  1.00  0.00    -0.252 OA
BRANCH  67  69
ATOM     69  O   UNL     1       3.027   8.899 -11.033  1.00  0.00    -0.481 OA
ATOM     70  H   UNL     1       3.437   8.340 -10.339  1.00  0.00     0.296 HD
ENDBRANCH  67  69
ENDBRANCH  66  67
ENDBRANCH  56  66
ENDBRANCH  53  56
ENDBRANCH  50  52
ENDBRANCH  47  50
ENDBRANCH  45  46
BRANCH  45  71
ATOM     71  C   UNL     1       0.163   1.116 -11.860  1.00  0.00     0.037 C 
BRANCH  71  72
ATOM     72  C   UNL     1       0.715   2.260 -12.714  1.00  0.00     0.026 C 
BRANCH  72  73
ATOM     73  C   UNL     1       1.463   1.736 -13.938  1.00  0.00     0.146 C 
BRANCH  73  74
ATOM     74  N   UNL     1       1.926   0.385 -13.634  1.00  0.00    -0.254 NA
ATOM     75  C   UNL     1       3.010  -0.016 -14.188  1.00  0.00     0.185 C 
ATOM     76  N   UNL     1       3.462  -1.253 -13.927  1.00  0.00    -0.370 N 
ATOM     77  N   UNL     1       3.817   0.642 -15.039  1.00  0.00    -0.370 N 
ATOM     78  H   UNL     1       2.909  -1.819 -13.300  1.00  0.00     0.159 HD
ATOM     79  H   UNL     1       4.217  -1.685 -14.431  1.00  0.00     0.159 HD
ATOM     80  H   UNL     1       3.604   1.586 -15.323  1.00  0.00     0.159 HD
ATOM     81  H   UNL     1       4.707   0.265 -15.321  1.00  0.00     0.159 HD
ENDBRANCH  73  74
ENDBRANCH  72  73
ENDBRANCH  71  72
ENDBRANCH  45  71
ENDBRANCH   3  45
TORSDOF 20
ENDMDL
MODEL 7
REMARK VINA RESULT:    -6.200      4.234      6.988
REMARK INTER + INTRA:         -24.621
REMARK INTER:                 -17.688
REMARK INTRA:                  -6.933
REMARK UNBOUND:                -6.822
REMARK SMILES CCCCCC(=O)N[C@H](CC(=O)O)C(=O)N[C@H]1C(=O)N[C@H](CCCN=C(N)N)C(=O)N[C@@H]2CC[C@H](O)N(C2=O)[C@@H](CC(C)C)C(=O)N(C)[C@@H](Cc2ccccc2)C(=O)N[C@H](C(C)C)C(=O)O[C@@H]1C
REMARK SMILES IDX 30 1 31 2 29 3 32 5 35 6 37 7 34 8 38 9 33 10 39 11 36 12
REMARK SMILES IDX 40 14 41 15 42 16 43 17 44 18 45 19 46 20 47 21 48 22 49 23
REMARK SMILES IDX 50 24 51 25 52 26 56 27 53 28 55 29 54 30 57 31 58 32 59 33
REMARK SMILES IDX 60 35 61 36 62 37 63 38 64 39 65 40 66 41 67 42 68 43 21 45
REMARK SMILES IDX 20 46 18 47 19 48 17 50 16 52 14 53 15 54 9 56 8 57 6 58
REMARK SMILES IDX 7 59 5 61 4 62 3 63 2 64 1 65 10 66 11 67 12 68 13 69 22 71
REMARK SMILES IDX 23 72 24 73 25 74 26 75 27 76 28 77
REMARK H PARENT 31 4 36 13 59 34 20 49 16 55 8 60 13 70 27 78 27 79 28 80
REMARK H PARENT 28 81
REMARK Flexibility Score:  259.900
ROOT
ATOM      1  O   UNL     1      -6.201  -3.361  -7.058  1.00  0.00    -0.273 OA
ATOM      2  N   UNL     1      -7.988  -2.080  -6.429  1.00  0.00    -0.343 N 
ATOM      3  C   UNL     1      -7.102  -2.577  -7.360  1.00  0.00     0.243 C 
ATOM      4  H   UNL     1      -8.726  -1.449  -6.716  1.00  0.00     0.164 HD
ENDROOT
BRANCH   2   5
ATOM      5  C   UNL     1      -7.818  -2.374  -5.010  1.00  0.00     0.171 C 
ATOM      6  C   UNL     1      -9.554  -2.041  -2.713  1.00  0.00     0.214 C 
ATOM      7  N   UNL     1      -8.647  -0.978  -3.078  1.00  0.00    -0.303 N 
ATOM      8  C   UNL     1      -9.039  -3.424  -3.079  1.00  0.00     0.057 C 
ATOM      9  C   UNL     1      -7.828  -1.051  -4.192  1.00  0.00     0.247 C 
ATOM     10  C   UNL     1      -8.761  -3.491  -4.565  1.00  0.00     0.040 C 
ATOM     11  O   UNL     1      -7.117  -0.102  -4.548  1.00  0.00    -0.272 OA
BRANCH   6  12
ATOM     12  O   UNL     1     -10.787  -1.792  -3.347  1.00  0.00    -0.373 OA
ATOM     13  H   UNL     1     -11.492  -2.002  -2.697  1.00  0.00     0.213 HD
ENDBRANCH   6  12
BRANCH   7  14
ATOM     14  C   UNL     1      -8.729   0.272  -2.293  1.00  0.00     0.177 C 
BRANCH  14  15
ATOM     15  C   UNL     1      -9.743   1.309  -2.815  1.00  0.00     0.038 C 
BRANCH  15  16
ATOM     16  C   UNL     1      -9.232   2.640  -3.410  1.00  0.00    -0.015 C 
ATOM     17  C   UNL     1      -9.255   2.642  -4.941  1.00  0.00     0.007 C 
ATOM     18  C   UNL     1      -7.790   2.894  -2.951  1.00  0.00     0.007 C 
ENDBRANCH  15  16
ENDBRANCH  14  15
BRANCH  14  19
ATOM     19  C   UNL     1      -8.419  -0.013  -0.783  1.00  0.00     0.245 C 
ATOM     20  O   UNL     1      -7.274  -0.414  -0.513  1.00  0.00    -0.272 OA
BRANCH  19  21
ATOM     21  N   UNL     1      -9.366   0.050   0.224  1.00  0.00    -0.332 N 
ATOM     22  C   UNL     1     -10.330  -0.989   0.540  1.00  0.00     0.147 C 
BRANCH  21  23
ATOM     23  C   UNL     1      -9.418   1.285   1.054  1.00  0.00     0.178 C 
BRANCH  23  24
ATOM     24  C   UNL     1     -10.563   2.254   0.698  1.00  0.00     0.070 C 
BRANCH  24  25
ATOM     25  C   UNL     1     -10.176   3.583   0.090  1.00  0.00    -0.045 A 
ATOM     26  C   UNL     1      -8.913   4.140   0.329  1.00  0.00     0.004 A 
ATOM     27  C   UNL     1     -11.083   4.281  -0.722  1.00  0.00     0.004 A 
ATOM     28  C   UNL     1      -8.569   5.376  -0.223  1.00  0.00     0.000 A 
ATOM     29  C   UNL     1     -10.737   5.515  -1.273  1.00  0.00     0.000 A 
ATOM     30  C   UNL     1      -9.481   6.064  -1.021  1.00  0.00     0.000 A 
ENDBRANCH  24  25
ENDBRANCH  23  24
BRANCH  23  31
ATOM     31  C   UNL     1      -9.250   1.003   2.566  1.00  0.00     0.243 C 
ATOM     32  O   UNL     1      -8.163   0.864   3.123  1.00  0.00    -0.273 OA
ATOM     33  N   UNL     1     -10.443   0.735   3.215  1.00  0.00    -0.341 N 
ATOM     34  H   UNL     1     -11.316   0.863   2.697  1.00  0.00     0.164 HD
BRANCH  33  35
ATOM     35  C   UNL     1     -10.514   0.326   4.621  1.00  0.00     0.194 C 
BRANCH  35  36
ATOM     36  C   UNL     1     -11.129  -1.085   4.841  1.00  0.00     0.017 C 
ATOM     37  C   UNL     1     -10.048  -2.179   4.793  1.00  0.00     0.010 C 
ATOM     38  C   UNL     1     -12.196  -1.448   3.802  1.00  0.00     0.010 C 
ENDBRANCH  35  36
BRANCH  35  39
ATOM     39  C   UNL     1     -11.187   1.399   5.522  1.00  0.00     0.329 C 
ATOM     40  O   UNL     1     -12.399   1.546   5.626  1.00  0.00    -0.250 OA
BRANCH  39  41
ATOM     41  O   UNL     1     -10.275   2.107   6.256  1.00  0.00    -0.458 OA
BRANCH  41  42
ATOM     42  C   UNL     1     -10.788   3.245   6.989  1.00  0.00     0.205 CG0
ATOM     43  C   UNL     1     -10.441   4.497   6.186  1.00  0.00     0.056 C 
ATOM     44  G   UNL     1     -10.153   3.251   8.394  1.00  0.00     0.000 G0
ENDBRANCH  41  42
ENDBRANCH  39  41
ENDBRANCH  35  39
ENDBRANCH  33  35
ENDBRANCH  23  31
ENDBRANCH  21  23
ENDBRANCH  19  21
ENDBRANCH  14  19
ENDBRANCH   7  14
ENDBRANCH   2   5
BRANCH   3  45
ATOM     45  C   UNL     1      -7.329  -2.104  -8.802  1.00  0.00     0.171 C 
BRANCH  45  46
ATOM     46  N   UNL     1      -7.690  -3.297  -9.556  1.00  0.00    -0.342 N 
ATOM     47  C   UNL     1      -8.807  -4.040  -9.269  1.00  0.00     0.247 C 
ATOM     48  O   UNL     1      -9.623  -3.714  -8.406  1.00  0.00    -0.273 OA
ATOM     49  H   UNL     1      -7.071  -3.572 -10.317  1.00  0.00     0.164 HD
BRANCH  47  50
ATOM     50  C   UNL     1      -8.958  -5.331 -10.087  1.00  0.00     0.212 CG0
ATOM     51  G   UNL     1      -8.299  -5.093 -11.460  1.00  0.00     0.000 G0
BRANCH  50  52
ATOM     52  N   UNL     1      -8.296  -6.369  -9.301  1.00  0.00    -0.339 N 
ATOM     53  C   UNL     1      -6.931  -6.515  -9.240  1.00  0.00     0.243 C 
ATOM     54  O   UNL     1      -6.160  -5.812  -9.887  1.00  0.00    -0.273 OA
ATOM     55  H   UNL     1      -8.884  -7.053  -8.830  1.00  0.00     0.164 HD
BRANCH  53  56
ATOM     56  C   UNL     1      -6.467  -7.734  -8.417  1.00  0.00     0.182 C 
BRANCH  56  57
ATOM     57  N   UNL     1      -5.645  -7.318  -7.276  1.00  0.00    -0.344 N 
ATOM     58  C   UNL     1      -6.173  -6.667  -6.188  1.00  0.00     0.220 C 
ATOM     59  O   UNL     1      -7.349  -6.324  -6.125  1.00  0.00    -0.275 OA
ATOM     60  H   UNL     1      -4.692  -7.670  -7.243  1.00  0.00     0.164 HD
BRANCH  58  61
ATOM     61  C   UNL     1      -5.151  -6.385  -5.102  1.00  0.00     0.100 C 
BRANCH  61  62
ATOM     62  C   UNL     1      -5.428  -7.118  -3.789  1.00  0.00     0.010 C 
BRANCH  62  63
ATOM     63  C   UNL     1      -6.283  -6.322  -2.795  1.00  0.00     0.000 C 
BRANCH  63  64
ATOM     64  C   UNL     1      -7.692  -6.879  -2.594  1.00  0.00    -0.003 C 
ATOM     65  C   UNL     1      -7.782  -7.714  -1.325  1.00  0.00     0.004 C 
ENDBRANCH  63  64
ENDBRANCH  62  63
ENDBRANCH  61  62
ENDBRANCH  58  61
ENDBRANCH  56  57
BRANCH  56  66
ATOM     66  C   UNL     1      -5.757  -8.764  -9.294  1.00  0.00     0.157 C 
BRANCH  66  67
ATOM     67  C   UNL     1      -5.958 -10.157  -8.768  1.00  0.00     0.305 C 
ATOM     68  O   UNL     1      -5.522 -11.191  -9.250  1.00  0.00    -0.252 OA
BRANCH  67  69
ATOM     69  O   UNL     1      -6.662 -10.174  -7.621  1.00  0.00    -0.481 OA
ATOM     70  H   UNL     1      -7.285 -10.925  -7.720  1.00  0.00     0.296 HD
ENDBRANCH  67  69
ENDBRANCH  66  67
ENDBRANCH  56  66
ENDBRANCH  53  56
ENDBRANCH  50  52
ENDBRANCH  47  50
ENDBRANCH  45  46
BRANCH  45  71
ATOM     71  C   UNL     1      -6.059  -1.448  -9.355  1.00  0.00     0.037 C 
BRANCH  71  72
ATOM     72  C   UNL     1      -5.315  -2.365 -10.329  1.00  0.00     0.026 C 
BRANCH  72  73
ATOM     73  C   UNL     1      -3.802  -2.271 -10.142  1.00  0.00     0.146 C 
BRANCH  73  74
ATOM     74  N   UNL     1      -3.516  -2.441  -8.720  1.00  0.00    -0.254 NA
ATOM     75  C   UNL     1      -3.301  -3.630  -8.291  1.00  0.00     0.185 C 
ATOM     76  N   UNL     1      -3.034  -3.819  -6.989  1.00  0.00    -0.370 N 
ATOM     77  N   UNL     1      -3.300  -4.788  -8.974  1.00  0.00    -0.370 N 
ATOM     78  H   UNL     1      -3.024  -2.998  -6.400  1.00  0.00     0.159 HD
ATOM     79  H   UNL     1      -3.000  -4.725  -6.556  1.00  0.00     0.159 HD
ATOM     80  H   UNL     1      -3.481  -4.799  -9.967  1.00  0.00     0.159 HD
ATOM     81  H   UNL     1      -3.003  -5.651  -8.550  1.00  0.00     0.159 HD
ENDBRANCH  73  74
ENDBRANCH  72  73
ENDBRANCH  71  72
ENDBRANCH  45  71
ENDBRANCH   3  45
TORSDOF 20
ENDMDL
MODEL 8
REMARK VINA RESULT:    -6.190      7.958     16.196
REMARK INTER + INTRA:         -24.591
REMARK INTER:                 -17.780
REMARK INTRA:                  -6.811
REMARK UNBOUND:                -6.822
REMARK SMILES CCCCCC(=O)N[C@H](CC(=O)O)C(=O)N[C@H]1C(=O)N[C@H](CCCN=C(N)N)C(=O)N[C@@H]2CC[C@H](O)N(C2=O)[C@@H](CC(C)C)C(=O)N(C)[C@@H](Cc2ccccc2)C(=O)N[C@H](C(C)C)C(=O)O[C@@H]1C
REMARK SMILES IDX 30 1 31 2 29 3 32 5 35 6 37 7 34 8 38 9 33 10 39 11 36 12
REMARK SMILES IDX 40 14 41 15 42 16 43 17 44 18 45 19 46 20 47 21 48 22 49 23
REMARK SMILES IDX 50 24 51 25 52 26 56 27 53 28 55 29 54 30 57 31 58 32 59 33
REMARK SMILES IDX 60 35 61 36 62 37 63 38 64 39 65 40 66 41 67 42 68 43 21 45
REMARK SMILES IDX 20 46 18 47 19 48 17 50 16 52 14 53 15 54 9 56 8 57 6 58
REMARK SMILES IDX 7 59 5 61 4 62 3 63 2 64 1 65 10 66 11 67 12 68 13 69 22 71
REMARK SMILES IDX 23 72 24 73 25 74 26 75 27 76 28 77
REMARK H PARENT 31 4 36 13 59 34 20 49 16 55 8 60 13 70 27 78 27 79 28 80
REMARK H PARENT 28 81
REMARK Flexibility Score:  259.900
ROOT
ATOM      1  O   UNL     1      -6.059  -3.573  -6.144  1.00  0.00    -0.273 OA
ATOM      2  N   UNL     1      -5.905  -1.376  -6.760  1.00  0.00    -0.343 N 
ATOM      3  C   UNL     1      -6.558  -2.448  -6.190  1.00  0.00     0.243 C 
ATOM      4  H   UNL     1      -6.340  -0.462  -6.767  1.00  0.00     0.164 HD
ENDROOT
BRANCH   2   5
ATOM      5  C   UNL     1      -4.631  -1.562  -7.445  1.00  0.00     0.171 C 
ATOM      6  C   UNL     1      -2.566   0.291  -8.287  1.00  0.00     0.214 C 
ATOM      7  N   UNL     1      -3.635  -0.043  -9.199  1.00  0.00    -0.303 N 
ATOM      8  C   UNL     1      -2.228  -0.832  -7.319  1.00  0.00     0.057 C 
ATOM      9  C   UNL     1      -4.680  -0.881  -8.843  1.00  0.00     0.247 C 
ATOM     10  C   UNL     1      -3.459  -1.215  -6.528  1.00  0.00     0.040 C 
ATOM     11  O   UNL     1      -5.637  -1.093  -9.599  1.00  0.00    -0.272 OA
BRANCH   6  12
ATOM     12  O   UNL     1      -2.947   1.450  -7.583  1.00  0.00    -0.373 OA
ATOM     13  H   UNL     1      -2.659   1.329  -6.653  1.00  0.00     0.213 HD
ENDBRANCH   6  12
BRANCH   7  14
ATOM     14  C   UNL     1      -3.655   0.665 -10.496  1.00  0.00     0.177 C 
BRANCH  14  15
ATOM     15  C   UNL     1      -4.643   1.845 -10.584  1.00  0.00     0.038 C 
BRANCH  15  16
ATOM     16  C   UNL     1      -5.621   1.931 -11.777  1.00  0.00    -0.015 C 
ATOM     17  C   UNL     1      -7.072   2.131 -11.329  1.00  0.00     0.007 C 
ATOM     18  C   UNL     1      -5.547   0.640 -12.603  1.00  0.00     0.007 C 
ENDBRANCH  15  16
ENDBRANCH  14  15
BRANCH  14  19
ATOM     19  C   UNL     1      -2.238   0.618 -11.164  1.00  0.00     0.245 C 
ATOM     20  O   UNL     1      -1.788  -0.506 -11.442  1.00  0.00    -0.272 OA
BRANCH  19  21
ATOM     21  N   UNL     1      -1.435   1.729 -11.349  1.00  0.00    -0.332 N 
ATOM     22  C   UNL     1      -1.083   2.696 -10.324  1.00  0.00     0.147 C 
BRANCH  21  23
ATOM     23  C   UNL     1      -0.889   1.973 -12.713  1.00  0.00     0.178 C 
BRANCH  23  24
ATOM     24  C   UNL     1      -1.393   3.264 -13.389  1.00  0.00     0.070 C 
BRANCH  24  25
ATOM     25  C   UNL     1      -2.707   3.185 -14.131  1.00  0.00    -0.045 A 
ATOM     26  C   UNL     1      -2.977   2.120 -14.999  1.00  0.00     0.004 A 
ATOM     27  C   UNL     1      -3.677   4.185 -13.961  1.00  0.00     0.004 A 
ATOM     28  C   UNL     1      -4.188   2.063 -15.694  1.00  0.00     0.000 A 
ATOM     29  C   UNL     1      -4.886   4.126 -14.655  1.00  0.00     0.000 A 
ATOM     30  C   UNL     1      -5.139   3.066 -15.524  1.00  0.00     0.000 A 
ENDBRANCH  24  25
ENDBRANCH  23  24
BRANCH  23  31
ATOM     31  C   UNL     1       0.640   1.746 -12.800  1.00  0.00     0.243 C 
ATOM     32  O   UNL     1       1.176   0.644 -12.714  1.00  0.00    -0.273 OA
ATOM     33  N   UNL     1       1.374   2.920 -12.799  1.00  0.00    -0.341 N 
ATOM     34  H   UNL     1       0.870   3.808 -12.866  1.00  0.00     0.164 HD
BRANCH  33  35
ATOM     35  C   UNL     1       2.839   2.945 -12.756  1.00  0.00     0.194 C 
BRANCH  35  36
ATOM     36  C   UNL     1       3.427   3.943 -11.719  1.00  0.00     0.017 C 
ATOM     37  C   UNL     1       4.363   3.231 -10.727  1.00  0.00     0.010 C 
ATOM     38  C   UNL     1       2.351   4.665 -10.898  1.00  0.00     0.010 C 
ENDBRANCH  35  36
BRANCH  35  39
ATOM     39  C   UNL     1       3.474   3.129 -14.163  1.00  0.00     0.329 C 
ATOM     40  O   UNL     1       3.201   2.435 -15.135  1.00  0.00    -0.250 OA
BRANCH  39  41
ATOM     41  O   UNL     1       4.311   4.209 -14.218  1.00  0.00    -0.458 OA
BRANCH  41  42
ATOM     42  C   UNL     1       5.610   3.983 -14.816  1.00  0.00     0.205 CG0
ATOM     43  C   UNL     1       6.463   3.246 -13.786  1.00  0.00     0.056 C 
ATOM     44  G   UNL     1       6.212   5.346 -15.214  1.00  0.00     0.000 G0
ENDBRANCH  41  42
ENDBRANCH  39  41
ENDBRANCH  35  39
ENDBRANCH  33  35
ENDBRANCH  23  31
ENDBRANCH  21  23
ENDBRANCH  19  21
ENDBRANCH  14  19
ENDBRANCH   7  14
ENDBRANCH   2   5
BRANCH   3  45
ATOM     45  C   UNL     1      -7.939  -2.138  -5.599  1.00  0.00     0.171 C 
BRANCH  45  46
ATOM     46  N   UNL     1      -8.284  -3.291  -4.777  1.00  0.00    -0.342 N 
ATOM     47  C   UNL     1      -8.091  -3.310  -3.418  1.00  0.00     0.247 C 
ATOM     48  O   UNL     1      -7.684  -2.334  -2.787  1.00  0.00    -0.273 OA
ATOM     49  H   UNL     1      -8.677  -4.101  -5.252  1.00  0.00     0.164 HD
BRANCH  47  50
ATOM     50  C   UNL     1      -8.395  -4.652  -2.738  1.00  0.00     0.212 CG0
ATOM     51  G   UNL     1      -9.657  -5.238  -3.402  1.00  0.00     0.000 G0
BRANCH  50  52
ATOM     52  N   UNL     1      -7.203  -5.471  -2.941  1.00  0.00    -0.339 N 
ATOM     53  C   UNL     1      -6.975  -6.204  -4.081  1.00  0.00     0.243 C 
ATOM     54  O   UNL     1      -7.787  -6.268  -5.000  1.00  0.00    -0.273 OA
ATOM     55  H   UNL     1      -6.544  -5.547  -2.169  1.00  0.00     0.164 HD
BRANCH  53  56
ATOM     56  C   UNL     1      -5.692  -7.057  -4.032  1.00  0.00     0.182 C 
BRANCH  56  57
ATOM     57  N   UNL     1      -5.572  -7.897  -5.228  1.00  0.00    -0.344 N 
ATOM     58  C   UNL     1      -4.720  -7.590  -6.260  1.00  0.00     0.220 C 
ATOM     59  O   UNL     1      -4.056  -6.560  -6.289  1.00  0.00    -0.275 OA
ATOM     60  H   UNL     1      -6.025  -8.807  -5.198  1.00  0.00     0.164 HD
BRANCH  58  61
ATOM     61  C   UNL     1      -4.717  -8.630  -7.366  1.00  0.00     0.100 C 
BRANCH  61  62
ATOM     62  C   UNL     1      -4.250  -8.089  -8.718  1.00  0.00     0.010 C 
BRANCH  62  63
ATOM     63  C   UNL     1      -5.390  -7.642  -9.642  1.00  0.00     0.000 C 
BRANCH  63  64
ATOM     64  C   UNL     1      -6.785  -8.003  -9.136  1.00  0.00    -0.003 C 
ATOM     65  C   UNL     1      -7.710  -6.794  -9.149  1.00  0.00     0.004 C 
ENDBRANCH  63  64
ENDBRANCH  62  63
ENDBRANCH  61  62
ENDBRANCH  58  61
ENDBRANCH  56  57
BRANCH  56  66
ATOM     66  C   UNL     1      -5.611  -7.874  -2.743  1.00  0.00     0.157 C 
BRANCH  66  67
ATOM     67  C   UNL     1      -6.206  -9.240  -2.927  1.00  0.00     0.305 C 
ATOM     68  O   UNL     1      -7.243  -9.515  -3.510  1.00  0.00    -0.252 OA
BRANCH  67  69
ATOM     69  O   UNL     1      -5.430 -10.210  -2.406  1.00  0.00    -0.481 OA
ATOM     70  H   UNL     1      -6.031 -10.975  -2.289  1.00  0.00     0.296 HD
ENDBRANCH  67  69
ENDBRANCH  66  67
ENDBRANCH  56  66
ENDBRANCH  53  56
ENDBRANCH  50  52
ENDBRANCH  47  50
ENDBRANCH  45  46
BRANCH  45  71
ATOM     71  C   UNL     1      -8.962  -1.916  -6.719  1.00  0.00     0.037 C 
BRANCH  71  72
ATOM     72  C   UNL     1      -9.620  -3.224  -7.165  1.00  0.00     0.026 C 
BRANCH  72  73
ATOM     73  C   UNL     1      -9.309  -3.538  -8.627  1.00  0.00     0.146 C 
BRANCH  73  74
ATOM     74  N   UNL     1      -8.999  -2.279  -9.298  1.00  0.00    -0.254 NA
ATOM     75  C   UNL     1      -8.760  -2.314 -10.557  1.00  0.00     0.185 C 
ATOM     76  N   UNL     1      -8.474  -1.172 -11.202  1.00  0.00    -0.370 N 
ATOM     77  N   UNL     1      -8.749  -3.373 -11.385  1.00  0.00    -0.370 N 
ATOM     78  H   UNL     1      -8.454  -0.327 -10.650  1.00  0.00     0.159 HD
ATOM     79  H   UNL     1      -8.136  -1.140 -12.148  1.00  0.00     0.159 HD
ATOM     80  H   UNL     1      -8.951  -4.299 -11.039  1.00  0.00     0.159 HD
ATOM     81  H   UNL     1      -8.661  -3.263 -12.382  1.00  0.00     0.159 HD
ENDBRANCH  73  74
ENDBRANCH  72  73
ENDBRANCH  71  72
ENDBRANCH  45  71
ENDBRANCH   3  45
TORSDOF 20
ENDMDL
MODEL 9
REMARK VINA RESULT:    -6.176      1.726      2.185
REMARK INTER + INTRA:         -24.552
REMARK INTER:                 -18.406
REMARK INTRA:                  -6.146
REMARK UNBOUND:                -6.822
REMARK SMILES CCCCCC(=O)N[C@H](CC(=O)O)C(=O)N[C@H]1C(=O)N[C@H](CCCN=C(N)N)C(=O)N[C@@H]2CC[C@H](O)N(C2=O)[C@@H](CC(C)C)C(=O)N(C)[C@@H](Cc2ccccc2)C(=O)N[C@H](C(C)C)C(=O)O[C@@H]1C
REMARK SMILES IDX 30 1 31 2 29 3 32 5 35 6 37 7 34 8 38 9 33 10 39 11 36 12
REMARK SMILES IDX 40 14 41 15 42 16 43 17 44 18 45 19 46 20 47 21 48 22 49 23
REMARK SMILES IDX 50 24 51 25 52 26 56 27 53 28 55 29 54 30 57 31 58 32 59 33
REMARK SMILES IDX 60 35 61 36 62 37 63 38 64 39 65 40 66 41 67 42 68 43 21 45
REMARK SMILES IDX 20 46 18 47 19 48 17 50 16 52 14 53 15 54 9 56 8 57 6 58
REMARK SMILES IDX 7 59 5 61 4 62 3 63 2 64 1 65 10 66 11 67 12 68 13 69 22 71
REMARK SMILES IDX 23 72 24 73 25 74 26 75 27 76 28 77
REMARK H PARENT 31 4 36 13 59 34 20 49 16 55 8 60 13 70 27 78 27 79 28 80
REMARK H PARENT 28 81
REMARK Flexibility Score:  259.900
ROOT
ATOM      1  O   UNL     1      -7.340  -4.109  -3.663  1.00  0.00    -0.273 OA
ATOM      2  N   UNL     1      -9.599  -4.420  -3.488  1.00  0.00    -0.343 N 
ATOM      3  C   UNL     1      -8.474  -3.912  -4.101  1.00  0.00     0.243 C 
ATOM      4  H   UNL     1     -10.515  -4.250  -3.885  1.00  0.00     0.164 HD
ENDROOT
BRANCH   2   5
ATOM      5  C   UNL     1      -9.497  -5.120  -2.212  1.00  0.00     0.171 C 
ATOM      6  C   UNL     1     -11.482  -6.263  -0.435  1.00  0.00     0.214 C 
ATOM      7  N   UNL     1     -11.064  -4.894  -0.246  1.00  0.00    -0.303 N 
ATOM      8  C   UNL     1     -10.395  -7.148  -1.026  1.00  0.00     0.057 C 
ATOM      9  C   UNL     1     -10.159  -4.270  -1.090  1.00  0.00     0.247 C 
ATOM     10  C   UNL     1      -9.934  -6.577  -2.350  1.00  0.00     0.040 C 
ATOM     11  O   UNL     1      -9.872  -3.072  -0.973  1.00  0.00    -0.272 OA
BRANCH   6  12
ATOM     12  O   UNL     1     -12.618  -6.256  -1.268  1.00  0.00    -0.373 OA
ATOM     13  H   UNL     1     -13.214  -5.551  -0.935  1.00  0.00     0.213 HD
ENDBRANCH   6  12
BRANCH   7  14
ATOM     14  C   UNL     1     -11.756  -4.121   0.807  1.00  0.00     0.177 C 
BRANCH  14  15
ATOM     15  C   UNL     1     -12.983  -3.317   0.332  1.00  0.00     0.038 C 
BRANCH  15  16
ATOM     16  C   UNL     1     -13.274  -1.934   0.956  1.00  0.00    -0.015 C 
ATOM     17  C   UNL     1     -14.012  -2.040   2.294  1.00  0.00     0.007 C 
ATOM     18  C   UNL     1     -14.136  -1.104  -0.004  1.00  0.00     0.007 C 
ENDBRANCH  15  16
ENDBRANCH  14  15
BRANCH  14  19
ATOM     19  C   UNL     1     -11.629  -4.851   2.189  1.00  0.00     0.245 C 
ATOM     20  O   UNL     1     -12.664  -5.362   2.648  1.00  0.00    -0.272 OA
BRANCH  19  21
ATOM     21  N   UNL     1     -10.478  -4.855   2.956  1.00  0.00    -0.332 N 
ATOM     22  C   UNL     1      -9.502  -3.781   3.017  1.00  0.00     0.147 C 
BRANCH  21  23
ATOM     23  C   UNL     1     -10.198  -6.060   3.784  1.00  0.00     0.178 C 
BRANCH  23  24
ATOM     24  C   UNL     1      -8.755  -6.594   3.680  1.00  0.00     0.070 C 
BRANCH  24  25
ATOM     25  C   UNL     1      -8.501  -7.702   2.684  1.00  0.00    -0.045 A 
ATOM     26  C   UNL     1      -7.345  -7.706   1.894  1.00  0.00     0.004 A 
ATOM     27  C   UNL     1      -9.428  -8.744   2.534  1.00  0.00     0.004 A 
ATOM     28  C   UNL     1      -7.126  -8.724   0.964  1.00  0.00     0.000 A 
ATOM     29  C   UNL     1      -9.207  -9.762   1.605  1.00  0.00     0.000 A 
ATOM     30  C   UNL     1      -8.057  -9.750   0.819  1.00  0.00     0.000 A 
ENDBRANCH  24  25
ENDBRANCH  23  24
BRANCH  23  31
ATOM     31  C   UNL     1     -10.747  -5.942   5.226  1.00  0.00     0.243 C 
ATOM     32  O   UNL     1     -10.050  -5.699   6.208  1.00  0.00    -0.273 OA
ATOM     33  N   UNL     1     -12.074  -6.319   5.346  1.00  0.00    -0.341 N 
ATOM     34  H   UNL     1     -12.601  -6.515   4.491  1.00  0.00     0.164 HD
BRANCH  33  35
ATOM     35  C   UNL     1     -12.768  -6.400   6.634  1.00  0.00     0.194 C 
BRANCH  35  36
ATOM     36  C   UNL     1     -13.097  -5.018   7.266  1.00  0.00     0.017 C 
ATOM     37  C   UNL     1     -14.457  -5.042   7.985  1.00  0.00     0.010 C 
ATOM     38  C   UNL     1     -13.140  -3.879   6.240  1.00  0.00     0.010 C 
ENDBRANCH  35  36
BRANCH  35  39
ATOM     39  C   UNL     1     -12.052  -7.343   7.641  1.00  0.00     0.329 C 
ATOM     40  O   UNL     1     -11.686  -8.482   7.373  1.00  0.00    -0.250 OA
BRANCH  39  41
ATOM     41  O   UNL     1     -11.795  -6.729   8.835  1.00  0.00    -0.458 OA
BRANCH  41  42
ATOM     42  C   UNL     1     -11.904  -7.557  10.018  1.00  0.00     0.205 CG0
ATOM     43  C   UNL     1     -13.392  -7.770  10.288  1.00  0.00     0.056 C 
ATOM     44  G   UNL     1     -11.189  -6.846  11.184  1.00  0.00     0.000 G0
ENDBRANCH  41  42
ENDBRANCH  39  41
ENDBRANCH  35  39
ENDBRANCH  33  35
ENDBRANCH  23  31
ENDBRANCH  21  23
ENDBRANCH  19  21
ENDBRANCH  14  19
ENDBRANCH   7  14
ENDBRANCH   2   5
BRANCH   3  45
ATOM     45  C   UNL     1      -8.731  -3.103  -5.379  1.00  0.00     0.171 C 
BRANCH  45  46
ATOM     46  N   UNL     1      -8.532  -4.035  -6.482  1.00  0.00    -0.342 N 
ATOM     47  C   UNL     1      -9.144  -3.875  -7.700  1.00  0.00     0.247 C 
ATOM     48  O   UNL     1      -9.844  -2.900  -7.973  1.00  0.00    -0.273 OA
ATOM     49  H   UNL     1      -7.915  -4.827  -6.316  1.00  0.00     0.164 HD
BRANCH  47  50
ATOM     50  C   UNL     1      -8.916  -5.020  -8.696  1.00  0.00     0.212 CG0
ATOM     51  G   UNL     1      -9.292  -4.501 -10.099  1.00  0.00     0.000 G0
BRANCH  50  52
ATOM     52  N   UNL     1      -7.504  -5.371  -8.571  1.00  0.00    -0.339 N 
ATOM     53  C   UNL     1      -7.036  -6.661  -8.643  1.00  0.00     0.243 C 
ATOM     54  O   UNL     1      -7.781  -7.629  -8.767  1.00  0.00    -0.273 OA
ATOM     55  H   UNL     1      -6.848  -4.623  -8.355  1.00  0.00     0.164 HD
BRANCH  53  56
ATOM     56  C   UNL     1      -5.520  -6.793  -8.395  1.00  0.00     0.182 C 
BRANCH  56  57
ATOM     57  N   UNL     1      -5.251  -7.523  -7.152  1.00  0.00    -0.344 N 
ATOM     58  C   UNL     1      -5.941  -7.276  -5.990  1.00  0.00     0.220 C 
ATOM     59  O   UNL     1      -6.775  -6.383  -5.891  1.00  0.00    -0.275 OA
ATOM     60  H   UNL     1      -4.644  -8.335  -7.218  1.00  0.00     0.164 HD
BRANCH  58  61
ATOM     61  C   UNL     1      -5.538  -8.189  -4.847  1.00  0.00     0.100 C 
BRANCH  61  62
ATOM     62  C   UNL     1      -5.743  -7.571  -3.464  1.00  0.00     0.010 C 
BRANCH  62  63
ATOM     63  C   UNL     1      -6.715  -8.347  -2.567  1.00  0.00     0.000 C 
BRANCH  63  64
ATOM     64  C   UNL     1      -6.509  -9.861  -2.583  1.00  0.00    -0.003 C 
ATOM     65  C   UNL     1      -5.220 -10.253  -1.874  1.00  0.00     0.004 C 
ENDBRANCH  63  64
ENDBRANCH  62  63
ENDBRANCH  61  62
ENDBRANCH  58  61
ENDBRANCH  56  57
BRANCH  56  66
ATOM     66  C   UNL     1      -4.826  -5.432  -8.426  1.00  0.00     0.157 C 
BRANCH  66  67
ATOM     67  C   UNL     1      -3.475  -5.495  -7.775  1.00  0.00     0.305 C 
ATOM     68  O   UNL     1      -2.585  -6.298  -8.011  1.00  0.00    -0.252 OA
BRANCH  67  69
ATOM     69  O   UNL     1      -3.288  -4.501  -6.886  1.00  0.00    -0.481 OA
ATOM     70  H   UNL     1      -2.494  -4.768  -6.375  1.00  0.00     0.296 HD
ENDBRANCH  67  69
ENDBRANCH  66  67
ENDBRANCH  56  66
ENDBRANCH  53  56
ENDBRANCH  50  52
ENDBRANCH  47  50
ENDBRANCH  45  46
BRANCH  45  71
ATOM     71  C   UNL     1      -7.766  -1.915  -5.462  1.00  0.00     0.037 C 
BRANCH  71  72
ATOM     72  C   UNL     1      -8.457  -0.588  -5.138  1.00  0.00     0.026 C 
BRANCH  72  73
ATOM     73  C   UNL     1      -8.542  -0.354  -3.631  1.00  0.00     0.146 C 
BRANCH  73  74
ATOM     74  N   UNL     1      -7.213  -0.574  -3.069  1.00  0.00    -0.254 NA
ATOM     75  C   UNL     1      -7.122  -0.779  -1.807  1.00  0.00     0.185 C 
ATOM     76  N   UNL     1      -5.913  -0.985  -1.261  1.00  0.00    -0.370 N 
ATOM     77  N   UNL     1      -8.101  -0.823  -0.886  1.00  0.00    -0.370 N 
ATOM     78  H   UNL     1      -5.119  -0.961  -1.884  1.00  0.00     0.159 HD
ATOM     79  H   UNL     1      -5.750  -1.008  -0.270  1.00  0.00     0.159 HD
ATOM     80  H   UNL     1      -9.064  -0.689  -1.153  1.00  0.00     0.159 HD
ATOM     81  H   UNL     1      -7.921  -1.108   0.063  1.00  0.00     0.159 HD
ENDBRANCH  73  74
ENDBRANCH  72  73
ENDBRANCH  71  72
ENDBRANCH  45  71
ENDBRANCH   3  45
TORSDOF 20
ENDMDL
MODEL 10
REMARK VINA RESULT:    -6.168      2.964      4.913
REMARK INTER + INTRA:         -24.528
REMARK INTER:                 -18.923
REMARK INTRA:                  -5.605
REMARK UNBOUND:                -6.822
REMARK SMILES CCCCCC(=O)N[C@H](CC(=O)O)C(=O)N[C@H]1C(=O)N[C@H](CCCN=C(N)N)C(=O)N[C@@H]2CC[C@H](O)N(C2=O)[C@@H](CC(C)C)C(=O)N(C)[C@@H](Cc2ccccc2)C(=O)N[C@H](C(C)C)C(=O)O[C@@H]1C
REMARK SMILES IDX 30 1 31 2 29 3 32 5 35 6 37 7 34 8 38 9 33 10 39 11 36 12
REMARK SMILES IDX 40 14 41 15 42 16 43 17 44 18 45 19 46 20 47 21 48 22 49 23
REMARK SMILES IDX 50 24 51 25 52 26 56 27 53 28 55 29 54 30 57 31 58 32 59 33
REMARK SMILES IDX 60 35 61 36 62 37 63 38 64 39 65 40 66 41 67 42 68 43 21 45
REMARK SMILES IDX 20 46 18 47 19 48 17 50 16 52 14 53 15 54 9 56 8 57 6 58
REMARK SMILES IDX 7 59 5 61 4 62 3 63 2 64 1 65 10 66 11 67 12 68 13 69 22 71
REMARK SMILES IDX 23 72 24 73 25 74 26 75 27 76 28 77
REMARK H PARENT 31 4 36 13 59 34 20 49 16 55 8 60 13 70 27 78 27 79 28 80
REMARK H PARENT 28 81
REMARK Flexibility Score:  259.900
ROOT
ATOM      1  O   UNL     1      -8.212  -5.450  -5.020  1.00  0.00    -0.273 OA
ATOM      2  N   UNL     1      -9.536  -4.310  -3.544  1.00  0.00    -0.343 N 
ATOM      3  C   UNL     1      -8.883  -4.453  -4.749  1.00  0.00     0.243 C 
ATOM      4  H   UNL     1     -10.091  -3.483  -3.361  1.00  0.00     0.164 HD
ENDROOT
BRANCH   2   5
ATOM      5  C   UNL     1      -9.358  -5.293  -2.481  1.00  0.00     0.171 C 
ATOM      6  C   UNL     1     -11.047  -6.135  -0.281  1.00  0.00     0.214 C 
ATOM      7  N   UNL     1     -10.103  -5.061  -0.081  1.00  0.00    -0.303 N 
ATOM      8  C   UNL     1     -10.593  -7.150  -1.319  1.00  0.00     0.057 C 
ATOM      9  C   UNL     1      -9.303  -4.576  -1.102  1.00  0.00     0.247 C 
ATOM     10  C   UNL     1     -10.339  -6.454  -2.638  1.00  0.00     0.040 C 
ATOM     11  O   UNL     1      -8.559  -3.598  -0.945  1.00  0.00    -0.272 OA
BRANCH   6  12
ATOM     12  O   UNL     1     -12.278  -5.563  -0.657  1.00  0.00    -0.373 OA
ATOM     13  H   UNL     1     -12.974  -6.227  -0.468  1.00  0.00     0.213 HD
ENDBRANCH   6  12
BRANCH   7  14
ATOM     14  C   UNL     1     -10.123  -4.387   1.235  1.00  0.00     0.177 C 
BRANCH  14  15
ATOM     15  C   UNL     1     -11.436  -3.657   1.579  1.00  0.00     0.038 C 
BRANCH  15  16
ATOM     16  C   UNL     1     -11.408  -2.457   2.551  1.00  0.00    -0.015 C 
ATOM     17  C   UNL     1     -12.635  -2.418   3.467  1.00  0.00     0.007 C 
ATOM     18  C   UNL     1     -11.360  -1.146   1.756  1.00  0.00     0.007 C 
ENDBRANCH  15  16
ENDBRANCH  14  15
BRANCH  14  19
ATOM     19  C   UNL     1      -9.223  -5.164   2.257  1.00  0.00     0.245 C 
ATOM     20  O   UNL     1      -8.000  -5.162   2.039  1.00  0.00    -0.272 OA
BRANCH  19  21
ATOM     21  N   UNL     1      -9.720  -5.925   3.300  1.00  0.00    -0.332 N 
ATOM     22  C   UNL     1      -9.756  -7.376   3.341  1.00  0.00     0.147 C 
BRANCH  21  23
ATOM     23  C   UNL     1     -10.278  -5.210   4.480  1.00  0.00     0.178 C 
BRANCH  23  24
ATOM     24  C   UNL     1     -11.219  -6.056   5.363  1.00  0.00     0.070 C 
BRANCH  24  25
ATOM     25  C   UNL     1     -12.615  -5.524   5.587  1.00  0.00    -0.045 A 
ATOM     26  C   UNL     1     -12.910  -4.726   6.699  1.00  0.00     0.004 A 
ATOM     27  C   UNL     1     -13.642  -5.829   4.680  1.00  0.00     0.004 A 
ATOM     28  C   UNL     1     -14.207  -4.254   6.908  1.00  0.00     0.000 A 
ATOM     29  C   UNL     1     -14.938  -5.355   4.890  1.00  0.00     0.000 A 
ATOM     30  C   UNL     1     -15.220  -4.570   6.006  1.00  0.00     0.000 A 
ENDBRANCH  24  25
ENDBRANCH  23  24
BRANCH  23  31
ATOM     31  C   UNL     1      -9.212  -4.399   5.254  1.00  0.00     0.243 C 
ATOM     32  O   UNL     1      -9.052  -3.187   5.138  1.00  0.00    -0.273 OA
ATOM     33  N   UNL     1      -8.321  -5.190   5.960  1.00  0.00    -0.341 N 
ATOM     34  H   UNL     1      -8.503  -6.195   6.016  1.00  0.00     0.164 HD
BRANCH  33  35
ATOM     35  C   UNL     1      -7.160  -4.646   6.670  1.00  0.00     0.194 C 
BRANCH  35  36
ATOM     36  C   UNL     1      -5.940  -5.610   6.724  1.00  0.00     0.017 C 
ATOM     37  C   UNL     1      -5.560  -6.110   5.319  1.00  0.00     0.010 C 
ATOM     38  C   UNL     1      -6.184  -6.845   7.600  1.00  0.00     0.010 C 
ENDBRANCH  35  36
BRANCH  35  39
ATOM     39  C   UNL     1      -7.524  -4.092   8.076  1.00  0.00     0.329 C 
ATOM     40  O   UNL     1      -8.480  -4.476   8.738  1.00  0.00    -0.250 OA
BRANCH  39  41
ATOM     41  O   UNL     1      -6.605  -3.187   8.531  1.00  0.00    -0.458 OA
BRANCH  41  42
ATOM     42  C   UNL     1      -6.286  -3.252   9.942  1.00  0.00     0.205 CG0
ATOM     43  C   UNL     1      -5.143  -4.251  10.103  1.00  0.00     0.056 C 
ATOM     44  G   UNL     1      -7.552  -3.675  10.713  1.00  0.00     0.000 G0
ENDBRANCH  41  42
ENDBRANCH  39  41
ENDBRANCH  35  39
ENDBRANCH  33  35
ENDBRANCH  23  31
ENDBRANCH  21  23
ENDBRANCH  19  21
ENDBRANCH  14  19
ENDBRANCH   7  14
ENDBRANCH   2   5
BRANCH   3  45
ATOM     45  C   UNL     1      -9.069  -3.295  -5.739  1.00  0.00     0.171 C 
BRANCH  45  46
ATOM     46  N   UNL     1      -8.721  -3.835  -7.046  1.00  0.00    -0.342 N 
ATOM     47  C   UNL     1      -9.304  -3.388  -8.206  1.00  0.00     0.247 C 
ATOM     48  O   UNL     1     -10.105  -2.453  -8.234  1.00  0.00    -0.273 OA
ATOM     49  H   UNL     1      -8.020  -4.573  -7.074  1.00  0.00     0.164 HD
BRANCH  47  50
ATOM     50  C   UNL     1      -8.905  -4.159  -9.472  1.00  0.00     0.212 CG0
ATOM     51  G   UNL     1      -8.327  -3.142 -10.476  1.00  0.00     0.000 G0
BRANCH  50  52
ATOM     52  N   UNL     1      -7.931  -5.154  -9.032  1.00  0.00    -0.339 N 
ATOM     53  C   UNL     1      -8.142  -6.509  -9.120  1.00  0.00     0.243 C 
ATOM     54  O   UNL     1      -9.196  -6.989  -9.529  1.00  0.00    -0.273 OA
ATOM     55  H   UNL     1      -7.083  -4.818  -8.581  1.00  0.00     0.164 HD
BRANCH  53  56
ATOM     56  C   UNL     1      -7.009  -7.361  -8.514  1.00  0.00     0.182 C 
BRANCH  56  57
ATOM     57  N   UNL     1      -6.085  -6.531  -7.734  1.00  0.00    -0.344 N 
ATOM     58  C   UNL     1      -5.677  -6.873  -6.469  1.00  0.00     0.220 C 
ATOM     59  O   UNL     1      -6.110  -7.854  -5.874  1.00  0.00    -0.275 OA
ATOM     60  H   UNL     1      -5.626  -5.768  -8.225  1.00  0.00     0.164 HD
BRANCH  58  61
ATOM     61  C   UNL     1      -4.676  -5.899  -5.875  1.00  0.00     0.100 C 
BRANCH  61  62
ATOM     62  C   UNL     1      -3.653  -5.376  -6.884  1.00  0.00     0.010 C 
BRANCH  62  63
ATOM     63  C   UNL     1      -3.762  -3.871  -7.165  1.00  0.00     0.000 C 
BRANCH  63  64
ATOM     64  C   UNL     1      -3.154  -3.436  -8.497  1.00  0.00    -0.003 C 
ATOM     65  C   UNL     1      -2.343  -2.157  -8.346  1.00  0.00     0.004 C 
ENDBRANCH  63  64
ENDBRANCH  62  63
ENDBRANCH  61  62
ENDBRANCH  58  61
ENDBRANCH  56  57
BRANCH  56  66
ATOM     66  C   UNL     1      -6.287  -8.177  -9.585  1.00  0.00     0.157 C 
BRANCH  66  67
ATOM     67  C   UNL     1      -5.605  -9.374  -8.988  1.00  0.00     0.305 C 
ATOM     68  O   UNL     1      -6.086 -10.485  -8.822  1.00  0.00    -0.252 OA
BRANCH  67  69
ATOM     69  O   UNL     1      -4.319  -9.126  -8.674  1.00  0.00    -0.481 OA
ATOM     70  H   UNL     1      -4.174  -8.191  -8.932  1.00  0.00     0.296 HD
ENDBRANCH  67  69
ENDBRANCH  66  67
ENDBRANCH  56  66
ENDBRANCH  53  56
ENDBRANCH  50  52
ENDBRANCH  47  50
ENDBRANCH  45  46
BRANCH  45  71
ATOM     71  C   UNL     1      -8.167  -2.116  -5.356  1.00  0.00     0.037 C 
BRANCH  71  72
ATOM     72  C   UNL     1      -8.954  -0.979  -4.700  1.00  0.00     0.026 C 
BRANCH  72  73
ATOM     73  C   UNL     1      -8.030  -0.011  -3.962  1.00  0.00     0.146 C 
BRANCH  73  74
ATOM     74  N   UNL     1      -7.045  -0.803  -3.232  1.00  0.00    -0.254 NA
ATOM     75  C   UNL     1      -7.178  -0.900  -1.961  1.00  0.00     0.185 C 
ATOM     76  N   UNL     1      -6.288  -1.622  -1.261  1.00  0.00    -0.370 N 
ATOM     77  N   UNL     1      -8.120  -0.363  -1.166  1.00  0.00    -0.370 N 
ATOM     78  H   UNL     1      -5.539  -2.056  -1.783  1.00  0.00     0.159 HD
ATOM     79  H   UNL     1      -6.243  -1.624  -0.258  1.00  0.00     0.159 HD
ATOM     80  H   UNL     1      -8.859   0.204  -1.556  1.00  0.00     0.159 HD
ATOM     81  H   UNL     1      -8.189  -0.604  -0.191  1.00  0.00     0.159 HD
ENDBRANCH  73  74
ENDBRANCH  72  73
ENDBRANCH  71  72
ENDBRANCH  45  71
ENDBRANCH   3  45
TORSDOF 20
ENDMDL
MODEL 11
REMARK VINA RESULT:    -6.161      2.855     12.876
REMARK INTER + INTRA:         -24.508
REMARK INTER:                 -18.120
REMARK INTRA:                  -6.388
REMARK UNBOUND:                -6.822
REMARK SMILES CCCCCC(=O)N[C@H](CC(=O)O)C(=O)N[C@H]1C(=O)N[C@H](CCCN=C(N)N)C(=O)N[C@@H]2CC[C@H](O)N(C2=O)[C@@H](CC(C)C)C(=O)N(C)[C@@H](Cc2ccccc2)C(=O)N[C@H](C(C)C)C(=O)O[C@@H]1C
REMARK SMILES IDX 30 1 31 2 29 3 32 5 35 6 37 7 34 8 38 9 33 10 39 11 36 12
REMARK SMILES IDX 40 14 41 15 42 16 43 17 44 18 45 19 46 20 47 21 48 22 49 23
REMARK SMILES IDX 50 24 51 25 52 26 56 27 53 28 55 29 54 30 57 31 58 32 59 33
REMARK SMILES IDX 60 35 61 36 62 37 63 38 64 39 65 40 66 41 67 42 68 43 21 45
REMARK SMILES IDX 20 46 18 47 19 48 17 50 16 52 14 53 15 54 9 56 8 57 6 58
REMARK SMILES IDX 7 59 5 61 4 62 3 63 2 64 1 65 10 66 11 67 12 68 13 69 22 71
REMARK SMILES IDX 23 72 24 73 25 74 26 75 27 76 28 77
REMARK H PARENT 31 4 36 13 59 34 20 49 16 55 8 60 13 70 27 78 27 79 28 80
REMARK H PARENT 28 81
REMARK Flexibility Score:  259.900
ROOT
ATOM      1  O   UNL     1      -8.634  -5.481   4.184  1.00  0.00    -0.273 OA
ATOM      2  N   UNL     1      -8.492  -7.061   2.537  1.00  0.00    -0.343 N 
ATOM      3  C   UNL     1      -8.318  -6.617   3.830  1.00  0.00     0.243 C 
ATOM      4  H   UNL     1      -8.235  -8.007   2.285  1.00  0.00     0.164 HD
ENDROOT
BRANCH   2   5
ATOM      5  C   UNL     1      -8.954  -6.149   1.495  1.00  0.00     0.171 C 
ATOM      6  C   UNL     1      -9.862  -6.574  -1.225  1.00  0.00     0.214 C 
ATOM      7  N   UNL     1      -8.462  -6.321  -0.975  1.00  0.00    -0.303 N 
ATOM      8  C   UNL     1     -10.783  -5.912  -0.214  1.00  0.00     0.057 C 
ATOM      9  C   UNL     1      -7.954  -6.160   0.304  1.00  0.00     0.247 C 
ATOM     10  C   UNL     1     -10.432  -6.378   1.182  1.00  0.00     0.040 C 
ATOM     11  O   UNL     1      -6.741  -6.030   0.516  1.00  0.00    -0.272 OA
BRANCH   6  12
ATOM     12  O   UNL     1     -10.053  -7.970  -1.226  1.00  0.00    -0.373 OA
ATOM     13  H   UNL     1     -10.730  -8.167  -0.544  1.00  0.00     0.213 HD
ENDBRANCH   6  12
BRANCH   7  14
ATOM     14  C   UNL     1      -7.551  -6.385  -2.137  1.00  0.00     0.177 C 
BRANCH  14  15
ATOM     15  C   UNL     1      -6.544  -7.551  -2.118  1.00  0.00     0.038 C 
BRANCH  15  16
ATOM     16  C   UNL     1      -6.950  -8.917  -2.713  1.00  0.00    -0.015 C 
ATOM     17  C   UNL     1      -7.034 -10.016  -1.650  1.00  0.00     0.007 C 
ATOM     18  C   UNL     1      -5.925  -9.348  -3.770  1.00  0.00     0.007 C 
ENDBRANCH  15  16
ENDBRANCH  14  15
BRANCH  14  19
ATOM     19  C   UNL     1      -8.260  -5.820  -3.416  1.00  0.00     0.245 C 
ATOM     20  O   UNL     1      -9.183  -6.503  -3.891  1.00  0.00    -0.272 OA
BRANCH  19  21
ATOM     21  N   UNL     1      -7.845  -4.686  -4.091  1.00  0.00    -0.332 N 
ATOM     22  C   UNL     1      -7.941  -3.326  -3.591  1.00  0.00     0.147 C 
BRANCH  21  23
ATOM     23  C   UNL     1      -7.260  -4.859  -5.449  1.00  0.00     0.178 C 
BRANCH  23  24
ATOM     24  C   UNL     1      -6.593  -6.228  -5.695  1.00  0.00     0.070 C 
BRANCH  24  25
ATOM     25  C   UNL     1      -5.327  -6.238  -6.520  1.00  0.00    -0.045 A 
ATOM     26  C   UNL     1      -4.985  -7.353  -7.295  1.00  0.00     0.004 A 
ATOM     27  C   UNL     1      -4.471  -5.126  -6.516  1.00  0.00     0.004 A 
ATOM     28  C   UNL     1      -3.805  -7.362  -8.041  1.00  0.00     0.000 A 
ATOM     29  C   UNL     1      -3.293  -5.136  -7.264  1.00  0.00     0.000 A 
ATOM     30  C   UNL     1      -2.959  -6.255  -8.024  1.00  0.00     0.000 A 
ENDBRANCH  24  25
ENDBRANCH  23  24
BRANCH  23  31
ATOM     31  C   UNL     1      -8.205  -4.383  -6.578  1.00  0.00     0.243 C 
ATOM     32  O   UNL     1      -9.420  -4.262  -6.452  1.00  0.00    -0.273 OA
ATOM     33  N   UNL     1      -7.584  -4.279  -7.812  1.00  0.00    -0.341 N 
ATOM     34  H   UNL     1      -6.568  -4.396  -7.855  1.00  0.00     0.164 HD
BRANCH  33  35
ATOM     35  C   UNL     1      -8.307  -3.960  -9.046  1.00  0.00     0.194 C 
BRANCH  35  36
ATOM     36  C   UNL     1      -8.943  -5.194  -9.746  1.00  0.00     0.017 C 
ATOM     37  C   UNL     1      -8.007  -6.413  -9.690  1.00  0.00     0.010 C 
ATOM     38  C   UNL     1      -9.284  -4.943 -11.220  1.00  0.00     0.010 C 
ENDBRANCH  35  36
BRANCH  35  39
ATOM     39  C   UNL     1      -7.460  -3.107 -10.031  1.00  0.00     0.329 C 
ATOM     40  O   UNL     1      -6.421  -3.492 -10.554  1.00  0.00    -0.250 OA
BRANCH  39  41
ATOM     41  O   UNL     1      -8.050  -1.907 -10.319  1.00  0.00    -0.458 OA
BRANCH  41  42
ATOM     42  C   UNL     1      -7.166  -0.764 -10.415  1.00  0.00     0.205 CG0
ATOM     43  C   UNL     1      -7.030  -0.176  -9.012  1.00  0.00     0.056 C 
ATOM     44  G   UNL     1      -7.766   0.239 -11.419  1.00  0.00     0.000 G0
ENDBRANCH  41  42
ENDBRANCH  39  41
ENDBRANCH  35  39
ENDBRANCH  33  35
ENDBRANCH  23  31
ENDBRANCH  21  23
ENDBRANCH  19  21
ENDBRANCH  14  19
ENDBRANCH   7  14
ENDBRANCH   2   5
BRANCH   3  45
ATOM     45  C   UNL     1      -7.724  -7.644   4.803  1.00  0.00     0.171 C 
BRANCH  45  46
ATOM     46  N   UNL     1      -8.865  -8.308   5.420  1.00  0.00    -0.342 N 
ATOM     47  C   UNL     1      -9.481  -9.394   4.852  1.00  0.00     0.247 C 
ATOM     48  O   UNL     1      -9.073  -9.931   3.822  1.00  0.00    -0.273 OA
ATOM     49  H   UNL     1      -9.200  -7.930   6.304  1.00  0.00     0.164 HD
BRANCH  47  50
ATOM     50  C   UNL     1     -10.741  -9.881   5.581  1.00  0.00     0.212 CG0
ATOM     51  G   UNL     1     -10.288 -10.612   6.861  1.00  0.00     0.000 G0
BRANCH  50  52
ATOM     52  N   UNL     1     -11.525  -8.679   5.850  1.00  0.00    -0.339 N 
ATOM     53  C   UNL     1     -12.552  -8.250   5.045  1.00  0.00     0.243 C 
ATOM     54  O   UNL     1     -12.858  -8.821   4.002  1.00  0.00    -0.273 OA
ATOM     55  H   UNL     1     -11.248  -8.101   6.641  1.00  0.00     0.164 HD
BRANCH  53  56
ATOM     56  C   UNL     1     -13.176  -6.909   5.483  1.00  0.00     0.182 C 
BRANCH  56  57
ATOM     57  N   UNL     1     -12.721  -5.812   4.624  1.00  0.00    -0.344 N 
ATOM     58  C   UNL     1     -13.501  -5.292   3.619  1.00  0.00     0.220 C 
ATOM     59  O   UNL     1     -14.598  -5.755   3.324  1.00  0.00    -0.275 OA
ATOM     60  H   UNL     1     -11.867  -5.335   4.898  1.00  0.00     0.164 HD
BRANCH  58  61
ATOM     61  C   UNL     1     -12.854  -4.125   2.897  1.00  0.00     0.100 C 
BRANCH  61  62
ATOM     62  C   UNL     1     -13.413  -3.881   1.495  1.00  0.00     0.010 C 
BRANCH  62  63
ATOM     63  C   UNL     1     -13.132  -2.478   0.944  1.00  0.00     0.000 C 
BRANCH  63  64
ATOM     64  C   UNL     1     -11.907  -2.395   0.035  1.00  0.00    -0.003 C 
ATOM     65  C   UNL     1     -11.931  -1.134  -0.817  1.00  0.00     0.004 C 
ENDBRANCH  63  64
ENDBRANCH  62  63
ENDBRANCH  61  62
ENDBRANCH  58  61
ENDBRANCH  56  57
BRANCH  56  66
ATOM     66  C   UNL     1     -12.917  -6.628   6.963  1.00  0.00     0.157 C 
BRANCH  66  67
ATOM     67  C   UNL     1     -11.702  -5.765   7.147  1.00  0.00     0.305 C 
ATOM     68  O   UNL     1     -10.546  -6.062   6.888  1.00  0.00    -0.252 OA
BRANCH  67  69
ATOM     69  O   UNL     1     -12.011  -4.538   7.607  1.00  0.00    -0.481 OA
ATOM     70  H   UNL     1     -11.746  -4.550   8.551  1.00  0.00     0.296 HD
ENDBRANCH  67  69
ENDBRANCH  66  67
ENDBRANCH  56  66
ENDBRANCH  53  56
ENDBRANCH  50  52
ENDBRANCH  47  50
ENDBRANCH  45  46
BRANCH  45  71
ATOM     71  C   UNL     1      -6.843  -6.946   5.845  1.00  0.00     0.037 C 
BRANCH  71  72
ATOM     72  C   UNL     1      -7.336  -7.192   7.273  1.00  0.00     0.026 C 
BRANCH  72  73
ATOM     73  C   UNL     1      -7.323  -5.908   8.100  1.00  0.00     0.146 C 
BRANCH  73  74
ATOM     74  N   UNL     1      -7.131  -4.788   7.183  1.00  0.00    -0.254 NA
ATOM     75  C   UNL     1      -7.940  -3.798   7.269  1.00  0.00     0.185 C 
ATOM     76  N   UNL     1      -7.789  -2.753   6.439  1.00  0.00    -0.370 N 
ATOM     77  N   UNL     1      -8.979  -3.626   8.105  1.00  0.00    -0.370 N 
ATOM     78  H   UNL     1      -7.033  -2.805   5.771  1.00  0.00     0.159 HD
ATOM     79  H   UNL     1      -8.464  -2.015   6.350  1.00  0.00     0.159 HD
ATOM     80  H   UNL     1      -9.211  -4.331   8.788  1.00  0.00     0.159 HD
ATOM     81  H   UNL     1      -9.476  -2.752   8.157  1.00  0.00     0.159 HD
ENDBRANCH  73  74
ENDBRANCH  72  73
ENDBRANCH  71  72
ENDBRANCH  45  71
ENDBRANCH   3  45
TORSDOF 20
ENDMDL
MODEL 12
REMARK VINA RESULT:    -6.148      8.277     15.737
REMARK INTER + INTRA:         -24.470
REMARK INTER:                 -17.669
REMARK INTRA:                  -6.800
REMARK UNBOUND:                -6.822
REMARK SMILES CCCCCC(=O)N[C@H](CC(=O)O)C(=O)N[C@H]1C(=O)N[C@H](CCCN=C(N)N)C(=O)N[C@@H]2CC[C@H](O)N(C2=O)[C@@H](CC(C)C)C(=O)N(C)[C@@H](Cc2ccccc2)C(=O)N[C@H](C(C)C)C(=O)O[C@@H]1C
REMARK SMILES IDX 30 1 31 2 29 3 32 5 35 6 37 7 34 8 38 9 33 10 39 11 36 12
REMARK SMILES IDX 40 14 41 15 42 16 43 17 44 18 45 19 46 20 47 21 48 22 49 23
REMARK SMILES IDX 50 24 51 25 52 26 56 27 53 28 55 29 54 30 57 31 58 32 59 33
REMARK SMILES IDX 60 35 61 36 62 37 63 38 64 39 65 40 66 41 67 42 68 43 21 45
REMARK SMILES IDX 20 46 18 47 19 48 17 50 16 52 14 53 15 54 9 56 8 57 6 58
REMARK SMILES IDX 7 59 5 61 4 62 3 63 2 64 1 65 10 66 11 67 12 68 13 69 22 71
REMARK SMILES IDX 23 72 24 73 25 74 26 75 27 76 28 77
REMARK H PARENT 31 4 36 13 59 34 20 49 16 55 8 60 13 70 27 78 27 79 28 80
REMARK H PARENT 28 81
REMARK Flexibility Score:  259.900
ROOT
ATOM      1  O   UNL     1      -6.248  -2.463  -7.914  1.00  0.00    -0.273 OA
ATOM      2  N   UNL     1      -5.185  -1.254  -6.289  1.00  0.00    -0.343 N 
ATOM      3  C   UNL     1      -6.231  -2.013  -6.768  1.00  0.00     0.243 C 
ATOM      4  H   UNL     1      -5.199  -0.913  -5.336  1.00  0.00     0.164 HD
ENDROOT
BRANCH   2   5
ATOM      5  C   UNL     1      -4.096  -0.851  -7.172  1.00  0.00     0.171 C 
ATOM      6  C   UNL     1      -1.789   0.864  -6.789  1.00  0.00     0.214 C 
ATOM      7  N   UNL     1      -3.022   1.431  -7.285  1.00  0.00    -0.303 N 
ATOM      8  C   UNL     1      -1.594  -0.591  -7.186  1.00  0.00     0.057 C 
ATOM      9  C   UNL     1      -4.175   0.679  -7.442  1.00  0.00     0.247 C 
ATOM     10  C   UNL     1      -2.761  -1.418  -6.691  1.00  0.00     0.040 C 
ATOM     11  O   UNL     1      -5.249   1.189  -7.785  1.00  0.00    -0.272 OA
BRANCH   6  12
ATOM     12  O   UNL     1      -1.788   0.996  -5.387  1.00  0.00    -0.373 OA
ATOM     13  H   UNL     1      -2.594   1.500  -5.145  1.00  0.00     0.213 HD
ENDBRANCH   6  12
BRANCH   7  14
ATOM     14  C   UNL     1      -3.053   2.895  -7.484  1.00  0.00     0.177 C 
BRANCH  14  15
ATOM     15  C   UNL     1      -3.975   3.668  -6.520  1.00  0.00     0.038 C 
BRANCH  15  16
ATOM     16  C   UNL     1      -4.850   4.820  -7.064  1.00  0.00    -0.015 C 
ATOM     17  C   UNL     1      -4.074   6.134  -7.188  1.00  0.00     0.007 C 
ATOM     18  C   UNL     1      -6.042   5.052  -6.126  1.00  0.00     0.007 C 
ENDBRANCH  15  16
ENDBRANCH  14  15
BRANCH  14  19
ATOM     19  C   UNL     1      -1.669   3.402  -8.016  1.00  0.00     0.245 C 
ATOM     20  O   UNL     1      -0.861   3.816  -7.169  1.00  0.00    -0.272 OA
BRANCH  19  21
ATOM     21  N   UNL     1      -1.353   3.513  -9.359  1.00  0.00    -0.332 N 
ATOM     22  C   UNL     1      -2.069   2.874 -10.449  1.00  0.00     0.147 C 
BRANCH  21  23
ATOM     23  C   UNL     1      -0.177   4.347  -9.730  1.00  0.00     0.178 C 
BRANCH  23  24
ATOM     24  C   UNL     1       0.788   3.690 -10.739  1.00  0.00     0.070 C 
BRANCH  24  25
ATOM     25  C   UNL     1       1.973   2.944 -10.171  1.00  0.00    -0.045 A 
ATOM     26  C   UNL     1       3.279   3.408 -10.377  1.00  0.00     0.004 A 
ATOM     27  C   UNL     1       1.781   1.767  -9.432  1.00  0.00     0.004 A 
ATOM     28  C   UNL     1       4.370   2.703  -9.864  1.00  0.00     0.000 A 
ATOM     29  C   UNL     1       2.872   1.065  -8.919  1.00  0.00     0.000 A 
ATOM     30  C   UNL     1       4.166   1.532  -9.138  1.00  0.00     0.000 A 
ENDBRANCH  24  25
ENDBRANCH  23  24
BRANCH  23  31
ATOM     31  C   UNL     1      -0.553   5.814 -10.049  1.00  0.00     0.243 C 
ATOM     32  O   UNL     1      -1.250   6.517  -9.323  1.00  0.00    -0.273 OA
ATOM     33  N   UNL     1      -0.187   6.214 -11.323  1.00  0.00    -0.341 N 
ATOM     34  H   UNL     1       0.390   5.581 -11.884  1.00  0.00     0.164 HD
BRANCH  33  35
ATOM     35  C   UNL     1      -0.545   7.520 -11.884  1.00  0.00     0.194 C 
BRANCH  35  36
ATOM     36  C   UNL     1      -1.681   7.466 -12.944  1.00  0.00     0.017 C 
ATOM     37  C   UNL     1      -1.113   7.475 -14.374  1.00  0.00     0.010 C 
ATOM     38  C   UNL     1      -2.666   8.635 -12.834  1.00  0.00     0.010 C 
ENDBRANCH  35  36
BRANCH  35  39
ATOM     39  C   UNL     1       0.692   8.309 -12.398  1.00  0.00     0.329 C 
ATOM     40  O   UNL     1       0.729   9.528 -12.511  1.00  0.00    -0.250 OA
BRANCH  39  41
ATOM     41  O   UNL     1       1.767   7.496 -12.630  1.00  0.00    -0.458 OA
BRANCH  41  42
ATOM     42  C   UNL     1       3.046   7.973 -12.147  1.00  0.00     0.205 CG0
ATOM     43  C   UNL     1       3.087   7.717 -10.642  1.00  0.00     0.056 C 
ATOM     44  G   UNL     1       3.177   9.469 -12.494  1.00  0.00     0.000 G0
ENDBRANCH  41  42
ENDBRANCH  39  41
ENDBRANCH  35  39
ENDBRANCH  33  35
ENDBRANCH  23  31
ENDBRANCH  21  23
ENDBRANCH  19  21
ENDBRANCH  14  19
ENDBRANCH   7  14
ENDBRANCH   2   5
BRANCH   3  45
ATOM     45  C   UNL     1      -7.364  -2.275  -5.767  1.00  0.00     0.171 C 
BRANCH  45  46
ATOM     46  N   UNL     1      -7.359  -3.713  -5.534  1.00  0.00    -0.342 N 
ATOM     47  C   UNL     1      -7.541  -4.258  -4.288  1.00  0.00     0.247 C 
ATOM     48  O   UNL     1      -7.793  -3.579  -3.292  1.00  0.00    -0.273 OA
ATOM     49  H   UNL     1      -7.210  -4.315  -6.342  1.00  0.00     0.164 HD
BRANCH  47  50
ATOM     50  C   UNL     1      -7.379  -5.783  -4.215  1.00  0.00     0.212 CG0
ATOM     51  G   UNL     1      -8.790  -6.399  -4.143  1.00  0.00     0.000 G0
BRANCH  50  52
ATOM     52  N   UNL     1      -6.647  -6.155  -5.422  1.00  0.00    -0.339 N 
ATOM     53  C   UNL     1      -5.951  -7.333  -5.551  1.00  0.00     0.243 C 
ATOM     54  O   UNL     1      -5.847  -8.144  -4.636  1.00  0.00    -0.273 OA
ATOM     55  H   UNL     1      -6.603  -5.474  -6.177  1.00  0.00     0.164 HD
BRANCH  53  56
ATOM     56  C   UNL     1      -5.186  -7.467  -6.884  1.00  0.00     0.182 C 
BRANCH  56  57
ATOM     57  N   UNL     1      -4.536  -6.204  -7.247  1.00  0.00    -0.344 N 
ATOM     58  C   UNL     1      -3.289  -6.156  -7.820  1.00  0.00     0.220 C 
ATOM     59  O   UNL     1      -2.603  -7.157  -8.001  1.00  0.00    -0.275 OA
ATOM     60  H   UNL     1      -5.107  -5.364  -7.208  1.00  0.00     0.164 HD
BRANCH  58  61
ATOM     61  C   UNL     1      -2.838  -4.749  -8.165  1.00  0.00     0.100 C 
BRANCH  61  62
ATOM     62  C   UNL     1      -3.649  -4.099  -9.286  1.00  0.00     0.010 C 
BRANCH  62  63
ATOM     63  C   UNL     1      -2.913  -2.973 -10.022  1.00  0.00     0.000 C 
BRANCH  63  64
ATOM     64  C   UNL     1      -3.831  -1.904 -10.612  1.00  0.00    -0.003 C 
ATOM     65  C   UNL     1      -3.038  -0.842 -11.359  1.00  0.00     0.004 C 
ENDBRANCH  63  64
ENDBRANCH  62  63
ENDBRANCH  61  62
ENDBRANCH  58  61
ENDBRANCH  56  57
BRANCH  56  66
ATOM     66  C   UNL     1      -6.090  -7.991  -7.998  1.00  0.00     0.157 C 
BRANCH  66  67
ATOM     67  C   UNL     1      -6.652  -6.864  -8.818  1.00  0.00     0.305 C 
ATOM     68  O   UNL     1      -6.227  -6.454  -9.887  1.00  0.00    -0.252 OA
BRANCH  67  69
ATOM     69  O   UNL     1      -7.764  -6.338  -8.270  1.00  0.00    -0.481 OA
ATOM     70  H   UNL     1      -7.491  -5.451  -7.953  1.00  0.00     0.296 HD
ENDBRANCH  67  69
ENDBRANCH  66  67
ENDBRANCH  56  66
ENDBRANCH  53  56
ENDBRANCH  50  52
ENDBRANCH  47  50
ENDBRANCH  45  46
BRANCH  45  71
ATOM     71  C   UNL     1      -8.704  -1.800  -6.341  1.00  0.00     0.037 C 
BRANCH  71  72
ATOM     72  C   UNL     1      -9.528  -2.956  -6.912  1.00  0.00     0.026 C 
BRANCH  72  73
ATOM     73  C   UNL     1      -9.825  -2.753  -8.397  1.00  0.00     0.146 C 
BRANCH  73  74
ATOM     74  N   UNL     1      -9.218  -3.860  -9.129  1.00  0.00    -0.254 NA
ATOM     75  C   UNL     1      -8.784  -3.628 -10.313  1.00  0.00     0.185 C 
ATOM     76  N   UNL     1      -8.219  -4.626 -11.012  1.00  0.00    -0.370 N 
ATOM     77  N   UNL     1      -8.803  -2.479 -11.010  1.00  0.00    -0.370 N 
ATOM     78  H   UNL     1      -8.172  -5.529 -10.563  1.00  0.00     0.159 HD
ATOM     79  H   UNL     1      -7.990  -4.558 -11.988  1.00  0.00     0.159 HD
ATOM     80  H   UNL     1      -9.195  -1.640 -10.608  1.00  0.00     0.159 HD
ATOM     81  H   UNL     1      -8.326  -2.388 -11.892  1.00  0.00     0.159 HD
ENDBRANCH  73  74
ENDBRANCH  72  73
ENDBRANCH  71  72
ENDBRANCH  45  71
ENDBRANCH   3  45
TORSDOF 20
ENDMDL
MODEL 13
REMARK VINA RESULT:    -6.112      2.000      3.315
REMARK INTER + INTRA:         -24.367
REMARK INTER:                 -18.360
REMARK INTRA:                  -6.007
REMARK UNBOUND:                -6.822
REMARK SMILES CCCCCC(=O)N[C@H](CC(=O)O)C(=O)N[C@H]1C(=O)N[C@H](CCCN=C(N)N)C(=O)N[C@@H]2CC[C@H](O)N(C2=O)[C@@H](CC(C)C)C(=O)N(C)[C@@H](Cc2ccccc2)C(=O)N[C@H](C(C)C)C(=O)O[C@@H]1C
REMARK SMILES IDX 30 1 31 2 29 3 32 5 35 6 37 7 34 8 38 9 33 10 39 11 36 12
REMARK SMILES IDX 40 14 41 15 42 16 43 17 44 18 45 19 46 20 47 21 48 22 49 23
REMARK SMILES IDX 50 24 51 25 52 26 56 27 53 28 55 29 54 30 57 31 58 32 59 33
REMARK SMILES IDX 60 35 61 36 62 37 63 38 64 39 65 40 66 41 67 42 68 43 21 45
REMARK SMILES IDX 20 46 18 47 19 48 17 50 16 52 14 53 15 54 9 56 8 57 6 58
REMARK SMILES IDX 7 59 5 61 4 62 3 63 2 64 1 65 10 66 11 67 12 68 13 69 22 71
REMARK SMILES IDX 23 72 24 73 25 74 26 75 27 76 28 77
REMARK H PARENT 31 4 36 13 59 34 20 49 16 55 8 60 13 70 27 78 27 79 28 80
REMARK H PARENT 28 81
REMARK Flexibility Score:  259.900
ROOT
ATOM      1  O   UNL     1      -7.461  -4.374  -4.184  1.00  0.00    -0.273 OA
ATOM      2  N   UNL     1      -9.677  -4.515  -3.635  1.00  0.00    -0.343 N 
ATOM      3  C   UNL     1      -8.632  -4.072  -4.417  1.00  0.00     0.243 C 
ATOM      4  H   UNL     1     -10.629  -4.259  -3.865  1.00  0.00     0.164 HD
ENDROOT
BRANCH   2   5
ATOM      5  C   UNL     1      -9.421  -5.272  -2.414  1.00  0.00     0.171 C 
ATOM      6  C   UNL     1     -11.113  -6.040  -0.189  1.00  0.00     0.214 C 
ATOM      7  N   UNL     1     -10.378  -4.799  -0.126  1.00  0.00    -0.303 N 
ATOM      8  C   UNL     1     -10.419  -7.110  -1.017  1.00  0.00     0.057 C 
ATOM      9  C   UNL     1      -9.592  -4.348  -1.174  1.00  0.00     0.247 C 
ATOM     10  C   UNL     1     -10.182  -6.597  -2.421  1.00  0.00     0.040 C 
ATOM     11  O   UNL     1      -9.035  -3.242  -1.148  1.00  0.00    -0.272 OA
BRANCH   6  12
ATOM     12  O   UNL     1     -12.389  -5.759  -0.716  1.00  0.00    -0.373 OA
ATOM     13  H   UNL     1     -12.821  -5.127  -0.103  1.00  0.00     0.213 HD
ENDBRANCH   6  12
BRANCH   7  14
ATOM     14  C   UNL     1     -10.611  -3.940   1.054  1.00  0.00     0.177 C 
BRANCH  14  15
ATOM     15  C   UNL     1     -11.936  -3.153   1.043  1.00  0.00     0.038 C 
BRANCH  15  16
ATOM     16  C   UNL     1     -12.102  -1.958   0.078  1.00  0.00    -0.015 C 
ATOM     17  C   UNL     1     -11.074  -0.852   0.335  1.00  0.00     0.007 C 
ATOM     18  C   UNL     1     -13.504  -1.356   0.236  1.00  0.00     0.007 C 
ENDBRANCH  15  16
ENDBRANCH  14  15
BRANCH  14  19
ATOM     19  C   UNL     1      -9.941  -4.569   2.324  1.00  0.00     0.245 C 
ATOM     20  O   UNL     1      -8.699  -4.607   2.341  1.00  0.00    -0.272 OA
BRANCH  19  21
ATOM     21  N   UNL     1     -10.647  -5.172   3.350  1.00  0.00    -0.332 N 
ATOM     22  C   UNL     1     -11.965  -5.768   3.229  1.00  0.00     0.147 C 
BRANCH  21  23
ATOM     23  C   UNL     1     -10.018  -5.209   4.699  1.00  0.00     0.178 C 
BRANCH  23  24
ATOM     24  C   UNL     1     -10.112  -3.890   5.493  1.00  0.00     0.070 C 
BRANCH  24  25
ATOM     25  C   UNL     1     -11.193  -2.917   5.084  1.00  0.00    -0.045 A 
ATOM     26  C   UNL     1     -10.887  -1.780   4.325  1.00  0.00     0.004 A 
ATOM     27  C   UNL     1     -12.525  -3.138   5.466  1.00  0.00     0.004 A 
ATOM     28  C   UNL     1     -11.890  -0.877   3.966  1.00  0.00     0.000 A 
ATOM     29  C   UNL     1     -13.527  -2.235   5.105  1.00  0.00     0.000 A 
ATOM     30  C   UNL     1     -13.207  -1.104   4.358  1.00  0.00     0.000 A 
ENDBRANCH  24  25
ENDBRANCH  23  24
BRANCH  23  31
ATOM     31  C   UNL     1     -10.387  -6.480   5.502  1.00  0.00     0.243 C 
ATOM     32  O   UNL     1     -10.020  -7.613   5.202  1.00  0.00    -0.273 OA
ATOM     33  N   UNL     1     -11.327  -6.254   6.493  1.00  0.00    -0.341 N 
ATOM     34  H   UNL     1     -11.598  -5.288   6.694  1.00  0.00     0.164 HD
BRANCH  33  35
ATOM     35  C   UNL     1     -11.912  -7.329   7.299  1.00  0.00     0.194 C 
BRANCH  35  36
ATOM     36  C   UNL     1     -13.410  -7.608   6.994  1.00  0.00     0.017 C 
ATOM     37  C   UNL     1     -14.172  -6.305   6.695  1.00  0.00     0.010 C 
ATOM     38  C   UNL     1     -14.140  -8.313   8.144  1.00  0.00     0.010 C 
ENDBRANCH  35  36
BRANCH  35  39
ATOM     39  C   UNL     1     -11.654  -7.143   8.821  1.00  0.00     0.329 C 
ATOM     40  O   UNL     1     -11.908  -6.117   9.440  1.00  0.00    -0.250 OA
BRANCH  39  41
ATOM     41  O   UNL     1     -11.192  -8.286   9.413  1.00  0.00    -0.458 OA
BRANCH  41  42
ATOM     42  C   UNL     1     -11.364  -8.380  10.847  1.00  0.00     0.205 CG0
ATOM     43  C   UNL     1     -12.287  -9.567  11.117  1.00  0.00     0.056 C 
ATOM     44  G   UNL     1     -11.951  -7.049  11.360  1.00  0.00     0.000 G0
ENDBRANCH  41  42
ENDBRANCH  39  41
ENDBRANCH  35  39
ENDBRANCH  33  35
ENDBRANCH  23  31
ENDBRANCH  21  23
ENDBRANCH  19  21
ENDBRANCH  14  19
ENDBRANCH   7  14
ENDBRANCH   2   5
BRANCH   3  45
ATOM     45  C   UNL     1      -9.031  -3.194  -5.611  1.00  0.00     0.171 C 
BRANCH  45  46
ATOM     46  N   UNL     1      -8.599  -3.923  -6.796  1.00  0.00    -0.342 N 
ATOM     47  C   UNL     1      -9.277  -3.858  -7.988  1.00  0.00     0.247 C 
ATOM     48  O   UNL     1     -10.253  -3.126  -8.163  1.00  0.00    -0.273 OA
ATOM     49  H   UNL     1      -7.763  -4.497  -6.711  1.00  0.00     0.164 HD
BRANCH  47  50
ATOM     50  C   UNL     1      -8.748  -4.788  -9.088  1.00  0.00     0.212 CG0
ATOM     51  G   UNL     1      -8.786  -4.008 -10.418  1.00  0.00     0.000 G0
BRANCH  50  52
ATOM     52  N   UNL     1      -7.397  -5.154  -8.673  1.00  0.00    -0.339 N 
ATOM     53  C   UNL     1      -7.008  -6.448  -8.421  1.00  0.00     0.243 C 
ATOM     54  O   UNL     1      -7.786  -7.396  -8.476  1.00  0.00    -0.273 OA
ATOM     55  H   UNL     1      -6.734  -4.400  -8.501  1.00  0.00     0.164 HD
BRANCH  53  56
ATOM     56  C   UNL     1      -5.558  -6.579  -7.912  1.00  0.00     0.182 C 
BRANCH  56  57
ATOM     57  N   UNL     1      -5.509  -6.538  -6.447  1.00  0.00    -0.344 N 
ATOM     58  C   UNL     1      -5.549  -7.674  -5.677  1.00  0.00     0.220 C 
ATOM     59  O   UNL     1      -5.701  -8.794  -6.154  1.00  0.00    -0.275 OA
ATOM     60  H   UNL     1      -5.281  -5.644  -6.019  1.00  0.00     0.164 HD
BRANCH  58  61
ATOM     61  C   UNL     1      -5.425  -7.398  -4.190  1.00  0.00     0.100 C 
BRANCH  61  62
ATOM     62  C   UNL     1      -6.725  -7.609  -3.414  1.00  0.00     0.010 C 
BRANCH  62  63
ATOM     63  C   UNL     1      -6.627  -8.656  -2.297  1.00  0.00     0.000 C 
BRANCH  63  64
ATOM     64  C   UNL     1      -5.783  -9.877  -2.656  1.00  0.00    -0.003 C 
ATOM     65  C   UNL     1      -5.319 -10.617  -1.409  1.00  0.00     0.004 C 
ENDBRANCH  63  64
ENDBRANCH  62  63
ENDBRANCH  61  62
ENDBRANCH  58  61
ENDBRANCH  56  57
BRANCH  56  66
ATOM     66  C   UNL     1      -4.644  -5.534  -8.550  1.00  0.00     0.157 C 
BRANCH  66  67
ATOM     67  C   UNL     1      -3.287  -5.535  -7.907  1.00  0.00     0.305 C 
ATOM     68  O   UNL     1      -2.538  -6.491  -7.776  1.00  0.00    -0.252 OA
BRANCH  67  69
ATOM     69  O   UNL     1      -2.912  -4.306  -7.501  1.00  0.00    -0.481 OA
ATOM     70  H   UNL     1      -3.541  -3.695  -7.940  1.00  0.00     0.296 HD
ENDBRANCH  67  69
ENDBRANCH  66  67
ENDBRANCH  56  66
ENDBRANCH  53  56
ENDBRANCH  50  52
ENDBRANCH  47  50
ENDBRANCH  45  46
BRANCH  45  71
ATOM     71  C   UNL     1      -8.357  -1.822  -5.513  1.00  0.00     0.037 C 
BRANCH  71  72
ATOM     72  C   UNL     1      -8.626  -1.142  -4.169  1.00  0.00     0.026 C 
BRANCH  72  73
ATOM     73  C   UNL     1      -7.409  -0.356  -3.684  1.00  0.00     0.146 C 
BRANCH  73  74
ATOM     74  N   UNL     1      -7.736   0.216  -2.382  1.00  0.00    -0.254 NA
ATOM     75  C   UNL     1      -7.246  -0.347  -1.340  1.00  0.00     0.185 C 
ATOM     76  N   UNL     1      -7.528   0.157  -0.128  1.00  0.00    -0.370 N 
ATOM     77  N   UNL     1      -6.447  -1.425  -1.259  1.00  0.00    -0.370 N 
ATOM     78  H   UNL     1      -8.131   0.967  -0.098  1.00  0.00     0.159 HD
ATOM     79  H   UNL     1      -7.302  -0.311   0.733  1.00  0.00     0.159 HD
ATOM     80  H   UNL     1      -6.148  -1.907  -2.094  1.00  0.00     0.159 HD
ATOM     81  H   UNL     1      -6.029  -1.709  -0.389  1.00  0.00     0.159 HD
ENDBRANCH  73  74
ENDBRANCH  72  73
ENDBRANCH  71  72
ENDBRANCH  45  71
ENDBRANCH   3  45
TORSDOF 20
ENDMDL
MODEL 14
REMARK VINA RESULT:    -6.072      5.790     14.296
REMARK INTER + INTRA:         -24.252
REMARK INTER:                 -17.344
REMARK INTRA:                  -6.908
REMARK UNBOUND:                -6.822
REMARK SMILES CCCCCC(=O)N[C@H](CC(=O)O)C(=O)N[C@H]1C(=O)N[C@H](CCCN=C(N)N)C(=O)N[C@@H]2CC[C@H](O)N(C2=O)[C@@H](CC(C)C)C(=O)N(C)[C@@H](Cc2ccccc2)C(=O)N[C@H](C(C)C)C(=O)O[C@@H]1C
REMARK SMILES IDX 30 1 31 2 29 3 32 5 35 6 37 7 34 8 38 9 33 10 39 11 36 12
REMARK SMILES IDX 40 14 41 15 42 16 43 17 44 18 45 19 46 20 47 21 48 22 49 23
REMARK SMILES IDX 50 24 51 25 52 26 56 27 53 28 55 29 54 30 57 31 58 32 59 33
REMARK SMILES IDX 60 35 61 36 62 37 63 38 64 39 65 40 66 41 67 42 68 43 21 45
REMARK SMILES IDX 20 46 18 47 19 48 17 50 16 52 14 53 15 54 9 56 8 57 6 58
REMARK SMILES IDX 7 59 5 61 4 62 3 63 2 64 1 65 10 66 11 67 12 68 13 69 22 71
REMARK SMILES IDX 23 72 24 73 25 74 26 75 27 76 28 77
REMARK H PARENT 31 4 36 13 59 34 20 49 16 55 8 60 13 70 27 78 27 79 28 80
REMARK H PARENT 28 81
REMARK Flexibility Score:  259.900
ROOT
ATOM      1  O   UNL     1      -7.100  -6.431  -5.918  1.00  0.00    -0.273 OA
ATOM      2  N   UNL     1      -6.430  -6.187  -8.092  1.00  0.00    -0.343 N 
ATOM      3  C   UNL     1      -6.365  -6.772  -6.845  1.00  0.00     0.243 C 
ATOM      4  H   UNL     1      -5.820  -6.503  -8.835  1.00  0.00     0.164 HD
ENDROOT
BRANCH   2   5
ATOM      5  C   UNL     1      -7.304  -5.043  -8.330  1.00  0.00     0.171 C 
ATOM      6  C   UNL     1      -7.810  -3.411 -10.672  1.00  0.00     0.214 C 
ATOM      7  N   UNL     1      -6.776  -3.019  -9.742  1.00  0.00    -0.303 N 
ATOM      8  C   UNL     1      -8.953  -4.169 -10.016  1.00  0.00     0.057 C 
ATOM      9  C   UNL     1      -6.449  -3.779  -8.631  1.00  0.00     0.247 C 
ATOM     10  C   UNL     1      -8.417  -5.399  -9.315  1.00  0.00     0.040 C 
ATOM     11  O   UNL     1      -5.505  -3.482  -7.888  1.00  0.00    -0.272 OA
BRANCH   6  12
ATOM     12  O   UNL     1      -7.210  -4.196 -11.676  1.00  0.00    -0.373 OA
ATOM     13  H   UNL     1      -6.456  -3.680 -12.033  1.00  0.00     0.213 HD
ENDBRANCH   6  12
BRANCH   7  14
ATOM     14  C   UNL     1      -5.967  -1.835 -10.100  1.00  0.00     0.177 C 
BRANCH  14  15
ATOM     15  C   UNL     1      -5.085  -1.997 -11.353  1.00  0.00     0.038 C 
BRANCH  15  16
ATOM     16  C   UNL     1      -3.556  -2.151 -11.193  1.00  0.00    -0.015 C 
ATOM     17  C   UNL     1      -3.156  -2.564  -9.773  1.00  0.00     0.007 C 
ATOM     18  C   UNL     1      -2.864  -0.822 -11.520  1.00  0.00     0.007 C 
ENDBRANCH  15  16
ENDBRANCH  14  15
BRANCH  14  19
ATOM     19  C   UNL     1      -6.710  -0.521  -9.679  1.00  0.00     0.245 C 
ATOM     20  O   UNL     1      -6.845  -0.321  -8.460  1.00  0.00    -0.272 OA
BRANCH  19  21
ATOM     21  N   UNL     1      -7.307   0.349 -10.574  1.00  0.00    -0.332 N 
ATOM     22  C   UNL     1      -8.483   0.057 -11.376  1.00  0.00     0.147 C 
BRANCH  21  23
ATOM     23  C   UNL     1      -6.697   1.696 -10.749  1.00  0.00     0.178 C 
BRANCH  23  24
ATOM     24  C   UNL     1      -5.158   1.724 -10.660  1.00  0.00     0.070 C 
BRANCH  24  25
ATOM     25  C   UNL     1      -4.488   3.075 -10.749  1.00  0.00    -0.045 A 
ATOM     26  C   UNL     1      -3.824   3.471 -11.917  1.00  0.00     0.004 A 
ATOM     27  C   UNL     1      -4.518   3.953  -9.656  1.00  0.00     0.004 A 
ATOM     28  C   UNL     1      -3.192   4.715 -11.985  1.00  0.00     0.000 A 
ATOM     29  C   UNL     1      -3.887   5.196  -9.726  1.00  0.00     0.000 A 
ATOM     30  C   UNL     1      -3.222   5.575 -10.890  1.00  0.00     0.000 A 
ENDBRANCH  24  25
ENDBRANCH  23  24
BRANCH  23  31
ATOM     31  C   UNL     1      -7.296   2.480 -11.941  1.00  0.00     0.243 C 
ATOM     32  O   UNL     1      -7.080   2.208 -13.119  1.00  0.00    -0.273 OA
ATOM     33  N   UNL     1      -7.954   3.639 -11.566  1.00  0.00    -0.341 N 
ATOM     34  H   UNL     1      -8.099   3.814 -10.569  1.00  0.00     0.164 HD
BRANCH  33  35
ATOM     35  C   UNL     1      -8.497   4.597 -12.533  1.00  0.00     0.194 C 
BRANCH  35  36
ATOM     36  C   UNL     1      -7.659   5.900 -12.673  1.00  0.00     0.017 C 
ATOM     37  C   UNL     1      -6.463   5.696 -13.620  1.00  0.00     0.010 C 
ATOM     38  C   UNL     1      -7.106   6.410 -11.337  1.00  0.00     0.010 C 
ENDBRANCH  35  36
BRANCH  35  39
ATOM     39  C   UNL     1     -10.003   4.899 -12.295  1.00  0.00     0.329 C 
ATOM     40  O   UNL     1     -10.782   4.121 -11.756  1.00  0.00    -0.250 OA
BRANCH  39  41
ATOM     41  O   UNL     1     -10.346   6.167 -12.676  1.00  0.00    -0.458 OA
BRANCH  41  42
ATOM     42  C   UNL     1     -11.432   6.784 -11.945  1.00  0.00     0.205 CG0
ATOM     43  C   UNL     1     -12.600   6.944 -12.916  1.00  0.00     0.056 C 
ATOM     44  G   UNL     1     -10.942   8.135 -11.385  1.00  0.00     0.000 G0
ENDBRANCH  41  42
ENDBRANCH  39  41
ENDBRANCH  35  39
ENDBRANCH  33  35
ENDBRANCH  23  31
ENDBRANCH  21  23
ENDBRANCH  19  21
ENDBRANCH  14  19
ENDBRANCH   7  14
ENDBRANCH   2   5
BRANCH   3  45
ATOM     45  C   UNL     1      -5.327  -7.893  -6.700  1.00  0.00     0.171 C 
BRANCH  45  46
ATOM     46  N   UNL     1      -5.311  -8.233  -5.283  1.00  0.00    -0.342 N 
ATOM     47  C   UNL     1      -5.836  -9.405  -4.801  1.00  0.00     0.247 C 
ATOM     48  O   UNL     1      -6.292 -10.284  -5.533  1.00  0.00    -0.273 OA
ATOM     49  H   UNL     1      -4.891  -7.557  -4.647  1.00  0.00     0.164 HD
BRANCH  47  50
ATOM     50  C   UNL     1      -5.842  -9.534  -3.271  1.00  0.00     0.212 CG0
ATOM     51  G   UNL     1      -4.381  -9.715  -2.812  1.00  0.00     0.000 G0
BRANCH  50  52
ATOM     52  N   UNL     1      -6.453  -8.303  -2.779  1.00  0.00    -0.339 N 
ATOM     53  C   UNL     1      -7.797  -8.177  -2.523  1.00  0.00     0.243 C 
ATOM     54  O   UNL     1      -8.600  -9.080  -2.741  1.00  0.00    -0.273 OA
ATOM     55  H   UNL     1      -5.857  -7.484  -2.683  1.00  0.00     0.164 HD
BRANCH  53  56
ATOM     56  C   UNL     1      -8.223  -6.758  -2.093  1.00  0.00     0.182 C 
BRANCH  56  57
ATOM     57  N   UNL     1      -8.352  -5.873  -3.255  1.00  0.00    -0.344 N 
ATOM     58  C   UNL     1      -9.485  -5.135  -3.497  1.00  0.00     0.220 C 
ATOM     59  O   UNL     1     -10.492  -5.220  -2.803  1.00  0.00    -0.275 OA
ATOM     60  H   UNL     1      -7.508  -5.696  -3.795  1.00  0.00     0.164 HD
BRANCH  58  61
ATOM     61  C   UNL     1      -9.374  -4.246  -4.721  1.00  0.00     0.100 C 
BRANCH  61  62
ATOM     62  C   UNL     1      -8.158  -3.319  -4.701  1.00  0.00     0.010 C 
BRANCH  62  63
ATOM     63  C   UNL     1      -8.205  -2.200  -5.749  1.00  0.00     0.000 C 
BRANCH  63  64
ATOM     64  C   UNL     1      -9.075  -1.008  -5.356  1.00  0.00    -0.003 C 
ATOM     65  C   UNL     1      -8.248   0.262  -5.215  1.00  0.00     0.004 C 
ENDBRANCH  63  64
ENDBRANCH  62  63
ENDBRANCH  61  62
ENDBRANCH  58  61
ENDBRANCH  56  57
BRANCH  56  66
ATOM     66  C   UNL     1      -7.282  -6.187  -1.034  1.00  0.00     0.157 C 
BRANCH  66  67
ATOM     67  C   UNL     1      -6.513  -5.013  -1.566  1.00  0.00     0.305 C 
ATOM     68  O   UNL     1      -6.675  -3.838  -1.274  1.00  0.00    -0.252 OA
BRANCH  67  69
ATOM     69  O   UNL     1      -5.532  -5.383  -2.411  1.00  0.00    -0.481 OA
ATOM     70  H   UNL     1      -5.506  -4.676  -3.090  1.00  0.00     0.296 HD
ENDBRANCH  67  69
ENDBRANCH  66  67
ENDBRANCH  56  66
ENDBRANCH  53  56
ENDBRANCH  50  52
ENDBRANCH  47  50
ENDBRANCH  45  46
BRANCH  45  71
ATOM     71  C   UNL     1      -3.953  -7.415  -7.183  1.00  0.00     0.037 C 
BRANCH  71  72
ATOM     72  C   UNL     1      -3.411  -8.279  -8.324  1.00  0.00     0.026 C 
BRANCH  72  73
ATOM     73  C   UNL     1      -3.554  -9.768  -8.016  1.00  0.00     0.146 C 
BRANCH  73  74
ATOM     74  N   UNL     1      -4.216 -10.398  -9.154  1.00  0.00    -0.254 NA
ATOM     75  C   UNL     1      -4.963 -11.415  -8.924  1.00  0.00     0.185 C 
ATOM     76  N   UNL     1      -5.587 -12.016  -9.951  1.00  0.00    -0.370 N 
ATOM     77  N   UNL     1      -5.240 -12.013  -7.753  1.00  0.00    -0.370 N 
ATOM     78  H   UNL     1      -5.426 -11.632 -10.871  1.00  0.00     0.159 HD
ATOM     79  H   UNL     1      -6.066 -12.895  -9.870  1.00  0.00     0.159 HD
ATOM     80  H   UNL     1      -4.843 -11.666  -6.892  1.00  0.00     0.159 HD
ATOM     81  H   UNL     1      -5.935 -12.737  -7.681  1.00  0.00     0.159 HD
ENDBRANCH  73  74
ENDBRANCH  72  73
ENDBRANCH  71  72
ENDBRANCH  45  71
ENDBRANCH   3  45
TORSDOF 20
ENDMDL
MODEL 15
REMARK VINA RESULT:    -6.053      2.394      3.646
REMARK INTER + INTRA:         -24.198
REMARK INTER:                 -18.486
REMARK INTRA:                  -5.712
REMARK UNBOUND:                -6.822
REMARK SMILES CCCCCC(=O)N[C@H](CC(=O)O)C(=O)N[C@H]1C(=O)N[C@H](CCCN=C(N)N)C(=O)N[C@@H]2CC[C@H](O)N(C2=O)[C@@H](CC(C)C)C(=O)N(C)[C@@H](Cc2ccccc2)C(=O)N[C@H](C(C)C)C(=O)O[C@@H]1C
REMARK SMILES IDX 30 1 31 2 29 3 32 5 35 6 37 7 34 8 38 9 33 10 39 11 36 12
REMARK SMILES IDX 40 14 41 15 42 16 43 17 44 18 45 19 46 20 47 21 48 22 49 23
REMARK SMILES IDX 50 24 51 25 52 26 56 27 53 28 55 29 54 30 57 31 58 32 59 33
REMARK SMILES IDX 60 35 61 36 62 37 63 38 64 39 65 40 66 41 67 42 68 43 21 45
REMARK SMILES IDX 20 46 18 47 19 48 17 50 16 52 14 53 15 54 9 56 8 57 6 58
REMARK SMILES IDX 7 59 5 61 4 62 3 63 2 64 1 65 10 66 11 67 12 68 13 69 22 71
REMARK SMILES IDX 23 72 24 73 25 74 26 75 27 76 28 77
REMARK H PARENT 31 4 36 13 59 34 20 49 16 55 8 60 13 70 27 78 27 79 28 80
REMARK H PARENT 28 81
REMARK Flexibility Score:  259.900
ROOT
ATOM      1  O   UNL     1      -7.535  -3.849  -4.045  1.00  0.00    -0.273 OA
ATOM      2  N   UNL     1      -9.645  -4.639  -3.654  1.00  0.00    -0.343 N 
ATOM      3  C   UNL     1      -8.735  -3.845  -4.319  1.00  0.00     0.243 C 
ATOM      4  H   UNL     1     -10.623  -4.620  -3.917  1.00  0.00     0.164 HD
ENDROOT
BRANCH   2   5
ATOM      5  C   UNL     1      -9.234  -5.437  -2.505  1.00  0.00     0.171 C 
ATOM      6  C   UNL     1     -10.708  -7.077  -0.623  1.00  0.00     0.214 C 
ATOM      7  N   UNL     1     -10.481  -5.682  -0.324  1.00  0.00    -0.303 N 
ATOM      8  C   UNL     1      -9.608  -7.698  -1.469  1.00  0.00     0.057 C 
ATOM      9  C   UNL     1      -9.829  -4.831  -1.201  1.00  0.00     0.247 C 
ATOM     10  C   UNL     1      -9.459  -6.926  -2.762  1.00  0.00     0.040 C 
ATOM     11  O   UNL     1      -9.714  -3.619  -0.977  1.00  0.00    -0.272 OA
BRANCH   6  12
ATOM     12  O   UNL     1     -11.951  -7.179  -1.278  1.00  0.00    -0.373 OA
ATOM     13  H   UNL     1     -12.545  -7.693  -0.690  1.00  0.00     0.213 HD
ENDBRANCH   6  12
BRANCH   7  14
ATOM     14  C   UNL     1     -11.105  -5.150   0.906  1.00  0.00     0.177 C 
BRANCH  14  15
ATOM     15  C   UNL     1     -12.492  -4.507   0.712  1.00  0.00     0.038 C 
BRANCH  15  16
ATOM     16  C   UNL     1     -12.862  -3.238   1.512  1.00  0.00    -0.015 C 
ATOM     17  C   UNL     1     -13.697  -3.555   2.756  1.00  0.00     0.007 C 
ATOM     18  C   UNL     1     -13.666  -2.281   0.624  1.00  0.00     0.007 C 
ENDBRANCH  15  16
ENDBRANCH  14  15
BRANCH  14  19
ATOM     19  C   UNL     1     -10.663  -5.995   2.150  1.00  0.00     0.245 C 
ATOM     20  O   UNL     1     -11.535  -6.699   2.687  1.00  0.00    -0.272 OA
BRANCH  19  21
ATOM     21  N   UNL     1      -9.411  -5.912   2.733  1.00  0.00    -0.332 N 
ATOM     22  C   UNL     1      -8.356  -4.996   2.338  1.00  0.00     0.147 C 
BRANCH  21  23
ATOM     23  C   UNL     1      -9.103  -6.842   3.855  1.00  0.00     0.178 C 
BRANCH  23  24
ATOM     24  C   UNL     1      -7.797  -7.645   3.687  1.00  0.00     0.070 C 
BRANCH  24  25
ATOM     25  C   UNL     1      -7.701  -8.559   2.488  1.00  0.00    -0.045 A 
ATOM     26  C   UNL     1      -6.558  -8.561   1.677  1.00  0.00     0.004 A 
ATOM     27  C   UNL     1      -8.762  -9.418   2.166  1.00  0.00     0.004 A 
ATOM     28  C   UNL     1      -6.484  -9.396   0.561  1.00  0.00     0.000 A 
ATOM     29  C   UNL     1      -8.685 -10.254   1.050  1.00  0.00     0.000 A 
ATOM     30  C   UNL     1      -7.547 -10.239   0.247  1.00  0.00     0.000 A 
ENDBRANCH  24  25
ENDBRANCH  23  24
BRANCH  23  31
ATOM     31  C   UNL     1      -9.295  -6.193   5.247  1.00  0.00     0.243 C 
ATOM     32  O   UNL     1      -9.914  -5.150   5.439  1.00  0.00    -0.273 OA
ATOM     33  N   UNL     1      -8.546  -6.793   6.245  1.00  0.00    -0.341 N 
ATOM     34  H   UNL     1      -8.046  -7.658   6.023  1.00  0.00     0.164 HD
BRANCH  33  35
ATOM     35  C   UNL     1      -8.479  -6.276   7.614  1.00  0.00     0.194 C 
BRANCH  35  36
ATOM     36  C   UNL     1      -7.036  -6.162   8.180  1.00  0.00     0.017 C 
ATOM     37  C   UNL     1      -6.918  -5.003   9.184  1.00  0.00     0.010 C 
ATOM     38  C   UNL     1      -5.977  -5.938   7.094  1.00  0.00     0.010 C 
ENDBRANCH  35  36
BRANCH  35  39
ATOM     39  C   UNL     1      -9.426  -7.033   8.587  1.00  0.00     0.329 C 
ATOM     40  O   UNL     1     -10.328  -6.499   9.221  1.00  0.00    -0.250 OA
BRANCH  39  41
ATOM     41  O   UNL     1      -9.197  -8.381   8.590  1.00  0.00    -0.458 OA
BRANCH  41  42
ATOM     42  C   UNL     1      -9.888  -9.146   9.607  1.00  0.00     0.205 CG0
ATOM     43  C   UNL     1     -10.905 -10.035   8.893  1.00  0.00     0.056 C 
ATOM     44  G   UNL     1     -10.552  -8.165  10.593  1.00  0.00     0.000 G0
ENDBRANCH  41  42
ENDBRANCH  39  41
ENDBRANCH  35  39
ENDBRANCH  33  35
ENDBRANCH  23  31
ENDBRANCH  21  23
ENDBRANCH  19  21
ENDBRANCH  14  19
ENDBRANCH   7  14
ENDBRANCH   2   5
BRANCH   3  45
ATOM     45  C   UNL     1      -9.318  -2.973  -5.439  1.00  0.00     0.171 C 
BRANCH  45  46
ATOM     46  N   UNL     1      -8.645  -3.396  -6.659  1.00  0.00    -0.342 N 
ATOM     47  C   UNL     1      -9.245  -3.332  -7.892  1.00  0.00     0.247 C 
ATOM     48  O   UNL     1     -10.363  -2.847  -8.066  1.00  0.00    -0.273 OA
ATOM     49  H   UNL     1      -7.695  -3.752  -6.567  1.00  0.00     0.164 HD
BRANCH  47  50
ATOM     50  C   UNL     1      -8.430  -3.937  -9.044  1.00  0.00     0.212 CG0
ATOM     51  G   UNL     1      -8.276  -2.851 -10.128  1.00  0.00     0.000 G0
BRANCH  50  52
ATOM     52  N   UNL     1      -7.159  -4.343  -8.450  1.00  0.00    -0.339 N 
ATOM     53  C   UNL     1      -6.409  -5.396  -8.917  1.00  0.00     0.243 C 
ATOM     54  O   UNL     1      -6.779  -6.113  -9.843  1.00  0.00    -0.273 OA
ATOM     55  H   UNL     1      -6.852  -3.857  -7.610  1.00  0.00     0.164 HD
BRANCH  53  56
ATOM     56  C   UNL     1      -5.150  -5.690  -8.077  1.00  0.00     0.182 C 
BRANCH  56  57
ATOM     57  N   UNL     1      -4.619  -7.025  -8.374  1.00  0.00    -0.344 N 
ATOM     58  C   UNL     1      -3.282  -7.322  -8.282  1.00  0.00     0.220 C 
ATOM     59  O   UNL     1      -2.431  -6.479  -8.019  1.00  0.00    -0.275 OA
ATOM     60  H   UNL     1      -5.297  -7.773  -8.495  1.00  0.00     0.164 HD
BRANCH  58  61
ATOM     61  C   UNL     1      -2.968  -8.778  -8.577  1.00  0.00     0.100 C 
BRANCH  61  62
ATOM     62  C   UNL     1      -3.669  -9.761  -7.640  1.00  0.00     0.010 C 
BRANCH  62  63
ATOM     63  C   UNL     1      -4.415 -10.891  -8.360  1.00  0.00     0.000 C 
BRANCH  63  64
ATOM     64  C   UNL     1      -5.455 -11.605  -7.498  1.00  0.00    -0.003 C 
ATOM     65  C   UNL     1      -6.866 -11.359  -8.012  1.00  0.00     0.004 C 
ENDBRANCH  63  64
ENDBRANCH  62  63
ENDBRANCH  61  62
ENDBRANCH  58  61
ENDBRANCH  56  57
BRANCH  56  66
ATOM     66  C   UNL     1      -5.413  -5.493  -6.585  1.00  0.00     0.157 C 
BRANCH  66  67
ATOM     67  C   UNL     1      -6.268  -6.596  -6.033  1.00  0.00     0.305 C 
ATOM     68  O   UNL     1      -5.928  -7.750  -5.819  1.00  0.00    -0.252 OA
BRANCH  67  69
ATOM     69  O   UNL     1      -7.510  -6.176  -5.724  1.00  0.00    -0.481 OA
ATOM     70  H   UNL     1      -8.103  -6.703  -6.300  1.00  0.00     0.296 HD
ENDBRANCH  67  69
ENDBRANCH  66  67
ENDBRANCH  56  66
ENDBRANCH  53  56
ENDBRANCH  50  52
ENDBRANCH  47  50
ENDBRANCH  45  46
BRANCH  45  71
ATOM     71  C   UNL     1      -9.073  -1.489  -5.142  1.00  0.00     0.037 C 
BRANCH  71  72
ATOM     72  C   UNL     1      -9.080  -1.193  -3.641  1.00  0.00     0.026 C 
BRANCH  72  73
ATOM     73  C   UNL     1      -8.203   0.011  -3.303  1.00  0.00     0.146 C 
BRANCH  73  74
ATOM     74  N   UNL     1      -7.037  -0.476  -2.573  1.00  0.00    -0.254 NA
ATOM     75  C   UNL     1      -6.972  -0.232  -1.316  1.00  0.00     0.185 C 
ATOM     76  N   UNL     1      -5.912  -0.668  -0.616  1.00  0.00    -0.370 N 
ATOM     77  N   UNL     1      -7.846   0.430  -0.538  1.00  0.00    -0.370 N 
ATOM     78  H   UNL     1      -5.201  -1.170  -1.129  1.00  0.00     0.159 HD
ATOM     79  H   UNL     1      -5.722  -0.392   0.331  1.00  0.00     0.159 HD
ATOM     80  H   UNL     1      -8.694   0.812  -0.928  1.00  0.00     0.159 HD
ATOM     81  H   UNL     1      -7.745   0.460   0.463  1.00  0.00     0.159 HD
ENDBRANCH  73  74
ENDBRANCH  72  73
ENDBRANCH  71  72
ENDBRANCH  45  71
ENDBRANCH   3  45
TORSDOF 20
ENDMDL
MODEL 16
REMARK VINA RESULT:    -6.016      4.990      7.203
REMARK INTER + INTRA:         -24.093
REMARK INTER:                 -17.186
REMARK INTRA:                  -6.907
REMARK UNBOUND:                -6.822
REMARK SMILES CCCCCC(=O)N[C@H](CC(=O)O)C(=O)N[C@H]1C(=O)N[C@H](CCCN=C(N)N)C(=O)N[C@@H]2CC[C@H](O)N(C2=O)[C@@H](CC(C)C)C(=O)N(C)[C@@H](Cc2ccccc2)C(=O)N[C@H](C(C)C)C(=O)O[C@@H]1C
REMARK SMILES IDX 30 1 31 2 29 3 32 5 35 6 37 7 34 8 38 9 33 10 39 11 36 12
REMARK SMILES IDX 40 14 41 15 42 16 43 17 44 18 45 19 46 20 47 21 48 22 49 23
REMARK SMILES IDX 50 24 51 25 52 26 56 27 53 28 55 29 54 30 57 31 58 32 59 33
REMARK SMILES IDX 60 35 61 36 62 37 63 38 64 39 65 40 66 41 67 42 68 43 21 45
REMARK SMILES IDX 20 46 18 47 19 48 17 50 16 52 14 53 15 54 9 56 8 57 6 58
REMARK SMILES IDX 7 59 5 61 4 62 3 63 2 64 1 65 10 66 11 67 12 68 13 69 22 71
REMARK SMILES IDX 23 72 24 73 25 74 26 75 27 76 28 77
REMARK H PARENT 31 4 36 13 59 34 20 49 16 55 8 60 13 70 27 78 27 79 28 80
REMARK H PARENT 28 81
REMARK Flexibility Score:  259.900
ROOT
ATOM      1  O   UNL     1      -5.510  -3.399  -6.444  1.00  0.00    -0.273 OA
ATOM      2  N   UNL     1      -7.666  -2.642  -6.357  1.00  0.00    -0.343 N 
ATOM      3  C   UNL     1      -6.481  -2.898  -7.012  1.00  0.00     0.243 C 
ATOM      4  H   UNL     1      -8.449  -2.242  -6.861  1.00  0.00     0.164 HD
ENDROOT
BRANCH   2   5
ATOM      5  C   UNL     1      -7.780  -2.850  -4.918  1.00  0.00     0.171 C 
ATOM      6  C   UNL     1      -9.746  -2.009  -2.961  1.00  0.00     0.214 C 
ATOM      7  N   UNL     1      -8.598  -1.171  -3.219  1.00  0.00    -0.303 N 
ATOM      8  C   UNL     1      -9.470  -3.489  -3.169  1.00  0.00     0.057 C 
ATOM      9  C   UNL     1      -7.648  -1.488  -4.177  1.00  0.00     0.247 C 
ATOM     10  C   UNL     1      -8.986  -3.726  -4.583  1.00  0.00     0.040 C 
ATOM     11  O   UNL     1      -6.715  -0.724  -4.453  1.00  0.00    -0.272 OA
BRANCH   6  12
ATOM     12  O   UNL     1     -10.791  -1.579  -3.803  1.00  0.00    -0.373 OA
ATOM     13  H   UNL     1     -10.494  -1.724  -4.726  1.00  0.00     0.213 HD
ENDBRANCH   6  12
BRANCH   7  14
ATOM     14  C   UNL     1      -8.546   0.130  -2.519  1.00  0.00     0.177 C 
BRANCH  14  15
ATOM     15  C   UNL     1      -9.278   1.286  -3.229  1.00  0.00     0.038 C 
BRANCH  15  16
ATOM     16  C   UNL     1      -8.903   2.746  -2.890  1.00  0.00    -0.015 C 
ATOM     17  C   UNL     1     -10.094   3.700  -3.018  1.00  0.00     0.007 C 
ATOM     18  C   UNL     1      -7.796   3.230  -3.835  1.00  0.00     0.007 C 
ENDBRANCH  15  16
ENDBRANCH  14  15
BRANCH  14  19
ATOM     19  C   UNL     1      -8.486  -0.089  -0.968  1.00  0.00     0.245 C 
ATOM     20  O   UNL     1      -7.376  -0.371  -0.486  1.00  0.00    -0.272 OA
BRANCH  19  21
ATOM     21  N   UNL     1      -9.599  -0.096  -0.147  1.00  0.00    -0.332 N 
ATOM     22  C   UNL     1     -10.065  -1.230   0.632  1.00  0.00     0.147 C 
BRANCH  21  23
ATOM     23  C   UNL     1     -10.402   1.154  -0.052  1.00  0.00     0.178 C 
BRANCH  23  24
ATOM     24  C   UNL     1     -11.929   0.946  -0.113  1.00  0.00     0.070 C 
BRANCH  24  25
ATOM     25  C   UNL     1     -12.674   1.634  -1.234  1.00  0.00    -0.045 A 
ATOM     26  C   UNL     1     -13.228   2.907  -1.052  1.00  0.00     0.004 A 
ATOM     27  C   UNL     1     -12.824   1.000  -2.476  1.00  0.00     0.004 A 
ATOM     28  C   UNL     1     -13.929   3.529  -2.087  1.00  0.00     0.000 A 
ATOM     29  C   UNL     1     -13.524   1.623  -3.511  1.00  0.00     0.000 A 
ATOM     30  C   UNL     1     -14.079   2.886  -3.314  1.00  0.00     0.000 A 
ENDBRANCH  24  25
ENDBRANCH  23  24
BRANCH  23  31
ATOM     31  C   UNL     1      -9.917   2.100   1.072  1.00  0.00     0.243 C 
ATOM     32  O   UNL     1      -8.910   2.799   0.995  1.00  0.00    -0.273 OA
ATOM     33  N   UNL     1     -10.618   1.954   2.258  1.00  0.00    -0.341 N 
ATOM     34  H   UNL     1     -11.445   1.352   2.262  1.00  0.00     0.164 HD
BRANCH  33  35
ATOM     35  C   UNL     1     -10.257   2.659   3.491  1.00  0.00     0.194 C 
BRANCH  35  36
ATOM     36  C   UNL     1      -9.893   1.722   4.676  1.00  0.00     0.017 C 
ATOM     37  C   UNL     1      -8.914   0.620   4.237  1.00  0.00     0.010 C 
ATOM     38  C   UNL     1     -11.114   1.030   5.296  1.00  0.00     0.010 C 
ENDBRANCH  35  36
BRANCH  35  39
ATOM     39  C   UNL     1     -11.310   3.727   3.898  1.00  0.00     0.329 C 
ATOM     40  O   UNL     1     -12.455   3.764   3.461  1.00  0.00    -0.250 OA
BRANCH  39  41
ATOM     41  O   UNL     1     -10.845   4.574   4.866  1.00  0.00    -0.458 OA
BRANCH  41  42
ATOM     42  C   UNL     1     -11.613   4.628   6.092  1.00  0.00     0.205 CG0
ATOM     43  C   UNL     1     -12.188   6.039   6.206  1.00  0.00     0.056 C 
ATOM     44  G   UNL     1     -10.684   4.274   7.270  1.00  0.00     0.000 G0
ENDBRANCH  41  42
ENDBRANCH  39  41
ENDBRANCH  35  39
ENDBRANCH  33  35
ENDBRANCH  23  31
ENDBRANCH  21  23
ENDBRANCH  19  21
ENDBRANCH  14  19
ENDBRANCH   7  14
ENDBRANCH   2   5
BRANCH   3  45
ATOM     45  C   UNL     1      -6.461  -2.534  -8.502  1.00  0.00     0.171 C 
BRANCH  45  46
ATOM     46  N   UNL     1      -6.707  -3.780  -9.215  1.00  0.00    -0.342 N 
ATOM     47  C   UNL     1      -7.969  -4.290  -9.393  1.00  0.00     0.247 C 
ATOM     48  O   UNL     1      -8.986  -3.699  -9.029  1.00  0.00    -0.273 OA
ATOM     49  H   UNL     1      -5.896  -4.274  -9.583  1.00  0.00     0.164 HD
BRANCH  47  50
ATOM     50  C   UNL     1      -8.024  -5.673 -10.058  1.00  0.00     0.212 CG0
ATOM     51  G   UNL     1      -7.092  -5.638 -11.286  1.00  0.00     0.000 G0
BRANCH  50  52
ATOM     52  N   UNL     1      -7.590  -6.616  -9.031  1.00  0.00    -0.339 N 
ATOM     53  C   UNL     1      -6.556  -7.503  -9.208  1.00  0.00     0.243 C 
ATOM     54  O   UNL     1      -5.948  -7.608 -10.269  1.00  0.00    -0.273 OA
ATOM     55  H   UNL     1      -8.127  -6.655  -8.167  1.00  0.00     0.164 HD
BRANCH  53  56
ATOM     56  C   UNL     1      -6.337  -8.458  -8.016  1.00  0.00     0.182 C 
BRANCH  56  57
ATOM     57  N   UNL     1      -5.451  -7.855  -7.015  1.00  0.00    -0.344 N 
ATOM     58  C   UNL     1      -5.895  -6.934  -6.098  1.00  0.00     0.220 C 
ATOM     59  O   UNL     1      -7.041  -6.497  -6.098  1.00  0.00    -0.275 OA
ATOM     60  H   UNL     1      -4.525  -8.263  -6.915  1.00  0.00     0.164 HD
BRANCH  58  61
ATOM     61  C   UNL     1      -4.821  -6.491  -5.122  1.00  0.00     0.100 C 
BRANCH  61  62
ATOM     62  C   UNL     1      -5.058  -6.964  -3.688  1.00  0.00     0.010 C 
BRANCH  62  63
ATOM     63  C   UNL     1      -6.085  -6.128  -2.913  1.00  0.00     0.000 C 
BRANCH  63  64
ATOM     64  C   UNL     1      -7.096  -6.955  -2.120  1.00  0.00    -0.003 C 
ATOM     65  C   UNL     1      -8.449  -6.993  -2.816  1.00  0.00     0.004 C 
ENDBRANCH  63  64
ENDBRANCH  62  63
ENDBRANCH  61  62
ENDBRANCH  58  61
ENDBRANCH  56  57
BRANCH  56  66
ATOM     66  C   UNL     1      -5.839  -9.826  -8.479  1.00  0.00     0.157 C 
BRANCH  66  67
ATOM     67  C   UNL     1      -4.353  -9.952  -8.300  1.00  0.00     0.305 C 
ATOM     68  O   UNL     1      -3.770 -10.647  -7.482  1.00  0.00    -0.252 OA
BRANCH  67  69
ATOM     69  O   UNL     1      -3.666  -9.230  -9.206  1.00  0.00    -0.481 OA
ATOM     70  H   UNL     1      -2.931  -8.827  -8.698  1.00  0.00     0.296 HD
ENDBRANCH  67  69
ENDBRANCH  66  67
ENDBRANCH  56  66
ENDBRANCH  53  56
ENDBRANCH  50  52
ENDBRANCH  47  50
ENDBRANCH  45  46
BRANCH  45  71
ATOM     71  C   UNL     1      -5.109  -1.921  -8.885  1.00  0.00     0.037 C 
BRANCH  71  72
ATOM     72  C   UNL     1      -5.048  -0.423  -8.576  1.00  0.00     0.026 C 
BRANCH  72  73
ATOM     73  C   UNL     1      -4.186  -0.139  -7.348  1.00  0.00     0.146 C 
BRANCH  73  74
ATOM     74  N   UNL     1      -2.985  -0.964  -7.444  1.00  0.00    -0.254 NA
ATOM     75  C   UNL     1      -2.126  -0.885  -6.496  1.00  0.00     0.185 C 
ATOM     76  N   UNL     1      -1.012  -1.633  -6.555  1.00  0.00    -0.370 N 
ATOM     77  N   UNL     1      -2.162  -0.130  -5.384  1.00  0.00    -0.370 N 
ATOM     78  H   UNL     1      -0.902  -2.226  -7.365  1.00  0.00     0.159 HD
ATOM     79  H   UNL     1      -0.234  -1.518  -5.930  1.00  0.00     0.159 HD
ATOM     80  H   UNL     1      -2.944   0.481  -5.203  1.00  0.00     0.159 HD
ATOM     81  H   UNL     1      -1.482  -0.237  -4.650  1.00  0.00     0.159 HD
ENDBRANCH  73  74
ENDBRANCH  72  73
ENDBRANCH  71  72
ENDBRANCH  45  71
ENDBRANCH   3  45
TORSDOF 20
ENDMDL
MODEL 17
REMARK VINA RESULT:    -5.972      2.672      5.530
REMARK INTER + INTRA:         -23.967
REMARK INTER:                 -19.329
REMARK INTRA:                  -4.638
REMARK UNBOUND:                -6.822
REMARK SMILES CCCCCC(=O)N[C@H](CC(=O)O)C(=O)N[C@H]1C(=O)N[C@H](CCCN=C(N)N)C(=O)N[C@@H]2CC[C@H](O)N(C2=O)[C@@H](CC(C)C)C(=O)N(C)[C@@H](Cc2ccccc2)C(=O)N[C@H](C(C)C)C(=O)O[C@@H]1C
REMARK SMILES IDX 30 1 31 2 29 3 32 5 35 6 37 7 34 8 38 9 33 10 39 11 36 12
REMARK SMILES IDX 40 14 41 15 42 16 43 17 44 18 45 19 46 20 47 21 48 22 49 23
REMARK SMILES IDX 50 24 51 25 52 26 56 27 53 28 55 29 54 30 57 31 58 32 59 33
REMARK SMILES IDX 60 35 61 36 62 37 63 38 64 39 65 40 66 41 67 42 68 43 21 45
REMARK SMILES IDX 20 46 18 47 19 48 17 50 16 52 14 53 15 54 9 56 8 57 6 58
REMARK SMILES IDX 7 59 5 61 4 62 3 63 2 64 1 65 10 66 11 67 12 68 13 69 22 71
REMARK SMILES IDX 23 72 24 73 25 74 26 75 27 76 28 77
REMARK H PARENT 31 4 36 13 59 34 20 49 16 55 8 60 13 70 27 78 27 79 28 80
REMARK H PARENT 28 81
REMARK Flexibility Score:  259.900
ROOT
ATOM      1  O   UNL     1      -6.940  -3.333  -1.448  1.00  0.00    -0.273 OA
ATOM      2  N   UNL     1      -9.084  -3.309  -0.652  1.00  0.00    -0.343 N 
ATOM      3  C   UNL     1      -8.079  -2.867  -1.485  1.00  0.00     0.243 C 
ATOM      4  H   UNL     1     -10.013  -2.912  -0.720  1.00  0.00     0.164 HD
ENDROOT
BRANCH   2   5
ATOM      5  C   UNL     1      -8.802  -4.279   0.401  1.00  0.00     0.171 C 
ATOM      6  C   UNL     1     -10.429  -6.297   1.700  1.00  0.00     0.214 C 
ATOM      7  N   UNL     1     -10.362  -4.969   2.263  1.00  0.00    -0.303 N 
ATOM      8  C   UNL     1      -9.162  -6.703   0.963  1.00  0.00     0.057 C 
ATOM      9  C   UNL     1      -9.645  -3.944   1.665  1.00  0.00     0.247 C 
ATOM     10  C   UNL     1      -8.867  -5.707  -0.137  1.00  0.00     0.040 C 
ATOM     11  O   UNL     1      -9.663  -2.788   2.106  1.00  0.00    -0.272 OA
BRANCH   6  12
ATOM     12  O   UNL     1     -11.538  -6.342   0.832  1.00  0.00    -0.373 OA
ATOM     13  H   UNL     1     -11.328  -6.994   0.130  1.00  0.00     0.213 HD
ENDBRANCH   6  12
BRANCH   7  14
ATOM     14  C   UNL     1     -11.216  -4.695   3.438  1.00  0.00     0.177 C 
BRANCH  14  15
ATOM     15  C   UNL     1     -12.603  -4.106   3.118  1.00  0.00     0.038 C 
BRANCH  15  16
ATOM     16  C   UNL     1     -12.994  -2.725   3.691  1.00  0.00    -0.015 C 
ATOM     17  C   UNL     1     -14.335  -2.758   4.430  1.00  0.00     0.007 C 
ATOM     18  C   UNL     1     -13.098  -1.702   2.552  1.00  0.00     0.007 C 
ENDBRANCH  15  16
ENDBRANCH  14  15
BRANCH  14  19
ATOM     19  C   UNL     1     -10.907  -5.719   4.584  1.00  0.00     0.245 C 
ATOM     20  O   UNL     1      -9.727  -5.794   4.965  1.00  0.00    -0.272 OA
BRANCH  19  21
ATOM     21  N   UNL     1     -11.839  -6.602   5.100  1.00  0.00    -0.332 N 
ATOM     22  C   UNL     1     -12.161  -7.906   4.548  1.00  0.00     0.147 C 
BRANCH  21  23
ATOM     23  C   UNL     1     -12.589  -6.189   6.318  1.00  0.00     0.178 C 
BRANCH  23  24
ATOM     24  C   UNL     1     -14.121  -6.338   6.215  1.00  0.00     0.070 C 
BRANCH  24  25
ATOM     25  C   UNL     1     -14.946  -5.766   7.344  1.00  0.00    -0.045 A 
ATOM     26  C   UNL     1     -14.911  -4.397   7.637  1.00  0.00     0.004 A 
ATOM     27  C   UNL     1     -15.759  -6.605   8.122  1.00  0.00     0.004 A 
ATOM     28  C   UNL     1     -15.663  -3.879   8.694  1.00  0.00     0.000 A 
ATOM     29  C   UNL     1     -16.511  -6.086   9.176  1.00  0.00     0.000 A 
ATOM     30  C   UNL     1     -16.460  -4.724   9.464  1.00  0.00     0.000 A 
ENDBRANCH  24  25
ENDBRANCH  23  24
BRANCH  23  31
ATOM     31  C   UNL     1     -11.968  -6.738   7.625  1.00  0.00     0.243 C 
ATOM     32  O   UNL     1     -11.052  -6.190   8.233  1.00  0.00    -0.273 OA
ATOM     33  N   UNL     1     -12.411  -8.007   7.957  1.00  0.00    -0.341 N 
ATOM     34  H   UNL     1     -13.173  -8.414   7.410  1.00  0.00     0.164 HD
BRANCH  33  35
ATOM     35  C   UNL     1     -11.873  -8.771   9.086  1.00  0.00     0.194 C 
BRANCH  35  36
ATOM     36  C   UNL     1     -11.007  -9.994   8.670  1.00  0.00     0.017 C 
ATOM     37  C   UNL     1      -9.508  -9.710   8.863  1.00  0.00     0.010 C 
ATOM     38  C   UNL     1     -11.211 -10.409   7.208  1.00  0.00     0.010 C 
ENDBRANCH  35  36
BRANCH  35  39
ATOM     39  C   UNL     1     -12.965  -9.158  10.121  1.00  0.00     0.329 C 
ATOM     40  O   UNL     1     -14.169  -9.124   9.894  1.00  0.00    -0.250 OA
BRANCH  39  41
ATOM     41  O   UNL     1     -12.432  -9.627  11.290  1.00  0.00    -0.458 OA
BRANCH  41  42
ATOM     42  C   UNL     1     -13.372 -10.139  12.264  1.00  0.00     0.205 CG0
ATOM     43  C   UNL     1     -13.267 -11.662  12.239  1.00  0.00     0.056 C 
ATOM     44  G   UNL     1     -14.783  -9.639  11.896  1.00  0.00     0.000 G0
ENDBRANCH  41  42
ENDBRANCH  39  41
ENDBRANCH  35  39
ENDBRANCH  33  35
ENDBRANCH  23  31
ENDBRANCH  21  23
ENDBRANCH  19  21
ENDBRANCH  14  19
ENDBRANCH   7  14
ENDBRANCH   2   5
BRANCH   3  45
ATOM     45  C   UNL     1      -8.484  -1.767  -2.476  1.00  0.00     0.171 C 
BRANCH  45  46
ATOM     46  N   UNL     1      -7.535  -1.860  -3.577  1.00  0.00    -0.342 N 
ATOM     47  C   UNL     1      -7.873  -1.547  -4.869  1.00  0.00     0.247 C 
ATOM     48  O   UNL     1      -8.976  -1.097  -5.181  1.00  0.00    -0.273 OA
ATOM     49  H   UNL     1      -6.592  -2.175  -3.354  1.00  0.00     0.164 HD
BRANCH  47  50
ATOM     50  C   UNL     1      -6.782  -1.825  -5.913  1.00  0.00     0.212 CG0
ATOM     51  G   UNL     1      -5.488  -2.179  -5.153  1.00  0.00     0.000 G0
BRANCH  50  52
ATOM     52  N   UNL     1      -7.292  -2.925  -6.727  1.00  0.00    -0.339 N 
ATOM     53  C   UNL     1      -7.805  -2.756  -7.989  1.00  0.00     0.243 C 
ATOM     54  O   UNL     1      -7.925  -1.652  -8.513  1.00  0.00    -0.273 OA
ATOM     55  H   UNL     1      -7.323  -3.851  -6.304  1.00  0.00     0.164 HD
BRANCH  53  56
ATOM     56  C   UNL     1      -8.362  -4.049  -8.619  1.00  0.00     0.182 C 
BRANCH  56  57
ATOM     57  N   UNL     1      -7.277  -4.962  -8.992  1.00  0.00    -0.344 N 
ATOM     58  C   UNL     1      -6.907  -6.026  -8.206  1.00  0.00     0.220 C 
ATOM     59  O   UNL     1      -7.405  -6.243  -7.107  1.00  0.00    -0.275 OA
ATOM     60  H   UNL     1      -6.909  -4.878  -9.936  1.00  0.00     0.164 HD
BRANCH  58  61
ATOM     61  C   UNL     1      -5.802  -6.869  -8.816  1.00  0.00     0.100 C 
BRANCH  61  62
ATOM     62  C   UNL     1      -6.288  -8.201  -9.389  1.00  0.00     0.010 C 
BRANCH  62  63
ATOM     63  C   UNL     1      -6.265  -9.361  -8.385  1.00  0.00     0.000 C 
BRANCH  63  64
ATOM     64  C   UNL     1      -5.076  -9.336  -7.427  1.00  0.00    -0.003 C 
ATOM     65  C   UNL     1      -3.833  -9.937  -8.068  1.00  0.00     0.004 C 
ENDBRANCH  63  64
ENDBRANCH  62  63
ENDBRANCH  61  62
ENDBRANCH  58  61
ENDBRANCH  56  57
BRANCH  56  66
ATOM     66  C   UNL     1      -9.290  -3.746  -9.794  1.00  0.00     0.157 C 
BRANCH  66  67
ATOM     67  C   UNL     1      -9.047  -4.689 -10.937  1.00  0.00     0.305 C 
ATOM     68  O   UNL     1      -9.654  -5.722 -11.176  1.00  0.00    -0.252 OA
BRANCH  67  69
ATOM     69  O   UNL     1      -8.075  -4.254 -11.761  1.00  0.00    -0.481 OA
ATOM     70  H   UNL     1      -7.673  -3.491 -11.294  1.00  0.00     0.296 HD
ENDBRANCH  67  69
ENDBRANCH  66  67
ENDBRANCH  56  66
ENDBRANCH  53  56
ENDBRANCH  50  52
ENDBRANCH  47  50
ENDBRANCH  45  46
BRANCH  45  71
ATOM     71  C   UNL     1      -8.432  -0.393  -1.799  1.00  0.00     0.037 C 
BRANCH  71  72
ATOM     72  C   UNL     1      -7.038  -0.071  -1.256  1.00  0.00     0.026 C 
BRANCH  72  73
ATOM     73  C   UNL     1      -7.047   1.197  -0.404  1.00  0.00     0.146 C 
BRANCH  73  74
ATOM     74  N   UNL     1      -6.663   2.314  -1.261  1.00  0.00    -0.254 NA
ATOM     75  C   UNL     1      -7.413   3.354  -1.261  1.00  0.00     0.185 C 
ATOM     76  N   UNL     1      -7.085   4.399  -2.039  1.00  0.00    -0.370 N 
ATOM     77  N   UNL     1      -8.541   3.582  -0.567  1.00  0.00    -0.370 N 
ATOM     78  H   UNL     1      -6.252   4.307  -2.601  1.00  0.00     0.159 HD
ATOM     79  H   UNL     1      -7.695   5.181  -2.200  1.00  0.00     0.159 HD
ATOM     80  H   UNL     1      -8.907   2.884   0.063  1.00  0.00     0.159 HD
ATOM     81  H   UNL     1      -8.984   4.486  -0.561  1.00  0.00     0.159 HD
ENDBRANCH  73  74
ENDBRANCH  72  73
ENDBRANCH  71  72
ENDBRANCH  45  71
ENDBRANCH   3  45
TORSDOF 20
ENDMDL
MODEL 18
REMARK VINA RESULT:    -5.935      2.456      3.274
REMARK INTER + INTRA:         -23.860
REMARK INTER:                 -17.127
REMARK INTRA:                  -6.733
REMARK UNBOUND:                -6.822
REMARK SMILES CCCCCC(=O)N[C@H](CC(=O)O)C(=O)N[C@H]1C(=O)N[C@H](CCCN=C(N)N)C(=O)N[C@@H]2CC[C@H](O)N(C2=O)[C@@H](CC(C)C)C(=O)N(C)[C@@H](Cc2ccccc2)C(=O)N[C@H](C(C)C)C(=O)O[C@@H]1C
REMARK SMILES IDX 30 1 31 2 29 3 32 5 35 6 37 7 34 8 38 9 33 10 39 11 36 12
REMARK SMILES IDX 40 14 41 15 42 16 43 17 44 18 45 19 46 20 47 21 48 22 49 23
REMARK SMILES IDX 50 24 51 25 52 26 56 27 53 28 55 29 54 30 57 31 58 32 59 33
REMARK SMILES IDX 60 35 61 36 62 37 63 38 64 39 65 40 66 41 67 42 68 43 21 45
REMARK SMILES IDX 20 46 18 47 19 48 17 50 16 52 14 53 15 54 9 56 8 57 6 58
REMARK SMILES IDX 7 59 5 61 4 62 3 63 2 64 1 65 10 66 11 67 12 68 13 69 22 71
REMARK SMILES IDX 23 72 24 73 25 74 26 75 27 76 28 77
REMARK H PARENT 31 4 36 13 59 34 20 49 16 55 8 60 13 70 27 78 27 79 28 80
REMARK H PARENT 28 81
REMARK Flexibility Score:  259.900
ROOT
ATOM      1  O   UNL     1      -7.452  -4.240  -4.503  1.00  0.00    -0.273 OA
ATOM      2  N   UNL     1      -9.665  -4.593  -4.045  1.00  0.00    -0.343 N 
ATOM      3  C   UNL     1      -8.635  -4.014  -4.756  1.00  0.00     0.243 C 
ATOM      4  H   UNL     1     -10.627  -4.395  -4.291  1.00  0.00     0.164 HD
ENDROOT
BRANCH   2   5
ATOM      5  C   UNL     1      -9.387  -5.414  -2.872  1.00  0.00     0.171 C 
ATOM      6  C   UNL     1     -11.100  -6.881  -1.050  1.00  0.00     0.214 C 
ATOM      7  N   UNL     1     -10.751  -5.512  -0.750  1.00  0.00    -0.303 N 
ATOM      8  C   UNL     1     -10.028  -7.616  -1.840  1.00  0.00     0.057 C 
ATOM      9  C   UNL     1      -9.979  -4.739  -1.602  1.00  0.00     0.247 C 
ATOM     10  C   UNL     1      -9.745  -6.877  -3.130  1.00  0.00     0.040 C 
ATOM     11  O   UNL     1      -9.757  -3.541  -1.380  1.00  0.00    -0.272 OA
BRANCH   6  12
ATOM     12  O   UNL     1     -12.315  -6.870  -1.763  1.00  0.00    -0.373 OA
ATOM     13  H   UNL     1     -12.750  -6.011  -1.575  1.00  0.00     0.213 HD
ENDBRANCH   6  12
BRANCH   7  14
ATOM     14  C   UNL     1     -11.376  -4.908   0.445  1.00  0.00     0.177 C 
BRANCH  14  15
ATOM     15  C   UNL     1     -12.805  -4.370   0.237  1.00  0.00     0.038 C 
BRANCH  15  16
ATOM     16  C   UNL     1     -13.198  -3.002   0.839  1.00  0.00    -0.015 C 
ATOM     17  C   UNL     1     -12.078  -1.965   0.713  1.00  0.00     0.007 C 
ATOM     18  C   UNL     1     -13.535  -3.167   2.326  1.00  0.00     0.007 C 
ENDBRANCH  15  16
ENDBRANCH  14  15
BRANCH  14  19
ATOM     19  C   UNL     1     -10.851  -5.608   1.746  1.00  0.00     0.245 C 
ATOM     20  O   UNL     1     -11.678  -6.266   2.400  1.00  0.00    -0.272 OA
BRANCH  19  21
ATOM     21  N   UNL     1      -9.573  -5.440   2.250  1.00  0.00    -0.332 N 
ATOM     22  C   UNL     1      -8.590  -4.493   1.756  1.00  0.00     0.147 C 
BRANCH  21  23
ATOM     23  C   UNL     1      -9.155  -6.306   3.387  1.00  0.00     0.178 C 
BRANCH  23  24
ATOM     24  C   UNL     1      -7.838  -7.076   3.162  1.00  0.00     0.070 C 
BRANCH  24  25
ATOM     25  C   UNL     1      -7.826  -8.113   2.062  1.00  0.00    -0.045 A 
ATOM     26  C   UNL     1      -8.567  -9.295   2.184  1.00  0.00     0.004 A 
ATOM     27  C   UNL     1      -7.065  -7.905   0.902  1.00  0.00     0.004 A 
ATOM     28  C   UNL     1      -8.538 -10.256   1.171  1.00  0.00     0.000 A 
ATOM     29  C   UNL     1      -7.038  -8.866  -0.110  1.00  0.00     0.000 A 
ATOM     30  C   UNL     1      -7.772 -10.043   0.027  1.00  0.00     0.000 A 
ENDBRANCH  24  25
ENDBRANCH  23  24
BRANCH  23  31
ATOM     31  C   UNL     1      -9.269  -5.598   4.758  1.00  0.00     0.243 C 
ATOM     32  O   UNL     1     -10.040  -4.670   4.990  1.00  0.00    -0.273 OA
ATOM     33  N   UNL     1      -8.289  -5.978   5.660  1.00  0.00    -0.341 N 
ATOM     34  H   UNL     1      -7.672  -6.753   5.408  1.00  0.00     0.164 HD
BRANCH  33  35
ATOM     35  C   UNL     1      -8.130  -5.353   6.976  1.00  0.00     0.194 C 
BRANCH  35  36
ATOM     36  C   UNL     1      -6.654  -5.057   7.364  1.00  0.00     0.017 C 
ATOM     37  C   UNL     1      -5.713  -6.171   6.875  1.00  0.00     0.010 C 
ATOM     38  C   UNL     1      -6.445  -4.910   8.876  1.00  0.00     0.010 C 
ENDBRANCH  35  36
BRANCH  35  39
ATOM     39  C   UNL     1      -8.882  -6.124   8.098  1.00  0.00     0.329 C 
ATOM     40  O   UNL     1      -9.748  -5.629   8.809  1.00  0.00    -0.250 OA
BRANCH  39  41
ATOM     41  O   UNL     1      -8.531  -7.445   8.146  1.00  0.00    -0.458 OA
BRANCH  41  42
ATOM     42  C   UNL     1      -8.638  -8.090   9.438  1.00  0.00     0.205 CG0
ATOM     43  C   UNL     1      -9.702  -9.179   9.315  1.00  0.00     0.056 C 
ATOM     44  G   UNL     1      -9.003  -7.025  10.491  1.00  0.00     0.000 G0
ENDBRANCH  41  42
ENDBRANCH  39  41
ENDBRANCH  35  39
ENDBRANCH  33  35
ENDBRANCH  23  31
ENDBRANCH  21  23
ENDBRANCH  19  21
ENDBRANCH  14  19
ENDBRANCH   7  14
ENDBRANCH   2   5
BRANCH   3  45
ATOM     45  C   UNL     1      -9.067  -3.086  -5.899  1.00  0.00     0.171 C 
BRANCH  45  46
ATOM     46  N   UNL     1      -8.422  -3.608  -7.096  1.00  0.00    -0.342 N 
ATOM     47  C   UNL     1      -8.985  -3.501  -8.343  1.00  0.00     0.247 C 
ATOM     48  O   UNL     1     -10.036  -2.894  -8.551  1.00  0.00    -0.273 OA
ATOM     49  H   UNL     1      -7.522  -4.069  -6.976  1.00  0.00     0.164 HD
BRANCH  47  50
ATOM     50  C   UNL     1      -8.221  -4.219  -9.465  1.00  0.00     0.212 CG0
ATOM     51  G   UNL     1      -7.804  -3.156 -10.500  1.00  0.00     0.000 G0
BRANCH  50  52
ATOM     52  N   UNL     1      -7.086  -4.865  -8.812  1.00  0.00    -0.339 N 
ATOM     53  C   UNL     1      -6.799  -6.202  -8.944  1.00  0.00     0.243 C 
ATOM     54  O   UNL     1      -7.511  -6.972  -9.584  1.00  0.00    -0.273 OA
ATOM     55  H   UNL     1      -6.522  -4.303  -8.178  1.00  0.00     0.164 HD
BRANCH  53  56
ATOM     56  C   UNL     1      -5.604  -6.675  -8.093  1.00  0.00     0.182 C 
BRANCH  56  57
ATOM     57  N   UNL     1      -6.007  -7.730  -7.158  1.00  0.00    -0.344 N 
ATOM     58  C   UNL     1      -5.162  -8.746  -6.785  1.00  0.00     0.220 C 
ATOM     59  O   UNL     1      -4.041  -8.884  -7.262  1.00  0.00    -0.275 OA
ATOM     60  H   UNL     1      -6.886  -7.596  -6.665  1.00  0.00     0.164 HD
BRANCH  58  61
ATOM     61  C   UNL     1      -5.770  -9.690  -5.765  1.00  0.00     0.100 C 
BRANCH  61  62
ATOM     62  C   UNL     1      -5.538  -9.263  -4.315  1.00  0.00     0.010 C 
BRANCH  62  63
ATOM     63  C   UNL     1      -6.581  -8.274  -3.779  1.00  0.00     0.000 C 
BRANCH  63  64
ATOM     64  C   UNL     1      -5.985  -7.036  -3.109  1.00  0.00    -0.003 C 
ATOM     65  C   UNL     1      -4.788  -6.507  -3.886  1.00  0.00     0.004 C 
ENDBRANCH  63  64
ENDBRANCH  62  63
ENDBRANCH  61  62
ENDBRANCH  58  61
ENDBRANCH  56  57
BRANCH  56  66
ATOM     66  C   UNL     1      -4.924  -5.505  -7.384  1.00  0.00     0.157 C 
BRANCH  66  67
ATOM     67  C   UNL     1      -3.529  -5.294  -7.897  1.00  0.00     0.305 C 
ATOM     68  O   UNL     1      -3.095  -4.294  -8.450  1.00  0.00    -0.252 OA
BRANCH  67  69
ATOM     69  O   UNL     1      -2.725  -6.343  -7.641  1.00  0.00    -0.481 OA
ATOM     70  H   UNL     1      -2.132  -6.400  -8.420  1.00  0.00     0.296 HD
ENDBRANCH  67  69
ENDBRANCH  66  67
ENDBRANCH  56  66
ENDBRANCH  53  56
ENDBRANCH  50  52
ENDBRANCH  47  50
ENDBRANCH  45  46
BRANCH  45  71
ATOM     71  C   UNL     1      -8.636  -1.644  -5.607  1.00  0.00     0.037 C 
BRANCH  71  72
ATOM     72  C   UNL     1      -9.542  -0.970  -4.574  1.00  0.00     0.026 C 
BRANCH  72  73
ATOM     73  C   UNL     1      -8.730  -0.204  -3.532  1.00  0.00     0.146 C 
BRANCH  73  74
ATOM     74  N   UNL     1      -7.799  -1.143  -2.913  1.00  0.00    -0.254 NA
ATOM     75  C   UNL     1      -7.187  -0.768  -1.851  1.00  0.00     0.185 C 
ATOM     76  N   UNL     1      -6.325  -1.610  -1.258  1.00  0.00    -0.370 N 
ATOM     77  N   UNL     1      -7.274   0.402  -1.194  1.00  0.00    -0.370 N 
ATOM     78  H   UNL     1      -6.194  -2.512  -1.694  1.00  0.00     0.159 HD
ATOM     79  H   UNL     1      -5.707  -1.336  -0.515  1.00  0.00     0.159 HD
ATOM     80  H   UNL     1      -7.889   1.132  -1.524  1.00  0.00     0.159 HD
ATOM     81  H   UNL     1      -6.830   0.541  -0.302  1.00  0.00     0.159 HD
ENDBRANCH  73  74
ENDBRANCH  72  73
ENDBRANCH  71  72
ENDBRANCH  45  71
ENDBRANCH   3  45
TORSDOF 20
ENDMDL
MODEL 19
REMARK VINA RESULT:    -5.906      8.148     14.245
REMARK INTER + INTRA:         -23.776
REMARK INTER:                 -17.755
REMARK INTRA:                  -6.021
REMARK UNBOUND:                -6.822
REMARK SMILES CCCCCC(=O)N[C@H](CC(=O)O)C(=O)N[C@H]1C(=O)N[C@H](CCCN=C(N)N)C(=O)N[C@@H]2CC[C@H](O)N(C2=O)[C@@H](CC(C)C)C(=O)N(C)[C@@H](Cc2ccccc2)C(=O)N[C@H](C(C)C)C(=O)O[C@@H]1C
REMARK SMILES IDX 30 1 31 2 29 3 32 5 35 6 37 7 34 8 38 9 33 10 39 11 36 12
REMARK SMILES IDX 40 14 41 15 42 16 43 17 44 18 45 19 46 20 47 21 48 22 49 23
REMARK SMILES IDX 50 24 51 25 52 26 56 27 53 28 55 29 54 30 57 31 58 32 59 33
REMARK SMILES IDX 60 35 61 36 62 37 63 38 64 39 65 40 66 41 67 42 68 43 21 45
REMARK SMILES IDX 20 46 18 47 19 48 17 50 16 52 14 53 15 54 9 56 8 57 6 58
REMARK SMILES IDX 7 59 5 61 4 62 3 63 2 64 1 65 10 66 11 67 12 68 13 69 22 71
REMARK SMILES IDX 23 72 24 73 25 74 26 75 27 76 28 77
REMARK H PARENT 31 4 36 13 59 34 20 49 16 55 8 60 13 70 27 78 27 79 28 80
REMARK H PARENT 28 81
REMARK Flexibility Score:  259.900
ROOT
ATOM      1  O   UNL     1     -14.232  -5.028   5.467  1.00  0.00    -0.273 OA
ATOM      2  N   UNL     1     -12.344  -3.951   6.178  1.00  0.00    -0.343 N 
ATOM      3  C   UNL     1     -13.489  -4.688   6.389  1.00  0.00     0.243 C 
ATOM      4  H   UNL     1     -11.749  -3.703   6.959  1.00  0.00     0.164 HD
ENDROOT
BRANCH   2   5
ATOM      5  C   UNL     1     -12.026  -3.436   4.851  1.00  0.00     0.171 C 
ATOM      6  C   UNL     1     -10.051  -1.538   3.902  1.00  0.00     0.214 C 
ATOM      7  N   UNL     1     -11.364  -1.068   4.279  1.00  0.00    -0.303 N 
ATOM      8  C   UNL     1     -10.051  -2.961   3.368  1.00  0.00     0.057 C 
ATOM      9  C   UNL     1     -12.337  -1.913   4.788  1.00  0.00     0.247 C 
ATOM     10  C   UNL     1     -10.640  -3.896   4.402  1.00  0.00     0.040 C 
ATOM     11  O   UNL     1     -13.429  -1.490   5.189  1.00  0.00    -0.272 OA
BRANCH   6  12
ATOM     12  O   UNL     1      -9.216  -1.436   5.033  1.00  0.00    -0.373 OA
ATOM     13  H   UNL     1      -8.985  -2.351   5.303  1.00  0.00     0.213 HD
ENDBRANCH   6  12
BRANCH   7  14
ATOM     14  C   UNL     1     -11.590   0.392   4.240  1.00  0.00     0.177 C 
BRANCH  14  15
ATOM     15  C   UNL     1     -11.182   1.154   5.516  1.00  0.00     0.038 C 
BRANCH  15  16
ATOM     16  C   UNL     1     -12.234   1.415   6.616  1.00  0.00    -0.015 C 
ATOM     17  C   UNL     1     -13.293   2.433   6.182  1.00  0.00     0.007 C 
ATOM     18  C   UNL     1     -11.544   1.948   7.878  1.00  0.00     0.007 C 
ENDBRANCH  15  16
ENDBRANCH  14  15
BRANCH  14  19
ATOM     19  C   UNL     1     -11.434   0.927   2.775  1.00  0.00     0.245 C 
ATOM     20  O   UNL     1     -12.236   0.491   1.932  1.00  0.00    -0.272 OA
BRANCH  19  21
ATOM     21  N   UNL     1     -10.404   1.752   2.361  1.00  0.00    -0.332 N 
ATOM     22  C   UNL     1      -9.055   1.320   2.041  1.00  0.00     0.147 C 
BRANCH  21  23
ATOM     23  C   UNL     1     -10.685   3.209   2.239  1.00  0.00     0.178 C 
BRANCH  23  24
ATOM     24  C   UNL     1      -9.934   4.099   3.250  1.00  0.00     0.070 C 
BRANCH  24  25
ATOM     25  C   UNL     1     -10.766   4.807   4.295  1.00  0.00    -0.045 A 
ATOM     26  C   UNL     1     -11.938   5.485   3.939  1.00  0.00     0.004 A 
ATOM     27  C   UNL     1     -10.369   4.797   5.641  1.00  0.00     0.004 A 
ATOM     28  C   UNL     1     -12.692   6.152   4.908  1.00  0.00     0.000 A 
ATOM     29  C   UNL     1     -11.124   5.463   6.608  1.00  0.00     0.000 A 
ATOM     30  C   UNL     1     -12.284   6.142   6.240  1.00  0.00     0.000 A 
ENDBRANCH  24  25
ENDBRANCH  23  24
BRANCH  23  31
ATOM     31  C   UNL     1     -10.646   3.711   0.776  1.00  0.00     0.243 C 
ATOM     32  O   UNL     1     -11.296   3.212  -0.139  1.00  0.00    -0.273 OA
ATOM     33  N   UNL     1      -9.668   4.663   0.543  1.00  0.00    -0.341 N 
ATOM     34  H   UNL     1      -9.155   5.038   1.345  1.00  0.00     0.164 HD
BRANCH  33  35
ATOM     35  C   UNL     1      -9.370   5.194  -0.790  1.00  0.00     0.194 C 
BRANCH  35  36
ATOM     36  C   UNL     1      -7.866   5.127  -1.179  1.00  0.00     0.017 C 
ATOM     37  C   UNL     1      -7.572   5.979  -2.426  1.00  0.00     0.010 C 
ATOM     38  C   UNL     1      -7.381   3.702  -1.472  1.00  0.00     0.010 C 
ENDBRANCH  35  36
BRANCH  35  39
ATOM     39  C   UNL     1      -9.965   6.612  -1.016  1.00  0.00     0.329 C 
ATOM     40  O   UNL     1      -9.663   7.596  -0.352  1.00  0.00    -0.250 OA
BRANCH  39  41
ATOM     41  O   UNL     1     -10.802   6.658  -2.097  1.00  0.00    -0.458 OA
BRANCH  41  42
ATOM     42  C   UNL     1     -10.998   7.960  -2.700  1.00  0.00     0.205 CG0
ATOM     43  C   UNL     1     -10.438   7.892  -4.119  1.00  0.00     0.056 C 
ATOM     44  G   UNL     1     -10.283   9.016  -1.834  1.00  0.00     0.000 G0
ENDBRANCH  41  42
ENDBRANCH  39  41
ENDBRANCH  35  39
ENDBRANCH  33  35
ENDBRANCH  23  31
ENDBRANCH  21  23
ENDBRANCH  19  21
ENDBRANCH  14  19
ENDBRANCH   7  14
ENDBRANCH   2   5
BRANCH   3  45
ATOM     45  C   UNL     1     -13.763  -5.075   7.848  1.00  0.00     0.171 C 
BRANCH  45  46
ATOM     46  N   UNL     1     -12.876  -6.196   8.132  1.00  0.00    -0.342 N 
ATOM     47  C   UNL     1     -12.359  -6.428   9.381  1.00  0.00     0.247 C 
ATOM     48  O   UNL     1     -12.663  -5.754  10.366  1.00  0.00    -0.273 OA
ATOM     49  H   UNL     1     -12.643  -6.813   7.356  1.00  0.00     0.164 HD
BRANCH  47  50
ATOM     50  C   UNL     1     -11.347  -7.579   9.462  1.00  0.00     0.212 CG0
ATOM     51  G   UNL     1     -12.076  -8.873   9.049  1.00  0.00     0.000 G0
BRANCH  50  52
ATOM     52  N   UNL     1     -10.264  -7.211   8.554  1.00  0.00    -0.339 N 
ATOM     53  C   UNL     1      -8.954  -7.093   8.948  1.00  0.00     0.243 C 
ATOM     54  O   UNL     1      -8.598  -7.237  10.114  1.00  0.00    -0.273 OA
ATOM     55  H   UNL     1     -10.512  -6.969   7.596  1.00  0.00     0.164 HD
BRANCH  53  56
ATOM     56  C   UNL     1      -8.004  -6.608   7.833  1.00  0.00     0.182 C 
BRANCH  56  57
ATOM     57  N   UNL     1      -6.662  -6.345   8.362  1.00  0.00    -0.344 N 
ATOM     58  C   UNL     1      -5.523  -6.606   7.641  1.00  0.00     0.220 C 
ATOM     59  O   UNL     1      -5.544  -7.143   6.539  1.00  0.00    -0.275 OA
ATOM     60  H   UNL     1      -6.604  -5.810   9.224  1.00  0.00     0.164 HD
BRANCH  58  61
ATOM     61  C   UNL     1      -4.249  -6.202   8.361  1.00  0.00     0.100 C 
BRANCH  61  62
ATOM     62  C   UNL     1      -4.429  -6.004   9.866  1.00  0.00     0.010 C 
BRANCH  62  63
ATOM     63  C   UNL     1      -3.977  -4.630  10.377  1.00  0.00     0.000 C 
BRANCH  63  64
ATOM     64  C   UNL     1      -2.667  -4.654  11.164  1.00  0.00    -0.003 C 
ATOM     65  C   UNL     1      -1.487  -4.256  10.289  1.00  0.00     0.004 C 
ENDBRANCH  63  64
ENDBRANCH  62  63
ENDBRANCH  61  62
ENDBRANCH  58  61
ENDBRANCH  56  57
BRANCH  56  66
ATOM     66  C   UNL     1      -8.579  -5.402   7.093  1.00  0.00     0.157 C 
BRANCH  66  67
ATOM     67  C   UNL     1      -8.228  -4.119   7.789  1.00  0.00     0.305 C 
ATOM     68  O   UNL     1      -8.156  -3.935   8.995  1.00  0.00    -0.252 OA
BRANCH  67  69
ATOM     69  O   UNL     1      -7.931  -3.131   6.923  1.00  0.00    -0.481 OA
ATOM     70  H   UNL     1      -7.190  -2.645   7.343  1.00  0.00     0.296 HD
ENDBRANCH  67  69
ENDBRANCH  66  67
ENDBRANCH  56  66
ENDBRANCH  53  56
ENDBRANCH  50  52
ENDBRANCH  47  50
ENDBRANCH  45  46
BRANCH  45  71
ATOM     71  C   UNL     1     -15.235  -5.459   8.032  1.00  0.00     0.037 C 
BRANCH  71  72
ATOM     72  C   UNL     1     -15.971  -4.491   8.962  1.00  0.00     0.026 C 
BRANCH  72  73
ATOM     73  C   UNL     1     -17.092  -5.192   9.727  1.00  0.00     0.146 C 
BRANCH  73  74
ATOM     74  N   UNL     1     -16.477  -6.034  10.749  1.00  0.00    -0.254 NA
ATOM     75  C   UNL     1     -16.957  -7.210  10.924  1.00  0.00     0.185 C 
ATOM     76  N   UNL     1     -16.413  -8.009  11.856  1.00  0.00    -0.370 N 
ATOM     77  N   UNL     1     -17.979  -7.809  10.287  1.00  0.00    -0.370 N 
ATOM     78  H   UNL     1     -15.641  -7.632  12.387  1.00  0.00     0.159 HD
ATOM     79  H   UNL     1     -16.822  -8.879  12.147  1.00  0.00     0.159 HD
ATOM     80  H   UNL     1     -18.482  -7.328   9.557  1.00  0.00     0.159 HD
ATOM     81  H   UNL     1     -18.193  -8.782  10.431  1.00  0.00     0.159 HD
ENDBRANCH  73  74
ENDBRANCH  72  73
ENDBRANCH  71  72
ENDBRANCH  45  71
ENDBRANCH   3  45
TORSDOF 20
ENDMDL
MODEL 20
REMARK VINA RESULT:    -5.891      8.588     16.014
REMARK INTER + INTRA:         -23.734
REMARK INTER:                 -18.687
REMARK INTRA:                  -5.047
REMARK UNBOUND:                -6.822
REMARK SMILES CCCCCC(=O)N[C@H](CC(=O)O)C(=O)N[C@H]1C(=O)N[C@H](CCCN=C(N)N)C(=O)N[C@@H]2CC[C@H](O)N(C2=O)[C@@H](CC(C)C)C(=O)N(C)[C@@H](Cc2ccccc2)C(=O)N[C@H](C(C)C)C(=O)O[C@@H]1C
REMARK SMILES IDX 30 1 31 2 29 3 32 5 35 6 37 7 34 8 38 9 33 10 39 11 36 12
REMARK SMILES IDX 40 14 41 15 42 16 43 17 44 18 45 19 46 20 47 21 48 22 49 23
REMARK SMILES IDX 50 24 51 25 52 26 56 27 53 28 55 29 54 30 57 31 58 32 59 33
REMARK SMILES IDX 60 35 61 36 62 37 63 38 64 39 65 40 66 41 67 42 68 43 21 45
REMARK SMILES IDX 20 46 18 47 19 48 17 50 16 52 14 53 15 54 9 56 8 57 6 58
REMARK SMILES IDX 7 59 5 61 4 62 3 63 2 64 1 65 10 66 11 67 12 68 13 69 22 71
REMARK SMILES IDX 23 72 24 73 25 74 26 75 27 76 28 77
REMARK H PARENT 31 4 36 13 59 34 20 49 16 55 8 60 13 70 27 78 27 79 28 80
REMARK H PARENT 28 81
REMARK Flexibility Score:  259.900
ROOT
ATOM      1  O   UNL     1      -5.520  -3.185  -8.354  1.00  0.00    -0.273 OA
ATOM      2  N   UNL     1      -5.309  -1.183  -7.269  1.00  0.00    -0.343 N 
ATOM      3  C   UNL     1      -5.998  -2.327  -7.612  1.00  0.00     0.243 C 
ATOM      4  H   UNL     1      -5.728  -0.505  -6.644  1.00  0.00     0.164 HD
ENDROOT
BRANCH   2   5
ATOM      5  C   UNL     1      -4.016  -0.885  -7.875  1.00  0.00     0.171 C 
ATOM      6  C   UNL     1      -1.774   0.741  -7.019  1.00  0.00     0.214 C 
ATOM      7  N   UNL     1      -2.813   1.333  -7.829  1.00  0.00    -0.303 N 
ATOM      8  C   UNL     1      -1.576  -0.743  -7.285  1.00  0.00     0.057 C 
ATOM      9  C   UNL     1      -3.936   0.627  -8.229  1.00  0.00     0.247 C 
ATOM     10  C   UNL     1      -2.875  -1.483  -7.053  1.00  0.00     0.040 C 
ATOM     11  O   UNL     1      -4.862   1.165  -8.849  1.00  0.00    -0.272 OA
BRANCH   6  12
ATOM     12  O   UNL     1      -2.105   0.959  -5.667  1.00  0.00    -0.373 OA
ATOM     13  H   UNL     1      -2.224   1.926  -5.553  1.00  0.00     0.213 HD
ENDBRANCH   6  12
BRANCH   7  14
ATOM     14  C   UNL     1      -2.707   2.783  -8.100  1.00  0.00     0.177 C 
BRANCH  14  15
ATOM     15  C   UNL     1      -3.602   3.681  -7.223  1.00  0.00     0.038 C 
BRANCH  15  16
ATOM     16  C   UNL     1      -3.154   5.125  -6.907  1.00  0.00    -0.015 C 
ATOM     17  C   UNL     1      -3.967   5.754  -5.772  1.00  0.00     0.007 C 
ATOM     18  C   UNL     1      -3.314   6.002  -8.155  1.00  0.00     0.007 C 
ENDBRANCH  15  16
ENDBRANCH  14  15
BRANCH  14  19
ATOM     19  C   UNL     1      -1.261   3.142  -8.585  1.00  0.00     0.245 C 
ATOM     20  O   UNL     1      -0.434   3.441  -7.707  1.00  0.00    -0.272 OA
BRANCH  19  21
ATOM     21  N   UNL     1      -0.899   3.249  -9.916  1.00  0.00    -0.332 N 
ATOM     22  C   UNL     1      -1.710   2.833 -11.047  1.00  0.00     0.147 C 
BRANCH  21  23
ATOM     23  C   UNL     1       0.437   3.829 -10.230  1.00  0.00     0.178 C 
BRANCH  23  24
ATOM     24  C   UNL     1       1.248   3.048 -11.283  1.00  0.00     0.070 C 
BRANCH  24  25
ATOM     25  C   UNL     1       2.754   3.128 -11.190  1.00  0.00    -0.045 A 
ATOM     26  C   UNL     1       3.525   3.477 -12.307  1.00  0.00     0.004 A 
ATOM     27  C   UNL     1       3.405   2.850  -9.978  1.00  0.00     0.004 A 
ATOM     28  C   UNL     1       4.917   3.532 -12.217  1.00  0.00     0.000 A 
ATOM     29  C   UNL     1       4.796   2.907  -9.890  1.00  0.00     0.000 A 
ATOM     30  C   UNL     1       5.552   3.246 -11.011  1.00  0.00     0.000 A 
ENDBRANCH  24  25
ENDBRANCH  23  24
BRANCH  23  31
ATOM     31  C   UNL     1       0.395   5.361 -10.444  1.00  0.00     0.243 C 
ATOM     32  O   UNL     1       0.283   6.179  -9.535  1.00  0.00    -0.273 OA
ATOM     33  N   UNL     1       0.308   5.730 -11.775  1.00  0.00    -0.341 N 
ATOM     34  H   UNL     1       0.402   5.003 -12.488  1.00  0.00     0.164 HD
BRANCH  33  35
ATOM     35  C   UNL     1       0.137   7.120 -12.209  1.00  0.00     0.194 C 
BRANCH  35  36
ATOM     36  C   UNL     1      -1.274   7.440 -12.776  1.00  0.00     0.017 C 
ATOM     37  C   UNL     1      -2.067   8.351 -11.823  1.00  0.00     0.010 C 
ATOM     38  C   UNL     1      -2.123   6.187 -13.026  1.00  0.00     0.010 C 
ENDBRANCH  35  36
BRANCH  35  39
ATOM     39  C   UNL     1       1.268   7.590 -13.167  1.00  0.00     0.329 C 
ATOM     40  O   UNL     1       1.088   8.320 -14.134  1.00  0.00    -0.250 OA
BRANCH  39  41
ATOM     41  O   UNL     1       2.503   7.169 -12.759  1.00  0.00    -0.458 OA
BRANCH  41  42
ATOM     42  C   UNL     1       3.424   8.201 -12.332  1.00  0.00     0.205 CG0
ATOM     43  C   UNL     1       3.157   8.464 -10.851  1.00  0.00     0.056 C 
ATOM     44  G   UNL     1       3.197   9.453 -13.202  1.00  0.00     0.000 G0
ENDBRANCH  41  42
ENDBRANCH  39  41
ENDBRANCH  35  39
ENDBRANCH  33  35
ENDBRANCH  23  31
ENDBRANCH  21  23
ENDBRANCH  19  21
ENDBRANCH  14  19
ENDBRANCH   7  14
ENDBRANCH   2   5
BRANCH   3  45
ATOM     45  C   UNL     1      -7.393  -2.466  -6.988  1.00  0.00     0.171 C 
BRANCH  45  46
ATOM     46  N   UNL     1      -7.404  -3.768  -6.334  1.00  0.00    -0.342 N 
ATOM     47  C   UNL     1      -7.405  -3.906  -4.968  1.00  0.00     0.247 C 
ATOM     48  O   UNL     1      -7.472  -2.946  -4.200  1.00  0.00    -0.273 OA
ATOM     49  H   UNL     1      -7.406  -4.590  -6.934  1.00  0.00     0.164 HD
BRANCH  47  50
ATOM     50  C   UNL     1      -7.290  -5.350  -4.461  1.00  0.00     0.212 CG0
ATOM     51  G   UNL     1      -8.711  -5.840  -4.119  1.00  0.00     0.000 G0
BRANCH  50  52
ATOM     52  N   UNL     1      -6.669  -6.098  -5.551  1.00  0.00    -0.339 N 
ATOM     53  C   UNL     1      -5.421  -6.664  -5.463  1.00  0.00     0.243 C 
ATOM     54  O   UNL     1      -4.705  -6.539  -4.474  1.00  0.00    -0.273 OA
ATOM     55  H   UNL     1      -7.167  -6.142  -6.438  1.00  0.00     0.164 HD
BRANCH  53  56
ATOM     56  C   UNL     1      -4.940  -7.328  -6.770  1.00  0.00     0.182 C 
BRANCH  56  57
ATOM     57  N   UNL     1      -4.805  -8.779  -6.604  1.00  0.00    -0.344 N 
ATOM     58  C   UNL     1      -5.606  -9.674  -7.270  1.00  0.00     0.220 C 
ATOM     59  O   UNL     1      -6.534  -9.324  -7.991  1.00  0.00    -0.275 OA
ATOM     60  H   UNL     1      -3.987  -9.110  -6.098  1.00  0.00     0.164 HD
BRANCH  58  61
ATOM     61  C   UNL     1      -5.250 -11.123  -6.992  1.00  0.00     0.100 C 
BRANCH  61  62
ATOM     62  C   UNL     1      -5.389 -12.036  -8.210  1.00  0.00     0.010 C 
BRANCH  62  63
ATOM     63  C   UNL     1      -4.241 -11.914  -9.220  1.00  0.00     0.000 C 
BRANCH  63  64
ATOM     64  C   UNL     1      -4.611 -11.168 -10.502  1.00  0.00    -0.003 C 
ATOM     65  C   UNL     1      -4.809 -12.129 -11.665  1.00  0.00     0.004 C 
ENDBRANCH  63  64
ENDBRANCH  62  63
ENDBRANCH  61  62
ENDBRANCH  58  61
ENDBRANCH  56  57
BRANCH  56  66
ATOM     66  C   UNL     1      -3.654  -6.684  -7.285  1.00  0.00     0.157 C 
BRANCH  66  67
ATOM     67  C   UNL     1      -3.319  -7.170  -8.666  1.00  0.00     0.305 C 
ATOM     68  O   UNL     1      -2.203  -7.349  -9.129  1.00  0.00    -0.252 OA
BRANCH  67  69
ATOM     69  O   UNL     1      -4.418  -7.458  -9.388  1.00  0.00    -0.481 OA
ATOM     70  H   UNL     1      -5.167  -7.313  -8.772  1.00  0.00     0.296 HD
ENDBRANCH  67  69
ENDBRANCH  66  67
ENDBRANCH  56  66
ENDBRANCH  53  56
ENDBRANCH  50  52
ENDBRANCH  47  50
ENDBRANCH  45  46
BRANCH  45  71
ATOM     71  C   UNL     1      -8.474  -2.368  -8.069  1.00  0.00     0.037 C 
BRANCH  71  72
ATOM     72  C   UNL     1      -9.389  -3.595  -8.082  1.00  0.00     0.026 C 
BRANCH  72  73
ATOM     73  C   UNL     1      -9.253  -4.381  -9.384  1.00  0.00     0.146 C 
BRANCH  73  74
ATOM     74  N   UNL     1      -8.333  -3.653 -10.252  1.00  0.00    -0.254 NA
ATOM     75  C   UNL     1      -7.241  -4.234 -10.590  1.00  0.00     0.185 C 
ATOM     76  N   UNL     1      -6.375  -3.590 -11.389  1.00  0.00    -0.370 N 
ATOM     77  N   UNL     1      -6.797  -5.458 -10.254  1.00  0.00    -0.370 N 
ATOM     78  H   UNL     1      -6.630  -2.658 -11.683  1.00  0.00     0.159 HD
ATOM     79  H   UNL     1      -5.444  -3.920 -11.576  1.00  0.00     0.159 HD
ATOM     80  H   UNL     1      -7.347  -6.059  -9.660  1.00  0.00     0.159 HD
ATOM     81  H   UNL     1      -5.973  -5.854 -10.675  1.00  0.00     0.159 HD
ENDBRANCH  73  74
ENDBRANCH  72  73
ENDBRANCH  71  72
ENDBRANCH  45  71
ENDBRANCH   3  45
TORSDOF 20
ENDMDL
MODEL 21
REMARK VINA RESULT:    -5.889      2.424      3.917
REMARK INTER + INTRA:         -23.726
REMARK INTER:                 -19.280
REMARK INTRA:                  -4.446
REMARK UNBOUND:                -6.822
REMARK SMILES CCCCCC(=O)N[C@H](CC(=O)O)C(=O)N[C@H]1C(=O)N[C@H](CCCN=C(N)N)C(=O)N[C@@H]2CC[C@H](O)N(C2=O)[C@@H](CC(C)C)C(=O)N(C)[C@@H](Cc2ccccc2)C(=O)N[C@H](C(C)C)C(=O)O[C@@H]1C
REMARK SMILES IDX 30 1 31 2 29 3 32 5 35 6 37 7 34 8 38 9 33 10 39 11 36 12
REMARK SMILES IDX 40 14 41 15 42 16 43 17 44 18 45 19 46 20 47 21 48 22 49 23
REMARK SMILES IDX 50 24 51 25 52 26 56 27 53 28 55 29 54 30 57 31 58 32 59 33
REMARK SMILES IDX 60 35 61 36 62 37 63 38 64 39 65 40 66 41 67 42 68 43 21 45
REMARK SMILES IDX 20 46 18 47 19 48 17 50 16 52 14 53 15 54 9 56 8 57 6 58
REMARK SMILES IDX 7 59 5 61 4 62 3 63 2 64 1 65 10 66 11 67 12 68 13 69 22 71
REMARK SMILES IDX 23 72 24 73 25 74 26 75 27 76 28 77
REMARK H PARENT 31 4 36 13 59 34 20 49 16 55 8 60 13 70 27 78 27 79 28 80
REMARK H PARENT 28 81
REMARK Flexibility Score:  259.900
ROOT
ATOM      1  O   UNL     1      -6.806  -4.724  -3.106  1.00  0.00    -0.273 OA
ATOM      2  N   UNL     1      -8.990  -5.174  -2.598  1.00  0.00    -0.343 N 
ATOM      3  C   UNL     1      -8.003  -4.493  -3.278  1.00  0.00     0.243 C 
ATOM      4  H   UNL     1      -9.965  -4.968  -2.776  1.00  0.00     0.164 HD
ENDROOT
BRANCH   2   5
ATOM      5  C   UNL     1      -8.646  -6.126  -1.548  1.00  0.00     0.171 C 
ATOM      6  C   UNL     1     -10.253  -7.657   0.318  1.00  0.00     0.214 C 
ATOM      7  N   UNL     1      -9.771  -6.351   0.701  1.00  0.00    -0.303 N 
ATOM      8  C   UNL     1      -9.334  -8.376  -0.657  1.00  0.00     0.057 C 
ATOM      9  C   UNL     1      -9.043  -5.546  -0.160  1.00  0.00     0.247 C 
ATOM     10  C   UNL     1      -9.140  -7.530  -1.897  1.00  0.00     0.040 C 
ATOM     11  O   UNL     1      -8.708  -4.394   0.145  1.00  0.00    -0.272 OA
BRANCH   6  12
ATOM     12  O   UNL     1     -11.535  -7.496  -0.243  1.00  0.00    -0.373 OA
ATOM     13  H   UNL     1     -11.630  -8.176  -0.944  1.00  0.00     0.213 HD
ENDBRANCH   6  12
BRANCH   7  14
ATOM     14  C   UNL     1     -10.213  -5.831   2.012  1.00  0.00     0.177 C 
BRANCH  14  15
ATOM     15  C   UNL     1     -11.544  -5.054   1.996  1.00  0.00     0.038 C 
BRANCH  15  16
ATOM     16  C   UNL     1     -11.542  -3.536   2.278  1.00  0.00    -0.015 C 
ATOM     17  C   UNL     1     -11.714  -2.705   1.003  1.00  0.00     0.007 C 
ATOM     18  C   UNL     1     -10.218  -3.132   2.939  1.00  0.00     0.007 C 
ENDBRANCH  15  16
ENDBRANCH  14  15
BRANCH  14  19
ATOM     19  C   UNL     1      -9.731  -6.780   3.163  1.00  0.00     0.245 C 
ATOM     20  O   UNL     1      -8.531  -7.100   3.159  1.00  0.00    -0.272 OA
BRANCH  19  21
ATOM     21  N   UNL     1     -10.578  -7.356   4.094  1.00  0.00    -0.332 N 
ATOM     22  C   UNL     1     -11.647  -8.293   3.794  1.00  0.00     0.147 C 
BRANCH  21  23
ATOM     23  C   UNL     1     -10.396  -6.984   5.524  1.00  0.00     0.178 C 
BRANCH  23  24
ATOM     24  C   UNL     1     -10.500  -5.474   5.817  1.00  0.00     0.070 C 
BRANCH  24  25
ATOM     25  C   UNL     1      -9.292  -4.807   6.433  1.00  0.00    -0.045 A 
ATOM     26  C   UNL     1      -8.164  -4.508   5.658  1.00  0.00     0.004 A 
ATOM     27  C   UNL     1      -9.283  -4.482   7.798  1.00  0.00     0.004 A 
ATOM     28  C   UNL     1      -7.045  -3.908   6.239  1.00  0.00     0.000 A 
ATOM     29  C   UNL     1      -8.164  -3.881   8.376  1.00  0.00     0.000 A 
ATOM     30  C   UNL     1      -7.045  -3.597   7.597  1.00  0.00     0.000 A 
ENDBRANCH  24  25
ENDBRANCH  23  24
BRANCH  23  31
ATOM     31  C   UNL     1     -11.196  -7.892   6.490  1.00  0.00     0.243 C 
ATOM     32  O   UNL     1     -11.002  -9.098   6.617  1.00  0.00    -0.273 OA
ATOM     33  N   UNL     1     -12.282  -7.260   7.070  1.00  0.00    -0.341 N 
ATOM     34  H   UNL     1     -12.395  -6.254   6.922  1.00  0.00     0.164 HD
BRANCH  33  35
ATOM     35  C   UNL     1     -13.248  -7.956   7.925  1.00  0.00     0.194 C 
BRANCH  35  36
ATOM     36  C   UNL     1     -14.690  -7.379   7.854  1.00  0.00     0.017 C 
ATOM     37  C   UNL     1     -14.695  -5.857   8.081  1.00  0.00     0.010 C 
ATOM     38  C   UNL     1     -15.641  -8.000   8.885  1.00  0.00     0.010 C 
ENDBRANCH  35  36
BRANCH  35  39
ATOM     39  C   UNL     1     -12.753  -8.101   9.391  1.00  0.00     0.329 C 
ATOM     40  O   UNL     1     -12.509  -7.154  10.130  1.00  0.00    -0.250 OA
BRANCH  39  41
ATOM     41  O   UNL     1     -12.701  -9.406   9.795  1.00  0.00    -0.458 OA
BRANCH  41  42
ATOM     42  C   UNL     1     -12.646  -9.633  11.224  1.00  0.00     0.205 CG0
ATOM     43  C   UNL     1     -14.086  -9.746  11.722  1.00  0.00     0.056 C 
ATOM     44  G   UNL     1     -11.886  -8.462  11.879  1.00  0.00     0.000 G0
ENDBRANCH  41  42
ENDBRANCH  39  41
ENDBRANCH  35  39
ENDBRANCH  33  35
ENDBRANCH  23  31
ENDBRANCH  21  23
ENDBRANCH  19  21
ENDBRANCH  14  19
ENDBRANCH   7  14
ENDBRANCH   2   5
BRANCH   3  45
ATOM     45  C   UNL     1      -8.500  -3.442  -4.279  1.00  0.00     0.171 C 
BRANCH  45  46
ATOM     46  N   UNL     1      -7.853  -3.766  -5.544  1.00  0.00    -0.342 N 
ATOM     47  C   UNL     1      -6.993  -2.901  -6.173  1.00  0.00     0.247 C 
ATOM     48  O   UNL     1      -6.650  -1.825  -5.683  1.00  0.00    -0.273 OA
ATOM     49  H   UNL     1      -8.066  -4.672  -5.957  1.00  0.00     0.164 HD
BRANCH  47  50
ATOM     50  C   UNL     1      -6.507  -3.360  -7.555  1.00  0.00     0.212 CG0
ATOM     51  G   UNL     1      -5.512  -2.303  -8.075  1.00  0.00     0.000 G0
BRANCH  50  52
ATOM     52  N   UNL     1      -5.897  -4.669  -7.339  1.00  0.00    -0.339 N 
ATOM     53  C   UNL     1      -4.548  -4.853  -7.155  1.00  0.00     0.243 C 
ATOM     54  O   UNL     1      -3.740  -3.931  -7.212  1.00  0.00    -0.273 OA
ATOM     55  H   UNL     1      -6.501  -5.487  -7.391  1.00  0.00     0.164 HD
BRANCH  53  56
ATOM     56  C   UNL     1      -4.128  -6.332  -7.032  1.00  0.00     0.182 C 
BRANCH  56  57
ATOM     57  N   UNL     1      -4.754  -7.146  -8.079  1.00  0.00    -0.344 N 
ATOM     58  C   UNL     1      -4.019  -7.851  -9.001  1.00  0.00     0.220 C 
ATOM     59  O   UNL     1      -2.796  -7.792  -9.060  1.00  0.00    -0.275 OA
ATOM     60  H   UNL     1      -5.755  -7.303  -8.003  1.00  0.00     0.164 HD
BRANCH  58  61
ATOM     61  C   UNL     1      -4.874  -8.669  -9.952  1.00  0.00     0.100 C 
BRANCH  61  62
ATOM     62  C   UNL     1      -5.913  -9.543  -9.250  1.00  0.00     0.010 C 
BRANCH  62  63
ATOM     63  C   UNL     1      -5.550 -11.032  -9.198  1.00  0.00     0.000 C 
BRANCH  63  64
ATOM     64  C   UNL     1      -5.885 -11.713  -7.872  1.00  0.00    -0.003 C 
ATOM     65  C   UNL     1      -7.387 -11.760  -7.636  1.00  0.00     0.004 C 
ENDBRANCH  63  64
ENDBRANCH  62  63
ENDBRANCH  61  62
ENDBRANCH  58  61
ENDBRANCH  56  57
BRANCH  56  66
ATOM     66  C   UNL     1      -4.406  -6.879  -5.633  1.00  0.00     0.157 C 
BRANCH  66  67
ATOM     67  C   UNL     1      -5.685  -7.665  -5.600  1.00  0.00     0.305 C 
ATOM     68  O   UNL     1      -5.800  -8.879  -5.667  1.00  0.00    -0.252 OA
BRANCH  67  69
ATOM     69  O   UNL     1      -6.764  -6.878  -5.431  1.00  0.00    -0.481 OA
ATOM     70  H   UNL     1      -7.347  -7.086  -6.193  1.00  0.00     0.296 HD
ENDBRANCH  67  69
ENDBRANCH  66  67
ENDBRANCH  56  66
ENDBRANCH  53  56
ENDBRANCH  50  52
ENDBRANCH  47  50
ENDBRANCH  45  46
BRANCH  45  71
ATOM     71  C   UNL     1      -8.133  -2.033  -3.800  1.00  0.00     0.037 C 
BRANCH  71  72
ATOM     72  C   UNL     1      -8.322  -1.870  -2.290  1.00  0.00     0.026 C 
BRANCH  72  73
ATOM     73  C   UNL     1      -7.071  -1.298  -1.627  1.00  0.00     0.146 C 
BRANCH  73  74
ATOM     74  N   UNL     1      -7.048   0.140  -1.882  1.00  0.00    -0.254 NA
ATOM     75  C   UNL     1      -7.209   0.927  -0.883  1.00  0.00     0.185 C 
ATOM     76  N   UNL     1      -7.192   2.255  -1.086  1.00  0.00    -0.370 N 
ATOM     77  N   UNL     1      -7.403   0.622   0.411  1.00  0.00    -0.370 N 
ATOM     78  H   UNL     1      -7.058   2.571  -2.036  1.00  0.00     0.159 HD
ATOM     79  H   UNL     1      -7.453   2.925  -0.385  1.00  0.00     0.159 HD
ATOM     80  H   UNL     1      -7.435  -0.340   0.713  1.00  0.00     0.159 HD
ATOM     81  H   UNL     1      -7.401   1.330   1.127  1.00  0.00     0.159 HD
ENDBRANCH  73  74
ENDBRANCH  72  73
ENDBRANCH  71  72
ENDBRANCH  45  71
ENDBRANCH   3  45
TORSDOF 20
ENDMDL
MODEL 22
REMARK VINA RESULT:    -5.869      5.667      9.012
REMARK INTER + INTRA:         -23.670
REMARK INTER:                 -17.825
REMARK INTRA:                  -5.845
REMARK UNBOUND:                -6.822
REMARK SMILES CCCCCC(=O)N[C@H](CC(=O)O)C(=O)N[C@H]1C(=O)N[C@H](CCCN=C(N)N)C(=O)N[C@@H]2CC[C@H](O)N(C2=O)[C@@H](CC(C)C)C(=O)N(C)[C@@H](Cc2ccccc2)C(=O)N[C@H](C(C)C)C(=O)O[C@@H]1C
REMARK SMILES IDX 30 1 31 2 29 3 32 5 35 6 37 7 34 8 38 9 33 10 39 11 36 12
REMARK SMILES IDX 40 14 41 15 42 16 43 17 44 18 45 19 46 20 47 21 48 22 49 23
REMARK SMILES IDX 50 24 51 25 52 26 56 27 53 28 55 29 54 30 57 31 58 32 59 33
REMARK SMILES IDX 60 35 61 36 62 37 63 38 64 39 65 40 66 41 67 42 68 43 21 45
REMARK SMILES IDX 20 46 18 47 19 48 17 50 16 52 14 53 15 54 9 56 8 57 6 58
REMARK SMILES IDX 7 59 5 61 4 62 3 63 2 64 1 65 10 66 11 67 12 68 13 69 22 71
REMARK SMILES IDX 23 72 24 73 25 74 26 75 27 76 28 77
REMARK H PARENT 31 4 36 13 59 34 20 49 16 55 8 60 13 70 27 78 27 79 28 80
REMARK H PARENT 28 81
REMARK Flexibility Score:  259.900
ROOT
ATOM      1  O   UNL     1      -7.197  -1.700  -4.568  1.00  0.00    -0.273 OA
ATOM      2  N   UNL     1      -8.738  -1.932  -2.894  1.00  0.00    -0.343 N 
ATOM      3  C   UNL     1      -8.068  -2.372  -4.015  1.00  0.00     0.243 C 
ATOM      4  H   UNL     1      -9.439  -2.518  -2.458  1.00  0.00     0.164 HD
ENDROOT
BRANCH   2   5
ATOM      5  C   UNL     1      -8.521  -0.583  -2.381  1.00  0.00     0.171 C 
ATOM      6  C   UNL     1      -9.011   0.638   0.202  1.00  0.00     0.214 C 
ATOM      7  N   UNL     1     -10.037   0.688  -0.814  1.00  0.00    -0.303 N 
ATOM      8  C   UNL     1      -7.601   0.609  -0.367  1.00  0.00     0.057 C 
ATOM      9  C   UNL     1      -9.888   0.082  -2.050  1.00  0.00     0.247 C 
ATOM     10  C   UNL     1      -7.447  -0.577  -1.294  1.00  0.00     0.040 C 
ATOM     11  O   UNL     1     -10.804   0.055  -2.883  1.00  0.00    -0.272 OA
BRANCH   6  12
ATOM     12  O   UNL     1      -9.246  -0.503   0.994  1.00  0.00    -0.373 OA
ATOM     13  H   UNL     1      -8.670  -1.217   0.647  1.00  0.00     0.213 HD
ENDBRANCH   6  12
BRANCH   7  14
ATOM     14  C   UNL     1     -11.330   1.294  -0.431  1.00  0.00     0.177 C 
BRANCH  14  15
ATOM     15  C   UNL     1     -12.338   0.329   0.222  1.00  0.00     0.038 C 
BRANCH  15  16
ATOM     16  C   UNL     1     -13.422  -0.343  -0.649  1.00  0.00    -0.015 C 
ATOM     17  C   UNL     1     -14.030   0.621  -1.673  1.00  0.00     0.007 C 
ATOM     18  C   UNL     1     -14.552  -0.871   0.244  1.00  0.00     0.007 C 
ENDBRANCH  15  16
ENDBRANCH  14  15
BRANCH  14  19
ATOM     19  C   UNL     1     -11.131   2.799  -0.041  1.00  0.00     0.245 C 
ATOM     20  O   UNL     1     -10.675   3.550  -0.920  1.00  0.00    -0.272 OA
BRANCH  19  21
ATOM     21  N   UNL     1     -11.325   3.297   1.235  1.00  0.00    -0.332 N 
ATOM     22  C   UNL     1     -10.452   3.064   2.373  1.00  0.00     0.147 C 
BRANCH  21  23
ATOM     23  C   UNL     1     -12.532   4.134   1.480  1.00  0.00     0.178 C 
BRANCH  23  24
ATOM     24  C   UNL     1     -13.779   3.351   1.937  1.00  0.00     0.070 C 
BRANCH  24  25
ATOM     25  C   UNL     1     -14.899   3.193   0.934  1.00  0.00    -0.045 A 
ATOM     26  C   UNL     1     -14.887   3.905  -0.272  1.00  0.00     0.004 A 
ATOM     27  C   UNL     1     -15.973   2.332   1.203  1.00  0.00     0.004 A 
ATOM     28  C   UNL     1     -15.934   3.767  -1.186  1.00  0.00     0.000 A 
ATOM     29  C   UNL     1     -17.018   2.194   0.288  1.00  0.00     0.000 A 
ATOM     30  C   UNL     1     -16.999   2.914  -0.904  1.00  0.00     0.000 A 
ENDBRANCH  24  25
ENDBRANCH  23  24
BRANCH  23  31
ATOM     31  C   UNL     1     -12.226   5.409   2.302  1.00  0.00     0.243 C 
ATOM     32  O   UNL     1     -11.431   6.278   1.952  1.00  0.00    -0.273 OA
ATOM     33  N   UNL     1     -12.791   5.401   3.566  1.00  0.00    -0.341 N 
ATOM     34  H   UNL     1     -13.441   4.648   3.802  1.00  0.00     0.164 HD
BRANCH  33  35
ATOM     35  C   UNL     1     -12.539   6.448   4.560  1.00  0.00     0.194 C 
BRANCH  35  36
ATOM     36  C   UNL     1     -12.551   5.943   6.031  1.00  0.00     0.017 C 
ATOM     37  C   UNL     1     -11.150   5.496   6.480  1.00  0.00     0.010 C 
ATOM     38  C   UNL     1     -13.504   4.763   6.256  1.00  0.00     0.010 C 
ENDBRANCH  35  36
BRANCH  35  39
ATOM     39  C   UNL     1     -13.452   7.690   4.365  1.00  0.00     0.329 C 
ATOM     40  O   UNL     1     -13.039   8.807   4.078  1.00  0.00    -0.250 OA
BRANCH  39  41
ATOM     41  O   UNL     1     -14.781   7.379   4.464  1.00  0.00    -0.458 OA
BRANCH  41  42
ATOM     42  C   UNL     1     -15.545   8.135   5.433  1.00  0.00     0.205 CG0
ATOM     43  C   UNL     1     -16.417   7.141   6.198  1.00  0.00     0.056 C 
ATOM     44  G   UNL     1     -16.378   9.195   4.684  1.00  0.00     0.000 G0
ENDBRANCH  41  42
ENDBRANCH  39  41
ENDBRANCH  35  39
ENDBRANCH  33  35
ENDBRANCH  23  31
ENDBRANCH  21  23
ENDBRANCH  19  21
ENDBRANCH  14  19
ENDBRANCH   7  14
ENDBRANCH   2   5
BRANCH   3  45
ATOM     45  C   UNL     1      -8.469  -3.767  -4.514  1.00  0.00     0.171 C 
BRANCH  45  46
ATOM     46  N   UNL     1      -7.309  -4.617  -4.281  1.00  0.00    -0.342 N 
ATOM     47  C   UNL     1      -7.423  -5.942  -3.944  1.00  0.00     0.247 C 
ATOM     48  O   UNL     1      -8.506  -6.526  -3.886  1.00  0.00    -0.273 OA
ATOM     49  H   UNL     1      -6.390  -4.187  -4.373  1.00  0.00     0.164 HD
BRANCH  47  50
ATOM     50  C   UNL     1      -6.099  -6.646  -3.614  1.00  0.00     0.212 CG0
ATOM     51  G   UNL     1      -6.438  -8.035  -3.040  1.00  0.00     0.000 G0
BRANCH  50  52
ATOM     52  N   UNL     1      -5.365  -6.706  -4.876  1.00  0.00    -0.339 N 
ATOM     53  C   UNL     1      -5.350  -7.813  -5.689  1.00  0.00     0.243 C 
ATOM     54  O   UNL     1      -5.913  -8.862  -5.389  1.00  0.00    -0.273 OA
ATOM     55  H   UNL     1      -4.788  -5.906  -5.125  1.00  0.00     0.164 HD
BRANCH  53  56
ATOM     56  C   UNL     1      -4.437  -7.672  -6.923  1.00  0.00     0.182 C 
BRANCH  56  57
ATOM     57  N   UNL     1      -4.121  -6.265  -7.187  1.00  0.00    -0.344 N 
ATOM     58  C   UNL     1      -3.007  -5.880  -7.892  1.00  0.00     0.220 C 
ATOM     59  O   UNL     1      -2.163  -6.677  -8.287  1.00  0.00    -0.275 OA
ATOM     60  H   UNL     1      -4.842  -5.582  -6.968  1.00  0.00     0.164 HD
BRANCH  58  61
ATOM     61  C   UNL     1      -2.913  -4.379  -8.095  1.00  0.00     0.100 C 
BRANCH  61  62
ATOM     62  C   UNL     1      -3.896  -3.834  -9.131  1.00  0.00     0.010 C 
BRANCH  62  63
ATOM     63  C   UNL     1      -3.317  -2.730 -10.026  1.00  0.00     0.000 C 
BRANCH  63  64
ATOM     64  C   UNL     1      -4.369  -1.918 -10.780  1.00  0.00    -0.003 C 
ATOM     65  C   UNL     1      -5.672  -2.692 -10.920  1.00  0.00     0.004 C 
ENDBRANCH  63  64
ENDBRANCH  62  63
ENDBRANCH  61  62
ENDBRANCH  58  61
ENDBRANCH  56  57
BRANCH  56  66
ATOM     66  C   UNL     1      -5.035  -8.367  -8.145  1.00  0.00     0.157 C 
BRANCH  66  67
ATOM     67  C   UNL     1      -4.158  -9.492  -8.614  1.00  0.00     0.305 C 
ATOM     68  O   UNL     1      -4.425 -10.320  -9.472  1.00  0.00    -0.252 OA
BRANCH  67  69
ATOM     69  O   UNL     1      -2.955  -9.489  -8.011  1.00  0.00    -0.481 OA
ATOM     70  H   UNL     1      -2.391 -10.063  -8.572  1.00  0.00     0.296 HD
ENDBRANCH  67  69
ENDBRANCH  66  67
ENDBRANCH  56  66
ENDBRANCH  53  56
ENDBRANCH  50  52
ENDBRANCH  47  50
ENDBRANCH  45  46
BRANCH  45  71
ATOM     71  C   UNL     1      -8.842  -3.715  -6.000  1.00  0.00     0.037 C 
BRANCH  71  72
ATOM     72  C   UNL     1      -7.623  -3.907  -6.907  1.00  0.00     0.026 C 
BRANCH  72  73
ATOM     73  C   UNL     1      -8.022  -3.941  -8.381  1.00  0.00     0.146 C 
BRANCH  73  74
ATOM     74  N   UNL     1      -9.025  -4.988  -8.549  1.00  0.00    -0.254 NA
ATOM     75  C   UNL     1      -9.125  -5.542  -9.701  1.00  0.00     0.185 C 
ATOM     76  N   UNL     1     -10.038  -6.509  -9.886  1.00  0.00    -0.370 N 
ATOM     77  N   UNL     1      -8.422  -5.297 -10.820  1.00  0.00    -0.370 N 
ATOM     78  H   UNL     1     -10.616  -6.750  -9.094  1.00  0.00     0.159 HD
ATOM     79  H   UNL     1     -10.272  -6.884 -10.788  1.00  0.00     0.159 HD
ATOM     80  H   UNL     1      -7.697  -4.596 -10.828  1.00  0.00     0.159 HD
ATOM     81  H   UNL     1      -8.511  -5.878 -11.637  1.00  0.00     0.159 HD
ENDBRANCH  73  74
ENDBRANCH  72  73
ENDBRANCH  71  72
ENDBRANCH  45  71
ENDBRANCH   3  45
TORSDOF 20
ENDMDL
MODEL 23
REMARK VINA RESULT:    -5.855      8.485     12.778
REMARK INTER + INTRA:         -23.629
REMARK INTER:                 -18.625
REMARK INTRA:                  -5.004
REMARK UNBOUND:                -6.822
REMARK SMILES CCCCCC(=O)N[C@H](CC(=O)O)C(=O)N[C@H]1C(=O)N[C@H](CCCN=C(N)N)C(=O)N[C@@H]2CC[C@H](O)N(C2=O)[C@@H](CC(C)C)C(=O)N(C)[C@@H](Cc2ccccc2)C(=O)N[C@H](C(C)C)C(=O)O[C@@H]1C
REMARK SMILES IDX 30 1 31 2 29 3 32 5 35 6 37 7 34 8 38 9 33 10 39 11 36 12
REMARK SMILES IDX 40 14 41 15 42 16 43 17 44 18 45 19 46 20 47 21 48 22 49 23
REMARK SMILES IDX 50 24 51 25 52 26 56 27 53 28 55 29 54 30 57 31 58 32 59 33
REMARK SMILES IDX 60 35 61 36 62 37 63 38 64 39 65 40 66 41 67 42 68 43 21 45
REMARK SMILES IDX 20 46 18 47 19 48 17 50 16 52 14 53 15 54 9 56 8 57 6 58
REMARK SMILES IDX 7 59 5 61 4 62 3 63 2 64 1 65 10 66 11 67 12 68 13 69 22 71
REMARK SMILES IDX 23 72 24 73 25 74 26 75 27 76 28 77
REMARK H PARENT 31 4 36 13 59 34 20 49 16 55 8 60 13 70 27 78 27 79 28 80
REMARK H PARENT 28 81
REMARK Flexibility Score:  259.900
ROOT
ATOM      1  O   UNL     1      -3.856   1.535 -12.703  1.00  0.00    -0.273 OA
ATOM      2  N   UNL     1      -5.073   1.592 -10.767  1.00  0.00    -0.343 N 
ATOM      3  C   UNL     1      -4.071   2.039 -11.600  1.00  0.00     0.243 C 
ATOM      4  H   UNL     1      -5.230   2.041  -9.873  1.00  0.00     0.164 HD
ENDROOT
BRANCH   2   5
ATOM      5  C   UNL     1      -5.853   0.409 -11.113  1.00  0.00     0.171 C 
ATOM      6  C   UNL     1      -7.483  -1.400  -9.539  1.00  0.00     0.214 C 
ATOM      7  N   UNL     1      -6.083  -1.694  -9.736  1.00  0.00    -0.303 N 
ATOM      8  C   UNL     1      -8.105  -0.631 -10.695  1.00  0.00     0.057 C 
ATOM      9  C   UNL     1      -5.237  -0.847 -10.434  1.00  0.00     0.247 C 
ATOM     10  C   UNL     1      -7.347   0.661 -10.917  1.00  0.00     0.040 C 
ATOM     11  O   UNL     1      -4.021  -1.063 -10.524  1.00  0.00    -0.272 OA
BRANCH   6  12
ATOM     12  O   UNL     1      -7.606  -0.670  -8.340  1.00  0.00    -0.373 OA
ATOM     13  H   UNL     1      -6.781  -0.150  -8.235  1.00  0.00     0.213 HD
ENDBRANCH   6  12
BRANCH   7  14
ATOM     14  C   UNL     1      -5.542  -2.876  -9.032  1.00  0.00     0.177 C 
BRANCH  14  15
ATOM     15  C   UNL     1      -4.729  -2.567  -7.760  1.00  0.00     0.038 C 
BRANCH  15  16
ATOM     16  C   UNL     1      -3.292  -3.116  -7.623  1.00  0.00    -0.015 C 
ATOM     17  C   UNL     1      -2.260  -2.004  -7.411  1.00  0.00     0.007 C 
ATOM     18  C   UNL     1      -2.909  -3.891  -8.890  1.00  0.00     0.007 C 
ENDBRANCH  15  16
ENDBRANCH  14  15
BRANCH  14  19
ATOM     19  C   UNL     1      -6.494  -4.106  -9.224  1.00  0.00     0.245 C 
ATOM     20  O   UNL     1      -6.503  -4.638 -10.347  1.00  0.00    -0.272 OA
BRANCH  19  21
ATOM     21  N   UNL     1      -7.387  -4.547  -8.263  1.00  0.00    -0.332 N 
ATOM     22  C   UNL     1      -8.801  -4.221  -8.213  1.00  0.00     0.147 C 
BRANCH  21  23
ATOM     23  C   UNL     1      -6.864  -5.422  -7.177  1.00  0.00     0.178 C 
BRANCH  23  24
ATOM     24  C   UNL     1      -5.435  -5.955  -7.409  1.00  0.00     0.070 C 
BRANCH  24  25
ATOM     25  C   UNL     1      -5.298  -7.402  -7.822  1.00  0.00    -0.045 A 
ATOM     26  C   UNL     1      -6.377  -8.090  -8.392  1.00  0.00     0.004 A 
ATOM     27  C   UNL     1      -4.084  -8.079  -7.634  1.00  0.00     0.004 A 
ATOM     28  C   UNL     1      -6.247  -9.433  -8.755  1.00  0.00     0.000 A 
ATOM     29  C   UNL     1      -3.956  -9.421  -7.998  1.00  0.00     0.000 A 
ATOM     30  C   UNL     1      -5.039 -10.097  -8.556  1.00  0.00     0.000 A 
ENDBRANCH  24  25
ENDBRANCH  23  24
BRANCH  23  31
ATOM     31  C   UNL     1      -7.125  -4.851  -5.763  1.00  0.00     0.243 C 
ATOM     32  O   UNL     1      -6.742  -3.746  -5.387  1.00  0.00    -0.273 OA
ATOM     33  N   UNL     1      -7.672  -5.772  -4.887  1.00  0.00    -0.341 N 
ATOM     34  H   UNL     1      -7.966  -6.679  -5.257  1.00  0.00     0.164 HD
BRANCH  33  35
ATOM     35  C   UNL     1      -7.895  -5.489  -3.466  1.00  0.00     0.194 C 
BRANCH  35  36
ATOM     36  C   UNL     1      -6.655  -5.752  -2.565  1.00  0.00     0.017 C 
ATOM     37  C   UNL     1      -5.913  -7.030  -2.993  1.00  0.00     0.010 C 
ATOM     38  C   UNL     1      -7.009  -5.902  -1.080  1.00  0.00     0.010 C 
ENDBRANCH  35  36
BRANCH  35  39
ATOM     39  C   UNL     1      -9.172  -6.180  -2.911  1.00  0.00     0.329 C 
ATOM     40  O   UNL     1     -10.091  -5.583  -2.363  1.00  0.00    -0.250 OA
BRANCH  39  41
ATOM     41  O   UNL     1      -9.197  -7.520  -3.182  1.00  0.00    -0.458 OA
BRANCH  41  42
ATOM     42  C   UNL     1      -9.295  -8.403  -2.038  1.00  0.00     0.205 CG0
ATOM     43  C   UNL     1      -8.507  -9.668  -2.373  1.00  0.00     0.056 C 
ATOM     44  G   UNL     1     -10.784  -8.691  -1.765  1.00  0.00     0.000 G0
ENDBRANCH  41  42
ENDBRANCH  39  41
ENDBRANCH  35  39
ENDBRANCH  33  35
ENDBRANCH  23  31
ENDBRANCH  21  23
ENDBRANCH  19  21
ENDBRANCH  14  19
ENDBRANCH   7  14
ENDBRANCH   2   5
BRANCH   3  45
ATOM     45  C   UNL     1      -3.254   3.225 -11.068  1.00  0.00     0.171 C 
BRANCH  45  46
ATOM     46  N   UNL     1      -2.104   3.341 -11.955  1.00  0.00    -0.342 N 
ATOM     47  C   UNL     1      -1.699   4.541 -12.482  1.00  0.00     0.247 C 
ATOM     48  O   UNL     1      -2.230   5.613 -12.188  1.00  0.00    -0.273 OA
ATOM     49  H   UNL     1      -1.601   2.485 -12.180  1.00  0.00     0.164 HD
BRANCH  47  50
ATOM     50  C   UNL     1      -0.547   4.452 -13.493  1.00  0.00     0.212 CG0
ATOM     51  G   UNL     1      -0.911   5.345 -14.696  1.00  0.00     0.000 G0
BRANCH  50  52
ATOM     52  N   UNL     1       0.639   4.908 -12.773  1.00  0.00    -0.339 N 
ATOM     53  C   UNL     1       1.914   4.502 -13.084  1.00  0.00     0.243 C 
ATOM     54  O   UNL     1       2.151   3.678 -13.963  1.00  0.00    -0.273 OA
ATOM     55  H   UNL     1       0.498   5.507 -11.961  1.00  0.00     0.164 HD
BRANCH  53  56
ATOM     56  C   UNL     1       2.996   5.049 -12.131  1.00  0.00     0.182 C 
BRANCH  56  57
ATOM     57  N   UNL     1       3.429   4.019 -11.180  1.00  0.00    -0.344 N 
ATOM     58  C   UNL     1       4.571   3.279 -11.366  1.00  0.00     0.220 C 
ATOM     59  O   UNL     1       5.267   3.375 -12.371  1.00  0.00    -0.275 OA
ATOM     60  H   UNL     1       2.939   3.979 -10.290  1.00  0.00     0.164 HD
BRANCH  58  61
ATOM     61  C   UNL     1       4.854   2.315 -10.229  1.00  0.00     0.100 C 
BRANCH  61  62
ATOM     62  C   UNL     1       3.612   1.924  -9.429  1.00  0.00     0.010 C 
BRANCH  62  63
ATOM     63  C   UNL     1       2.963   0.609  -9.880  1.00  0.00     0.000 C 
BRANCH  63  64
ATOM     64  C   UNL     1       1.436   0.628  -9.871  1.00  0.00    -0.003 C 
ATOM     65  C   UNL     1       0.885   1.446 -11.030  1.00  0.00     0.004 C 
ENDBRANCH  63  64
ENDBRANCH  62  63
ENDBRANCH  61  62
ENDBRANCH  58  61
ENDBRANCH  56  57
BRANCH  56  66
ATOM     66  C   UNL     1       2.532   6.323 -11.428  1.00  0.00     0.157 C 
BRANCH  66  67
ATOM     67  C   UNL     1       3.081   7.547 -12.104  1.00  0.00     0.305 C 
ATOM     68  O   UNL     1       3.469   7.635 -13.259  1.00  0.00    -0.252 OA
BRANCH  67  69
ATOM     69  O   UNL     1       3.066   8.626 -11.298  1.00  0.00    -0.481 OA
ATOM     70  H   UNL     1       4.005   8.769 -11.053  1.00  0.00     0.296 HD
ENDBRANCH  67  69
ENDBRANCH  66  67
ENDBRANCH  56  66
ENDBRANCH  53  56
ENDBRANCH  50  52
ENDBRANCH  47  50
ENDBRANCH  45  46
BRANCH  45  71
ATOM     71  C   UNL     1      -2.827   2.970  -9.618  1.00  0.00     0.037 C 
BRANCH  71  72
ATOM     72  C   UNL     1      -2.524   4.271  -8.870  1.00  0.00     0.026 C 
BRANCH  72  73
ATOM     73  C   UNL     1      -1.020   4.506  -8.742  1.00  0.00     0.146 C 
BRANCH  73  74
ATOM     74  N   UNL     1      -0.723   4.743  -7.333  1.00  0.00    -0.254 NA
ATOM     75  C   UNL     1      -0.134   3.810  -6.680  1.00  0.00     0.185 C 
ATOM     76  N   UNL     1       0.154   3.998  -5.382  1.00  0.00    -0.370 N 
ATOM     77  N   UNL     1       0.267   2.601  -7.111  1.00  0.00    -0.370 N 
ATOM     78  H   UNL     1      -0.122   4.881  -4.976  1.00  0.00     0.159 HD
ATOM     79  H   UNL     1       0.479   3.266  -4.775  1.00  0.00     0.159 HD
ATOM     80  H   UNL     1       0.120   2.322  -8.069  1.00  0.00     0.159 HD
ATOM     81  H   UNL     1       0.826   1.994  -6.534  1.00  0.00     0.159 HD
ENDBRANCH  73  74
ENDBRANCH  72  73
ENDBRANCH  71  72
ENDBRANCH  45  71
ENDBRANCH   3  45
TORSDOF 20
ENDMDL
MODEL 24
REMARK VINA RESULT:    -5.850      6.100      9.773
REMARK INTER + INTRA:         -23.614
REMARK INTER:                 -18.430
REMARK INTRA:                  -5.184
REMARK UNBOUND:                -6.822
REMARK SMILES CCCCCC(=O)N[C@H](CC(=O)O)C(=O)N[C@H]1C(=O)N[C@H](CCCN=C(N)N)C(=O)N[C@@H]2CC[C@H](O)N(C2=O)[C@@H](CC(C)C)C(=O)N(C)[C@@H](Cc2ccccc2)C(=O)N[C@H](C(C)C)C(=O)O[C@@H]1C
REMARK SMILES IDX 30 1 31 2 29 3 32 5 35 6 37 7 34 8 38 9 33 10 39 11 36 12
REMARK SMILES IDX 40 14 41 15 42 16 43 17 44 18 45 19 46 20 47 21 48 22 49 23
REMARK SMILES IDX 50 24 51 25 52 26 56 27 53 28 55 29 54 30 57 31 58 32 59 33
REMARK SMILES IDX 60 35 61 36 62 37 63 38 64 39 65 40 66 41 67 42 68 43 21 45
REMARK SMILES IDX 20 46 18 47 19 48 17 50 16 52 14 53 15 54 9 56 8 57 6 58
REMARK SMILES IDX 7 59 5 61 4 62 3 63 2 64 1 65 10 66 11 67 12 68 13 69 22 71
REMARK SMILES IDX 23 72 24 73 25 74 26 75 27 76 28 77
REMARK H PARENT 31 4 36 13 59 34 20 49 16 55 8 60 13 70 27 78 27 79 28 80
REMARK H PARENT 28 81
REMARK Flexibility Score:  259.900
ROOT
ATOM      1  O   UNL     1      -6.939  -3.416  -5.256  1.00  0.00    -0.273 OA
ATOM      2  N   UNL     1      -9.124  -2.975  -4.745  1.00  0.00    -0.343 N 
ATOM      3  C   UNL     1      -8.132  -3.485  -5.554  1.00  0.00     0.243 C 
ATOM      4  H   UNL     1     -10.096  -3.063  -5.016  1.00  0.00     0.164 HD
ENDROOT
BRANCH   2   5
ATOM      5  C   UNL     1      -8.787  -2.218  -3.545  1.00  0.00     0.171 C 
ATOM      6  C   UNL     1     -10.364  -1.313  -1.287  1.00  0.00     0.214 C 
ATOM      7  N   UNL     1     -10.210  -0.452  -2.436  1.00  0.00    -0.303 N 
ATOM      8  C   UNL     1      -9.175  -2.233  -1.060  1.00  0.00     0.057 C 
ATOM      9  C   UNL     1      -9.513  -0.842  -3.568  1.00  0.00     0.247 C 
ATOM     10  C   UNL     1      -8.940  -3.080  -2.292  1.00  0.00     0.040 C 
ATOM     11  O   UNL     1      -9.458  -0.133  -4.582  1.00  0.00    -0.272 OA
BRANCH   6  12
ATOM     12  O   UNL     1     -11.542  -2.065  -1.467  1.00  0.00    -0.373 OA
ATOM     13  H   UNL     1     -11.879  -2.290  -0.574  1.00  0.00     0.213 HD
ENDBRANCH   6  12
BRANCH   7  14
ATOM     14  C   UNL     1     -10.955   0.825  -2.422  1.00  0.00     0.177 C 
BRANCH  14  15
ATOM     15  C   UNL     1     -12.038   0.964  -3.510  1.00  0.00     0.038 C 
BRANCH  15  16
ATOM     16  C   UNL     1     -13.148   2.026  -3.347  1.00  0.00    -0.015 C 
ATOM     17  C   UNL     1     -14.525   1.400  -3.106  1.00  0.00     0.007 C 
ATOM     18  C   UNL     1     -13.228   2.890  -4.611  1.00  0.00     0.007 C 
ENDBRANCH  15  16
ENDBRANCH  14  15
BRANCH  14  19
ATOM     19  C   UNL     1     -11.064   1.375  -0.958  1.00  0.00     0.245 C 
ATOM     20  O   UNL     1     -12.078   1.057  -0.315  1.00  0.00    -0.272 OA
BRANCH  19  21
ATOM     21  N   UNL     1     -10.165   2.267  -0.401  1.00  0.00    -0.332 N 
ATOM     22  C   UNL     1      -8.828   2.537  -0.898  1.00  0.00     0.147 C 
BRANCH  21  23
ATOM     23  C   UNL     1     -10.588   3.012   0.817  1.00  0.00     0.178 C 
BRANCH  23  24
ATOM     24  C   UNL     1      -9.494   3.161   1.895  1.00  0.00     0.070 C 
BRANCH  24  25
ATOM     25  C   UNL     1      -9.954   3.302   3.327  1.00  0.00    -0.045 A 
ATOM     26  C   UNL     1     -10.273   4.558   3.858  1.00  0.00     0.004 A 
ATOM     27  C   UNL     1     -10.064   2.171   4.150  1.00  0.00     0.004 A 
ATOM     28  C   UNL     1     -10.681   4.682   5.188  1.00  0.00     0.000 A 
ATOM     29  C   UNL     1     -10.473   2.296   5.478  1.00  0.00     0.000 A 
ATOM     30  C   UNL     1     -10.778   3.553   5.997  1.00  0.00     0.000 A 
ENDBRANCH  24  25
ENDBRANCH  23  24
BRANCH  23  31
ATOM     31  C   UNL     1     -11.364   4.311   0.492  1.00  0.00     0.243 C 
ATOM     32  O   UNL     1     -12.580   4.361   0.327  1.00  0.00    -0.273 OA
ATOM     33  N   UNL     1     -10.542   5.391   0.218  1.00  0.00    -0.341 N 
ATOM     34  H   UNL     1      -9.536   5.286   0.369  1.00  0.00     0.164 HD
BRANCH  33  35
ATOM     35  C   UNL     1     -11.054   6.690  -0.228  1.00  0.00     0.194 C 
BRANCH  35  36
ATOM     36  C   UNL     1     -10.385   7.223  -1.527  1.00  0.00     0.017 C 
ATOM     37  C   UNL     1     -11.214   8.355  -2.158  1.00  0.00     0.010 C 
ATOM     38  C   UNL     1     -10.196   6.141  -2.597  1.00  0.00     0.010 C 
ENDBRANCH  35  36
BRANCH  35  39
ATOM     39  C   UNL     1     -11.052   7.755   0.904  1.00  0.00     0.329 C 
ATOM     40  O   UNL     1     -10.038   8.266   1.364  1.00  0.00    -0.250 OA
BRANCH  39  41
ATOM     41  O   UNL     1     -12.317   8.123   1.274  1.00  0.00    -0.458 OA
BRANCH  41  42
ATOM     42  C   UNL     1     -12.429   8.894   2.493  1.00  0.00     0.205 CG0
ATOM     43  C   UNL     1     -13.841   9.475   2.535  1.00  0.00     0.056 C 
ATOM     44  G   UNL     1     -11.342   9.988   2.485  1.00  0.00     0.000 G0
ENDBRANCH  41  42
ENDBRANCH  39  41
ENDBRANCH  35  39
ENDBRANCH  33  35
ENDBRANCH  23  31
ENDBRANCH  21  23
ENDBRANCH  19  21
ENDBRANCH  14  19
ENDBRANCH   7  14
ENDBRANCH   2   5
BRANCH   3  45
ATOM     45  C   UNL     1      -8.618  -4.164  -6.842  1.00  0.00     0.171 C 
BRANCH  45  46
ATOM     46  N   UNL     1      -7.426  -4.364  -7.656  1.00  0.00    -0.342 N 
ATOM     47  C   UNL     1      -6.873  -5.603  -7.859  1.00  0.00     0.247 C 
ATOM     48  O   UNL     1      -7.381  -6.641  -7.432  1.00  0.00    -0.273 OA
ATOM     49  H   UNL     1      -7.005  -3.538  -8.075  1.00  0.00     0.164 HD
BRANCH  47  50
ATOM     50  C   UNL     1      -5.550  -5.605  -8.639  1.00  0.00     0.212 CG0
ATOM     51  G   UNL     1      -5.878  -5.301 -10.114  1.00  0.00     0.000 G0
BRANCH  50  52
ATOM     52  N   UNL     1      -4.724  -4.579  -8.007  1.00  0.00    -0.339 N 
ATOM     53  C   UNL     1      -4.669  -3.278  -8.445  1.00  0.00     0.243 C 
ATOM     54  O   UNL     1      -5.273  -2.889  -9.441  1.00  0.00    -0.273 OA
ATOM     55  H   UNL     1      -4.114  -4.867  -7.245  1.00  0.00     0.164 HD
BRANCH  53  56
ATOM     56  C   UNL     1      -3.662  -2.400  -7.676  1.00  0.00     0.182 C 
BRANCH  56  57
ATOM     57  N   UNL     1      -3.979  -0.976  -7.832  1.00  0.00    -0.344 N 
ATOM     58  C   UNL     1      -4.682  -0.271  -6.886  1.00  0.00     0.220 C 
ATOM     59  O   UNL     1      -5.157  -0.795  -5.884  1.00  0.00    -0.275 OA
ATOM     60  H   UNL     1      -3.520  -0.483  -8.593  1.00  0.00     0.164 HD
BRANCH  58  61
ATOM     61  C   UNL     1      -4.843   1.199  -7.228  1.00  0.00     0.100 C 
BRANCH  61  62
ATOM     62  C   UNL     1      -6.155   1.526  -7.940  1.00  0.00     0.010 C 
BRANCH  62  63
ATOM     63  C   UNL     1      -6.070   1.469  -9.471  1.00  0.00     0.000 C 
BRANCH  63  64
ATOM     64  C   UNL     1      -6.814   0.290 -10.096  1.00  0.00    -0.003 C 
ATOM     65  C   UNL     1      -7.698   0.740 -11.250  1.00  0.00     0.004 C 
ENDBRANCH  63  64
ENDBRANCH  62  63
ENDBRANCH  61  62
ENDBRANCH  58  61
ENDBRANCH  56  57
BRANCH  56  66
ATOM     66  C   UNL     1      -2.222  -2.717  -8.075  1.00  0.00     0.157 C 
BRANCH  66  67
ATOM     67  C   UNL     1      -1.284  -1.628  -7.640  1.00  0.00     0.305 C 
ATOM     68  O   UNL     1      -0.767  -0.779  -8.350  1.00  0.00    -0.252 OA
BRANCH  67  69
ATOM     69  O   UNL     1      -1.082  -1.629  -6.309  1.00  0.00    -0.481 OA
ATOM     70  H   UNL     1      -0.150  -1.914  -6.197  1.00  0.00     0.296 HD
ENDBRANCH  67  69
ENDBRANCH  66  67
ENDBRANCH  56  66
ENDBRANCH  53  56
ENDBRANCH  50  52
ENDBRANCH  47  50
ENDBRANCH  45  46
BRANCH  45  71
ATOM     71  C   UNL     1      -9.648  -3.281  -7.555  1.00  0.00     0.037 C 
BRANCH  71  72
ATOM     72  C   UNL     1      -8.984  -2.203  -8.416  1.00  0.00     0.026 C 
BRANCH  72  73
ATOM     73  C   UNL     1      -9.323  -2.380  -9.894  1.00  0.00     0.146 C 
BRANCH  73  74
ATOM     74  N   UNL     1      -9.571  -3.799 -10.130  1.00  0.00    -0.254 NA
ATOM     75  C   UNL     1      -8.711  -4.451 -10.822  1.00  0.00     0.185 C 
ATOM     76  N   UNL     1      -8.911  -5.758 -11.054  1.00  0.00    -0.370 N 
ATOM     77  N   UNL     1      -7.573  -4.011 -11.386  1.00  0.00    -0.370 N 
ATOM     78  H   UNL     1      -9.751  -6.168 -10.670  1.00  0.00     0.159 HD
ATOM     79  H   UNL     1      -8.363  -6.296 -11.702  1.00  0.00     0.159 HD
ATOM     80  H   UNL     1      -7.291  -3.048 -11.291  1.00  0.00     0.159 HD
ATOM     81  H   UNL     1      -6.916  -4.644 -11.811  1.00  0.00     0.159 HD
ENDBRANCH  73  74
ENDBRANCH  72  73
ENDBRANCH  71  72
ENDBRANCH  45  71
ENDBRANCH   3  45
TORSDOF 20
ENDMDL
MODEL 25
REMARK VINA RESULT:    -5.816      8.999     13.348
REMARK INTER + INTRA:         -23.517
REMARK INTER:                 -17.527
REMARK INTRA:                  -5.989
REMARK UNBOUND:                -6.822
REMARK SMILES CCCCCC(=O)N[C@H](CC(=O)O)C(=O)N[C@H]1C(=O)N[C@H](CCCN=C(N)N)C(=O)N[C@@H]2CC[C@H](O)N(C2=O)[C@@H](CC(C)C)C(=O)N(C)[C@@H](Cc2ccccc2)C(=O)N[C@H](C(C)C)C(=O)O[C@@H]1C
REMARK SMILES IDX 30 1 31 2 29 3 32 5 35 6 37 7 34 8 38 9 33 10 39 11 36 12
REMARK SMILES IDX 40 14 41 15 42 16 43 17 44 18 45 19 46 20 47 21 48 22 49 23
REMARK SMILES IDX 50 24 51 25 52 26 56 27 53 28 55 29 54 30 57 31 58 32 59 33
REMARK SMILES IDX 60 35 61 36 62 37 63 38 64 39 65 40 66 41 67 42 68 43 21 45
REMARK SMILES IDX 20 46 18 47 19 48 17 50 16 52 14 53 15 54 9 56 8 57 6 58
REMARK SMILES IDX 7 59 5 61 4 62 3 63 2 64 1 65 10 66 11 67 12 68 13 69 22 71
REMARK SMILES IDX 23 72 24 73 25 74 26 75 27 76 28 77
REMARK H PARENT 31 4 36 13 59 34 20 49 16 55 8 60 13 70 27 78 27 79 28 80
REMARK H PARENT 28 81
REMARK Flexibility Score:  259.900
ROOT
ATOM      1  O   UNL     1      -1.442   3.043 -11.687  1.00  0.00    -0.273 OA
ATOM      2  N   UNL     1      -3.445   2.921 -10.589  1.00  0.00    -0.343 N 
ATOM      3  C   UNL     1      -2.271   3.555 -10.934  1.00  0.00     0.243 C 
ATOM      4  H   UNL     1      -4.110   3.380  -9.979  1.00  0.00     0.164 HD
ENDROOT
BRANCH   2   5
ATOM      5  C   UNL     1      -3.701   1.550 -11.016  1.00  0.00     0.171 C 
ATOM      6  C   UNL     1      -5.882  -0.291 -10.506  1.00  0.00     0.214 C 
ATOM      7  N   UNL     1      -4.737  -0.285  -9.626  1.00  0.00    -0.303 N 
ATOM      8  C   UNL     1      -5.546   0.109 -11.934  1.00  0.00     0.057 C 
ATOM      9  C   UNL     1      -3.684   0.602  -9.783  1.00  0.00     0.247 C 
ATOM     10  C   UNL     1      -4.911   1.482 -11.946  1.00  0.00     0.040 C 
ATOM     11  O   UNL     1      -2.748   0.659  -8.975  1.00  0.00    -0.272 OA
BRANCH   6  12
ATOM     12  O   UNL     1      -6.845   0.583  -9.964  1.00  0.00    -0.373 OA
ATOM     13  H   UNL     1      -7.399   0.898 -10.710  1.00  0.00     0.213 HD
ENDBRANCH   6  12
BRANCH   7  14
ATOM     14  C   UNL     1      -4.793  -1.175  -8.447  1.00  0.00     0.177 C 
BRANCH  14  15
ATOM     15  C   UNL     1      -5.190  -0.489  -7.126  1.00  0.00     0.038 C 
BRANCH  15  16
ATOM     16  C   UNL     1      -6.159   0.713  -7.154  1.00  0.00    -0.015 C 
ATOM     17  C   UNL     1      -5.450   2.042  -6.878  1.00  0.00     0.007 C 
ATOM     18  C   UNL     1      -7.252   0.523  -6.094  1.00  0.00     0.007 C 
ENDBRANCH  15  16
ENDBRANCH  14  15
BRANCH  14  19
ATOM     19  C   UNL     1      -5.210  -2.623  -8.879  1.00  0.00     0.245 C 
ATOM     20  O   UNL     1      -4.610  -3.113  -9.850  1.00  0.00    -0.272 OA
BRANCH  19  21
ATOM     21  N   UNL     1      -6.265  -3.321  -8.318  1.00  0.00    -0.332 N 
ATOM     22  C   UNL     1      -7.667  -3.139  -8.649  1.00  0.00     0.147 C 
BRANCH  21  23
ATOM     23  C   UNL     1      -5.951  -4.340  -7.278  1.00  0.00     0.178 C 
BRANCH  23  24
ATOM     24  C   UNL     1      -4.457  -4.704  -7.161  1.00  0.00     0.070 C 
BRANCH  24  25
ATOM     25  C   UNL     1      -4.059  -6.109  -7.546  1.00  0.00    -0.045 A 
ATOM     26  C   UNL     1      -4.779  -7.214  -7.075  1.00  0.00     0.004 A 
ATOM     27  C   UNL     1      -2.953  -6.328  -8.382  1.00  0.00     0.004 A 
ATOM     28  C   UNL     1      -4.395  -8.511  -7.422  1.00  0.00     0.000 A 
ATOM     29  C   UNL     1      -2.570  -7.625  -8.728  1.00  0.00     0.000 A 
ATOM     30  C   UNL     1      -3.290  -8.715  -8.245  1.00  0.00     0.000 A 
ENDBRANCH  24  25
ENDBRANCH  23  24
BRANCH  23  31
ATOM     31  C   UNL     1      -6.662  -4.067  -5.931  1.00  0.00     0.243 C 
ATOM     32  O   UNL     1      -6.746  -2.957  -5.411  1.00  0.00    -0.273 OA
ATOM     33  N   UNL     1      -7.040  -5.218  -5.262  1.00  0.00    -0.341 N 
ATOM     34  H   UNL     1      -6.940  -6.115  -5.744  1.00  0.00     0.164 HD
BRANCH  33  35
ATOM     35  C   UNL     1      -7.622  -5.206  -3.917  1.00  0.00     0.194 C 
BRANCH  35  36
ATOM     36  C   UNL     1      -6.875  -6.107  -2.893  1.00  0.00     0.017 C 
ATOM     37  C   UNL     1      -6.616  -5.359  -1.574  1.00  0.00     0.010 C 
ATOM     38  C   UNL     1      -5.522  -6.613  -3.408  1.00  0.00     0.010 C 
ENDBRANCH  35  36
BRANCH  35  39
ATOM     39  C   UNL     1      -9.152  -5.482  -3.925  1.00  0.00     0.329 C 
ATOM     40  O   UNL     1      -9.991  -4.684  -4.327  1.00  0.00    -0.250 OA
BRANCH  39  41
ATOM     41  O   UNL     1      -9.454  -6.751  -3.513  1.00  0.00    -0.458 OA
BRANCH  41  42
ATOM     42  C   UNL     1     -10.632  -6.893  -2.684  1.00  0.00     0.205 CG0
ATOM     43  C   UNL     1     -10.155  -7.049  -1.242  1.00  0.00     0.056 C 
ATOM     44  G   UNL     1     -11.435  -8.114  -3.176  1.00  0.00     0.000 G0
ENDBRANCH  41  42
ENDBRANCH  39  41
ENDBRANCH  35  39
ENDBRANCH  33  35
ENDBRANCH  23  31
ENDBRANCH  21  23
ENDBRANCH  19  21
ENDBRANCH  14  19
ENDBRANCH   7  14
ENDBRANCH   2   5
BRANCH   3  45
ATOM     45  C   UNL     1      -2.077   4.953 -10.330  1.00  0.00     0.171 C 
BRANCH  45  46
ATOM     46  N   UNL     1      -0.933   5.527 -11.026  1.00  0.00    -0.342 N 
ATOM     47  C   UNL     1      -0.928   6.817 -11.494  1.00  0.00     0.247 C 
ATOM     48  O   UNL     1      -1.855   7.603 -11.297  1.00  0.00    -0.273 OA
ATOM     49  H   UNL     1      -0.121   4.928 -11.160  1.00  0.00     0.164 HD
BRANCH  47  50
ATOM     50  C   UNL     1       0.313   7.207 -12.310  1.00  0.00     0.212 CG0
ATOM     51  G   UNL     1       0.725   8.630 -11.882  1.00  0.00     0.000 G0
BRANCH  50  52
ATOM     52  N   UNL     1       1.319   6.196 -11.996  1.00  0.00    -0.339 N 
ATOM     53  C   UNL     1       2.623   6.271 -12.422  1.00  0.00     0.243 C 
ATOM     54  O   UNL     1       3.032   7.172 -13.148  1.00  0.00    -0.273 OA
ATOM     55  H   UNL     1       1.015   5.367 -11.490  1.00  0.00     0.164 HD
BRANCH  53  56
ATOM     56  C   UNL     1       3.478   5.045 -12.041  1.00  0.00     0.182 C 
BRANCH  56  57
ATOM     57  N   UNL     1       3.895   4.302 -13.235  1.00  0.00    -0.344 N 
ATOM     58  C   UNL     1       4.946   3.419 -13.223  1.00  0.00     0.220 C 
ATOM     59  O   UNL     1       5.654   3.244 -12.237  1.00  0.00    -0.275 OA
ATOM     60  H   UNL     1       3.275   4.341 -14.040  1.00  0.00     0.164 HD
BRANCH  58  61
ATOM     61  C   UNL     1       5.160   2.720 -14.553  1.00  0.00     0.100 C 
BRANCH  61  62
ATOM     62  C   UNL     1       3.895   2.081 -15.124  1.00  0.00     0.010 C 
BRANCH  62  63
ATOM     63  C   UNL     1       3.460   0.798 -14.404  1.00  0.00     0.000 C 
BRANCH  63  64
ATOM     64  C   UNL     1       2.297   0.989 -13.431  1.00  0.00    -0.003 C 
ATOM     65  C   UNL     1       2.698   0.626 -12.009  1.00  0.00     0.004 C 
ENDBRANCH  63  64
ENDBRANCH  62  63
ENDBRANCH  61  62
ENDBRANCH  58  61
ENDBRANCH  56  57
BRANCH  56  66
ATOM     66  C   UNL     1       2.761   4.154 -11.029  1.00  0.00     0.157 C 
BRANCH  66  67
ATOM     67  C   UNL     1       3.388   4.262  -9.669  1.00  0.00     0.305 C 
ATOM     68  O   UNL     1       3.086   5.047  -8.783  1.00  0.00    -0.252 OA
BRANCH  67  69
ATOM     69  O   UNL     1       4.341   3.332  -9.469  1.00  0.00    -0.481 OA
ATOM     70  H   UNL     1       4.223   3.049  -8.538  1.00  0.00     0.296 HD
ENDBRANCH  67  69
ENDBRANCH  66  67
ENDBRANCH  56  66
ENDBRANCH  53  56
ENDBRANCH  50  52
ENDBRANCH  47  50
ENDBRANCH  45  46
BRANCH  45  71
ATOM     71  C   UNL     1      -1.829   4.853  -8.821  1.00  0.00     0.037 C 
BRANCH  71  72
ATOM     72  C   UNL     1      -0.406   4.389  -8.500  1.00  0.00     0.026 C 
BRANCH  72  73
ATOM     73  C   UNL     1      -0.400   3.010  -7.844  1.00  0.00     0.146 C 
BRANCH  73  74
ATOM     74  N   UNL     1       0.978   2.531  -7.823  1.00  0.00    -0.254 NA
ATOM     75  C   UNL     1       1.230   1.408  -8.388  1.00  0.00     0.185 C 
ATOM     76  N   UNL     1       2.489   0.940  -8.386  1.00  0.00    -0.370 N 
ATOM     77  N   UNL     1       0.388   0.572  -9.020  1.00  0.00    -0.370 N 
ATOM     78  H   UNL     1       3.186   1.506  -7.924  1.00  0.00     0.159 HD
ATOM     79  H   UNL     1       2.735   0.011  -8.678  1.00  0.00     0.159 HD
ATOM     80  H   UNL     1      -0.593   0.796  -9.102  1.00  0.00     0.159 HD
ATOM     81  H   UNL     1       0.722  -0.231  -9.528  1.00  0.00     0.159 HD
ENDBRANCH  73  74
ENDBRANCH  72  73
ENDBRANCH  71  72
ENDBRANCH  45  71
ENDBRANCH   3  45
TORSDOF 20
ENDMDL
MODEL 26
REMARK VINA RESULT:    -5.813      7.747     11.842
REMARK INTER + INTRA:         -23.509
REMARK INTER:                 -18.598
REMARK INTRA:                  -4.911
REMARK UNBOUND:                -6.822
REMARK SMILES CCCCCC(=O)N[C@H](CC(=O)O)C(=O)N[C@H]1C(=O)N[C@H](CCCN=C(N)N)C(=O)N[C@@H]2CC[C@H](O)N(C2=O)[C@@H](CC(C)C)C(=O)N(C)[C@@H](Cc2ccccc2)C(=O)N[C@H](C(C)C)C(=O)O[C@@H]1C
REMARK SMILES IDX 30 1 31 2 29 3 32 5 35 6 37 7 34 8 38 9 33 10 39 11 36 12
REMARK SMILES IDX 40 14 41 15 42 16 43 17 44 18 45 19 46 20 47 21 48 22 49 23
REMARK SMILES IDX 50 24 51 25 52 26 56 27 53 28 55 29 54 30 57 31 58 32 59 33
REMARK SMILES IDX 60 35 61 36 62 37 63 38 64 39 65 40 66 41 67 42 68 43 21 45
REMARK SMILES IDX 20 46 18 47 19 48 17 50 16 52 14 53 15 54 9 56 8 57 6 58
REMARK SMILES IDX 7 59 5 61 4 62 3 63 2 64 1 65 10 66 11 67 12 68 13 69 22 71
REMARK SMILES IDX 23 72 24 73 25 74 26 75 27 76 28 77
REMARK H PARENT 31 4 36 13 59 34 20 49 16 55 8 60 13 70 27 78 27 79 28 80
REMARK H PARENT 28 81
REMARK Flexibility Score:  259.900
ROOT
ATOM      1  O   UNL     1      -1.812   1.277 -10.628  1.00  0.00    -0.273 OA
ATOM      2  N   UNL     1      -4.035   1.209 -10.097  1.00  0.00    -0.343 N 
ATOM      3  C   UNL     1      -2.849   1.871 -10.333  1.00  0.00     0.243 C 
ATOM      4  H   UNL     1      -4.873   1.732  -9.872  1.00  0.00     0.164 HD
ENDROOT
BRANCH   2   5
ATOM      5  C   UNL     1      -4.080  -0.249 -10.071  1.00  0.00     0.171 C 
ATOM      6  C   UNL     1      -6.264  -2.150 -10.209  1.00  0.00     0.214 C 
ATOM      7  N   UNL     1      -5.814  -1.677  -8.920  1.00  0.00    -0.303 N 
ATOM      8  C   UNL     1      -5.161  -2.186 -11.255  1.00  0.00     0.057 C 
ATOM      9  C   UNL     1      -4.811  -0.731  -8.786  1.00  0.00     0.247 C 
ATOM     10  C   UNL     1      -4.558  -0.807 -11.411  1.00  0.00     0.040 C 
ATOM     11  O   UNL     1      -4.490  -0.267  -7.684  1.00  0.00    -0.272 OA
BRANCH   6  12
ATOM     12  O   UNL     1      -7.316  -1.314 -10.631  1.00  0.00    -0.373 OA
ATOM     13  H   UNL     1      -7.798  -1.794 -11.338  1.00  0.00     0.213 HD
ENDBRANCH   6  12
BRANCH   7  14
ATOM     14  C   UNL     1      -6.571  -2.135  -7.736  1.00  0.00     0.177 C 
BRANCH  14  15
ATOM     15  C   UNL     1      -8.082  -1.830  -7.766  1.00  0.00     0.038 C 
BRANCH  15  16
ATOM     16  C   UNL     1      -9.088  -2.987  -7.954  1.00  0.00    -0.015 C 
ATOM     17  C   UNL     1     -10.033  -2.753  -9.136  1.00  0.00     0.007 C 
ATOM     18  C   UNL     1      -9.935  -3.149  -6.685  1.00  0.00     0.007 C 
ENDBRANCH  15  16
ENDBRANCH  14  15
BRANCH  14  19
ATOM     19  C   UNL     1      -5.919  -3.429  -7.141  1.00  0.00     0.245 C 
ATOM     20  O   UNL     1      -4.823  -3.292  -6.572  1.00  0.00    -0.272 OA
BRANCH  19  21
ATOM     21  N   UNL     1      -6.434  -4.702  -7.312  1.00  0.00    -0.332 N 
ATOM     22  C   UNL     1      -7.006  -5.221  -8.542  1.00  0.00     0.147 C 
BRANCH  21  23
ATOM     23  C   UNL     1      -6.418  -5.623  -6.142  1.00  0.00     0.178 C 
BRANCH  23  24
ATOM     24  C   UNL     1      -5.026  -6.178  -5.776  1.00  0.00     0.070 C 
BRANCH  24  25
ATOM     25  C   UNL     1      -4.296  -6.962  -6.842  1.00  0.00    -0.045 A 
ATOM     26  C   UNL     1      -4.593  -8.312  -7.070  1.00  0.00     0.004 A 
ATOM     27  C   UNL     1      -3.304  -6.345  -7.618  1.00  0.00     0.004 A 
ATOM     28  C   UNL     1      -3.902  -9.034  -8.045  1.00  0.00     0.000 A 
ATOM     29  C   UNL     1      -2.615  -7.068  -8.594  1.00  0.00     0.000 A 
ATOM     30  C   UNL     1      -2.913  -8.413  -8.804  1.00  0.00     0.000 A 
ENDBRANCH  24  25
ENDBRANCH  23  24
BRANCH  23  31
ATOM     31  C   UNL     1      -7.243  -5.092  -4.945  1.00  0.00     0.243 C 
ATOM     32  O   UNL     1      -7.288  -3.911  -4.611  1.00  0.00    -0.273 OA
ATOM     33  N   UNL     1      -7.785  -6.095  -4.159  1.00  0.00    -0.341 N 
ATOM     34  H   UNL     1      -7.710  -7.061  -4.486  1.00  0.00     0.164 HD
BRANCH  33  35
ATOM     35  C   UNL     1      -8.504  -5.830  -2.909  1.00  0.00     0.194 C 
BRANCH  35  36
ATOM     36  C   UNL     1      -7.715  -6.224  -1.628  1.00  0.00     0.017 C 
ATOM     37  C   UNL     1      -6.646  -5.172  -1.284  1.00  0.00     0.010 C 
ATOM     38  C   UNL     1      -7.006  -7.578  -1.747  1.00  0.00     0.010 C 
ENDBRANCH  35  36
BRANCH  35  39
ATOM     39  C   UNL     1      -9.942  -6.420  -2.910  1.00  0.00     0.329 C 
ATOM     40  O   UNL     1     -10.266  -7.438  -3.511  1.00  0.00    -0.250 OA
BRANCH  39  41
ATOM     41  O   UNL     1     -10.789  -5.724  -2.093  1.00  0.00    -0.458 OA
BRANCH  41  42
ATOM     42  C   UNL     1     -11.445  -6.486  -1.051  1.00  0.00     0.205 CG0
ATOM     43  C   UNL     1     -10.801  -6.088   0.276  1.00  0.00     0.056 C 
ATOM     44  G   UNL     1     -11.278  -7.987  -1.360  1.00  0.00     0.000 G0
ENDBRANCH  41  42
ENDBRANCH  39  41
ENDBRANCH  35  39
ENDBRANCH  33  35
ENDBRANCH  23  31
ENDBRANCH  21  23
ENDBRANCH  19  21
ENDBRANCH  14  19
ENDBRANCH   7  14
ENDBRANCH   2   5
BRANCH   3  45
ATOM     45  C   UNL     1      -2.917   3.400 -10.224  1.00  0.00     0.171 C 
BRANCH  45  46
ATOM     46  N   UNL     1      -2.061   3.909 -11.287  1.00  0.00    -0.342 N 
ATOM     47  C   UNL     1      -2.556   4.316 -12.500  1.00  0.00     0.247 C 
ATOM     48  O   UNL     1      -3.761   4.351 -12.753  1.00  0.00    -0.273 OA
ATOM     49  H   UNL     1      -1.061   3.951 -11.100  1.00  0.00     0.164 HD
BRANCH  47  50
ATOM     50  C   UNL     1      -1.494   4.703 -13.539  1.00  0.00     0.212 CG0
ATOM     51  G   UNL     1      -1.224   6.214 -13.391  1.00  0.00     0.000 G0
BRANCH  50  52
ATOM     52  N   UNL     1      -0.330   3.877 -13.233  1.00  0.00    -0.339 N 
ATOM     53  C   UNL     1      -0.004   2.740 -13.933  1.00  0.00     0.243 C 
ATOM     54  O   UNL     1      -0.702   2.300 -14.842  1.00  0.00    -0.273 OA
ATOM     55  H   UNL     1       0.227   4.128 -12.418  1.00  0.00     0.164 HD
BRANCH  53  56
ATOM     56  C   UNL     1       1.218   1.986 -13.372  1.00  0.00     0.182 C 
BRANCH  56  57
ATOM     57  N   UNL     1       2.159   2.911 -12.731  1.00  0.00    -0.344 N 
ATOM     58  C   UNL     1       2.464   2.842 -11.394  1.00  0.00     0.220 C 
ATOM     59  O   UNL     1       1.919   2.054 -10.629  1.00  0.00    -0.275 OA
ATOM     60  H   UNL     1       2.706   3.510 -13.344  1.00  0.00     0.164 HD
BRANCH  58  61
ATOM     61  C   UNL     1       3.504   3.859 -10.960  1.00  0.00     0.100 C 
BRANCH  61  62
ATOM     62  C   UNL     1       2.987   5.298 -10.939  1.00  0.00     0.010 C 
BRANCH  62  63
ATOM     63  C   UNL     1       2.663   5.827  -9.536  1.00  0.00     0.000 C 
BRANCH  63  64
ATOM     64  C   UNL     1       1.281   5.429  -9.020  1.00  0.00    -0.003 C 
ATOM     65  C   UNL     1       1.380   4.372  -7.929  1.00  0.00     0.004 C 
ENDBRANCH  63  64
ENDBRANCH  62  63
ENDBRANCH  61  62
ENDBRANCH  58  61
ENDBRANCH  56  57
BRANCH  56  66
ATOM     66  C   UNL     1       1.891   1.132 -14.445  1.00  0.00     0.157 C 
BRANCH  66  67
ATOM     67  C   UNL     1       3.277   1.625 -14.743  1.00  0.00     0.305 C 
ATOM     68  O   UNL     1       3.587   2.523 -15.511  1.00  0.00    -0.252 OA
BRANCH  67  69
ATOM     69  O   UNL     1       4.214   0.990 -14.012  1.00  0.00    -0.481 OA
ATOM     70  H   UNL     1       3.727   0.278 -13.547  1.00  0.00     0.296 HD
ENDBRANCH  67  69
ENDBRANCH  66  67
ENDBRANCH  56  66
ENDBRANCH  53  56
ENDBRANCH  50  52
ENDBRANCH  47  50
ENDBRANCH  45  46
BRANCH  45  71
ATOM     71  C   UNL     1      -2.437   3.859  -8.843  1.00  0.00     0.037 C 
BRANCH  71  72
ATOM     72  C   UNL     1      -2.861   2.891  -7.735  1.00  0.00     0.026 C 
BRANCH  72  73
ATOM     73  C   UNL     1      -1.657   2.378  -6.948  1.00  0.00     0.146 C 
BRANCH  73  74
ATOM     74  N   UNL     1      -1.661   0.920  -7.025  1.00  0.00    -0.254 NA
ATOM     75  C   UNL     1      -0.688   0.350  -7.635  1.00  0.00     0.185 C 
ATOM     76  N   UNL     1      -0.663  -0.990  -7.721  1.00  0.00    -0.370 N 
ATOM     77  N   UNL     1       0.374   0.909  -8.240  1.00  0.00    -0.370 N 
ATOM     78  H   UNL     1      -1.432  -1.490  -7.298  1.00  0.00     0.159 HD
ATOM     79  H   UNL     1      -0.018  -1.496  -8.303  1.00  0.00     0.159 HD
ATOM     80  H   UNL     1       0.490   1.911  -8.251  1.00  0.00     0.159 HD
ATOM     81  H   UNL     1       1.137   0.353  -8.588  1.00  0.00     0.159 HD
ENDBRANCH  73  74
ENDBRANCH  72  73
ENDBRANCH  71  72
ENDBRANCH  45  71
ENDBRANCH   3  45
TORSDOF 20
ENDMDL
MODEL 27
REMARK VINA RESULT:    -5.745      5.190      7.040
REMARK INTER + INTRA:         -23.313
REMARK INTER:                 -17.265
REMARK INTRA:                  -6.048
REMARK UNBOUND:                -6.822
REMARK SMILES CCCCCC(=O)N[C@H](CC(=O)O)C(=O)N[C@H]1C(=O)N[C@H](CCCN=C(N)N)C(=O)N[C@@H]2CC[C@H](O)N(C2=O)[C@@H](CC(C)C)C(=O)N(C)[C@@H](Cc2ccccc2)C(=O)N[C@H](C(C)C)C(=O)O[C@@H]1C
REMARK SMILES IDX 30 1 31 2 29 3 32 5 35 6 37 7 34 8 38 9 33 10 39 11 36 12
REMARK SMILES IDX 40 14 41 15 42 16 43 17 44 18 45 19 46 20 47 21 48 22 49 23
REMARK SMILES IDX 50 24 51 25 52 26 56 27 53 28 55 29 54 30 57 31 58 32 59 33
REMARK SMILES IDX 60 35 61 36 62 37 63 38 64 39 65 40 66 41 67 42 68 43 21 45
REMARK SMILES IDX 20 46 18 47 19 48 17 50 16 52 14 53 15 54 9 56 8 57 6 58
REMARK SMILES IDX 7 59 5 61 4 62 3 63 2 64 1 65 10 66 11 67 12 68 13 69 22 71
REMARK SMILES IDX 23 72 24 73 25 74 26 75 27 76 28 77
REMARK H PARENT 31 4 36 13 59 34 20 49 16 55 8 60 13 70 27 78 27 79 28 80
REMARK H PARENT 28 81
REMARK Flexibility Score:  259.900
ROOT
ATOM      1  O   UNL     1      -5.964  -1.092  -5.614  1.00  0.00    -0.273 OA
ATOM      2  N   UNL     1      -7.664   0.435  -5.718  1.00  0.00    -0.343 N 
ATOM      3  C   UNL     1      -6.473  -0.108  -6.152  1.00  0.00     0.243 C 
ATOM      4  H   UNL     1      -8.060   1.236  -6.195  1.00  0.00     0.164 HD
ENDROOT
BRANCH   2   5
ATOM      5  C   UNL     1      -8.315  -0.069  -4.514  1.00  0.00     0.171 C 
ATOM      6  C   UNL     1     -10.833   0.571  -3.228  1.00  0.00     0.214 C 
ATOM      7  N   UNL     1      -9.637   1.286  -2.845  1.00  0.00    -0.303 N 
ATOM      8  C   UNL     1     -10.561  -0.850  -3.696  1.00  0.00     0.057 C 
ATOM      9  C   UNL     1      -8.413   1.065  -3.454  1.00  0.00     0.247 C 
ATOM     10  C   UNL     1      -9.594  -0.830  -4.860  1.00  0.00     0.040 C 
ATOM     11  O   UNL     1      -7.413   1.741  -3.180  1.00  0.00    -0.272 OA
BRANCH   6  12
ATOM     12  O   UNL     1     -11.469   1.311  -4.245  1.00  0.00    -0.373 OA
ATOM     13  H   UNL     1     -12.202   1.808  -3.823  1.00  0.00     0.213 HD
ENDBRANCH   6  12
BRANCH   7  14
ATOM     14  C   UNL     1      -9.797   2.381  -1.864  1.00  0.00     0.177 C 
BRANCH  14  15
ATOM     15  C   UNL     1     -10.128   3.759  -2.469  1.00  0.00     0.038 C 
BRANCH  15  16
ATOM     16  C   UNL     1      -9.230   4.971  -2.138  1.00  0.00    -0.015 C 
ATOM     17  C   UNL     1      -8.094   4.612  -1.176  1.00  0.00     0.007 C 
ATOM     18  C   UNL     1     -10.072   6.080  -1.493  1.00  0.00     0.007 C 
ENDBRANCH  15  16
ENDBRANCH  14  15
BRANCH  14  19
ATOM     19  C   UNL     1     -10.362   1.823  -0.513  1.00  0.00     0.245 C 
ATOM     20  O   UNL     1     -11.465   2.261  -0.145  1.00  0.00    -0.272 OA
BRANCH  19  21
ATOM     21  N   UNL     1      -9.660   0.975   0.325  1.00  0.00    -0.332 N 
ATOM     22  C   UNL     1      -8.228   1.017   0.559  1.00  0.00     0.147 C 
BRANCH  21  23
ATOM     23  C   UNL     1     -10.425  -0.080   1.046  1.00  0.00     0.178 C 
BRANCH  23  24
ATOM     24  C   UNL     1      -9.664  -1.407   1.243  1.00  0.00     0.070 C 
BRANCH  24  25
ATOM     25  C   UNL     1      -9.608  -2.350   0.063  1.00  0.00    -0.045 A 
ATOM     26  C   UNL     1      -8.565  -2.271  -0.869  1.00  0.00     0.004 A 
ATOM     27  C   UNL     1     -10.607  -3.317  -0.118  1.00  0.00     0.004 A 
ATOM     28  C   UNL     1      -8.529  -3.134  -1.966  1.00  0.00     0.000 A 
ATOM     29  C   UNL     1     -10.570  -4.180  -1.214  1.00  0.00     0.000 A 
ATOM     30  C   UNL     1      -9.532  -4.086  -2.139  1.00  0.00     0.000 A 
ENDBRANCH  24  25
ENDBRANCH  23  24
BRANCH  23  31
ATOM     31  C   UNL     1     -11.144   0.452   2.309  1.00  0.00     0.243 C 
ATOM     32  O   UNL     1     -12.269   0.103   2.657  1.00  0.00    -0.273 OA
ATOM     33  N   UNL     1     -10.482   1.503   2.921  1.00  0.00    -0.341 N 
ATOM     34  H   UNL     1      -9.550   1.752   2.583  1.00  0.00     0.164 HD
BRANCH  33  35
ATOM     35  C   UNL     1     -11.036   2.240   4.061  1.00  0.00     0.194 C 
BRANCH  35  36
ATOM     36  C   UNL     1     -11.249   3.756   3.793  1.00  0.00     0.017 C 
ATOM     37  C   UNL     1     -12.477   3.999   2.898  1.00  0.00     0.010 C 
ATOM     38  C   UNL     1     -10.048   4.426   3.115  1.00  0.00     0.010 C 
ENDBRANCH  35  36
BRANCH  35  39
ATOM     39  C   UNL     1     -10.246   1.988   5.375  1.00  0.00     0.329 C 
ATOM     40  O   UNL     1      -9.283   1.236   5.464  1.00  0.00    -0.250 OA
BRANCH  39  41
ATOM     41  O   UNL     1     -10.691   2.768   6.407  1.00  0.00    -0.458 OA
BRANCH  41  42
ATOM     42  C   UNL     1     -11.385   2.081   7.476  1.00  0.00     0.205 CG0
ATOM     43  C   UNL     1     -12.875   2.107   7.140  1.00  0.00     0.056 C 
ATOM     44  G   UNL     1     -11.069   2.795   8.805  1.00  0.00     0.000 G0
ENDBRANCH  41  42
ENDBRANCH  39  41
ENDBRANCH  35  39
ENDBRANCH  33  35
ENDBRANCH  23  31
ENDBRANCH  21  23
ENDBRANCH  19  21
ENDBRANCH  14  19
ENDBRANCH   7  14
ENDBRANCH   2   5
BRANCH   3  45
ATOM     45  C   UNL     1      -5.839   0.584  -7.366  1.00  0.00     0.171 C 
BRANCH  45  46
ATOM     46  N   UNL     1      -6.006  -0.340  -8.479  1.00  0.00    -0.342 N 
ATOM     47  C   UNL     1      -6.788  -0.046  -9.568  1.00  0.00     0.247 C 
ATOM     48  O   UNL     1      -7.343   1.043  -9.719  1.00  0.00    -0.273 OA
ATOM     49  H   UNL     1      -5.518  -1.232  -8.422  1.00  0.00     0.164 HD
BRANCH  47  50
ATOM     50  C   UNL     1      -6.946  -1.188 -10.582  1.00  0.00     0.212 CG0
ATOM     51  G   UNL     1      -5.660  -1.241 -11.431  1.00  0.00     0.000 G0
BRANCH  50  52
ATOM     52  N   UNL     1      -7.160  -2.392  -9.782  1.00  0.00    -0.339 N 
ATOM     53  C   UNL     1      -7.083  -3.664 -10.296  1.00  0.00     0.243 C 
ATOM     54  O   UNL     1      -6.879  -3.886 -11.486  1.00  0.00    -0.273 OA
ATOM     55  H   UNL     1      -7.442  -2.271  -8.812  1.00  0.00     0.164 HD
BRANCH  53  56
ATOM     56  C   UNL     1      -7.432  -4.772  -9.282  1.00  0.00     0.182 C 
BRANCH  56  57
ATOM     57  N   UNL     1      -6.752  -6.027  -9.618  1.00  0.00    -0.344 N 
ATOM     58  C   UNL     1      -6.381  -6.942  -8.663  1.00  0.00     0.220 C 
ATOM     59  O   UNL     1      -6.525  -6.743  -7.462  1.00  0.00    -0.275 OA
ATOM     60  H   UNL     1      -6.705  -6.276 -10.603  1.00  0.00     0.164 HD
BRANCH  58  61
ATOM     61  C   UNL     1      -5.745  -8.192  -9.243  1.00  0.00     0.100 C 
BRANCH  61  62
ATOM     62  C   UNL     1      -5.789  -9.398  -8.304  1.00  0.00     0.010 C 
BRANCH  62  63
ATOM     63  C   UNL     1      -4.446  -9.722  -7.637  1.00  0.00     0.000 C 
BRANCH  63  64
ATOM     64  C   UNL     1      -3.615 -10.769  -8.378  1.00  0.00    -0.003 C 
ATOM     65  C   UNL     1      -4.488 -11.648  -9.261  1.00  0.00     0.004 C 
ENDBRANCH  63  64
ENDBRANCH  62  63
ENDBRANCH  61  62
ENDBRANCH  58  61
ENDBRANCH  56  57
BRANCH  56  66
ATOM     66  C   UNL     1      -8.943  -4.953  -9.148  1.00  0.00     0.157 C 
BRANCH  66  67
ATOM     67  C   UNL     1      -9.422  -6.131  -9.947  1.00  0.00     0.305 C 
ATOM     68  O   UNL     1      -9.927  -7.155  -9.512  1.00  0.00    -0.252 OA
BRANCH  67  69
ATOM     69  O   UNL     1      -9.288  -5.938 -11.273  1.00  0.00    -0.481 OA
ATOM     70  H   UNL     1     -10.084  -5.428 -11.533  1.00  0.00     0.296 HD
ENDBRANCH  67  69
ENDBRANCH  66  67
ENDBRANCH  56  66
ENDBRANCH  53  56
ENDBRANCH  50  52
ENDBRANCH  47  50
ENDBRANCH  45  46
BRANCH  45  71
ATOM     71  C   UNL     1      -4.359   0.882  -7.096  1.00  0.00     0.037 C 
BRANCH  71  72
ATOM     72  C   UNL     1      -3.461   0.429  -8.250  1.00  0.00     0.026 C 
BRANCH  72  73
ATOM     73  C   UNL     1      -2.564  -0.735  -7.838  1.00  0.00     0.146 C 
BRANCH  73  74
ATOM     74  N   UNL     1      -2.929  -1.891  -8.651  1.00  0.00    -0.254 NA
ATOM     75  C   UNL     1      -3.560  -2.850  -8.081  1.00  0.00     0.185 C 
ATOM     76  N   UNL     1      -3.910  -3.926  -8.803  1.00  0.00    -0.370 N 
ATOM     77  N   UNL     1      -3.951  -2.960  -6.799  1.00  0.00    -0.370 N 
ATOM     78  H   UNL     1      -3.647  -3.928  -9.778  1.00  0.00     0.159 HD
ATOM     79  H   UNL     1      -4.273  -4.771  -8.398  1.00  0.00     0.159 HD
ATOM     80  H   UNL     1      -3.758  -2.222  -6.138  1.00  0.00     0.159 HD
ATOM     81  H   UNL     1      -4.544  -3.712  -6.490  1.00  0.00     0.159 HD
ENDBRANCH  73  74
ENDBRANCH  72  73
ENDBRANCH  71  72
ENDBRANCH  45  71
ENDBRANCH   3  45
TORSDOF 20
ENDMDL
MODEL 28
REMARK VINA RESULT:    -5.704      7.435     11.758
REMARK INTER + INTRA:         -23.198
REMARK INTER:                 -16.809
REMARK INTRA:                  -6.388
REMARK UNBOUND:                -6.822
REMARK SMILES CCCCCC(=O)N[C@H](CC(=O)O)C(=O)N[C@H]1C(=O)N[C@H](CCCN=C(N)N)C(=O)N[C@@H]2CC[C@H](O)N(C2=O)[C@@H](CC(C)C)C(=O)N(C)[C@@H](Cc2ccccc2)C(=O)N[C@H](C(C)C)C(=O)O[C@@H]1C
REMARK SMILES IDX 30 1 31 2 29 3 32 5 35 6 37 7 34 8 38 9 33 10 39 11 36 12
REMARK SMILES IDX 40 14 41 15 42 16 43 17 44 18 45 19 46 20 47 21 48 22 49 23
REMARK SMILES IDX 50 24 51 25 52 26 56 27 53 28 55 29 54 30 57 31 58 32 59 33
REMARK SMILES IDX 60 35 61 36 62 37 63 38 64 39 65 40 66 41 67 42 68 43 21 45
REMARK SMILES IDX 20 46 18 47 19 48 17 50 16 52 14 53 15 54 9 56 8 57 6 58
REMARK SMILES IDX 7 59 5 61 4 62 3 63 2 64 1 65 10 66 11 67 12 68 13 69 22 71
REMARK SMILES IDX 23 72 24 73 25 74 26 75 27 76 28 77
REMARK H PARENT 31 4 36 13 59 34 20 49 16 55 8 60 13 70 27 78 27 79 28 80
REMARK H PARENT 28 81
REMARK Flexibility Score:  259.900
ROOT
ATOM      1  O   UNL     1      -2.151   4.130  -6.503  1.00  0.00    -0.273 OA
ATOM      2  N   UNL     1      -2.587   2.596  -8.141  1.00  0.00    -0.343 N 
ATOM      3  C   UNL     1      -2.326   3.873  -7.694  1.00  0.00     0.243 C 
ATOM      4  H   UNL     1      -2.710   2.419  -9.131  1.00  0.00     0.164 HD
ENDROOT
BRANCH   2   5
ATOM      5  C   UNL     1      -2.787   1.504  -7.195  1.00  0.00     0.171 C 
ATOM      6  C   UNL     1      -2.768  -1.380  -7.490  1.00  0.00     0.214 C 
ATOM      7  N   UNL     1      -4.011  -0.659  -7.636  1.00  0.00    -0.303 N 
ATOM      8  C   UNL     1      -1.793  -0.709  -6.536  1.00  0.00     0.057 C 
ATOM      9  C   UNL     1      -4.082   0.722  -7.558  1.00  0.00     0.247 C 
ATOM     10  C   UNL     1      -1.502   0.699  -7.006  1.00  0.00     0.040 C 
ATOM     11  O   UNL     1      -5.135   1.338  -7.770  1.00  0.00    -0.272 OA
BRANCH   6  12
ATOM     12  O   UNL     1      -2.194  -1.512  -8.769  1.00  0.00    -0.373 OA
ATOM     13  H   UNL     1      -2.084  -2.472  -8.937  1.00  0.00     0.213 HD
ENDBRANCH   6  12
BRANCH   7  14
ATOM     14  C   UNL     1      -5.201  -1.446  -8.022  1.00  0.00     0.177 C 
BRANCH  14  15
ATOM     15  C   UNL     1      -4.994  -2.411  -9.206  1.00  0.00     0.038 C 
BRANCH  15  16
ATOM     16  C   UNL     1      -5.925  -2.318 -10.436  1.00  0.00    -0.015 C 
ATOM     17  C   UNL     1      -6.808  -1.067 -10.407  1.00  0.00     0.007 C 
ATOM     18  C   UNL     1      -6.838  -3.550 -10.489  1.00  0.00     0.007 C 
ENDBRANCH  15  16
ENDBRANCH  14  15
BRANCH  14  19
ATOM     19  C   UNL     1      -6.097  -1.731  -6.767  1.00  0.00     0.245 C 
ATOM     20  O   UNL     1      -5.648  -1.368  -5.667  1.00  0.00    -0.272 OA
BRANCH  19  21
ATOM     21  N   UNL     1      -7.279  -2.448  -6.810  1.00  0.00    -0.332 N 
ATOM     22  C   UNL     1      -8.531  -1.977  -7.374  1.00  0.00     0.147 C 
BRANCH  21  23
ATOM     23  C   UNL     1      -7.284  -3.816  -6.221  1.00  0.00     0.178 C 
BRANCH  23  24
ATOM     24  C   UNL     1      -5.997  -4.629  -6.465  1.00  0.00     0.070 C 
BRANCH  24  25
ATOM     25  C   UNL     1      -6.048  -5.692  -7.538  1.00  0.00    -0.045 A 
ATOM     26  C   UNL     1      -4.869  -6.227  -8.074  1.00  0.00     0.004 A 
ATOM     27  C   UNL     1      -7.282  -6.155  -8.018  1.00  0.00     0.004 A 
ATOM     28  C   UNL     1      -4.925  -7.196  -9.078  1.00  0.00     0.000 A 
ATOM     29  C   UNL     1      -7.336  -7.124  -9.020  1.00  0.00     0.000 A 
ATOM     30  C   UNL     1      -6.156  -7.642  -9.552  1.00  0.00     0.000 A 
ENDBRANCH  24  25
ENDBRANCH  23  24
BRANCH  23  31
ATOM     31  C   UNL     1      -7.806  -3.844  -4.764  1.00  0.00     0.243 C 
ATOM     32  O   UNL     1      -7.661  -2.922  -3.965  1.00  0.00    -0.273 OA
ATOM     33  N   UNL     1      -8.293  -5.079  -4.375  1.00  0.00    -0.341 N 
ATOM     34  H   UNL     1      -8.385  -5.810  -5.084  1.00  0.00     0.164 HD
BRANCH  33  35
ATOM     35  C   UNL     1      -8.730  -5.371  -3.006  1.00  0.00     0.194 C 
BRANCH  35  36
ATOM     36  C   UNL     1      -7.824  -6.386  -2.254  1.00  0.00     0.017 C 
ATOM     37  C   UNL     1      -6.334  -6.045  -2.431  1.00  0.00     0.010 C 
ATOM     38  C   UNL     1      -8.021  -7.834  -2.720  1.00  0.00     0.010 C 
ENDBRANCH  35  36
BRANCH  35  39
ATOM     39  C   UNL     1     -10.231  -5.765  -2.928  1.00  0.00     0.329 C 
ATOM     40  O   UNL     1     -10.891  -6.146  -3.888  1.00  0.00    -0.250 OA
BRANCH  39  41
ATOM     41  O   UNL     1     -10.715  -5.721  -1.650  1.00  0.00    -0.458 OA
BRANCH  41  42
ATOM     42  C   UNL     1     -11.470  -6.875  -1.211  1.00  0.00     0.205 CG0
ATOM     43  C   UNL     1     -10.673  -7.542  -0.092  1.00  0.00     0.056 C 
ATOM     44  G   UNL     1     -11.686  -7.810  -2.418  1.00  0.00     0.000 G0
ENDBRANCH  41  42
ENDBRANCH  39  41
ENDBRANCH  35  39
ENDBRANCH  33  35
ENDBRANCH  23  31
ENDBRANCH  21  23
ENDBRANCH  19  21
ENDBRANCH  14  19
ENDBRANCH   7  14
ENDBRANCH   2   5
BRANCH   3  45
ATOM     45  C   UNL     1      -2.245   4.948  -8.786  1.00  0.00     0.171 C 
BRANCH  45  46
ATOM     46  N   UNL     1      -0.825   5.202  -8.986  1.00  0.00    -0.342 N 
ATOM     47  C   UNL     1      -0.331   5.759 -10.138  1.00  0.00     0.247 C 
ATOM     48  O   UNL     1      -1.055   6.150 -11.055  1.00  0.00    -0.273 OA
ATOM     49  H   UNL     1      -0.195   4.944  -8.228  1.00  0.00     0.164 HD
BRANCH  47  50
ATOM     50  C   UNL     1       1.200   5.835 -10.219  1.00  0.00     0.212 CG0
ATOM     51  G   UNL     1       1.696   6.608  -8.981  1.00  0.00     0.000 G0
BRANCH  50  52
ATOM     52  N   UNL     1       1.658   4.449 -10.256  1.00  0.00    -0.339 N 
ATOM     53  C   UNL     1       1.893   3.761 -11.421  1.00  0.00     0.243 C 
ATOM     54  O   UNL     1       1.683   4.246 -12.530  1.00  0.00    -0.273 OA
ATOM     55  H   UNL     1       1.744   3.956  -9.369  1.00  0.00     0.164 HD
BRANCH  53  56
ATOM     56  C   UNL     1       2.286   2.285 -11.211  1.00  0.00     0.182 C 
BRANCH  56  57
ATOM     57  N   UNL     1       1.158   1.393 -11.497  1.00  0.00    -0.344 N 
ATOM     58  C   UNL     1      -0.039   1.484 -10.830  1.00  0.00     0.220 C 
ATOM     59  O   UNL     1      -0.224   2.263  -9.901  1.00  0.00    -0.275 OA
ATOM     60  H   UNL     1       1.234   0.805 -12.323  1.00  0.00     0.164 HD
BRANCH  58  61
ATOM     61  C   UNL     1      -1.082   0.501 -11.330  1.00  0.00     0.100 C 
BRANCH  61  62
ATOM     62  C   UNL     1      -2.512   1.041 -11.277  1.00  0.00     0.010 C 
BRANCH  62  63
ATOM     63  C   UNL     1      -3.560   0.100 -11.884  1.00  0.00     0.000 C 
BRANCH  63  64
ATOM     64  C   UNL     1      -4.644   0.809 -12.695  1.00  0.00    -0.003 C 
ATOM     65  C   UNL     1      -4.039   1.750 -13.726  1.00  0.00     0.004 C 
ENDBRANCH  63  64
ENDBRANCH  62  63
ENDBRANCH  61  62
ENDBRANCH  58  61
ENDBRANCH  56  57
BRANCH  56  66
ATOM     66  C   UNL     1       2.865   2.053  -9.816  1.00  0.00     0.157 C 
BRANCH  66  67
ATOM     67  C   UNL     1       3.942   1.007  -9.840  1.00  0.00     0.305 C 
ATOM     68  O   UNL     1       4.972   1.001  -9.184  1.00  0.00    -0.252 OA
BRANCH  67  69
ATOM     69  O   UNL     1       3.642  -0.017 -10.662  1.00  0.00    -0.481 OA
ATOM     70  H   UNL     1       3.307  -0.723 -10.069  1.00  0.00     0.296 HD
ENDBRANCH  67  69
ENDBRANCH  66  67
ENDBRANCH  56  66
ENDBRANCH  53  56
ENDBRANCH  50  52
ENDBRANCH  47  50
ENDBRANCH  45  46
BRANCH  45  71
ATOM     71  C   UNL     1      -2.989   6.213  -8.345  1.00  0.00     0.037 C 
BRANCH  71  72
ATOM     72  C   UNL     1      -4.474   6.168  -8.717  1.00  0.00     0.026 C 
BRANCH  72  73
ATOM     73  C   UNL     1      -5.355   5.993  -7.483  1.00  0.00     0.146 C 
BRANCH  73  74
ATOM     74  N   UNL     1      -5.140   7.145  -6.612  1.00  0.00    -0.254 NA
ATOM     75  C   UNL     1      -5.719   7.148  -5.469  1.00  0.00     0.185 C 
ATOM     76  N   UNL     1      -5.538   8.193  -4.645  1.00  0.00    -0.370 N 
ATOM     77  N   UNL     1      -6.525   6.218  -4.927  1.00  0.00    -0.370 N 
ATOM     78  H   UNL     1      -4.950   8.943  -4.980  1.00  0.00     0.159 HD
ATOM     79  H   UNL     1      -6.069   8.333  -3.804  1.00  0.00     0.159 HD
ATOM     80  H   UNL     1      -6.747   5.374  -5.432  1.00  0.00     0.159 HD
ATOM     81  H   UNL     1      -6.830   6.277  -3.970  1.00  0.00     0.159 HD
ENDBRANCH  73  74
ENDBRANCH  72  73
ENDBRANCH  71  72
ENDBRANCH  45  71
ENDBRANCH   3  45
TORSDOF 20
ENDMDL
MODEL 29
REMARK VINA RESULT:    -5.697      3.938      8.551
REMARK INTER + INTRA:         -23.176
REMARK INTER:                 -18.022
REMARK INTRA:                  -5.154
REMARK UNBOUND:                -6.822
REMARK SMILES CCCCCC(=O)N[C@H](CC(=O)O)C(=O)N[C@H]1C(=O)N[C@H](CCCN=C(N)N)C(=O)N[C@@H]2CC[C@H](O)N(C2=O)[C@@H](CC(C)C)C(=O)N(C)[C@@H](Cc2ccccc2)C(=O)N[C@H](C(C)C)C(=O)O[C@@H]1C
REMARK SMILES IDX 30 1 31 2 29 3 32 5 35 6 37 7 34 8 38 9 33 10 39 11 36 12
REMARK SMILES IDX 40 14 41 15 42 16 43 17 44 18 45 19 46 20 47 21 48 22 49 23
REMARK SMILES IDX 50 24 51 25 52 26 56 27 53 28 55 29 54 30 57 31 58 32 59 33
REMARK SMILES IDX 60 35 61 36 62 37 63 38 64 39 65 40 66 41 67 42 68 43 21 45
REMARK SMILES IDX 20 46 18 47 19 48 17 50 16 52 14 53 15 54 9 56 8 57 6 58
REMARK SMILES IDX 7 59 5 61 4 62 3 63 2 64 1 65 10 66 11 67 12 68 13 69 22 71
REMARK SMILES IDX 23 72 24 73 25 74 26 75 27 76 28 77
REMARK H PARENT 31 4 36 13 59 34 20 49 16 55 8 60 13 70 27 78 27 79 28 80
REMARK H PARENT 28 81
REMARK Flexibility Score:  259.900
ROOT
ATOM      1  O   UNL     1      -6.273  -4.711  -1.265  1.00  0.00    -0.273 OA
ATOM      2  N   UNL     1      -8.437  -5.077  -0.622  1.00  0.00    -0.343 N 
ATOM      3  C   UNL     1      -7.418  -5.065  -1.549  1.00  0.00     0.243 C 
ATOM      4  H   UNL     1      -9.363  -5.388  -0.888  1.00  0.00     0.164 HD
ENDROOT
BRANCH   2   5
ATOM      5  C   UNL     1      -8.223  -4.551   0.722  1.00  0.00     0.171 C 
ATOM      6  C   UNL     1      -9.941  -4.353   3.050  1.00  0.00     0.214 C 
ATOM      7  N   UNL     1      -9.889  -3.257   2.110  1.00  0.00    -0.303 N 
ATOM      8  C   UNL     1      -8.641  -5.137   3.132  1.00  0.00     0.057 C 
ATOM      9  C   UNL     1      -9.129  -3.308   0.952  1.00  0.00     0.247 C 
ATOM     10  C   UNL     1      -8.276  -5.669   1.763  1.00  0.00     0.040 C 
ATOM     11  O   UNL     1      -9.157  -2.401   0.109  1.00  0.00    -0.272 OA
BRANCH   6  12
ATOM     12  O   UNL     1     -11.002  -5.197   2.668  1.00  0.00    -0.373 OA
ATOM     13  H   UNL     1     -10.624  -5.889   2.085  1.00  0.00     0.213 HD
ENDBRANCH   6  12
BRANCH   7  14
ATOM     14  C   UNL     1     -10.801  -2.120   2.354  1.00  0.00     0.177 C 
BRANCH  14  15
ATOM     15  C   UNL     1     -12.303  -2.464   2.313  1.00  0.00     0.038 C 
BRANCH  15  16
ATOM     16  C   UNL     1     -13.179  -1.913   1.166  1.00  0.00    -0.015 C 
ATOM     17  C   UNL     1     -12.375  -1.662  -0.113  1.00  0.00     0.007 C 
ATOM     18  C   UNL     1     -13.824  -0.589   1.595  1.00  0.00     0.007 C 
ENDBRANCH  15  16
ENDBRANCH  14  15
BRANCH  14  19
ATOM     19  C   UNL     1     -10.133  -1.086   3.325  1.00  0.00     0.245 C 
ATOM     20  O   UNL     1      -9.777  -1.512   4.437  1.00  0.00    -0.272 OA
BRANCH  19  21
ATOM     21  N   UNL     1     -10.027   0.267   3.056  1.00  0.00    -0.332 N 
ATOM     22  C   UNL     1      -9.790   1.306   4.042  1.00  0.00     0.147 C 
BRANCH  21  23
ATOM     23  C   UNL     1     -10.176   0.709   1.642  1.00  0.00     0.178 C 
BRANCH  23  24
ATOM     24  C   UNL     1     -11.113   1.918   1.439  1.00  0.00     0.070 C 
BRANCH  24  25
ATOM     25  C   UNL     1     -10.470   3.284   1.385  1.00  0.00    -0.045 A 
ATOM     26  C   UNL     1     -10.431   4.012   0.189  1.00  0.00     0.004 A 
ATOM     27  C   UNL     1      -9.897   3.843   2.538  1.00  0.00     0.004 A 
ATOM     28  C   UNL     1      -9.821   5.267   0.144  1.00  0.00     0.000 A 
ATOM     29  C   UNL     1      -9.288   5.098   2.491  1.00  0.00     0.000 A 
ATOM     30  C   UNL     1      -9.248   5.808   1.293  1.00  0.00     0.000 A 
ENDBRANCH  24  25
ENDBRANCH  23  24
BRANCH  23  31
ATOM     31  C   UNL     1      -8.826   0.797   0.891  1.00  0.00     0.243 C 
ATOM     32  O   UNL     1      -7.744   0.984   1.443  1.00  0.00    -0.273 OA
ATOM     33  N   UNL     1      -8.961   0.834  -0.486  1.00  0.00    -0.341 N 
ATOM     34  H   UNL     1      -9.889   0.679  -0.888  1.00  0.00     0.164 HD
BRANCH  33  35
ATOM     35  C   UNL     1      -7.828   1.035  -1.395  1.00  0.00     0.194 C 
BRANCH  35  36
ATOM     36  C   UNL     1      -8.020   2.205  -2.400  1.00  0.00     0.017 C 
ATOM     37  C   UNL     1      -7.280   3.470  -1.934  1.00  0.00     0.010 C 
ATOM     38  C   UNL     1      -9.491   2.585  -2.611  1.00  0.00     0.010 C 
ENDBRANCH  35  36
BRANCH  35  39
ATOM     39  C   UNL     1      -7.393  -0.277  -2.106  1.00  0.00     0.329 C 
ATOM     40  O   UNL     1      -6.353  -0.877  -1.863  1.00  0.00    -0.250 OA
BRANCH  39  41
ATOM     41  O   UNL     1      -8.343  -0.737  -2.976  1.00  0.00    -0.458 OA
BRANCH  41  42
ATOM     42  C   UNL     1      -7.859  -1.266  -4.233  1.00  0.00     0.205 CG0
ATOM     43  C   UNL     1      -7.701  -0.087  -5.192  1.00  0.00     0.056 C 
ATOM     44  G   UNL     1      -8.867  -2.313  -4.747  1.00  0.00     0.000 G0
ENDBRANCH  41  42
ENDBRANCH  39  41
ENDBRANCH  35  39
ENDBRANCH  33  35
ENDBRANCH  23  31
ENDBRANCH  21  23
ENDBRANCH  19  21
ENDBRANCH  14  19
ENDBRANCH   7  14
ENDBRANCH   2   5
BRANCH   3  45
ATOM     45  C   UNL     1      -7.803  -5.543  -2.955  1.00  0.00     0.171 C 
BRANCH  45  46
ATOM     46  N   UNL     1      -7.863  -4.342  -3.778  1.00  0.00    -0.342 N 
ATOM     47  C   UNL     1      -8.928  -3.477  -3.741  1.00  0.00     0.247 C 
ATOM     48  O   UNL     1      -9.873  -3.613  -2.963  1.00  0.00    -0.273 OA
ATOM     49  H   UNL     1      -7.075  -4.162  -4.396  1.00  0.00     0.164 HD
BRANCH  47  50
ATOM     50  C   UNL     1      -8.873  -2.335  -4.766  1.00  0.00     0.212 CG0
ATOM     51  G   UNL     1      -7.857  -1.296  -4.253  1.00  0.00     0.000 G0
BRANCH  50  52
ATOM     52  N   UNL     1      -8.475  -2.960  -6.025  1.00  0.00    -0.339 N 
ATOM     53  C   UNL     1      -9.363  -3.288  -7.020  1.00  0.00     0.243 C 
ATOM     54  O   UNL     1     -10.575  -3.129  -6.904  1.00  0.00    -0.273 OA
ATOM     55  H   UNL     1      -7.496  -3.219  -6.135  1.00  0.00     0.164 HD
BRANCH  53  56
ATOM     56  C   UNL     1      -8.721  -4.017  -8.218  1.00  0.00     0.182 C 
BRANCH  56  57
ATOM     57  N   UNL     1      -7.746  -5.014  -7.767  1.00  0.00    -0.344 N 
ATOM     58  C   UNL     1      -7.555  -6.206  -8.423  1.00  0.00     0.220 C 
ATOM     59  O   UNL     1      -8.234  -6.551  -9.384  1.00  0.00    -0.275 OA
ATOM     60  H   UNL     1      -7.095  -4.727  -7.040  1.00  0.00     0.164 HD
BRANCH  58  61
ATOM     61  C   UNL     1      -6.456  -7.058  -7.815  1.00  0.00     0.100 C 
BRANCH  61  62
ATOM     62  C   UNL     1      -6.289  -8.420  -8.488  1.00  0.00     0.010 C 
BRANCH  62  63
ATOM     63  C   UNL     1      -5.395  -8.400  -9.735  1.00  0.00     0.000 C 
BRANCH  63  64
ATOM     64  C   UNL     1      -4.805  -9.759 -10.106  1.00  0.00    -0.003 C 
ATOM     65  C   UNL     1      -3.987 -10.340  -8.962  1.00  0.00     0.004 C 
ENDBRANCH  63  64
ENDBRANCH  62  63
ENDBRANCH  61  62
ENDBRANCH  58  61
ENDBRANCH  56  57
BRANCH  56  66
ATOM     66  C   UNL     1      -8.117  -3.029  -9.215  1.00  0.00     0.157 C 
BRANCH  66  67
ATOM     67  C   UNL     1      -9.169  -2.462 -10.125  1.00  0.00     0.305 C 
ATOM     68  O   UNL     1      -9.025  -1.565 -10.941  1.00  0.00    -0.252 OA
BRANCH  67  69
ATOM     69  O   UNL     1     -10.350  -3.096  -9.998  1.00  0.00    -0.481 OA
ATOM     70  H   UNL     1     -10.718  -2.771  -9.148  1.00  0.00     0.296 HD
ENDBRANCH  67  69
ENDBRANCH  66  67
ENDBRANCH  56  66
ENDBRANCH  53  56
ENDBRANCH  50  52
ENDBRANCH  47  50
ENDBRANCH  45  46
BRANCH  45  71
ATOM     71  C   UNL     1      -9.151  -6.272  -2.920  1.00  0.00     0.037 C 
BRANCH  71  72
ATOM     72  C   UNL     1      -8.983  -7.793  -2.911  1.00  0.00     0.026 C 
BRANCH  72  73
ATOM     73  C   UNL     1      -8.858  -8.335  -1.489  1.00  0.00     0.146 C 
BRANCH  73  74
ATOM     74  N   UNL     1      -9.988  -7.828  -0.716  1.00  0.00    -0.254 NA
ATOM     75  C   UNL     1     -10.133  -8.254   0.484  1.00  0.00     0.185 C 
ATOM     76  N   UNL     1     -11.162  -7.805   1.220  1.00  0.00    -0.370 N 
ATOM     77  N   UNL     1      -9.375  -9.130   1.167  1.00  0.00    -0.370 N 
ATOM     78  H   UNL     1     -11.788  -7.146   0.778  1.00  0.00     0.159 HD
ATOM     79  H   UNL     1     -11.422  -8.198   2.108  1.00  0.00     0.159 HD
ATOM     80  H   UNL     1      -8.562  -9.548   0.740  1.00  0.00     0.159 HD
ATOM     81  H   UNL     1      -9.521  -9.302   2.148  1.00  0.00     0.159 HD
ENDBRANCH  73  74
ENDBRANCH  72  73
ENDBRANCH  71  72
ENDBRANCH  45  71
ENDBRANCH   3  45
TORSDOF 20
ENDMDL
MODEL 30
REMARK VINA RESULT:    -5.683      5.015     14.558
REMARK INTER + INTRA:         -23.138
REMARK INTER:                 -17.476
REMARK INTRA:                  -5.661
REMARK UNBOUND:                -6.822
REMARK SMILES CCCCCC(=O)N[C@H](CC(=O)O)C(=O)N[C@H]1C(=O)N[C@H](CCCN=C(N)N)C(=O)N[C@@H]2CC[C@H](O)N(C2=O)[C@@H](CC(C)C)C(=O)N(C)[C@@H](Cc2ccccc2)C(=O)N[C@H](C(C)C)C(=O)O[C@@H]1C
REMARK SMILES IDX 30 1 31 2 29 3 32 5 35 6 37 7 34 8 38 9 33 10 39 11 36 12
REMARK SMILES IDX 40 14 41 15 42 16 43 17 44 18 45 19 46 20 47 21 48 22 49 23
REMARK SMILES IDX 50 24 51 25 52 26 56 27 53 28 55 29 54 30 57 31 58 32 59 33
REMARK SMILES IDX 60 35 61 36 62 37 63 38 64 39 65 40 66 41 67 42 68 43 21 45
REMARK SMILES IDX 20 46 18 47 19 48 17 50 16 52 14 53 15 54 9 56 8 57 6 58
REMARK SMILES IDX 7 59 5 61 4 62 3 63 2 64 1 65 10 66 11 67 12 68 13 69 22 71
REMARK SMILES IDX 23 72 24 73 25 74 26 75 27 76 28 77
REMARK H PARENT 31 4 36 13 59 34 20 49 16 55 8 60 13 70 27 78 27 79 28 80
REMARK H PARENT 28 81
REMARK Flexibility Score:  259.900
ROOT
ATOM      1  O   UNL     1      -7.816  -3.604  -2.725  1.00  0.00    -0.273 OA
ATOM      2  N   UNL     1      -8.833  -4.835  -4.362  1.00  0.00    -0.343 N 
ATOM      3  C   UNL     1      -8.368  -4.646  -3.079  1.00  0.00     0.243 C 
ATOM      4  H   UNL     1      -9.296  -5.700  -4.613  1.00  0.00     0.164 HD
ENDROOT
BRANCH   2   5
ATOM      5  C   UNL     1      -8.580  -3.839  -5.397  1.00  0.00     0.171 C 
ATOM      6  C   UNL     1      -8.873  -3.885  -8.281  1.00  0.00     0.214 C 
ATOM      7  N   UNL     1      -7.613  -4.268  -7.689  1.00  0.00    -0.303 N 
ATOM      8  C   UNL     1      -9.638  -2.861  -7.459  1.00  0.00     0.057 C 
ATOM      9  C   UNL     1      -7.421  -4.317  -6.318  1.00  0.00     0.247 C 
ATOM     10  C   UNL     1      -9.882  -3.401  -6.066  1.00  0.00     0.040 C 
ATOM     11  O   UNL     1      -6.366  -4.729  -5.817  1.00  0.00    -0.272 OA
BRANCH   6  12
ATOM     12  O   UNL     1      -9.642  -5.054  -8.451  1.00  0.00    -0.373 OA
ATOM     13  H   UNL     1     -10.200  -5.149  -7.650  1.00  0.00     0.213 HD
ENDBRANCH   6  12
BRANCH   7  14
ATOM     14  C   UNL     1      -6.561  -4.755  -8.607  1.00  0.00     0.177 C 
BRANCH  14  15
ATOM     15  C   UNL     1      -6.681  -6.235  -9.017  1.00  0.00     0.038 C 
BRANCH  15  16
ATOM     16  C   UNL     1      -5.571  -7.230  -8.613  1.00  0.00    -0.015 C 
ATOM     17  C   UNL     1      -5.911  -7.996  -7.331  1.00  0.00     0.007 C 
ATOM     18  C   UNL     1      -4.255  -6.474  -8.386  1.00  0.00     0.007 C 
ENDBRANCH  15  16
ENDBRANCH  14  15
BRANCH  14  19
ATOM     19  C   UNL     1      -6.072  -3.592  -9.538  1.00  0.00     0.245 C 
ATOM     20  O   UNL     1      -6.502  -3.591 -10.704  1.00  0.00    -0.272 OA
BRANCH  19  21
ATOM     21  N   UNL     1      -5.122  -2.657  -9.170  1.00  0.00    -0.332 N 
ATOM     22  C   UNL     1      -4.338  -2.688  -7.948  1.00  0.00     0.147 C 
BRANCH  21  23
ATOM     23  C   UNL     1      -4.881  -1.510 -10.089  1.00  0.00     0.178 C 
BRANCH  23  24
ATOM     24  C   UNL     1      -5.476  -0.168  -9.617  1.00  0.00     0.070 C 
BRANCH  24  25
ATOM     25  C   UNL     1      -6.425   0.534 -10.561  1.00  0.00    -0.045 A 
ATOM     26  C   UNL     1      -7.673  -0.022 -10.868  1.00  0.00     0.004 A 
ATOM     27  C   UNL     1      -6.063   1.755 -11.149  1.00  0.00     0.004 A 
ATOM     28  C   UNL     1      -8.537   0.624 -11.754  1.00  0.00     0.000 A 
ATOM     29  C   UNL     1      -6.928   2.401 -12.034  1.00  0.00     0.000 A 
ATOM     30  C   UNL     1      -8.164   1.833 -12.338  1.00  0.00     0.000 A 
ENDBRANCH  24  25
ENDBRANCH  23  24
BRANCH  23  31
ATOM     31  C   UNL     1      -3.418  -1.435 -10.589  1.00  0.00     0.243 C 
ATOM     32  O   UNL     1      -2.867  -2.321 -11.236  1.00  0.00    -0.273 OA
ATOM     33  N   UNL     1      -2.717  -0.353 -10.084  1.00  0.00    -0.341 N 
ATOM     34  H   UNL     1      -3.230   0.350  -9.547  1.00  0.00     0.164 HD
BRANCH  33  35
ATOM     35  C   UNL     1      -1.286  -0.145 -10.327  1.00  0.00     0.194 C 
BRANCH  35  36
ATOM     36  C   UNL     1      -0.460   0.143  -9.042  1.00  0.00     0.017 C 
ATOM     37  C   UNL     1      -0.774  -0.877  -7.934  1.00  0.00     0.010 C 
ATOM     38  C   UNL     1      -0.710   1.541  -8.463  1.00  0.00     0.010 C 
ENDBRANCH  35  36
BRANCH  35  39
ATOM     39  C   UNL     1      -1.015   0.906 -11.439  1.00  0.00     0.329 C 
ATOM     40  O   UNL     1      -1.714   1.894 -11.635  1.00  0.00    -0.250 OA
BRANCH  39  41
ATOM     41  O   UNL     1       0.142   0.653 -12.122  1.00  0.00    -0.458 OA
BRANCH  41  42
ATOM     42  C   UNL     1       0.899   1.810 -12.552  1.00  0.00     0.205 CG0
ATOM     43  C   UNL     1       0.479   2.120 -13.987  1.00  0.00     0.056 C 
ATOM     44  G   UNL     1       2.401   1.487 -12.433  1.00  0.00     0.000 G0
ENDBRANCH  41  42
ENDBRANCH  39  41
ENDBRANCH  35  39
ENDBRANCH  33  35
ENDBRANCH  23  31
ENDBRANCH  21  23
ENDBRANCH  19  21
ENDBRANCH  14  19
ENDBRANCH   7  14
ENDBRANCH   2   5
BRANCH   3  45
ATOM     45  C   UNL     1      -8.605  -5.817  -2.115  1.00  0.00     0.171 C 
BRANCH  45  46
ATOM     46  N   UNL     1      -9.553  -5.326  -1.124  1.00  0.00    -0.342 N 
ATOM     47  C   UNL     1     -10.762  -5.935  -0.897  1.00  0.00     0.247 C 
ATOM     48  O   UNL     1     -11.101  -6.978  -1.458  1.00  0.00    -0.273 OA
ATOM     49  H   UNL     1      -9.288  -4.496  -0.597  1.00  0.00     0.164 HD
BRANCH  47  50
ATOM     50  C   UNL     1     -11.681  -5.205   0.093  1.00  0.00     0.212 CG0
ATOM     51  G   UNL     1     -11.298  -5.667   1.514  1.00  0.00     0.000 G0
BRANCH  50  52
ATOM     52  N   UNL     1     -11.447  -3.782  -0.134  1.00  0.00    -0.339 N 
ATOM     53  C   UNL     1     -12.327  -2.800   0.252  1.00  0.00     0.243 C 
ATOM     54  O   UNL     1     -13.410  -3.050   0.775  1.00  0.00    -0.273 OA
ATOM     55  H   UNL     1     -10.618  -3.518  -0.662  1.00  0.00     0.164 HD
BRANCH  53  56
ATOM     56  C   UNL     1     -11.906  -1.378  -0.172  1.00  0.00     0.182 C 
BRANCH  56  57
ATOM     57  N   UNL     1     -12.890  -0.789  -1.085  1.00  0.00    -0.344 N 
ATOM     58  C   UNL     1     -13.753   0.206  -0.695  1.00  0.00     0.220 C 
ATOM     59  O   UNL     1     -13.812   0.619   0.458  1.00  0.00    -0.275 OA
ATOM     60  H   UNL     1     -12.807  -1.029  -2.070  1.00  0.00     0.164 HD
BRANCH  58  61
ATOM     61  C   UNL     1     -14.642   0.706  -1.818  1.00  0.00     0.100 C 
BRANCH  61  62
ATOM     62  C   UNL     1     -15.844   1.520  -1.338  1.00  0.00     0.010 C 
BRANCH  62  63
ATOM     63  C   UNL     1     -16.242   2.666  -2.276  1.00  0.00     0.000 C 
BRANCH  63  64
ATOM     64  C   UNL     1     -17.537   3.375  -1.885  1.00  0.00    -0.003 C 
ATOM     65  C   UNL     1     -17.547   4.819  -2.368  1.00  0.00     0.004 C 
ENDBRANCH  63  64
ENDBRANCH  62  63
ENDBRANCH  61  62
ENDBRANCH  58  61
ENDBRANCH  56  57
BRANCH  56  66
ATOM     66  C   UNL     1     -10.495  -1.363  -0.757  1.00  0.00     0.157 C 
BRANCH  66  67
ATOM     67  C   UNL     1     -10.526  -1.197  -2.249  1.00  0.00     0.305 C 
ATOM     68  O   UNL     1     -10.416  -0.153  -2.873  1.00  0.00    -0.252 OA
BRANCH  67  69
ATOM     69  O   UNL     1     -10.645  -2.375  -2.892  1.00  0.00    -0.481 OA
ATOM     70  H   UNL     1      -9.878  -2.404  -3.503  1.00  0.00     0.296 HD
ENDBRANCH  67  69
ENDBRANCH  66  67
ENDBRANCH  56  66
ENDBRANCH  53  56
ENDBRANCH  50  52
ENDBRANCH  47  50
ENDBRANCH  45  46
BRANCH  45  71
ATOM     71  C   UNL     1      -7.285  -6.251  -1.468  1.00  0.00     0.037 C 
BRANCH  71  72
ATOM     72  C   UNL     1      -7.425  -7.571  -0.704  1.00  0.00     0.026 C 
BRANCH  72  73
ATOM     73  C   UNL     1      -7.055  -7.407   0.769  1.00  0.00     0.146 C 
BRANCH  73  74
ATOM     74  N   UNL     1      -8.043  -6.524   1.382  1.00  0.00    -0.254 NA
ATOM     75  C   UNL     1      -7.620  -5.455   1.950  1.00  0.00     0.185 C 
ATOM     76  N   UNL     1      -8.504  -4.622   2.521  1.00  0.00    -0.370 N 
ATOM     77  N   UNL     1      -6.359  -5.006   2.073  1.00  0.00    -0.370 N 
ATOM     78  H   UNL     1      -9.477  -4.890   2.481  1.00  0.00     0.159 HD
ATOM     79  H   UNL     1      -8.239  -3.849   3.105  1.00  0.00     0.159 HD
ATOM     80  H   UNL     1      -5.587  -5.529   1.686  1.00  0.00     0.159 HD
ATOM     81  H   UNL     1      -6.157  -4.091   2.440  1.00  0.00     0.159 HD
ENDBRANCH  73  74
ENDBRANCH  72  73
ENDBRANCH  71  72
ENDBRANCH  45  71
ENDBRANCH   3  45
TORSDOF 20
ENDMDL
MODEL 31
REMARK VINA RESULT:    -5.683      4.274      7.475
REMARK INTER + INTRA:         -23.135
REMARK INTER:                 -16.553
REMARK INTRA:                  -6.582
REMARK UNBOUND:                -6.822
REMARK SMILES CCCCCC(=O)N[C@H](CC(=O)O)C(=O)N[C@H]1C(=O)N[C@H](CCCN=C(N)N)C(=O)N[C@@H]2CC[C@H](O)N(C2=O)[C@@H](CC(C)C)C(=O)N(C)[C@@H](Cc2ccccc2)C(=O)N[C@H](C(C)C)C(=O)O[C@@H]1C
REMARK SMILES IDX 30 1 31 2 29 3 32 5 35 6 37 7 34 8 38 9 33 10 39 11 36 12
REMARK SMILES IDX 40 14 41 15 42 16 43 17 44 18 45 19 46 20 47 21 48 22 49 23
REMARK SMILES IDX 50 24 51 25 52 26 56 27 53 28 55 29 54 30 57 31 58 32 59 33
REMARK SMILES IDX 60 35 61 36 62 37 63 38 64 39 65 40 66 41 67 42 68 43 21 45
REMARK SMILES IDX 20 46 18 47 19 48 17 50 16 52 14 53 15 54 9 56 8 57 6 58
REMARK SMILES IDX 7 59 5 61 4 62 3 63 2 64 1 65 10 66 11 67 12 68 13 69 22 71
REMARK SMILES IDX 23 72 24 73 25 74 26 75 27 76 28 77
REMARK H PARENT 31 4 36 13 59 34 20 49 16 55 8 60 13 70 27 78 27 79 28 80
REMARK H PARENT 28 81
REMARK Flexibility Score:  259.900
ROOT
ATOM      1  O   UNL     1      -6.940  -4.624  -2.993  1.00  0.00    -0.273 OA
ATOM      2  N   UNL     1      -9.204  -4.350  -2.816  1.00  0.00    -0.343 N 
ATOM      3  C   UNL     1      -8.041  -4.524  -3.535  1.00  0.00     0.243 C 
ATOM      4  H   UNL     1     -10.094  -4.286  -3.296  1.00  0.00     0.164 HD
ENDROOT
BRANCH   2   5
ATOM      5  C   UNL     1      -9.161  -4.155  -1.371  1.00  0.00     0.171 C 
ATOM      6  C   UNL     1     -11.211  -3.569   0.594  1.00  0.00     0.214 C 
ATOM      7  N   UNL     1     -10.504  -2.482  -0.041  1.00  0.00    -0.303 N 
ATOM      8  C   UNL     1     -10.378  -4.835   0.722  1.00  0.00     0.057 C 
ATOM      9  C   UNL     1      -9.550  -2.689  -1.024  1.00  0.00     0.247 C 
ATOM     10  C   UNL     1      -9.903  -5.277  -0.645  1.00  0.00     0.040 C 
ATOM     11  O   UNL     1      -9.011  -1.750  -1.625  1.00  0.00    -0.272 OA
BRANCH   6  12
ATOM     12  O   UNL     1     -12.376  -3.821  -0.156  1.00  0.00    -0.373 OA
ATOM     13  H   UNL     1     -12.866  -2.974  -0.220  1.00  0.00     0.213 HD
ENDBRANCH   6  12
BRANCH   7  14
ATOM     14  C   UNL     1     -10.943  -1.110   0.293  1.00  0.00     0.177 C 
BRANCH  14  15
ATOM     15  C   UNL     1     -12.186  -0.614  -0.471  1.00  0.00     0.038 C 
BRANCH  15  16
ATOM     16  C   UNL     1     -12.366   0.898  -0.732  1.00  0.00    -0.015 C 
ATOM     17  C   UNL     1     -13.128   1.181  -2.030  1.00  0.00     0.007 C 
ATOM     18  C   UNL     1     -10.993   1.575  -0.823  1.00  0.00     0.007 C 
ENDBRANCH  15  16
ENDBRANCH  14  15
BRANCH  14  19
ATOM     19  C   UNL     1     -10.608  -0.782   1.789  1.00  0.00     0.245 C 
ATOM     20  O   UNL     1      -9.411  -0.605   2.068  1.00  0.00    -0.272 OA
BRANCH  19  21
ATOM     21  N   UNL     1     -11.543  -0.792   2.809  1.00  0.00    -0.332 N 
ATOM     22  C   UNL     1     -11.797  -1.903   3.709  1.00  0.00     0.147 C 
BRANCH  21  23
ATOM     23  C   UNL     1     -12.374   0.429   3.003  1.00  0.00     0.178 C 
BRANCH  23  24
ATOM     24  C   UNL     1     -13.881   0.161   3.191  1.00  0.00     0.070 C 
BRANCH  24  25
ATOM     25  C   UNL     1     -14.773   0.377   1.990  1.00  0.00    -0.045 A 
ATOM     26  C   UNL     1     -15.290  -0.710   1.275  1.00  0.00     0.004 A 
ATOM     27  C   UNL     1     -15.093   1.678   1.572  1.00  0.00     0.004 A 
ATOM     28  C   UNL     1     -16.099  -0.502   0.156  1.00  0.00     0.000 A 
ATOM     29  C   UNL     1     -15.903   1.885   0.454  1.00  0.00     0.000 A 
ATOM     30  C   UNL     1     -16.403   0.794  -0.254  1.00  0.00     0.000 A 
ENDBRANCH  24  25
ENDBRANCH  23  24
BRANCH  23  31
ATOM     31  C   UNL     1     -11.758   1.423   4.016  1.00  0.00     0.243 C 
ATOM     32  O   UNL     1     -10.792   1.166   4.731  1.00  0.00    -0.273 OA
ATOM     33  N   UNL     1     -12.507   2.575   4.186  1.00  0.00    -0.341 N 
ATOM     34  H   UNL     1     -13.304   2.731   3.564  1.00  0.00     0.164 HD
BRANCH  33  35
ATOM     35  C   UNL     1     -12.179   3.602   5.179  1.00  0.00     0.194 C 
BRANCH  35  36
ATOM     36  C   UNL     1     -10.705   4.094   5.121  1.00  0.00     0.017 C 
ATOM     37  C   UNL     1     -10.414   5.120   6.230  1.00  0.00     0.010 C 
ATOM     38  C   UNL     1     -10.338   4.747   3.784  1.00  0.00     0.010 C 
ENDBRANCH  35  36
BRANCH  35  39
ATOM     39  C   UNL     1     -12.600   3.197   6.619  1.00  0.00     0.329 C 
ATOM     40  O   UNL     1     -11.922   2.495   7.360  1.00  0.00    -0.250 OA
BRANCH  39  41
ATOM     41  O   UNL     1     -13.775   3.783   7.002  1.00  0.00    -0.458 OA
BRANCH  41  42
ATOM     42  C   UNL     1     -14.954   2.945   6.959  1.00  0.00     0.205 CG0
ATOM     43  C   UNL     1     -15.888   3.529   5.901  1.00  0.00     0.056 C 
ATOM     44  G   UNL     1     -15.593   2.922   8.362  1.00  0.00     0.000 G0
ENDBRANCH  41  42
ENDBRANCH  39  41
ENDBRANCH  35  39
ENDBRANCH  33  35
ENDBRANCH  23  31
ENDBRANCH  21  23
ENDBRANCH  19  21
ENDBRANCH  14  19
ENDBRANCH   7  14
ENDBRANCH   2   5
BRANCH   3  45
ATOM     45  C   UNL     1      -8.216  -4.607  -5.058  1.00  0.00     0.171 C 
BRANCH  45  46
ATOM     46  N   UNL     1      -6.870  -4.565  -5.612  1.00  0.00    -0.342 N 
ATOM     47  C   UNL     1      -6.378  -5.551  -6.429  1.00  0.00     0.247 C 
ATOM     48  O   UNL     1      -7.060  -6.503  -6.812  1.00  0.00    -0.273 OA
ATOM     49  H   UNL     1      -6.290  -3.764  -5.366  1.00  0.00     0.164 HD
BRANCH  47  50
ATOM     50  C   UNL     1      -4.900  -5.400  -6.815  1.00  0.00     0.212 CG0
ATOM     51  G   UNL     1      -4.534  -6.580  -7.737  1.00  0.00     0.000 G0
BRANCH  50  52
ATOM     52  N   UNL     1      -4.800  -4.100  -7.473  1.00  0.00    -0.339 N 
ATOM     53  C   UNL     1      -3.854  -3.805  -8.424  1.00  0.00     0.243 C 
ATOM     54  O   UNL     1      -2.979  -4.601  -8.757  1.00  0.00    -0.273 OA
ATOM     55  H   UNL     1      -5.428  -3.362  -7.160  1.00  0.00     0.164 HD
BRANCH  53  56
ATOM     56  C   UNL     1      -3.890  -2.343  -8.913  1.00  0.00     0.182 C 
BRANCH  56  57
ATOM     57  N   UNL     1      -5.201  -1.736  -8.662  1.00  0.00    -0.344 N 
ATOM     58  C   UNL     1      -5.366  -0.663  -7.822  1.00  0.00     0.220 C 
ATOM     59  O   UNL     1      -4.445  -0.184  -7.169  1.00  0.00    -0.275 OA
ATOM     60  H   UNL     1      -5.968  -2.036  -9.258  1.00  0.00     0.164 HD
BRANCH  58  61
ATOM     61  C   UNL     1      -6.797  -0.163  -7.758  1.00  0.00     0.100 C 
BRANCH  61  62
ATOM     62  C   UNL     1      -7.113   0.645  -6.499  1.00  0.00     0.010 C 
BRANCH  62  63
ATOM     63  C   UNL     1      -8.174   0.007  -5.593  1.00  0.00     0.000 C 
BRANCH  63  64
ATOM     64  C   UNL     1      -8.557   0.856  -4.382  1.00  0.00    -0.003 C 
ATOM     65  C   UNL     1     -10.048   1.157  -4.365  1.00  0.00     0.004 C 
ENDBRANCH  63  64
ENDBRANCH  62  63
ENDBRANCH  61  62
ENDBRANCH  58  61
ENDBRANCH  56  57
BRANCH  56  66
ATOM     66  C   UNL     1      -3.475  -2.233 -10.379  1.00  0.00     0.157 C 
BRANCH  66  67
ATOM     67  C   UNL     1      -4.661  -2.358 -11.291  1.00  0.00     0.305 C 
ATOM     68  O   UNL     1      -5.749  -2.839 -11.016  1.00  0.00    -0.252 OA
BRANCH  67  69
ATOM     69  O   UNL     1      -4.434  -1.817 -12.503  1.00  0.00    -0.481 OA
ATOM     70  H   UNL     1      -4.793  -2.470 -13.140  1.00  0.00     0.296 HD
ENDBRANCH  67  69
ENDBRANCH  66  67
ENDBRANCH  56  66
ENDBRANCH  53  56
ENDBRANCH  50  52
ENDBRANCH  47  50
ENDBRANCH  45  46
BRANCH  45  71
ATOM     71  C   UNL     1      -9.072  -3.439  -5.561  1.00  0.00     0.037 C 
BRANCH  71  72
ATOM     72  C   UNL     1      -9.673  -3.719  -6.941  1.00  0.00     0.026 C 
BRANCH  72  73
ATOM     73  C   UNL     1      -9.031  -2.848  -8.018  1.00  0.00     0.146 C 
BRANCH  73  74
ATOM     74  N   UNL     1      -7.973  -3.629  -8.652  1.00  0.00    -0.254 NA
ATOM     75  C   UNL     1      -8.310  -4.465  -9.564  1.00  0.00     0.185 C 
ATOM     76  N   UNL     1      -7.359  -5.197 -10.166  1.00  0.00    -0.370 N 
ATOM     77  N   UNL     1      -9.535  -4.744 -10.043  1.00  0.00    -0.370 N 
ATOM     78  H   UNL     1      -6.408  -5.054  -9.859  1.00  0.00     0.159 HD
ATOM     79  H   UNL     1      -7.559  -5.967 -10.779  1.00  0.00     0.159 HD
ATOM     80  H   UNL     1     -10.348  -4.266  -9.686  1.00  0.00     0.159 HD
ATOM     81  H   UNL     1      -9.665  -5.340 -10.845  1.00  0.00     0.159 HD
ENDBRANCH  73  74
ENDBRANCH  72  73
ENDBRANCH  71  72
ENDBRANCH  45  71
ENDBRANCH   3  45
TORSDOF 20
ENDMDL
MODEL 32
REMARK VINA RESULT:    -5.634      5.554     13.630
REMARK INTER + INTRA:         -22.995
REMARK INTER:                 -16.455
REMARK INTRA:                  -6.540
REMARK UNBOUND:                -6.822
REMARK SMILES CCCCCC(=O)N[C@H](CC(=O)O)C(=O)N[C@H]1C(=O)N[C@H](CCCN=C(N)N)C(=O)N[C@@H]2CC[C@H](O)N(C2=O)[C@@H](CC(C)C)C(=O)N(C)[C@@H](Cc2ccccc2)C(=O)N[C@H](C(C)C)C(=O)O[C@@H]1C
REMARK SMILES IDX 30 1 31 2 29 3 32 5 35 6 37 7 34 8 38 9 33 10 39 11 36 12
REMARK SMILES IDX 40 14 41 15 42 16 43 17 44 18 45 19 46 20 47 21 48 22 49 23
REMARK SMILES IDX 50 24 51 25 52 26 56 27 53 28 55 29 54 30 57 31 58 32 59 33
REMARK SMILES IDX 60 35 61 36 62 37 63 38 64 39 65 40 66 41 67 42 68 43 21 45
REMARK SMILES IDX 20 46 18 47 19 48 17 50 16 52 14 53 15 54 9 56 8 57 6 58
REMARK SMILES IDX 7 59 5 61 4 62 3 63 2 64 1 65 10 66 11 67 12 68 13 69 22 71
REMARK SMILES IDX 23 72 24 73 25 74 26 75 27 76 28 77
REMARK H PARENT 31 4 36 13 59 34 20 49 16 55 8 60 13 70 27 78 27 79 28 80
REMARK H PARENT 28 81
REMARK Flexibility Score:  259.900
ROOT
ATOM      1  O   UNL     1      -7.409  -6.129  -5.873  1.00  0.00    -0.273 OA
ATOM      2  N   UNL     1      -6.620  -5.899  -8.007  1.00  0.00    -0.343 N 
ATOM      3  C   UNL     1      -6.567  -6.409  -6.727  1.00  0.00     0.243 C 
ATOM      4  H   UNL     1      -5.918  -6.163  -8.688  1.00  0.00     0.164 HD
ENDROOT
BRANCH   2   5
ATOM      5  C   UNL     1      -7.622  -4.903  -8.369  1.00  0.00     0.171 C 
ATOM      6  C   UNL     1      -8.188  -3.493 -10.838  1.00  0.00     0.214 C 
ATOM      7  N   UNL     1      -7.279  -2.909  -9.879  1.00  0.00    -0.303 N 
ATOM      8  C   UNL     1      -9.259  -4.363 -10.200  1.00  0.00     0.057 C 
ATOM      9  C   UNL     1      -6.926  -3.552  -8.704  1.00  0.00     0.247 C 
ATOM     10  C   UNL     1      -8.609  -5.465  -9.391  1.00  0.00     0.040 C 
ATOM     11  O   UNL     1      -6.081  -3.086  -7.928  1.00  0.00    -0.272 OA
BRANCH   6  12
ATOM     12  O   UNL     1      -7.423  -4.244 -11.753  1.00  0.00    -0.373 OA
ATOM     13  H   UNL     1      -8.045  -4.598 -12.424  1.00  0.00     0.213 HD
ENDBRANCH   6  12
BRANCH   7  14
ATOM     14  C   UNL     1      -6.614  -1.647 -10.267  1.00  0.00     0.177 C 
BRANCH  14  15
ATOM     15  C   UNL     1      -5.288  -1.813 -11.033  1.00  0.00     0.038 C 
BRANCH  15  16
ATOM     16  C   UNL     1      -4.045  -1.012 -10.585  1.00  0.00    -0.015 C 
ATOM     17  C   UNL     1      -2.735  -1.663 -11.041  1.00  0.00     0.007 C 
ATOM     18  C   UNL     1      -4.021  -0.905  -9.055  1.00  0.00     0.007 C 
ENDBRANCH  15  16
ENDBRANCH  14  15
BRANCH  14  19
ATOM     19  C   UNL     1      -7.682  -0.530 -10.532  1.00  0.00     0.245 C 
ATOM     20  O   UNL     1      -8.863  -0.810 -10.267  1.00  0.00    -0.272 OA
BRANCH  19  21
ATOM     21  N   UNL     1      -7.396   0.681 -11.137  1.00  0.00    -0.332 N 
ATOM     22  C   UNL     1      -7.199   0.886 -12.561  1.00  0.00     0.147 C 
BRANCH  21  23
ATOM     23  C   UNL     1      -7.267   1.881 -10.266  1.00  0.00     0.178 C 
BRANCH  23  24
ATOM     24  C   UNL     1      -6.305   1.712  -9.072  1.00  0.00     0.070 C 
BRANCH  24  25
ATOM     25  C   UNL     1      -6.924   1.614  -7.698  1.00  0.00    -0.045 A 
ATOM     26  C   UNL     1      -7.387   2.758  -7.035  1.00  0.00     0.004 A 
ATOM     27  C   UNL     1      -7.038   0.369  -7.061  1.00  0.00     0.004 A 
ATOM     28  C   UNL     1      -7.942   2.660  -5.758  1.00  0.00     0.000 A 
ATOM     29  C   UNL     1      -7.594   0.273  -5.784  1.00  0.00     0.000 A 
ATOM     30  C   UNL     1      -8.043   1.419  -5.133  1.00  0.00     0.000 A 
ENDBRANCH  24  25
ENDBRANCH  23  24
BRANCH  23  31
ATOM     31  C   UNL     1      -7.088   3.193 -11.067  1.00  0.00     0.243 C 
ATOM     32  O   UNL     1      -6.038   3.528 -11.609  1.00  0.00    -0.273 OA
ATOM     33  N   UNL     1      -8.167   4.055 -10.966  1.00  0.00    -0.341 N 
ATOM     34  H   UNL     1      -9.012   3.721 -10.497  1.00  0.00     0.164 HD
BRANCH  33  35
ATOM     35  C   UNL     1      -8.170   5.402 -11.544  1.00  0.00     0.194 C 
BRANCH  35  36
ATOM     36  C   UNL     1      -7.702   6.514 -10.564  1.00  0.00     0.017 C 
ATOM     37  C   UNL     1      -6.250   6.936 -10.849  1.00  0.00     0.010 C 
ATOM     38  C   UNL     1      -7.777   6.092  -9.091  1.00  0.00     0.010 C 
ENDBRANCH  35  36
BRANCH  35  39
ATOM     39  C   UNL     1      -9.522   5.758 -12.223  1.00  0.00     0.329 C 
ATOM     40  O   UNL     1     -10.326   4.927 -12.629  1.00  0.00    -0.250 OA
BRANCH  39  41
ATOM     41  O   UNL     1      -9.757   7.105 -12.240  1.00  0.00    -0.458 OA
BRANCH  41  42
ATOM     42  C   UNL     1     -11.108   7.516 -12.557  1.00  0.00     0.205 CG0
ATOM     43  C   UNL     1     -11.061   8.222 -13.911  1.00  0.00     0.056 C 
ATOM     44  G   UNL     1     -11.619   8.436 -11.430  1.00  0.00     0.000 G0
ENDBRANCH  41  42
ENDBRANCH  39  41
ENDBRANCH  35  39
ENDBRANCH  33  35
ENDBRANCH  23  31
ENDBRANCH  21  23
ENDBRANCH  19  21
ENDBRANCH  14  19
ENDBRANCH   7  14
ENDBRANCH   2   5
BRANCH   3  45
ATOM     45  C   UNL     1      -5.399  -7.364  -6.448  1.00  0.00     0.171 C 
BRANCH  45  46
ATOM     46  N   UNL     1      -5.629  -7.885  -5.107  1.00  0.00    -0.342 N 
ATOM     47  C   UNL     1      -5.907  -9.207  -4.868  1.00  0.00     0.247 C 
ATOM     48  O   UNL     1      -5.912 -10.060  -5.757  1.00  0.00    -0.273 OA
ATOM     49  H   UNL     1      -5.579  -7.222  -4.335  1.00  0.00     0.164 HD
BRANCH  47  50
ATOM     50  C   UNL     1      -6.243  -9.548  -3.409  1.00  0.00     0.212 CG0
ATOM     51  G   UNL     1      -4.954 -10.067  -2.742  1.00  0.00     0.000 G0
BRANCH  50  52
ATOM     52  N   UNL     1      -6.736  -8.305  -2.823  1.00  0.00    -0.339 N 
ATOM     53  C   UNL     1      -8.057  -8.086  -2.515  1.00  0.00     0.243 C 
ATOM     54  O   UNL     1      -8.939  -8.905  -2.761  1.00  0.00    -0.273 OA
ATOM     55  H   UNL     1      -6.071  -7.544  -2.698  1.00  0.00     0.164 HD
BRANCH  53  56
ATOM     56  C   UNL     1      -8.352  -6.668  -1.987  1.00  0.00     0.182 C 
BRANCH  56  57
ATOM     57  N   UNL     1      -8.530  -5.721  -3.092  1.00  0.00    -0.344 N 
ATOM     58  C   UNL     1      -9.684  -4.995  -3.260  1.00  0.00     0.220 C 
ATOM     59  O   UNL     1     -10.670  -5.141  -2.546  1.00  0.00    -0.275 OA
ATOM     60  H   UNL     1      -7.706  -5.496  -3.643  1.00  0.00     0.164 HD
BRANCH  58  61
ATOM     61  C   UNL     1      -9.625  -4.035  -4.434  1.00  0.00     0.100 C 
BRANCH  61  62
ATOM     62  C   UNL     1      -8.471  -3.035  -4.354  1.00  0.00     0.010 C 
BRANCH  62  63
ATOM     63  C   UNL     1      -8.713  -1.874  -3.381  1.00  0.00     0.000 C 
BRANCH  63  64
ATOM     64  C   UNL     1     -10.117  -1.275  -3.456  1.00  0.00    -0.003 C 
ATOM     65  C   UNL     1     -10.783  -1.248  -2.088  1.00  0.00     0.004 C 
ENDBRANCH  63  64
ENDBRANCH  62  63
ENDBRANCH  61  62
ENDBRANCH  58  61
ENDBRANCH  56  57
BRANCH  56  66
ATOM     66  C   UNL     1      -7.284  -6.206  -0.997  1.00  0.00     0.157 C 
BRANCH  66  67
ATOM     67  C   UNL     1      -6.509  -5.039  -1.539  1.00  0.00     0.305 C 
ATOM     68  O   UNL     1      -6.664  -3.861  -1.254  1.00  0.00    -0.252 OA
BRANCH  67  69
ATOM     69  O   UNL     1      -5.533  -5.421  -2.384  1.00  0.00    -0.481 OA
ATOM     70  H   UNL     1      -5.504  -4.718  -3.067  1.00  0.00     0.296 HD
ENDBRANCH  67  69
ENDBRANCH  66  67
ENDBRANCH  56  66
ENDBRANCH  53  56
ENDBRANCH  50  52
ENDBRANCH  47  50
ENDBRANCH  45  46
BRANCH  45  71
ATOM     71  C   UNL     1      -4.064  -6.618  -6.544  1.00  0.00     0.037 C 
BRANCH  71  72
ATOM     72  C   UNL     1      -3.346  -6.890  -7.868  1.00  0.00     0.026 C 
BRANCH  72  73
ATOM     73  C   UNL     1      -2.974  -8.364  -8.011  1.00  0.00     0.146 C 
BRANCH  73  74
ATOM     74  N   UNL     1      -3.638  -8.879  -9.204  1.00  0.00    -0.254 NA
ATOM     75  C   UNL     1      -4.220 -10.019  -9.121  1.00  0.00     0.185 C 
ATOM     76  N   UNL     1      -4.841 -10.519 -10.202  1.00  0.00    -0.370 N 
ATOM     77  N   UNL     1      -4.315 -10.844  -8.064  1.00  0.00    -0.370 N 
ATOM     78  H   UNL     1      -4.811  -9.963 -11.045  1.00  0.00     0.159 HD
ATOM     79  H   UNL     1      -5.189 -11.460 -10.254  1.00  0.00     0.159 HD
ATOM     80  H   UNL     1      -3.897 -10.595  -7.180  1.00  0.00     0.159 HD
ATOM     81  H   UNL     1      -4.898 -11.664  -8.084  1.00  0.00     0.159 HD
ENDBRANCH  73  74
ENDBRANCH  72  73
ENDBRANCH  71  72
ENDBRANCH  45  71
ENDBRANCH   3  45
TORSDOF 20
ENDMDL
MODEL 33
REMARK VINA RESULT:    -5.596      7.606     11.398
REMARK INTER + INTRA:         -22.885
REMARK INTER:                 -17.159
REMARK INTRA:                  -5.727
REMARK UNBOUND:                -6.822
REMARK SMILES CCCCCC(=O)N[C@H](CC(=O)O)C(=O)N[C@H]1C(=O)N[C@H](CCCN=C(N)N)C(=O)N[C@@H]2CC[C@H](O)N(C2=O)[C@@H](CC(C)C)C(=O)N(C)[C@@H](Cc2ccccc2)C(=O)N[C@H](C(C)C)C(=O)O[C@@H]1C
REMARK SMILES IDX 30 1 31 2 29 3 32 5 35 6 37 7 34 8 38 9 33 10 39 11 36 12
REMARK SMILES IDX 40 14 41 15 42 16 43 17 44 18 45 19 46 20 47 21 48 22 49 23
REMARK SMILES IDX 50 24 51 25 52 26 56 27 53 28 55 29 54 30 57 31 58 32 59 33
REMARK SMILES IDX 60 35 61 36 62 37 63 38 64 39 65 40 66 41 67 42 68 43 21 45
REMARK SMILES IDX 20 46 18 47 19 48 17 50 16 52 14 53 15 54 9 56 8 57 6 58
REMARK SMILES IDX 7 59 5 61 4 62 3 63 2 64 1 65 10 66 11 67 12 68 13 69 22 71
REMARK SMILES IDX 23 72 24 73 25 74 26 75 27 76 28 77
REMARK H PARENT 31 4 36 13 59 34 20 49 16 55 8 60 13 70 27 78 27 79 28 80
REMARK H PARENT 28 81
REMARK Flexibility Score:  259.900
ROOT
ATOM      1  O   UNL     1      -2.476   0.928 -11.137  1.00  0.00    -0.273 OA
ATOM      2  N   UNL     1      -4.629   0.808 -10.373  1.00  0.00    -0.343 N 
ATOM      3  C   UNL     1      -3.518   1.498 -10.810  1.00  0.00     0.243 C 
ATOM      4  H   UNL     1      -5.474   1.309 -10.127  1.00  0.00     0.164 HD
ENDROOT
BRANCH   2   5
ATOM      5  C   UNL     1      -4.572  -0.635 -10.165  1.00  0.00     0.171 C 
ATOM      6  C   UNL     1      -6.613  -2.694 -10.115  1.00  0.00     0.214 C 
ATOM      7  N   UNL     1      -6.240  -2.033  -8.886  1.00  0.00    -0.303 N 
ATOM      8  C   UNL     1      -5.476  -2.777 -11.122  1.00  0.00     0.057 C 
ATOM      9  C   UNL     1      -5.310  -1.007  -8.847  1.00  0.00     0.247 C 
ATOM     10  C   UNL     1      -4.965  -1.388 -11.435  1.00  0.00     0.040 C 
ATOM     11  O   UNL     1      -5.060  -0.387  -7.805  1.00  0.00    -0.272 OA
BRANCH   6  12
ATOM     12  O   UNL     1      -7.706  -1.996 -10.665  1.00  0.00    -0.373 OA
ATOM     13  H   UNL     1      -8.297  -1.754  -9.920  1.00  0.00     0.213 HD
ENDBRANCH   6  12
BRANCH   7  14
ATOM     14  C   UNL     1      -7.003  -2.395  -7.673  1.00  0.00     0.177 C 
BRANCH  14  15
ATOM     15  C   UNL     1      -8.525  -2.171  -7.764  1.00  0.00     0.038 C 
BRANCH  15  16
ATOM     16  C   UNL     1      -9.347  -1.989  -6.468  1.00  0.00    -0.015 C 
ATOM     17  C   UNL     1      -8.527  -1.354  -5.342  1.00  0.00     0.007 C 
ATOM     18  C   UNL     1      -9.858  -3.351  -5.982  1.00  0.00     0.007 C 
ENDBRANCH  15  16
ENDBRANCH  14  15
BRANCH  14  19
ATOM     19  C   UNL     1      -6.304  -3.582  -6.925  1.00  0.00     0.245 C 
ATOM     20  O   UNL     1      -5.235  -3.326  -6.347  1.00  0.00    -0.272 OA
BRANCH  19  21
ATOM     21  N   UNL     1      -6.748  -4.891  -6.971  1.00  0.00    -0.332 N 
ATOM     22  C   UNL     1      -7.555  -5.470  -8.030  1.00  0.00     0.147 C 
BRANCH  21  23
ATOM     23  C   UNL     1      -6.385  -5.790  -5.841  1.00  0.00     0.178 C 
BRANCH  23  24
ATOM     24  C   UNL     1      -4.874  -6.058  -5.689  1.00  0.00     0.070 C 
BRANCH  24  25
ATOM     25  C   UNL     1      -4.179  -6.751  -6.838  1.00  0.00    -0.045 A 
ATOM     26  C   UNL     1      -3.294  -6.052  -7.669  1.00  0.00     0.004 A 
ATOM     27  C   UNL     1      -4.417  -8.110  -7.093  1.00  0.00     0.004 A 
ATOM     28  C   UNL     1      -2.669  -6.695  -8.739  1.00  0.00     0.000 A 
ATOM     29  C   UNL     1      -3.791  -8.752  -8.162  1.00  0.00     0.000 A 
ATOM     30  C   UNL     1      -2.920  -8.043  -8.987  1.00  0.00     0.000 A 
ENDBRANCH  24  25
ENDBRANCH  23  24
BRANCH  23  31
ATOM     31  C   UNL     1      -7.118  -5.432  -4.526  1.00  0.00     0.243 C 
ATOM     32  O   UNL     1      -7.040  -4.339  -3.971  1.00  0.00    -0.273 OA
ATOM     33  N   UNL     1      -7.729  -6.517  -3.921  1.00  0.00    -0.341 N 
ATOM     34  H   UNL     1      -7.757  -7.405  -4.429  1.00  0.00     0.164 HD
BRANCH  33  35
ATOM     35  C   UNL     1      -8.381  -6.439  -2.610  1.00  0.00     0.194 C 
BRANCH  35  36
ATOM     36  C   UNL     1      -8.220  -7.720  -1.744  1.00  0.00     0.017 C 
ATOM     37  C   UNL     1      -7.557  -7.401  -0.392  1.00  0.00     0.010 C 
ATOM     38  C   UNL     1      -7.377  -8.807  -2.422  1.00  0.00     0.010 C 
ENDBRANCH  35  36
BRANCH  35  39
ATOM     39  C   UNL     1      -9.864  -5.986  -2.706  1.00  0.00     0.329 C 
ATOM     40  O   UNL     1     -10.626  -6.317  -3.607  1.00  0.00    -0.250 OA
BRANCH  39  41
ATOM     41  O   UNL     1     -10.253  -5.246  -1.624  1.00  0.00    -0.458 OA
BRANCH  41  42
ATOM     42  C   UNL     1     -11.207  -5.869  -0.731  1.00  0.00     0.205 CG0
ATOM     43  C   UNL     1     -11.973  -4.748  -0.031  1.00  0.00     0.056 C 
ATOM     44  G   UNL     1     -10.440  -6.766   0.261  1.00  0.00     0.000 G0
ENDBRANCH  41  42
ENDBRANCH  39  41
ENDBRANCH  35  39
ENDBRANCH  33  35
ENDBRANCH  23  31
ENDBRANCH  21  23
ENDBRANCH  19  21
ENDBRANCH  14  19
ENDBRANCH   7  14
ENDBRANCH   2   5
BRANCH   3  45
ATOM     45  C   UNL     1      -3.678   3.022 -10.882  1.00  0.00     0.171 C 
BRANCH  45  46
ATOM     46  N   UNL     1      -2.564   3.497 -11.692  1.00  0.00    -0.342 N 
ATOM     47  C   UNL     1      -2.742   4.080 -12.921  1.00  0.00     0.247 C 
ATOM     48  O   UNL     1      -3.855   4.310 -13.396  1.00  0.00    -0.273 OA
ATOM     49  H   UNL     1      -1.627   3.377 -11.311  1.00  0.00     0.164 HD
BRANCH  47  50
ATOM     50  C   UNL     1      -1.449   4.403 -13.682  1.00  0.00     0.212 CG0
ATOM     51  G   UNL     1      -1.274   5.935 -13.678  1.00  0.00     0.000 G0
BRANCH  50  52
ATOM     52  N   UNL     1      -0.389   3.699 -12.965  1.00  0.00    -0.339 N 
ATOM     53  C   UNL     1       0.852   4.240 -12.729  1.00  0.00     0.243 C 
ATOM     54  O   UNL     1       1.185   5.343 -13.152  1.00  0.00    -0.273 OA
ATOM     55  H   UNL     1      -0.566   2.737 -12.685  1.00  0.00     0.164 HD
BRANCH  53  56
ATOM     56  C   UNL     1       1.833   3.277 -12.029  1.00  0.00     0.182 C 
BRANCH  56  57
ATOM     57  N   UNL     1       1.294   2.817 -10.745  1.00  0.00    -0.344 N 
ATOM     58  C   UNL     1       0.885   1.522 -10.541  1.00  0.00     0.220 C 
ATOM     59  O   UNL     1       0.874   0.681 -11.433  1.00  0.00    -0.275 OA
ATOM     60  H   UNL     1       1.380   3.451  -9.956  1.00  0.00     0.164 HD
BRANCH  58  61
ATOM     61  C   UNL     1       0.418   1.256  -9.122  1.00  0.00     0.100 C 
BRANCH  61  62
ATOM     62  C   UNL     1       0.380  -0.227  -8.753  1.00  0.00     0.010 C 
BRANCH  62  63
ATOM     63  C   UNL     1      -0.901  -0.662  -8.030  1.00  0.00     0.000 C 
BRANCH  63  64
ATOM     64  C   UNL     1      -1.796   0.496  -7.590  1.00  0.00    -0.003 C 
ATOM     65  C   UNL     1      -2.159   0.388  -6.116  1.00  0.00     0.004 C 
ENDBRANCH  63  64
ENDBRANCH  62  63
ENDBRANCH  61  62
ENDBRANCH  58  61
ENDBRANCH  56  57
BRANCH  56  66
ATOM     66  C   UNL     1       3.220   3.901 -11.881  1.00  0.00     0.157 C 
BRANCH  66  67
ATOM     67  C   UNL     1       4.301   2.886 -12.120  1.00  0.00     0.305 C 
ATOM     68  O   UNL     1       5.386   3.082 -12.644  1.00  0.00    -0.252 OA
BRANCH  67  69
ATOM     69  O   UNL     1       3.978   1.672 -11.635  1.00  0.00    -0.481 OA
ATOM     70  H   UNL     1       3.353   1.853 -10.902  1.00  0.00     0.296 HD
ENDBRANCH  67  69
ENDBRANCH  66  67
ENDBRANCH  56  66
ENDBRANCH  53  56
ENDBRANCH  50  52
ENDBRANCH  47  50
ENDBRANCH  45  46
BRANCH  45  71
ATOM     71  C   UNL     1      -3.653   3.629  -9.475  1.00  0.00     0.037 C 
BRANCH  71  72
ATOM     72  C   UNL     1      -2.227   3.795  -8.945  1.00  0.00     0.026 C 
BRANCH  72  73
ATOM     73  C   UNL     1      -1.931   5.247  -8.577  1.00  0.00     0.146 C 
BRANCH  73  74
ATOM     74  N   UNL     1      -1.949   6.032  -9.808  1.00  0.00    -0.254 NA
ATOM     75  C   UNL     1      -0.827   6.437 -10.277  1.00  0.00     0.185 C 
ATOM     76  N   UNL     1      -0.811   7.160 -11.409  1.00  0.00    -0.370 N 
ATOM     77  N   UNL     1       0.411   6.243  -9.790  1.00  0.00    -0.370 N 
ATOM     78  H   UNL     1      -1.703   7.358 -11.837  1.00  0.00     0.159 HD
ATOM     79  H   UNL     1       0.008   7.630 -11.754  1.00  0.00     0.159 HD
ATOM     80  H   UNL     1       0.553   5.712  -8.944  1.00  0.00     0.159 HD
ATOM     81  H   UNL     1       1.231   6.511 -10.309  1.00  0.00     0.159 HD
ENDBRANCH  73  74
ENDBRANCH  72  73
ENDBRANCH  71  72
ENDBRANCH  45  71
ENDBRANCH   3  45
TORSDOF 20
ENDMDL
MODEL 34
REMARK VINA RESULT:    -5.593      7.919     16.099
REMARK INTER + INTRA:         -22.878
REMARK INTER:                 -17.665
REMARK INTRA:                  -5.213
REMARK UNBOUND:                -6.822
REMARK SMILES CCCCCC(=O)N[C@H](CC(=O)O)C(=O)N[C@H]1C(=O)N[C@H](CCCN=C(N)N)C(=O)N[C@@H]2CC[C@H](O)N(C2=O)[C@@H](CC(C)C)C(=O)N(C)[C@@H](Cc2ccccc2)C(=O)N[C@H](C(C)C)C(=O)O[C@@H]1C
REMARK SMILES IDX 30 1 31 2 29 3 32 5 35 6 37 7 34 8 38 9 33 10 39 11 36 12
REMARK SMILES IDX 40 14 41 15 42 16 43 17 44 18 45 19 46 20 47 21 48 22 49 23
REMARK SMILES IDX 50 24 51 25 52 26 56 27 53 28 55 29 54 30 57 31 58 32 59 33
REMARK SMILES IDX 60 35 61 36 62 37 63 38 64 39 65 40 66 41 67 42 68 43 21 45
REMARK SMILES IDX 20 46 18 47 19 48 17 50 16 52 14 53 15 54 9 56 8 57 6 58
REMARK SMILES IDX 7 59 5 61 4 62 3 63 2 64 1 65 10 66 11 67 12 68 13 69 22 71
REMARK SMILES IDX 23 72 24 73 25 74 26 75 27 76 28 77
REMARK H PARENT 31 4 36 13 59 34 20 49 16 55 8 60 13 70 27 78 27 79 28 80
REMARK H PARENT 28 81
REMARK Flexibility Score:  259.900
ROOT
ATOM      1  O   UNL     1      -6.500  -4.085  -6.816  1.00  0.00    -0.273 OA
ATOM      2  N   UNL     1      -5.838  -1.902  -6.987  1.00  0.00    -0.343 N 
ATOM      3  C   UNL     1      -6.711  -2.893  -6.590  1.00  0.00     0.243 C 
ATOM      4  H   UNL     1      -6.037  -0.933  -6.770  1.00  0.00     0.164 HD
ENDROOT
BRANCH   2   5
ATOM      5  C   UNL     1      -4.674  -2.223  -7.805  1.00  0.00     0.171 C 
ATOM      6  C   UNL     1      -2.063  -0.992  -8.074  1.00  0.00     0.214 C 
ATOM      7  N   UNL     1      -3.138  -0.573  -8.942  1.00  0.00    -0.303 N 
ATOM      8  C   UNL     1      -2.174  -2.443  -7.635  1.00  0.00     0.057 C 
ATOM      9  C   UNL     1      -4.422  -1.083  -8.833  1.00  0.00     0.247 C 
ATOM     10  C   UNL     1      -3.498  -2.667  -6.936  1.00  0.00     0.040 C 
ATOM     11  O   UNL     1      -5.358  -0.656  -9.522  1.00  0.00    -0.272 OA
BRANCH   6  12
ATOM     12  O   UNL     1      -2.056  -0.137  -6.953  1.00  0.00    -0.373 OA
ATOM     13  H   UNL     1      -1.954  -0.705  -6.160  1.00  0.00     0.213 HD
ENDBRANCH   6  12
BRANCH   7  14
ATOM     14  C   UNL     1      -2.855   0.543  -9.870  1.00  0.00     0.177 C 
BRANCH  14  15
ATOM     15  C   UNL     1      -3.169   1.948  -9.321  1.00  0.00     0.038 C 
BRANCH  15  16
ATOM     16  C   UNL     1      -3.768   3.016 -10.262  1.00  0.00    -0.015 C 
ATOM     17  C   UNL     1      -4.488   4.131  -9.497  1.00  0.00     0.007 C 
ATOM     18  C   UNL     1      -4.775   2.361 -11.216  1.00  0.00     0.007 C 
ENDBRANCH  15  16
ENDBRANCH  14  15
BRANCH  14  19
ATOM     19  C   UNL     1      -1.647   0.182 -10.801  1.00  0.00     0.245 C 
ATOM     20  O   UNL     1      -1.798  -0.790 -11.561  1.00  0.00    -0.272 OA
BRANCH  19  21
ATOM     21  N   UNL     1      -0.413   0.804 -10.741  1.00  0.00    -0.332 N 
ATOM     22  C   UNL     1       0.463   0.827  -9.583  1.00  0.00     0.147 C 
BRANCH  21  23
ATOM     23  C   UNL     1       0.063   1.525 -11.953  1.00  0.00     0.178 C 
BRANCH  23  24
ATOM     24  C   UNL     1      -0.479   2.961 -12.106  1.00  0.00     0.070 C 
BRANCH  24  25
ATOM     25  C   UNL     1      -1.602   3.171 -13.094  1.00  0.00    -0.045 A 
ATOM     26  C   UNL     1      -2.047   2.122 -13.909  1.00  0.00     0.004 A 
ATOM     27  C   UNL     1      -2.213   4.429 -13.214  1.00  0.00     0.004 A 
ATOM     28  C   UNL     1      -3.074   2.329 -14.832  1.00  0.00     0.000 A 
ATOM     29  C   UNL     1      -3.240   4.634 -14.137  1.00  0.00     0.000 A 
ATOM     30  C   UNL     1      -3.668   3.584 -14.947  1.00  0.00     0.000 A 
ENDBRANCH  24  25
ENDBRANCH  23  24
BRANCH  23  31
ATOM     31  C   UNL     1       1.585   1.375 -12.186  1.00  0.00     0.243 C 
ATOM     32  O   UNL     1       2.126   0.332 -12.544  1.00  0.00    -0.273 OA
ATOM     33  N   UNL     1       2.318   2.476 -11.774  1.00  0.00    -0.341 N 
ATOM     34  H   UNL     1       1.812   3.314 -11.480  1.00  0.00     0.164 HD
BRANCH  33  35
ATOM     35  C   UNL     1       3.784   2.510 -11.789  1.00  0.00     0.194 C 
BRANCH  35  36
ATOM     36  C   UNL     1       4.424   2.867 -10.418  1.00  0.00     0.017 C 
ATOM     37  C   UNL     1       4.513   1.633  -9.503  1.00  0.00     0.010 C 
ATOM     38  C   UNL     1       3.651   3.950  -9.654  1.00  0.00     0.010 C 
ENDBRANCH  35  36
BRANCH  35  39
ATOM     39  C   UNL     1       4.349   3.388 -12.940  1.00  0.00     0.329 C 
ATOM     40  O   UNL     1       3.985   4.535 -13.171  1.00  0.00    -0.250 OA
BRANCH  39  41
ATOM     41  O   UNL     1       5.365   2.769 -13.615  1.00  0.00    -0.458 OA
BRANCH  41  42
ATOM     42  C   UNL     1       5.159   2.561 -15.033  1.00  0.00     0.205 CG0
ATOM     43  C   UNL     1       4.213   1.372 -15.185  1.00  0.00     0.056 C 
ATOM     44  G   UNL     1       6.528   2.315 -15.698  1.00  0.00     0.000 G0
ENDBRANCH  41  42
ENDBRANCH  39  41
ENDBRANCH  35  39
ENDBRANCH  33  35
ENDBRANCH  23  31
ENDBRANCH  21  23
ENDBRANCH  19  21
ENDBRANCH  14  19
ENDBRANCH   7  14
ENDBRANCH   2   5
BRANCH   3  45
ATOM     45  C   UNL     1      -7.952  -2.409  -5.828  1.00  0.00     0.171 C 
BRANCH  45  46
ATOM     46  N   UNL     1      -8.451  -3.573  -5.108  1.00  0.00    -0.342 N 
ATOM     47  C   UNL     1      -8.964  -3.489  -3.839  1.00  0.00     0.247 C 
ATOM     48  O   UNL     1      -9.108  -2.419  -3.245  1.00  0.00    -0.273 OA
ATOM     49  H   UNL     1      -8.402  -4.471  -5.585  1.00  0.00     0.164 HD
BRANCH  47  50
ATOM     50  C   UNL     1      -9.325  -4.834  -3.193  1.00  0.00     0.212 CG0
ATOM     51  G   UNL     1     -10.275  -5.575  -4.155  1.00  0.00     0.000 G0
BRANCH  50  52
ATOM     52  N   UNL     1      -8.053  -5.524  -2.993  1.00  0.00    -0.339 N 
ATOM     53  C   UNL     1      -7.896  -6.880  -3.147  1.00  0.00     0.243 C 
ATOM     54  O   UNL     1      -8.833  -7.629  -3.413  1.00  0.00    -0.273 OA
ATOM     55  H   UNL     1      -7.263  -4.973  -2.663  1.00  0.00     0.164 HD
BRANCH  53  56
ATOM     56  C   UNL     1      -6.484  -7.392  -2.798  1.00  0.00     0.182 C 
BRANCH  56  57
ATOM     57  N   UNL     1      -5.514  -6.999  -3.825  1.00  0.00    -0.344 N 
ATOM     58  C   UNL     1      -5.520  -7.537  -5.089  1.00  0.00     0.220 C 
ATOM     59  O   UNL     1      -6.287  -8.433  -5.424  1.00  0.00    -0.275 OA
ATOM     60  H   UNL     1      -4.930  -6.191  -3.622  1.00  0.00     0.164 HD
BRANCH  58  61
ATOM     61  C   UNL     1      -4.465  -6.941  -6.002  1.00  0.00     0.100 C 
BRANCH  61  62
ATOM     62  C   UNL     1      -4.490  -7.504  -7.423  1.00  0.00     0.010 C 
BRANCH  62  63
ATOM     63  C   UNL     1      -3.101  -7.725  -8.035  1.00  0.00     0.000 C 
BRANCH  63  64
ATOM     64  C   UNL     1      -2.520  -6.495  -8.731  1.00  0.00    -0.003 C 
ATOM     65  C   UNL     1      -1.785  -6.876 -10.008  1.00  0.00     0.004 C 
ENDBRANCH  63  64
ENDBRANCH  62  63
ENDBRANCH  61  62
ENDBRANCH  58  61
ENDBRANCH  56  57
BRANCH  56  66
ATOM     66  C   UNL     1      -6.480  -8.899  -2.549  1.00  0.00     0.157 C 
BRANCH  66  67
ATOM     67  C   UNL     1      -6.663  -9.209  -1.091  1.00  0.00     0.305 C 
ATOM     68  O   UNL     1      -7.042  -8.441  -0.220  1.00  0.00    -0.252 OA
BRANCH  67  69
ATOM     69  O   UNL     1      -6.407 -10.500  -0.806  1.00  0.00    -0.481 OA
ATOM     70  H   UNL     1      -6.030 -10.487   0.098  1.00  0.00     0.296 HD
ENDBRANCH  67  69
ENDBRANCH  66  67
ENDBRANCH  56  66
ENDBRANCH  53  56
ENDBRANCH  50  52
ENDBRANCH  47  50
ENDBRANCH  45  46
BRANCH  45  71
ATOM     71  C   UNL     1      -8.996  -1.857  -6.805  1.00  0.00     0.037 C 
BRANCH  71  72
ATOM     72  C   UNL     1      -9.824  -2.970  -7.451  1.00  0.00     0.026 C 
BRANCH  72  73
ATOM     73  C   UNL     1      -9.513  -3.108  -8.940  1.00  0.00     0.146 C 
BRANCH  73  74
ATOM     74  N   UNL     1      -9.042  -4.469  -9.174  1.00  0.00    -0.254 NA
ATOM     75  C   UNL     1      -8.977  -4.880 -10.387  1.00  0.00     0.185 C 
ATOM     76  N   UNL     1      -8.546  -6.128 -10.634  1.00  0.00    -0.370 N 
ATOM     77  N   UNL     1      -9.287  -4.225 -11.519  1.00  0.00    -0.370 N 
ATOM     78  H   UNL     1      -8.298  -6.693  -9.835  1.00  0.00     0.159 HD
ATOM     79  H   UNL     1      -8.605  -6.565 -11.537  1.00  0.00     0.159 HD
ATOM     80  H   UNL     1      -9.622  -3.274 -11.487  1.00  0.00     0.159 HD
ATOM     81  H   UNL     1      -9.085  -4.612 -12.426  1.00  0.00     0.159 HD
ENDBRANCH  73  74
ENDBRANCH  72  73
ENDBRANCH  71  72
ENDBRANCH  45  71
ENDBRANCH   3  45
TORSDOF 20
ENDMDL
MODEL 35
REMARK VINA RESULT:    -5.589      7.341     10.555
REMARK INTER + INTRA:         -22.868
REMARK INTER:                 -17.110
REMARK INTRA:                  -5.758
REMARK UNBOUND:                -6.822
REMARK SMILES CCCCCC(=O)N[C@H](CC(=O)O)C(=O)N[C@H]1C(=O)N[C@H](CCCN=C(N)N)C(=O)N[C@@H]2CC[C@H](O)N(C2=O)[C@@H](CC(C)C)C(=O)N(C)[C@@H](Cc2ccccc2)C(=O)N[C@H](C(C)C)C(=O)O[C@@H]1C
REMARK SMILES IDX 30 1 31 2 29 3 32 5 35 6 37 7 34 8 38 9 33 10 39 11 36 12
REMARK SMILES IDX 40 14 41 15 42 16 43 17 44 18 45 19 46 20 47 21 48 22 49 23
REMARK SMILES IDX 50 24 51 25 52 26 56 27 53 28 55 29 54 30 57 31 58 32 59 33
REMARK SMILES IDX 60 35 61 36 62 37 63 38 64 39 65 40 66 41 67 42 68 43 21 45
REMARK SMILES IDX 20 46 18 47 19 48 17 50 16 52 14 53 15 54 9 56 8 57 6 58
REMARK SMILES IDX 7 59 5 61 4 62 3 63 2 64 1 65 10 66 11 67 12 68 13 69 22 71
REMARK SMILES IDX 23 72 24 73 25 74 26 75 27 76 28 77
REMARK H PARENT 31 4 36 13 59 34 20 49 16 55 8 60 13 70 27 78 27 79 28 80
REMARK H PARENT 28 81
REMARK Flexibility Score:  259.900
ROOT
ATOM      1  O   UNL     1      -1.191  -1.254  -8.122  1.00  0.00    -0.273 OA
ATOM      2  N   UNL     1      -3.451  -0.943  -8.285  1.00  0.00    -0.343 N 
ATOM      3  C   UNL     1      -2.143  -0.517  -8.381  1.00  0.00     0.243 C 
ATOM      4  H   UNL     1      -4.209  -0.314  -8.520  1.00  0.00     0.164 HD
ENDROOT
BRANCH   2   5
ATOM      5  C   UNL     1      -3.764  -2.264  -7.753  1.00  0.00     0.171 C 
ATOM      6  C   UNL     1      -6.102  -3.965  -7.969  1.00  0.00     0.214 C 
ATOM      7  N   UNL     1      -6.000  -3.035  -6.870  1.00  0.00    -0.303 N 
ATOM      8  C   UNL     1      -4.753  -4.465  -8.461  1.00  0.00     0.057 C 
ATOM      9  C   UNL     1      -4.936  -2.158  -6.735  1.00  0.00     0.247 C 
ATOM     10  C   UNL     1      -3.892  -3.292  -8.876  1.00  0.00     0.040 C 
ATOM     11  O   UNL     1      -4.899  -1.305  -5.839  1.00  0.00    -0.272 OA
BRANCH   6  12
ATOM     12  O   UNL     1      -6.800  -3.325  -9.013  1.00  0.00    -0.373 OA
ATOM     13  H   UNL     1      -6.853  -2.373  -8.781  1.00  0.00     0.213 HD
ENDBRANCH   6  12
BRANCH   7  14
ATOM     14  C   UNL     1      -7.160  -2.946  -5.958  1.00  0.00     0.177 C 
BRANCH  14  15
ATOM     15  C   UNL     1      -8.419  -2.291  -6.559  1.00  0.00     0.038 C 
BRANCH  15  16
ATOM     16  C   UNL     1      -9.560  -3.185  -7.094  1.00  0.00    -0.015 C 
ATOM     17  C   UNL     1     -10.038  -2.755  -8.484  1.00  0.00     0.007 C 
ATOM     18  C   UNL     1     -10.757  -3.127  -6.135  1.00  0.00     0.007 C 
ENDBRANCH  15  16
ENDBRANCH  14  15
BRANCH  14  19
ATOM     19  C   UNL     1      -7.156  -4.149  -4.953  1.00  0.00     0.245 C 
ATOM     20  O   UNL     1      -6.278  -5.012  -5.119  1.00  0.00    -0.272 OA
BRANCH  19  21
ATOM     21  N   UNL     1      -8.125  -4.350  -3.987  1.00  0.00    -0.332 N 
ATOM     22  C   UNL     1      -9.123  -5.405  -4.000  1.00  0.00     0.147 C 
BRANCH  21  23
ATOM     23  C   UNL     1      -8.167  -3.406  -2.836  1.00  0.00     0.178 C 
BRANCH  23  24
ATOM     24  C   UNL     1      -9.500  -2.650  -2.670  1.00  0.00     0.070 C 
BRANCH  24  25
ATOM     25  C   UNL     1      -9.551  -1.226  -3.173  1.00  0.00    -0.045 A 
ATOM     26  C   UNL     1     -10.777  -0.590  -3.406  1.00  0.00     0.004 A 
ATOM     27  C   UNL     1      -8.363  -0.520  -3.419  1.00  0.00     0.004 A 
ATOM     28  C   UNL     1     -10.815   0.721  -3.887  1.00  0.00     0.000 A 
ATOM     29  C   UNL     1      -8.403   0.790  -3.898  1.00  0.00     0.000 A 
ATOM     30  C   UNL     1      -9.629   1.408  -4.135  1.00  0.00     0.000 A 
ENDBRANCH  24  25
ENDBRANCH  23  24
BRANCH  23  31
ATOM     31  C   UNL     1      -7.598  -4.018  -1.533  1.00  0.00     0.243 C 
ATOM     32  O   UNL     1      -6.405  -4.240  -1.342  1.00  0.00    -0.273 OA
ATOM     33  N   UNL     1      -8.574  -4.468  -0.661  1.00  0.00    -0.341 N 
ATOM     34  H   UNL     1      -9.552  -4.258  -0.876  1.00  0.00     0.164 HD
BRANCH  33  35
ATOM     35  C   UNL     1      -8.268  -5.187   0.579  1.00  0.00     0.194 C 
BRANCH  35  36
ATOM     36  C   UNL     1      -8.399  -6.733   0.465  1.00  0.00     0.017 C 
ATOM     37  C   UNL     1      -7.236  -7.446   1.178  1.00  0.00     0.010 C 
ATOM     38  C   UNL     1      -8.424  -7.232  -0.984  1.00  0.00     0.010 C 
ENDBRANCH  35  36
BRANCH  35  39
ATOM     39  C   UNL     1      -9.046  -4.628   1.802  1.00  0.00     0.329 C 
ATOM     40  O   UNL     1      -8.530  -4.364   2.882  1.00  0.00    -0.250 OA
BRANCH  39  41
ATOM     41  O   UNL     1     -10.360  -4.379   1.514  1.00  0.00    -0.458 OA
BRANCH  41  42
ATOM     42  C   UNL     1     -11.334  -4.940   2.427  1.00  0.00     0.205 CG0
ATOM     43  C   UNL     1     -12.166  -3.780   2.971  1.00  0.00     0.056 C 
ATOM     44  G   UNL     1     -10.585  -5.701   3.539  1.00  0.00     0.000 G0
ENDBRANCH  41  42
ENDBRANCH  39  41
ENDBRANCH  35  39
ENDBRANCH  33  35
ENDBRANCH  23  31
ENDBRANCH  21  23
ENDBRANCH  19  21
ENDBRANCH  14  19
ENDBRANCH   7  14
ENDBRANCH   2   5
BRANCH   3  45
ATOM     45  C   UNL     1      -1.957   0.931  -8.853  1.00  0.00     0.171 C 
BRANCH  45  46
ATOM     46  N   UNL     1      -1.456   0.839 -10.218  1.00  0.00    -0.342 N 
ATOM     47  C   UNL     1      -1.646   1.837 -11.140  1.00  0.00     0.247 C 
ATOM     48  O   UNL     1      -2.187   2.908 -10.864  1.00  0.00    -0.273 OA
ATOM     49  H   UNL     1      -0.953  -0.009 -10.473  1.00  0.00     0.164 HD
BRANCH  47  50
ATOM     50  C   UNL     1      -1.159   1.511 -12.560  1.00  0.00     0.212 CG0
ATOM     51  G   UNL     1      -1.437   2.744 -13.443  1.00  0.00     0.000 G0
BRANCH  50  52
ATOM     52  N   UNL     1       0.263   1.208 -12.423  1.00  0.00    -0.339 N 
ATOM     53  C   UNL     1       1.202   1.551 -13.365  1.00  0.00     0.243 C 
ATOM     54  O   UNL     1       0.908   2.095 -14.426  1.00  0.00    -0.273 OA
ATOM     55  H   UNL     1       0.554   0.659 -11.617  1.00  0.00     0.164 HD
BRANCH  53  56
ATOM     56  C   UNL     1       2.625   1.049 -13.044  1.00  0.00     0.182 C 
BRANCH  56  57
ATOM     57  N   UNL     1       3.260   1.887 -12.022  1.00  0.00    -0.344 N 
ATOM     58  C   UNL     1       3.762   1.369 -10.853  1.00  0.00     0.220 C 
ATOM     59  O   UNL     1       3.649   0.186 -10.549  1.00  0.00    -0.275 OA
ATOM     60  H   UNL     1       3.464   2.850 -12.277  1.00  0.00     0.164 HD
BRANCH  58  61
ATOM     61  C   UNL     1       4.426   2.409  -9.970  1.00  0.00     0.100 C 
BRANCH  61  62
ATOM     62  C   UNL     1       3.690   3.749  -9.935  1.00  0.00     0.010 C 
BRANCH  62  63
ATOM     63  C   UNL     1       2.453   3.761  -9.029  1.00  0.00     0.000 C 
BRANCH  63  64
ATOM     64  C   UNL     1       1.857   5.150  -8.802  1.00  0.00    -0.003 C 
ATOM     65  C   UNL     1       2.713   6.233  -9.441  1.00  0.00     0.004 C 
ENDBRANCH  63  64
ENDBRANCH  62  63
ENDBRANCH  61  62
ENDBRANCH  58  61
ENDBRANCH  56  57
BRANCH  56  66
ATOM     66  C   UNL     1       3.477   0.934 -14.307  1.00  0.00     0.157 C 
BRANCH  66  67
ATOM     67  C   UNL     1       4.274   2.185 -14.540  1.00  0.00     0.305 C 
ATOM     68  O   UNL     1       5.323   2.498 -13.997  1.00  0.00    -0.252 OA
BRANCH  67  69
ATOM     69  O   UNL     1       3.733   2.966 -15.495  1.00  0.00    -0.481 OA
ATOM     70  H   UNL     1       2.786   2.712 -15.519  1.00  0.00     0.296 HD
ENDBRANCH  67  69
ENDBRANCH  66  67
ENDBRANCH  56  66
ENDBRANCH  53  56
ENDBRANCH  50  52
ENDBRANCH  47  50
ENDBRANCH  45  46
BRANCH  45  71
ATOM     71  C   UNL     1      -0.972   1.668  -7.938  1.00  0.00     0.037 C 
BRANCH  71  72
ATOM     72  C   UNL     1      -1.688   2.564  -6.924  1.00  0.00     0.026 C 
BRANCH  72  73
ATOM     73  C   UNL     1      -3.079   2.963  -7.414  1.00  0.00     0.146 C 
BRANCH  73  74
ATOM     74  N   UNL     1      -4.049   2.080  -6.773  1.00  0.00    -0.254 NA
ATOM     75  C   UNL     1      -5.234   2.038  -7.260  1.00  0.00     0.185 C 
ATOM     76  N   UNL     1      -6.148   1.234  -6.694  1.00  0.00    -0.370 N 
ATOM     77  N   UNL     1      -5.740   2.709  -8.309  1.00  0.00    -0.370 N 
ATOM     78  H   UNL     1      -5.851   0.698  -5.891  1.00  0.00     0.159 HD
ATOM     79  H   UNL     1      -7.125   1.257  -6.926  1.00  0.00     0.159 HD
ATOM     80  H   UNL     1      -5.165   3.349  -8.836  1.00  0.00     0.159 HD
ATOM     81  H   UNL     1      -6.658   2.508  -8.672  1.00  0.00     0.159 HD
ENDBRANCH  73  74
ENDBRANCH  72  73
ENDBRANCH  71  72
ENDBRANCH  45  71
ENDBRANCH   3  45
TORSDOF 20
ENDMDL
MODEL 36
REMARK VINA RESULT:    -5.581      4.204      6.739
REMARK INTER + INTRA:         -22.845
REMARK INTER:                 -14.881
REMARK INTRA:                  -7.964
REMARK UNBOUND:                -6.822
REMARK SMILES CCCCCC(=O)N[C@H](CC(=O)O)C(=O)N[C@H]1C(=O)N[C@H](CCCN=C(N)N)C(=O)N[C@@H]2CC[C@H](O)N(C2=O)[C@@H](CC(C)C)C(=O)N(C)[C@@H](Cc2ccccc2)C(=O)N[C@H](C(C)C)C(=O)O[C@@H]1C
REMARK SMILES IDX 30 1 31 2 29 3 32 5 35 6 37 7 34 8 38 9 33 10 39 11 36 12
REMARK SMILES IDX 40 14 41 15 42 16 43 17 44 18 45 19 46 20 47 21 48 22 49 23
REMARK SMILES IDX 50 24 51 25 52 26 56 27 53 28 55 29 54 30 57 31 58 32 59 33
REMARK SMILES IDX 60 35 61 36 62 37 63 38 64 39 65 40 66 41 67 42 68 43 21 45
REMARK SMILES IDX 20 46 18 47 19 48 17 50 16 52 14 53 15 54 9 56 8 57 6 58
REMARK SMILES IDX 7 59 5 61 4 62 3 63 2 64 1 65 10 66 11 67 12 68 13 69 22 71
REMARK SMILES IDX 23 72 24 73 25 74 26 75 27 76 28 77
REMARK H PARENT 31 4 36 13 59 34 20 49 16 55 8 60 13 70 27 78 27 79 28 80
REMARK H PARENT 28 81
REMARK Flexibility Score:  259.900
ROOT
ATOM      1  O   UNL     1      -5.875   0.106  -6.935  1.00  0.00    -0.273 OA
ATOM      2  N   UNL     1      -7.811   0.298  -5.733  1.00  0.00    -0.343 N 
ATOM      3  C   UNL     1      -6.835   0.787  -6.574  1.00  0.00     0.243 C 
ATOM      4  H   UNL     1      -8.594   0.883  -5.468  1.00  0.00     0.164 HD
ENDROOT
BRANCH   2   5
ATOM      5  C   UNL     1      -7.681  -1.027  -5.136  1.00  0.00     0.171 C 
ATOM      6  C   UNL     1      -9.568  -2.769  -3.792  1.00  0.00     0.214 C 
ATOM      7  N   UNL     1      -8.789  -1.833  -3.016  1.00  0.00    -0.303 N 
ATOM      8  C   UNL     1      -8.858  -3.247  -5.048  1.00  0.00     0.057 C 
ATOM      9  C   UNL     1      -7.907  -0.938  -3.599  1.00  0.00     0.247 C 
ATOM     10  C   UNL     1      -8.494  -2.061  -5.914  1.00  0.00     0.040 C 
ATOM     11  O   UNL     1      -7.308  -0.081  -2.937  1.00  0.00    -0.272 OA
BRANCH   6  12
ATOM     12  O   UNL     1     -10.787  -2.145  -4.122  1.00  0.00    -0.373 OA
ATOM     13  H   UNL     1     -10.781  -1.998  -5.092  1.00  0.00     0.213 HD
ENDBRANCH   6  12
BRANCH   7  14
ATOM     14  C   UNL     1      -9.075  -1.761  -1.567  1.00  0.00     0.177 C 
BRANCH  14  15
ATOM     15  C   UNL     1     -10.345  -0.975  -1.188  1.00  0.00     0.038 C 
BRANCH  15  16
ATOM     16  C   UNL     1     -10.210   0.414  -0.525  1.00  0.00    -0.015 C 
ATOM     17  C   UNL     1     -10.281   1.556  -1.543  1.00  0.00     0.007 C 
ATOM     18  C   UNL     1      -8.869   0.509   0.212  1.00  0.00     0.007 C 
ENDBRANCH  15  16
ENDBRANCH  14  15
BRANCH  14  19
ATOM     19  C   UNL     1      -8.559  -3.054  -0.846  1.00  0.00     0.245 C 
ATOM     20  O   UNL     1      -7.331  -3.244  -0.849  1.00  0.00    -0.272 OA
BRANCH  19  21
ATOM     21  N   UNL     1      -9.390  -4.027  -0.319  1.00  0.00    -0.332 N 
ATOM     22  C   UNL     1     -10.056  -5.069  -1.081  1.00  0.00     0.147 C 
BRANCH  21  23
ATOM     23  C   UNL     1      -9.640  -4.009   1.148  1.00  0.00     0.178 C 
BRANCH  23  24
ATOM     24  C   UNL     1     -11.091  -3.676   1.552  1.00  0.00     0.070 C 
BRANCH  24  25
ATOM     25  C   UNL     1     -11.359  -2.281   2.068  1.00  0.00    -0.045 A 
ATOM     26  C   UNL     1     -10.411  -1.612   2.853  1.00  0.00     0.004 A 
ATOM     27  C   UNL     1     -12.569  -1.637   1.770  1.00  0.00     0.004 A 
ATOM     28  C   UNL     1     -10.674  -0.330   3.340  1.00  0.00     0.000 A 
ATOM     29  C   UNL     1     -12.830  -0.355   2.256  1.00  0.00     0.000 A 
ATOM     30  C   UNL     1     -11.883   0.296   3.044  1.00  0.00     0.000 A 
ENDBRANCH  24  25
ENDBRANCH  23  24
BRANCH  23  31
ATOM     31  C   UNL     1      -9.022  -5.223   1.881  1.00  0.00     0.243 C 
ATOM     32  O   UNL     1      -7.816  -5.454   1.933  1.00  0.00    -0.273 OA
ATOM     33  N   UNL     1      -9.962  -6.140   2.322  1.00  0.00    -0.341 N 
ATOM     34  H   UNL     1     -10.952  -5.894   2.247  1.00  0.00     0.164 HD
BRANCH  33  35
ATOM     35  C   UNL     1      -9.601  -7.420   2.937  1.00  0.00     0.194 C 
BRANCH  35  36
ATOM     36  C   UNL     1     -10.200  -8.661   2.216  1.00  0.00     0.017 C 
ATOM     37  C   UNL     1     -11.524  -9.100   2.866  1.00  0.00     0.010 C 
ATOM     38  C   UNL     1      -9.262  -9.874   2.222  1.00  0.00     0.010 C 
ENDBRANCH  35  36
BRANCH  35  39
ATOM     39  C   UNL     1      -9.876  -7.448   4.466  1.00  0.00     0.329 C 
ATOM     40  O   UNL     1      -9.282  -8.171   5.257  1.00  0.00    -0.250 OA
BRANCH  39  41
ATOM     41  O   UNL     1     -10.798  -6.512   4.846  1.00  0.00    -0.458 OA
BRANCH  41  42
ATOM     42  C   UNL     1     -11.773  -6.934   5.830  1.00  0.00     0.205 CG0
ATOM     43  C   UNL     1     -13.151  -6.545   5.299  1.00  0.00     0.056 C 
ATOM     44  G   UNL     1     -11.443  -6.251   7.172  1.00  0.00     0.000 G0
ENDBRANCH  41  42
ENDBRANCH  39  41
ENDBRANCH  35  39
ENDBRANCH  33  35
ENDBRANCH  23  31
ENDBRANCH  21  23
ENDBRANCH  19  21
ENDBRANCH  14  19
ENDBRANCH   7  14
ENDBRANCH   2   5
BRANCH   3  45
ATOM     45  C   UNL     1      -7.038   2.233  -7.045  1.00  0.00     0.171 C 
BRANCH  45  46
ATOM     46  N   UNL     1      -5.983   2.482  -8.018  1.00  0.00    -0.342 N 
ATOM     47  C   UNL     1      -6.226   2.538  -9.368  1.00  0.00     0.247 C 
ATOM     48  O   UNL     1      -7.357   2.456  -9.848  1.00  0.00    -0.273 OA
ATOM     49  H   UNL     1      -5.039   2.613  -7.660  1.00  0.00     0.164 HD
BRANCH  47  50
ATOM     50  C   UNL     1      -4.976   2.684 -10.247  1.00  0.00     0.212 CG0
ATOM     51  G   UNL     1      -4.666   4.189 -10.373  1.00  0.00     0.000 G0
BRANCH  50  52
ATOM     52  N   UNL     1      -3.927   1.935  -9.561  1.00  0.00    -0.339 N 
ATOM     53  C   UNL     1      -3.713   0.591  -9.747  1.00  0.00     0.243 C 
ATOM     54  O   UNL     1      -4.427  -0.099 -10.470  1.00  0.00    -0.273 OA
ATOM     55  H   UNL     1      -3.372   2.428  -8.864  1.00  0.00     0.164 HD
BRANCH  53  56
ATOM     56  C   UNL     1      -2.606   0.001  -8.850  1.00  0.00     0.182 C 
BRANCH  56  57
ATOM     57  N   UNL     1      -3.134  -1.068  -7.996  1.00  0.00    -0.344 N 
ATOM     58  C   UNL     1      -3.026  -2.396  -8.328  1.00  0.00     0.220 C 
ATOM     59  O   UNL     1      -2.548  -2.778  -9.390  1.00  0.00    -0.275 OA
ATOM     60  H   UNL     1      -3.444  -0.802  -7.065  1.00  0.00     0.164 HD
BRANCH  58  61
ATOM     61  C   UNL     1      -3.589  -3.328  -7.271  1.00  0.00     0.100 C 
BRANCH  61  62
ATOM     62  C   UNL     1      -5.116  -3.328  -7.200  1.00  0.00     0.010 C 
BRANCH  62  63
ATOM     63  C   UNL     1      -5.720  -4.634  -6.667  1.00  0.00     0.000 C 
BRANCH  63  64
ATOM     64  C   UNL     1      -6.833  -5.212  -7.539  1.00  0.00    -0.003 C 
ATOM     65  C   UNL     1      -7.017  -4.401  -8.814  1.00  0.00     0.004 C 
ENDBRANCH  63  64
ENDBRANCH  62  63
ENDBRANCH  61  62
ENDBRANCH  58  61
ENDBRANCH  56  57
BRANCH  56  66
ATOM     66  C   UNL     1      -1.901   1.089  -8.042  1.00  0.00     0.157 C 
BRANCH  66  67
ATOM     67  C   UNL     1      -2.408   1.133  -6.629  1.00  0.00     0.305 C 
ATOM     68  O   UNL     1      -1.887   0.625  -5.648  1.00  0.00    -0.252 OA
BRANCH  67  69
ATOM     69  O   UNL     1      -3.532   1.865  -6.511  1.00  0.00    -0.481 OA
ATOM     70  H   UNL     1      -3.380   2.432  -5.726  1.00  0.00     0.296 HD
ENDBRANCH  67  69
ENDBRANCH  66  67
ENDBRANCH  56  66
ENDBRANCH  53  56
ENDBRANCH  50  52
ENDBRANCH  47  50
ENDBRANCH  45  46
BRANCH  45  71
ATOM     71  C   UNL     1      -6.950   3.199  -5.857  1.00  0.00     0.037 C 
BRANCH  71  72
ATOM     72  C   UNL     1      -6.528   4.606  -6.289  1.00  0.00     0.026 C 
BRANCH  72  73
ATOM     73  C   UNL     1      -5.280   5.070  -5.541  1.00  0.00     0.146 C 
BRANCH  73  74
ATOM     74  N   UNL     1      -5.537   4.928  -4.111  1.00  0.00    -0.254 NA
ATOM     75  C   UNL     1      -5.131   5.863  -3.334  1.00  0.00     0.185 C 
ATOM     76  N   UNL     1      -5.354   5.762  -2.014  1.00  0.00    -0.370 N 
ATOM     77  N   UNL     1      -4.480   6.998  -3.646  1.00  0.00    -0.370 N 
ATOM     78  H   UNL     1      -5.833   4.933  -1.693  1.00  0.00     0.159 HD
ATOM     79  H   UNL     1      -4.942   6.377  -1.334  1.00  0.00     0.159 HD
ATOM     80  H   UNL     1      -4.248   7.210  -4.604  1.00  0.00     0.159 HD
ATOM     81  H   UNL     1      -4.313   7.716  -2.960  1.00  0.00     0.159 HD
ENDBRANCH  73  74
ENDBRANCH  72  73
ENDBRANCH  71  72
ENDBRANCH  45  71
ENDBRANCH   3  45
TORSDOF 20
ENDMDL
MODEL 37
REMARK VINA RESULT:    -5.559      3.699      8.609
REMARK INTER + INTRA:         -22.781
REMARK INTER:                 -15.887
REMARK INTRA:                  -6.894
REMARK UNBOUND:                -6.822
REMARK SMILES CCCCCC(=O)N[C@H](CC(=O)O)C(=O)N[C@H]1C(=O)N[C@H](CCCN=C(N)N)C(=O)N[C@@H]2CC[C@H](O)N(C2=O)[C@@H](CC(C)C)C(=O)N(C)[C@@H](Cc2ccccc2)C(=O)N[C@H](C(C)C)C(=O)O[C@@H]1C
REMARK SMILES IDX 30 1 31 2 29 3 32 5 35 6 37 7 34 8 38 9 33 10 39 11 36 12
REMARK SMILES IDX 40 14 41 15 42 16 43 17 44 18 45 19 46 20 47 21 48 22 49 23
REMARK SMILES IDX 50 24 51 25 52 26 56 27 53 28 55 29 54 30 57 31 58 32 59 33
REMARK SMILES IDX 60 35 61 36 62 37 63 38 64 39 65 40 66 41 67 42 68 43 21 45
REMARK SMILES IDX 20 46 18 47 19 48 17 50 16 52 14 53 15 54 9 56 8 57 6 58
REMARK SMILES IDX 7 59 5 61 4 62 3 63 2 64 1 65 10 66 11 67 12 68 13 69 22 71
REMARK SMILES IDX 23 72 24 73 25 74 26 75 27 76 28 77
REMARK H PARENT 31 4 36 13 59 34 20 49 16 55 8 60 13 70 27 78 27 79 28 80
REMARK H PARENT 28 81
REMARK Flexibility Score:  259.900
ROOT
ATOM      1  O   UNL     1      -7.897  -5.492   2.546  1.00  0.00    -0.273 OA
ATOM      2  N   UNL     1      -9.613  -4.665   1.280  1.00  0.00    -0.343 N 
ATOM      3  C   UNL     1      -8.316  -5.095   1.458  1.00  0.00     0.243 C 
ATOM      4  H   UNL     1      -9.926  -4.360   0.367  1.00  0.00     0.164 HD
ENDROOT
BRANCH   2   5
ATOM      5  C   UNL     1     -10.520  -4.550   2.417  1.00  0.00     0.171 C 
ATOM      6  C   UNL     1     -13.407  -4.385   2.618  1.00  0.00     0.214 C 
ATOM      7  N   UNL     1     -12.631  -3.171   2.519  1.00  0.00    -0.303 N 
ATOM      8  C   UNL     1     -12.663  -5.520   3.304  1.00  0.00     0.057 C 
ATOM      9  C   UNL     1     -11.254  -3.180   2.369  1.00  0.00     0.247 C 
ATOM     10  C   UNL     1     -11.374  -5.808   2.567  1.00  0.00     0.040 C 
ATOM     11  O   UNL     1     -10.606  -2.139   2.198  1.00  0.00    -0.272 OA
BRANCH   6  12
ATOM     12  O   UNL     1     -13.785  -4.762   1.314  1.00  0.00    -0.373 OA
ATOM     13  H   UNL     1     -12.976  -4.731   0.760  1.00  0.00     0.213 HD
ENDBRANCH   6  12
BRANCH   7  14
ATOM     14  C   UNL     1     -13.383  -1.901   2.434  1.00  0.00     0.177 C 
BRANCH  14  15
ATOM     15  C   UNL     1     -13.076  -0.882   3.549  1.00  0.00     0.038 C 
BRANCH  15  16
ATOM     16  C   UNL     1     -14.104  -0.659   4.680  1.00  0.00    -0.015 C 
ATOM     17  C   UNL     1     -14.874  -1.936   5.029  1.00  0.00     0.007 C 
ATOM     18  C   UNL     1     -15.117   0.412   4.258  1.00  0.00     0.007 C 
ENDBRANCH  15  16
ENDBRANCH  14  15
BRANCH  14  19
ATOM     19  C   UNL     1     -13.682  -1.544   0.937  1.00  0.00     0.245 C 
ATOM     20  O   UNL     1     -13.094  -2.217   0.074  1.00  0.00    -0.272 OA
BRANCH  19  21
ATOM     21  N   UNL     1     -14.461  -0.472   0.540  1.00  0.00    -0.332 N 
ATOM     22  C   UNL     1     -15.888  -0.336   0.769  1.00  0.00     0.147 C 
BRANCH  21  23
ATOM     23  C   UNL     1     -13.793   0.639  -0.193  1.00  0.00     0.178 C 
BRANCH  23  24
ATOM     24  C   UNL     1     -14.740   1.759  -0.669  1.00  0.00     0.070 C 
BRANCH  24  25
ATOM     25  C   UNL     1     -14.560   2.257  -2.085  1.00  0.00    -0.045 A 
ATOM     26  C   UNL     1     -13.644   1.645  -2.950  1.00  0.00     0.004 A 
ATOM     27  C   UNL     1     -15.309   3.349  -2.551  1.00  0.00     0.004 A 
ATOM     28  C   UNL     1     -13.471   2.123  -4.251  1.00  0.00     0.000 A 
ATOM     29  C   UNL     1     -15.136   3.824  -3.852  1.00  0.00     0.000 A 
ATOM     30  C   UNL     1     -14.215   3.212  -4.700  1.00  0.00     0.000 A 
ENDBRANCH  24  25
ENDBRANCH  23  24
BRANCH  23  31
ATOM     31  C   UNL     1     -12.501   1.130   0.501  1.00  0.00     0.243 C 
ATOM     32  O   UNL     1     -12.484   1.757   1.557  1.00  0.00    -0.273 OA
ATOM     33  N   UNL     1     -11.362   0.963  -0.268  1.00  0.00    -0.341 N 
ATOM     34  H   UNL     1     -11.439   0.437  -1.142  1.00  0.00     0.164 HD
BRANCH  33  35
ATOM     35  C   UNL     1     -10.044   1.461   0.136  1.00  0.00     0.194 C 
BRANCH  35  36
ATOM     36  C   UNL     1      -9.694   2.865  -0.433  1.00  0.00     0.017 C 
ATOM     37  C   UNL     1      -9.935   3.968   0.613  1.00  0.00     0.010 C 
ATOM     38  C   UNL     1     -10.506   3.231  -1.681  1.00  0.00     0.010 C 
ENDBRANCH  35  36
BRANCH  35  39
ATOM     39  C   UNL     1      -8.910   0.431  -0.123  1.00  0.00     0.329 C 
ATOM     40  O   UNL     1      -7.764   0.552   0.295  1.00  0.00    -0.250 OA
BRANCH  39  41
ATOM     41  O   UNL     1      -9.354  -0.673  -0.797  1.00  0.00    -0.458 OA
BRANCH  41  42
ATOM     42  C   UNL     1      -8.702  -0.960  -2.058  1.00  0.00     0.205 CG0
ATOM     43  C   UNL     1      -9.420  -0.150  -3.135  1.00  0.00     0.056 C 
ATOM     44  G   UNL     1      -8.775  -2.478  -2.315  1.00  0.00     0.000 G0
ENDBRANCH  41  42
ENDBRANCH  39  41
ENDBRANCH  35  39
ENDBRANCH  33  35
ENDBRANCH  23  31
ENDBRANCH  21  23
ENDBRANCH  19  21
ENDBRANCH  14  19
ENDBRANCH   7  14
ENDBRANCH   2   5
BRANCH   3  45
ATOM     45  C   UNL     1      -7.435  -5.066   0.202  1.00  0.00     0.171 C 
BRANCH  45  46
ATOM     46  N   UNL     1      -8.205  -4.343  -0.801  1.00  0.00    -0.342 N 
ATOM     47  C   UNL     1      -7.771  -3.163  -1.353  1.00  0.00     0.247 C 
ATOM     48  O   UNL     1      -6.672  -2.670  -1.097  1.00  0.00    -0.273 OA
ATOM     49  H   UNL     1      -9.096  -4.746  -1.085  1.00  0.00     0.164 HD
BRANCH  47  50
ATOM     50  C   UNL     1      -8.770  -2.482  -2.299  1.00  0.00     0.212 CG0
ATOM     51  G   UNL     1      -8.708  -0.965  -2.029  1.00  0.00     0.000 G0
BRANCH  50  52
ATOM     52  N   UNL     1      -8.341  -2.846  -3.646  1.00  0.00    -0.339 N 
ATOM     53  C   UNL     1      -8.826  -3.938  -4.324  1.00  0.00     0.243 C 
ATOM     54  O   UNL     1      -9.623  -4.727  -3.824  1.00  0.00    -0.273 OA
ATOM     55  H   UNL     1      -7.599  -2.294  -4.072  1.00  0.00     0.164 HD
BRANCH  53  56
ATOM     56  C   UNL     1      -8.162  -4.170  -5.697  1.00  0.00     0.182 C 
BRANCH  56  57
ATOM     57  N   UNL     1      -6.766  -4.594  -5.541  1.00  0.00    -0.344 N 
ATOM     58  C   UNL     1      -6.290  -5.768  -6.074  1.00  0.00     0.220 C 
ATOM     59  O   UNL     1      -7.011  -6.575  -6.651  1.00  0.00    -0.275 OA
ATOM     60  H   UNL     1      -6.117  -3.911  -5.161  1.00  0.00     0.164 HD
BRANCH  58  61
ATOM     61  C   UNL     1      -4.805  -5.975  -5.841  1.00  0.00     0.100 C 
BRANCH  61  62
ATOM     62  C   UNL     1      -3.916  -5.238  -6.843  1.00  0.00     0.010 C 
BRANCH  62  63
ATOM     63  C   UNL     1      -4.540  -5.073  -8.234  1.00  0.00     0.000 C 
BRANCH  63  64
ATOM     64  C   UNL     1      -4.137  -3.788  -8.954  1.00  0.00    -0.003 C 
ATOM     65  C   UNL     1      -2.933  -3.134  -8.290  1.00  0.00     0.004 C 
ENDBRANCH  63  64
ENDBRANCH  62  63
ENDBRANCH  61  62
ENDBRANCH  58  61
ENDBRANCH  56  57
BRANCH  56  66
ATOM     66  C   UNL     1      -8.295  -2.944  -6.598  1.00  0.00     0.157 C 
BRANCH  66  67
ATOM     67  C   UNL     1      -6.982  -2.229  -6.741  1.00  0.00     0.305 C 
ATOM     68  O   UNL     1      -6.492  -1.796  -7.772  1.00  0.00    -0.252 OA
BRANCH  67  69
ATOM     69  O   UNL     1      -6.367  -2.046  -5.557  1.00  0.00    -0.481 OA
ATOM     70  H   UNL     1      -5.922  -2.900  -5.371  1.00  0.00     0.296 HD
ENDBRANCH  67  69
ENDBRANCH  66  67
ENDBRANCH  56  66
ENDBRANCH  53  56
ENDBRANCH  50  52
ENDBRANCH  47  50
ENDBRANCH  45  46
BRANCH  45  71
ATOM     71  C   UNL     1      -7.110  -6.492  -0.255  1.00  0.00     0.037 C 
BRANCH  71  72
ATOM     72  C   UNL     1      -7.944  -6.913  -1.468  1.00  0.00     0.026 C 
BRANCH  72  73
ATOM     73  C   UNL     1      -9.024  -7.922  -1.082  1.00  0.00     0.146 C 
BRANCH  73  74
ATOM     74  N   UNL     1     -10.157  -7.180  -0.540  1.00  0.00    -0.254 NA
ATOM     75  C   UNL     1     -11.073  -6.805  -1.355  1.00  0.00     0.185 C 
ATOM     76  N   UNL     1     -12.129  -6.121  -0.885  1.00  0.00    -0.370 N 
ATOM     77  N   UNL     1     -11.153  -6.998  -2.683  1.00  0.00    -0.370 N 
ATOM     78  H   UNL     1     -12.144  -5.926   0.106  1.00  0.00     0.159 HD
ATOM     79  H   UNL     1     -12.806  -5.673  -1.477  1.00  0.00     0.159 HD
ATOM     80  H   UNL     1     -10.430  -7.502  -3.173  1.00  0.00     0.159 HD
ATOM     81  H   UNL     1     -11.981  -6.758  -3.202  1.00  0.00     0.159 HD
ENDBRANCH  73  74
ENDBRANCH  72  73
ENDBRANCH  71  72
ENDBRANCH  45  71
ENDBRANCH   3  45
TORSDOF 20
ENDMDL
MODEL 38
REMARK VINA RESULT:    -5.518      4.407      7.282
REMARK INTER + INTRA:         -22.663
REMARK INTER:                 -15.078
REMARK INTRA:                  -7.585
REMARK UNBOUND:                -6.822
REMARK SMILES CCCCCC(=O)N[C@H](CC(=O)O)C(=O)N[C@H]1C(=O)N[C@H](CCCN=C(N)N)C(=O)N[C@@H]2CC[C@H](O)N(C2=O)[C@@H](CC(C)C)C(=O)N(C)[C@@H](Cc2ccccc2)C(=O)N[C@H](C(C)C)C(=O)O[C@@H]1C
REMARK SMILES IDX 30 1 31 2 29 3 32 5 35 6 37 7 34 8 38 9 33 10 39 11 36 12
REMARK SMILES IDX 40 14 41 15 42 16 43 17 44 18 45 19 46 20 47 21 48 22 49 23
REMARK SMILES IDX 50 24 51 25 52 26 56 27 53 28 55 29 54 30 57 31 58 32 59 33
REMARK SMILES IDX 60 35 61 36 62 37 63 38 64 39 65 40 66 41 67 42 68 43 21 45
REMARK SMILES IDX 20 46 18 47 19 48 17 50 16 52 14 53 15 54 9 56 8 57 6 58
REMARK SMILES IDX 7 59 5 61 4 62 3 63 2 64 1 65 10 66 11 67 12 68 13 69 22 71
REMARK SMILES IDX 23 72 24 73 25 74 26 75 27 76 28 77
REMARK H PARENT 31 4 36 13 59 34 20 49 16 55 8 60 13 70 27 78 27 79 28 80
REMARK H PARENT 28 81
REMARK Flexibility Score:  259.900
ROOT
ATOM      1  O   UNL     1      -5.815   0.388  -7.116  1.00  0.00    -0.273 OA
ATOM      2  N   UNL     1      -7.876   0.324  -6.128  1.00  0.00    -0.343 N 
ATOM      3  C   UNL     1      -6.846   0.969  -6.778  1.00  0.00     0.243 C 
ATOM      4  H   UNL     1      -8.716   0.831  -5.878  1.00  0.00     0.164 HD
ENDROOT
BRANCH   2   5
ATOM      5  C   UNL     1      -7.732  -1.064  -5.703  1.00  0.00     0.171 C 
ATOM      6  C   UNL     1      -9.562  -2.938  -4.460  1.00  0.00     0.214 C 
ATOM      7  N   UNL     1      -8.721  -2.109  -3.629  1.00  0.00    -0.303 N 
ATOM      8  C   UNL     1      -8.938  -3.268  -5.807  1.00  0.00     0.057 C 
ATOM      9  C   UNL     1      -7.862  -1.158  -4.155  1.00  0.00     0.247 C 
ATOM     10  C   UNL     1      -8.608  -1.989  -6.546  1.00  0.00     0.040 C 
ATOM     11  O   UNL     1      -7.209  -0.393  -3.434  1.00  0.00    -0.272 OA
BRANCH   6  12
ATOM     12  O   UNL     1     -10.788  -2.267  -4.636  1.00  0.00    -0.373 OA
ATOM     13  H   UNL     1     -10.823  -1.552  -3.966  1.00  0.00     0.213 HD
ENDBRANCH   6  12
BRANCH   7  14
ATOM     14  C   UNL     1      -8.916  -2.209  -2.167  1.00  0.00     0.177 C 
BRANCH  14  15
ATOM     15  C   UNL     1     -10.331  -1.855  -1.668  1.00  0.00     0.038 C 
BRANCH  15  16
ATOM     16  C   UNL     1     -10.563  -0.522  -0.921  1.00  0.00    -0.015 C 
ATOM     17  C   UNL     1      -9.855  -0.483   0.437  1.00  0.00     0.007 C 
ATOM     18  C   UNL     1     -12.064  -0.314  -0.687  1.00  0.00     0.007 C 
ENDBRANCH  15  16
ENDBRANCH  14  15
BRANCH  14  19
ATOM     19  C   UNL     1      -8.000  -3.333  -1.571  1.00  0.00     0.245 C 
ATOM     20  O   UNL     1      -6.848  -3.002  -1.245  1.00  0.00    -0.272 OA
BRANCH  19  21
ATOM     21  N   UNL     1      -8.363  -4.666  -1.499  1.00  0.00    -0.332 N 
ATOM     22  C   UNL     1      -8.175  -5.650  -2.551  1.00  0.00     0.147 C 
BRANCH  21  23
ATOM     23  C   UNL     1      -9.013  -5.144  -0.247  1.00  0.00     0.178 C 
BRANCH  23  24
ATOM     24  C   UNL     1     -10.550  -5.248  -0.316  1.00  0.00     0.070 C 
BRANCH  24  25
ATOM     25  C   UNL     1     -11.344  -4.343   0.597  1.00  0.00    -0.045 A 
ATOM     26  C   UNL     1     -10.774  -3.828   1.769  1.00  0.00     0.004 A 
ATOM     27  C   UNL     1     -12.670  -4.008   0.284  1.00  0.00     0.004 A 
ATOM     28  C   UNL     1     -11.520  -3.006   2.616  1.00  0.00     0.000 A 
ATOM     29  C   UNL     1     -13.413  -3.185   1.131  1.00  0.00     0.000 A 
ATOM     30  C   UNL     1     -12.838  -2.687   2.298  1.00  0.00     0.000 A 
ENDBRANCH  24  25
ENDBRANCH  23  24
BRANCH  23  31
ATOM     31  C   UNL     1      -8.304  -6.372   0.371  1.00  0.00     0.243 C 
ATOM     32  O   UNL     1      -7.118  -6.391   0.693  1.00  0.00    -0.273 OA
ATOM     33  N   UNL     1      -9.077  -7.521   0.360  1.00  0.00    -0.341 N 
ATOM     34  H   UNL     1     -10.057  -7.443   0.076  1.00  0.00     0.164 HD
BRANCH  33  35
ATOM     35  C   UNL     1      -8.571  -8.829   0.785  1.00  0.00     0.194 C 
BRANCH  35  36
ATOM     36  C   UNL     1      -8.165  -9.764  -0.388  1.00  0.00     0.017 C 
ATOM     37  C   UNL     1      -6.636  -9.834  -0.544  1.00  0.00     0.010 C 
ATOM     38  C   UNL     1      -8.744  -9.326  -1.739  1.00  0.00     0.010 C 
ENDBRANCH  35  36
BRANCH  35  39
ATOM     39  C   UNL     1      -9.520  -9.539   1.791  1.00  0.00     0.329 C 
ATOM     40  O   UNL     1      -9.288 -10.629   2.300  1.00  0.00    -0.250 OA
BRANCH  39  41
ATOM     41  O   UNL     1     -10.604  -8.771   2.114  1.00  0.00    -0.458 OA
BRANCH  41  42
ATOM     42  C   UNL     1     -11.448  -9.269   3.179  1.00  0.00     0.205 CG0
ATOM     43  C   UNL     1     -11.947  -8.060   3.967  1.00  0.00     0.056 C 
ATOM     44  G   UNL     1     -10.623 -10.239   4.048  1.00  0.00     0.000 G0
ENDBRANCH  41  42
ENDBRANCH  39  41
ENDBRANCH  35  39
ENDBRANCH  33  35
ENDBRANCH  23  31
ENDBRANCH  21  23
ENDBRANCH  19  21
ENDBRANCH  14  19
ENDBRANCH   7  14
ENDBRANCH   2   5
BRANCH   3  45
ATOM     45  C   UNL     1      -7.084   2.456  -7.072  1.00  0.00     0.171 C 
BRANCH  45  46
ATOM     46  N   UNL     1      -6.038   2.845  -8.008  1.00  0.00    -0.342 N 
ATOM     47  C   UNL     1      -6.284   3.054  -9.342  1.00  0.00     0.247 C 
ATOM     48  O   UNL     1      -7.413   3.000  -9.830  1.00  0.00    -0.273 OA
ATOM     49  H   UNL     1      -5.097   2.957  -7.635  1.00  0.00     0.164 HD
BRANCH  47  50
ATOM     50  C   UNL     1      -5.039   3.335 -10.196  1.00  0.00     0.212 CG0
ATOM     51  G   UNL     1      -4.792   4.856 -10.176  1.00  0.00     0.000 G0
BRANCH  50  52
ATOM     52  N   UNL     1      -3.961   2.567  -9.578  1.00  0.00    -0.339 N 
ATOM     53  C   UNL     1      -3.712   1.247  -9.867  1.00  0.00     0.243 C 
ATOM     54  O   UNL     1      -4.415   0.593 -10.632  1.00  0.00    -0.273 OA
ATOM     55  H   UNL     1      -3.412   3.023  -8.852  1.00  0.00     0.164 HD
BRANCH  53  56
ATOM     56  C   UNL     1      -2.578   0.625  -9.027  1.00  0.00     0.182 C 
BRANCH  56  57
ATOM     57  N   UNL     1      -3.061  -0.531  -8.265  1.00  0.00    -0.344 N 
ATOM     58  C   UNL     1      -2.776  -1.825  -8.629  1.00  0.00     0.220 C 
ATOM     59  O   UNL     1      -2.163  -2.105  -9.653  1.00  0.00    -0.275 OA
ATOM     60  H   UNL     1      -3.483  -0.342  -7.360  1.00  0.00     0.164 HD
BRANCH  58  61
ATOM     61  C   UNL     1      -3.328  -2.857  -7.664  1.00  0.00     0.100 C 
BRANCH  61  62
ATOM     62  C   UNL     1      -3.123  -4.301  -8.122  1.00  0.00     0.010 C 
BRANCH  62  63
ATOM     63  C   UNL     1      -3.935  -5.332  -7.329  1.00  0.00     0.000 C 
BRANCH  63  64
ATOM     64  C   UNL     1      -5.305  -4.834  -6.872  1.00  0.00    -0.003 C 
ATOM     65  C   UNL     1      -6.368  -5.080  -7.933  1.00  0.00     0.004 C 
ENDBRANCH  63  64
ENDBRANCH  62  63
ENDBRANCH  61  62
ENDBRANCH  58  61
ENDBRANCH  56  57
BRANCH  56  66
ATOM     66  C   UNL     1      -1.907   1.666  -8.133  1.00  0.00     0.157 C 
BRANCH  66  67
ATOM     67  C   UNL     1      -2.383   1.551  -6.713  1.00  0.00     0.305 C 
ATOM     68  O   UNL     1      -1.808   0.995  -5.790  1.00  0.00    -0.252 OA
BRANCH  67  69
ATOM     69  O   UNL     1      -3.549   2.194  -6.511  1.00  0.00    -0.481 OA
ATOM     70  H   UNL     1      -4.204   1.698  -7.046  1.00  0.00     0.296 HD
ENDBRANCH  67  69
ENDBRANCH  66  67
ENDBRANCH  56  66
ENDBRANCH  53  56
ENDBRANCH  50  52
ENDBRANCH  47  50
ENDBRANCH  45  46
BRANCH  45  71
ATOM     71  C   UNL     1      -7.016   3.273  -5.777  1.00  0.00     0.037 C 
BRANCH  71  72
ATOM     72  C   UNL     1      -8.055   4.397  -5.750  1.00  0.00     0.026 C 
BRANCH  72  73
ATOM     73  C   UNL     1      -9.479   3.844  -5.761  1.00  0.00     0.146 C 
BRANCH  73  74
ATOM     74  N   UNL     1     -10.207   4.507  -6.838  1.00  0.00    -0.254 NA
ATOM     75  C   UNL     1     -11.454   4.746  -6.660  1.00  0.00     0.185 C 
ATOM     76  N   UNL     1     -12.151   5.355  -7.633  1.00  0.00    -0.370 N 
ATOM     77  N   UNL     1     -12.223   4.469  -5.593  1.00  0.00    -0.370 N 
ATOM     78  H   UNL     1     -11.648   5.592  -8.476  1.00  0.00     0.159 HD
ATOM     79  H   UNL     1     -13.151   5.444  -7.625  1.00  0.00     0.159 HD
ATOM     80  H   UNL     1     -11.832   4.014  -4.782  1.00  0.00     0.159 HD
ATOM     81  H   UNL     1     -13.168   4.810  -5.520  1.00  0.00     0.159 HD
ENDBRANCH  73  74
ENDBRANCH  72  73
ENDBRANCH  71  72
ENDBRANCH  45  71
ENDBRANCH   3  45
TORSDOF 20
ENDMDL
MODEL 39
REMARK VINA RESULT:    -5.466      6.348     15.183
REMARK INTER + INTRA:         -22.514
REMARK INTER:                 -16.322
REMARK INTRA:                  -6.192
REMARK UNBOUND:                -6.822
REMARK SMILES CCCCCC(=O)N[C@H](CC(=O)O)C(=O)N[C@H]1C(=O)N[C@H](CCCN=C(N)N)C(=O)N[C@@H]2CC[C@H](O)N(C2=O)[C@@H](CC(C)C)C(=O)N(C)[C@@H](Cc2ccccc2)C(=O)N[C@H](C(C)C)C(=O)O[C@@H]1C
REMARK SMILES IDX 30 1 31 2 29 3 32 5 35 6 37 7 34 8 38 9 33 10 39 11 36 12
REMARK SMILES IDX 40 14 41 15 42 16 43 17 44 18 45 19 46 20 47 21 48 22 49 23
REMARK SMILES IDX 50 24 51 25 52 26 56 27 53 28 55 29 54 30 57 31 58 32 59 33
REMARK SMILES IDX 60 35 61 36 62 37 63 38 64 39 65 40 66 41 67 42 68 43 21 45
REMARK SMILES IDX 20 46 18 47 19 48 17 50 16 52 14 53 15 54 9 56 8 57 6 58
REMARK SMILES IDX 7 59 5 61 4 62 3 63 2 64 1 65 10 66 11 67 12 68 13 69 22 71
REMARK SMILES IDX 23 72 24 73 25 74 26 75 27 76 28 77
REMARK H PARENT 31 4 36 13 59 34 20 49 16 55 8 60 13 70 27 78 27 79 28 80
REMARK H PARENT 28 81
REMARK Flexibility Score:  259.900
ROOT
ATOM      1  O   UNL     1      -8.991  -4.283  -5.011  1.00  0.00    -0.273 OA
ATOM      2  N   UNL     1      -7.075  -4.540  -6.233  1.00  0.00    -0.343 N 
ATOM      3  C   UNL     1      -7.933  -4.881  -5.210  1.00  0.00     0.243 C 
ATOM      4  H   UNL     1      -6.220  -5.064  -6.375  1.00  0.00     0.164 HD
ENDROOT
BRANCH   2   5
ATOM      5  C   UNL     1      -7.333  -3.365  -7.058  1.00  0.00     0.171 C 
ATOM      6  C   UNL     1      -6.065  -2.327  -9.449  1.00  0.00     0.214 C 
ATOM      7  N   UNL     1      -5.602  -1.889  -8.153  1.00  0.00    -0.303 N 
ATOM      8  C   UNL     1      -7.541  -2.688  -9.471  1.00  0.00     0.057 C 
ATOM      9  C   UNL     1      -6.130  -2.384  -6.971  1.00  0.00     0.247 C 
ATOM     10  C   UNL     1      -7.820  -3.769  -8.449  1.00  0.00     0.040 C 
ATOM     11  O   UNL     1      -5.670  -2.069  -5.865  1.00  0.00    -0.272 OA
BRANCH   6  12
ATOM     12  O   UNL     1      -5.282  -3.432  -9.835  1.00  0.00    -0.373 OA
ATOM     13  H   UNL     1      -5.845  -3.999 -10.404  1.00  0.00     0.213 HD
ENDBRANCH   6  12
BRANCH   7  14
ATOM     14  C   UNL     1      -4.429  -0.990  -8.128  1.00  0.00     0.177 C 
BRANCH  14  15
ATOM     15  C   UNL     1      -3.063  -1.690  -8.273  1.00  0.00     0.038 C 
BRANCH  15  16
ATOM     16  C   UNL     1      -2.042  -1.612  -7.117  1.00  0.00    -0.015 C 
ATOM     17  C   UNL     1      -2.424  -0.563  -6.069  1.00  0.00     0.007 C 
ATOM     18  C   UNL     1      -0.657  -1.253  -7.672  1.00  0.00     0.007 C 
ENDBRANCH  15  16
ENDBRANCH  14  15
BRANCH  14  19
ATOM     19  C   UNL     1      -4.801   0.407  -8.733  1.00  0.00     0.245 C 
ATOM     20  O   UNL     1      -6.011   0.676  -8.816  1.00  0.00    -0.272 OA
BRANCH  19  21
ATOM     21  N   UNL     1      -3.877   1.285  -9.270  1.00  0.00    -0.332 N 
ATOM     22  C   UNL     1      -3.218   2.360  -8.550  1.00  0.00     0.147 C 
BRANCH  21  23
ATOM     23  C   UNL     1      -3.529   1.134 -10.710  1.00  0.00     0.178 C 
BRANCH  23  24
ATOM     24  C   UNL     1      -3.961   2.313 -11.606  1.00  0.00     0.070 C 
BRANCH  24  25
ATOM     25  C   UNL     1      -4.050   2.051 -13.092  1.00  0.00    -0.045 A 
ATOM     26  C   UNL     1      -5.199   1.478 -13.652  1.00  0.00     0.004 A 
ATOM     27  C   UNL     1      -2.975   2.377 -13.933  1.00  0.00     0.004 A 
ATOM     28  C   UNL     1      -5.266   1.224 -15.024  1.00  0.00     0.000 A 
ATOM     29  C   UNL     1      -3.045   2.123 -15.304  1.00  0.00     0.000 A 
ATOM     30  C   UNL     1      -4.189   1.544 -15.848  1.00  0.00     0.000 A 
ENDBRANCH  24  25
ENDBRANCH  23  24
BRANCH  23  31
ATOM     31  C   UNL     1      -2.077   0.646 -10.932  1.00  0.00     0.243 C 
ATOM     32  O   UNL     1      -1.784  -0.483 -11.319  1.00  0.00    -0.273 OA
ATOM     33  N   UNL     1      -1.119   1.535 -10.476  1.00  0.00    -0.341 N 
ATOM     34  H   UNL     1      -1.425   2.458 -10.160  1.00  0.00     0.164 HD
BRANCH  33  35
ATOM     35  C   UNL     1       0.315   1.232 -10.475  1.00  0.00     0.194 C 
BRANCH  35  36
ATOM     36  C   UNL     1       1.103   1.896  -9.311  1.00  0.00     0.017 C 
ATOM     37  C   UNL     1       2.342   1.068  -8.930  1.00  0.00     0.010 C 
ATOM     38  C   UNL     1       0.264   2.078  -8.040  1.00  0.00     0.010 C 
ENDBRANCH  35  36
BRANCH  35  39
ATOM     39  C   UNL     1       0.983   1.496 -11.853  1.00  0.00     0.329 C 
ATOM     40  O   UNL     1       1.202   0.626 -12.687  1.00  0.00    -0.250 OA
BRANCH  39  41
ATOM     41  O   UNL     1       1.223   2.825 -12.069  1.00  0.00    -0.458 OA
BRANCH  41  42
ATOM     42  C   UNL     1       2.437   3.150 -12.786  1.00  0.00     0.205 CG0
ATOM     43  C   UNL     1       3.551   3.297 -11.751  1.00  0.00     0.056 C 
ATOM     44  G   UNL     1       2.203   4.445 -13.589  1.00  0.00     0.000 G0
ENDBRANCH  41  42
ENDBRANCH  39  41
ENDBRANCH  35  39
ENDBRANCH  33  35
ENDBRANCH  23  31
ENDBRANCH  21  23
ENDBRANCH  19  21
ENDBRANCH  14  19
ENDBRANCH   7  14
ENDBRANCH   2   5
BRANCH   3  45
ATOM     45  C   UNL     1      -7.489  -6.071  -4.349  1.00  0.00     0.171 C 
BRANCH  45  46
ATOM     46  N   UNL     1      -8.109  -5.868  -3.046  1.00  0.00    -0.342 N 
ATOM     47  C   UNL     1      -9.023  -6.747  -2.521  1.00  0.00     0.247 C 
ATOM     48  O   UNL     1      -9.330  -7.803  -3.075  1.00  0.00    -0.273 OA
ATOM     49  H   UNL     1      -7.840  -5.034  -2.527  1.00  0.00     0.164 HD
BRANCH  47  50
ATOM     50  C   UNL     1      -9.662  -6.305  -1.197  1.00  0.00     0.212 CG0
ATOM     51  G   UNL     1      -9.402  -7.416  -0.159  1.00  0.00     0.000 G0
BRANCH  50  52
ATOM     52  N   UNL     1      -9.021  -5.038  -0.858  1.00  0.00    -0.339 N 
ATOM     53  C   UNL     1      -9.467  -3.820  -1.312  1.00  0.00     0.243 C 
ATOM     54  O   UNL     1     -10.414  -3.709  -2.086  1.00  0.00    -0.273 OA
ATOM     55  H   UNL     1      -8.164  -5.073  -0.310  1.00  0.00     0.164 HD
BRANCH  53  56
ATOM     56  C   UNL     1      -8.579  -2.631  -0.894  1.00  0.00     0.182 C 
BRANCH  56  57
ATOM     57  N   UNL     1      -9.381  -1.420  -0.692  1.00  0.00    -0.344 N 
ATOM     58  C   UNL     1      -9.834  -1.035   0.547  1.00  0.00     0.220 C 
ATOM     59  O   UNL     1      -9.663  -1.712   1.555  1.00  0.00    -0.275 OA
ATOM     60  H   UNL     1      -9.458  -0.782  -1.479  1.00  0.00     0.164 HD
BRANCH  58  61
ATOM     61  C   UNL     1     -10.593   0.279   0.528  1.00  0.00     0.100 C 
BRANCH  61  62
ATOM     62  C   UNL     1      -9.691   1.510   0.448  1.00  0.00     0.010 C 
BRANCH  62  63
ATOM     63  C   UNL     1      -9.829   2.468   1.638  1.00  0.00     0.000 C 
BRANCH  63  64
ATOM     64  C   UNL     1      -9.318   3.882   1.368  1.00  0.00    -0.003 C 
ATOM     65  C   UNL     1      -9.647   4.821   2.519  1.00  0.00     0.004 C 
ENDBRANCH  63  64
ENDBRANCH  62  63
ENDBRANCH  61  62
ENDBRANCH  58  61
ENDBRANCH  56  57
BRANCH  56  66
ATOM     66  C   UNL     1      -7.438  -2.408  -1.885  1.00  0.00     0.157 C 
BRANCH  66  67
ATOM     67  C   UNL     1      -7.752  -1.285  -2.832  1.00  0.00     0.305 C 
ATOM     68  O   UNL     1      -7.255  -0.170  -2.836  1.00  0.00    -0.252 OA
BRANCH  67  69
ATOM     69  O   UNL     1      -8.650  -1.643  -3.770  1.00  0.00    -0.481 OA
ATOM     70  H   UNL     1      -8.181  -2.300  -4.327  1.00  0.00     0.296 HD
ENDBRANCH  67  69
ENDBRANCH  66  67
ENDBRANCH  56  66
ENDBRANCH  53  56
ENDBRANCH  50  52
ENDBRANCH  47  50
ENDBRANCH  45  46
BRANCH  45  71
ATOM     71  C   UNL     1      -5.960  -6.115  -4.247  1.00  0.00     0.037 C 
BRANCH  71  72
ATOM     72  C   UNL     1      -5.383  -7.417  -4.808  1.00  0.00     0.026 C 
BRANCH  72  73
ATOM     73  C   UNL     1      -4.530  -7.163  -6.049  1.00  0.00     0.146 C 
BRANCH  73  74
ATOM     74  N   UNL     1      -5.406  -7.225  -7.214  1.00  0.00    -0.254 NA
ATOM     75  C   UNL     1      -5.122  -6.479  -8.218  1.00  0.00     0.185 C 
ATOM     76  N   UNL     1      -5.909  -6.516  -9.305  1.00  0.00    -0.370 N 
ATOM     77  N   UNL     1      -4.103  -5.616  -8.367  1.00  0.00    -0.370 N 
ATOM     78  H   UNL     1      -6.706  -7.136  -9.273  1.00  0.00     0.159 HD
ATOM     79  H   UNL     1      -5.835  -5.861 -10.064  1.00  0.00     0.159 HD
ATOM     80  H   UNL     1      -3.426  -5.487  -7.630  1.00  0.00     0.159 HD
ATOM     81  H   UNL     1      -3.914  -5.168  -9.249  1.00  0.00     0.159 HD
ENDBRANCH  73  74
ENDBRANCH  72  73
ENDBRANCH  71  72
ENDBRANCH  45  71
ENDBRANCH   3  45
TORSDOF 20
ENDMDL
MODEL 40
REMARK VINA RESULT:    -5.458      4.955     14.004
REMARK INTER + INTRA:         -22.490
REMARK INTER:                 -16.915
REMARK INTRA:                  -5.575
REMARK UNBOUND:                -6.822
REMARK SMILES CCCCCC(=O)N[C@H](CC(=O)O)C(=O)N[C@H]1C(=O)N[C@H](CCCN=C(N)N)C(=O)N[C@@H]2CC[C@H](O)N(C2=O)[C@@H](CC(C)C)C(=O)N(C)[C@@H](Cc2ccccc2)C(=O)N[C@H](C(C)C)C(=O)O[C@@H]1C
REMARK SMILES IDX 30 1 31 2 29 3 32 5 35 6 37 7 34 8 38 9 33 10 39 11 36 12
REMARK SMILES IDX 40 14 41 15 42 16 43 17 44 18 45 19 46 20 47 21 48 22 49 23
REMARK SMILES IDX 50 24 51 25 52 26 56 27 53 28 55 29 54 30 57 31 58 32 59 33
REMARK SMILES IDX 60 35 61 36 62 37 63 38 64 39 65 40 66 41 67 42 68 43 21 45
REMARK SMILES IDX 20 46 18 47 19 48 17 50 16 52 14 53 15 54 9 56 8 57 6 58
REMARK SMILES IDX 7 59 5 61 4 62 3 63 2 64 1 65 10 66 11 67 12 68 13 69 22 71
REMARK SMILES IDX 23 72 24 73 25 74 26 75 27 76 28 77
REMARK H PARENT 31 4 36 13 59 34 20 49 16 55 8 60 13 70 27 78 27 79 28 80
REMARK H PARENT 28 81
REMARK Flexibility Score:  259.900
ROOT
ATOM      1  O   UNL     1      -7.029  -4.559  -3.133  1.00  0.00    -0.273 OA
ATOM      2  N   UNL     1      -7.666  -5.173  -5.242  1.00  0.00    -0.343 N 
ATOM      3  C   UNL     1      -7.290  -5.447  -3.944  1.00  0.00     0.243 C 
ATOM      4  H   UNL     1      -7.888  -5.929  -5.877  1.00  0.00     0.164 HD
ENDROOT
BRANCH   2   5
ATOM      5  C   UNL     1      -7.653  -3.804  -5.745  1.00  0.00     0.171 C 
ATOM      6  C   UNL     1      -9.081  -2.488  -7.897  1.00  0.00     0.214 C 
ATOM      7  N   UNL     1      -7.796  -3.092  -8.162  1.00  0.00    -0.303 N 
ATOM      8  C   UNL     1      -9.225  -1.981  -6.471  1.00  0.00     0.057 C 
ATOM      9  C   UNL     1      -7.084  -3.779  -7.193  1.00  0.00     0.247 C 
ATOM     10  C   UNL     1      -8.994  -3.116  -5.498  1.00  0.00     0.040 C 
ATOM     11  O   UNL     1      -6.026  -4.367  -7.449  1.00  0.00    -0.272 OA
BRANCH   6  12
ATOM     12  O   UNL     1     -10.074  -3.447  -8.181  1.00  0.00    -0.373 OA
ATOM     13  H   UNL     1     -10.477  -3.198  -9.040  1.00  0.00     0.213 HD
ENDBRANCH   6  12
BRANCH   7  14
ATOM     14  C   UNL     1      -7.325  -3.077  -9.563  1.00  0.00     0.177 C 
BRANCH  14  15
ATOM     15  C   UNL     1      -7.275  -4.454 -10.254  1.00  0.00     0.038 C 
BRANCH  15  16
ATOM     16  C   UNL     1      -8.303  -5.538  -9.864  1.00  0.00    -0.015 C 
ATOM     17  C   UNL     1      -7.641  -6.880  -9.535  1.00  0.00     0.007 C 
ATOM     18  C   UNL     1      -9.288  -5.759 -11.019  1.00  0.00     0.007 C 
ENDBRANCH  15  16
ENDBRANCH  14  15
BRANCH  14  19
ATOM     19  C   UNL     1      -7.724  -1.729 -10.257  1.00  0.00     0.245 C 
ATOM     20  O   UNL     1      -8.913  -1.603 -10.594  1.00  0.00    -0.272 OA
BRANCH  19  21
ATOM     21  N   UNL     1      -6.817  -0.743 -10.605  1.00  0.00    -0.332 N 
ATOM     22  C   UNL     1      -5.572  -0.958 -11.320  1.00  0.00     0.147 C 
BRANCH  21  23
ATOM     23  C   UNL     1      -7.128   0.659 -10.210  1.00  0.00     0.178 C 
BRANCH  23  24
ATOM     24  C   UNL     1      -6.025   1.357  -9.389  1.00  0.00     0.070 C 
BRANCH  24  25
ATOM     25  C   UNL     1      -5.398   0.565  -8.265  1.00  0.00    -0.045 A 
ATOM     26  C   UNL     1      -6.188   0.020  -7.244  1.00  0.00     0.004 A 
ATOM     27  C   UNL     1      -4.010   0.369  -8.226  1.00  0.00     0.004 A 
ATOM     28  C   UNL     1      -5.599  -0.697  -6.200  1.00  0.00     0.000 A 
ATOM     29  C   UNL     1      -3.423  -0.348  -7.182  1.00  0.00     0.000 A 
ATOM     30  C   UNL     1      -4.218  -0.878  -6.168  1.00  0.00     0.000 A 
ENDBRANCH  24  25
ENDBRANCH  23  24
BRANCH  23  31
ATOM     31  C   UNL     1      -7.704   1.500 -11.374  1.00  0.00     0.243 C 
ATOM     32  O   UNL     1      -8.868   1.431 -11.760  1.00  0.00    -0.273 OA
ATOM     33  N   UNL     1      -6.743   2.211 -12.072  1.00  0.00    -0.341 N 
ATOM     34  H   UNL     1      -5.788   2.226 -11.705  1.00  0.00     0.164 HD
BRANCH  33  35
ATOM     35  C   UNL     1      -7.041   2.982 -13.282  1.00  0.00     0.194 C 
BRANCH  35  36
ATOM     36  C   UNL     1      -5.951   2.878 -14.386  1.00  0.00     0.017 C 
ATOM     37  C   UNL     1      -5.468   1.428 -14.560  1.00  0.00     0.010 C 
ATOM     38  C   UNL     1      -4.717   3.742 -14.099  1.00  0.00     0.010 C 
ENDBRANCH  35  36
BRANCH  35  39
ATOM     39  C   UNL     1      -7.416   4.458 -12.973  1.00  0.00     0.329 C 
ATOM     40  O   UNL     1      -7.155   5.026 -11.919  1.00  0.00    -0.250 OA
BRANCH  39  41
ATOM     41  O   UNL     1      -7.993   5.083 -14.044  1.00  0.00    -0.458 OA
BRANCH  41  42
ATOM     42  C   UNL     1      -8.762   6.275 -13.753  1.00  0.00     0.205 CG0
ATOM     43  C   UNL     1     -10.234   5.871 -13.729  1.00  0.00     0.056 C 
ATOM     44  G   UNL     1      -8.457   7.333 -14.833  1.00  0.00     0.000 G0
ENDBRANCH  41  42
ENDBRANCH  39  41
ENDBRANCH  35  39
ENDBRANCH  33  35
ENDBRANCH  23  31
ENDBRANCH  21  23
ENDBRANCH  19  21
ENDBRANCH  14  19
ENDBRANCH   7  14
ENDBRANCH   2   5
BRANCH   3  45
ATOM     45  C   UNL     1      -7.242  -6.936  -3.575  1.00  0.00     0.171 C 
BRANCH  45  46
ATOM     46  N   UNL     1      -7.914  -7.044  -2.287  1.00  0.00    -0.342 N 
ATOM     47  C   UNL     1      -8.908  -7.960  -2.049  1.00  0.00     0.247 C 
ATOM     48  O   UNL     1      -9.252  -8.802  -2.879  1.00  0.00    -0.273 OA
ATOM     49  H   UNL     1      -7.620  -6.402  -1.553  1.00  0.00     0.164 HD
BRANCH  47  50
ATOM     50  C   UNL     1      -9.585  -7.844  -0.676  1.00  0.00     0.212 CG0
ATOM     51  G   UNL     1      -8.544  -8.231   0.393  1.00  0.00     0.000 G0
BRANCH  50  52
ATOM     52  N   UNL     1     -10.026  -6.455  -0.576  1.00  0.00    -0.339 N 
ATOM     53  C   UNL     1     -10.519  -5.901   0.580  1.00  0.00     0.243 C 
ATOM     54  O   UNL     1     -10.678  -6.550   1.610  1.00  0.00    -0.273 OA
ATOM     55  H   UNL     1     -10.024  -5.896  -1.426  1.00  0.00     0.164 HD
BRANCH  53  56
ATOM     56  C   UNL     1     -11.002  -4.445   0.421  1.00  0.00     0.182 C 
BRANCH  56  57
ATOM     57  N   UNL     1      -9.893  -3.560   0.049  1.00  0.00    -0.344 N 
ATOM     58  C   UNL     1      -9.896  -2.825  -1.111  1.00  0.00     0.220 C 
ATOM     59  O   UNL     1     -10.788  -2.911  -1.949  1.00  0.00    -0.275 OA
ATOM     60  H   UNL     1      -9.187  -3.383   0.758  1.00  0.00     0.164 HD
BRANCH  58  61
ATOM     61  C   UNL     1      -8.676  -1.936  -1.263  1.00  0.00     0.100 C 
BRANCH  61  62
ATOM     62  C   UNL     1      -9.010  -0.483  -1.600  1.00  0.00     0.010 C 
BRANCH  62  63
ATOM     63  C   UNL     1      -9.161  -0.205  -3.101  1.00  0.00     0.000 C 
BRANCH  63  64
ATOM     64  C   UNL     1      -8.166   0.814  -3.654  1.00  0.00    -0.003 C 
ATOM     65  C   UNL     1      -8.643   1.395  -4.977  1.00  0.00     0.004 C 
ENDBRANCH  63  64
ENDBRANCH  62  63
ENDBRANCH  61  62
ENDBRANCH  58  61
ENDBRANCH  56  57
BRANCH  56  66
ATOM     66  C   UNL     1     -11.733  -3.958   1.671  1.00  0.00     0.157 C 
BRANCH  66  67
ATOM     67  C   UNL     1     -13.178  -3.671   1.379  1.00  0.00     0.305 C 
ATOM     68  O   UNL     1     -13.811  -2.682   1.716  1.00  0.00    -0.252 OA
BRANCH  67  69
ATOM     69  O   UNL     1     -13.747  -4.629   0.623  1.00  0.00    -0.481 OA
ATOM     70  H   UNL     1     -14.700  -4.399   0.604  1.00  0.00     0.296 HD
ENDBRANCH  67  69
ENDBRANCH  66  67
ENDBRANCH  56  66
ENDBRANCH  53  56
ENDBRANCH  50  52
ENDBRANCH  47  50
ENDBRANCH  45  46
BRANCH  45  71
ATOM     71  C   UNL     1      -5.790  -7.420  -3.497  1.00  0.00     0.037 C 
BRANCH  71  72
ATOM     72  C   UNL     1      -5.537  -8.631  -4.398  1.00  0.00     0.026 C 
BRANCH  72  73
ATOM     73  C   UNL     1      -5.243  -8.207  -5.836  1.00  0.00     0.146 C 
BRANCH  73  74
ATOM     74  N   UNL     1      -4.436  -6.992  -5.788  1.00  0.00    -0.254 NA
ATOM     75  C   UNL     1      -4.032  -6.497  -6.899  1.00  0.00     0.185 C 
ATOM     76  N   UNL     1      -3.288  -5.379  -6.888  1.00  0.00    -0.370 N 
ATOM     77  N   UNL     1      -4.245  -6.943  -8.150  1.00  0.00    -0.370 N 
ATOM     78  H   UNL     1      -3.074  -4.981  -5.984  1.00  0.00     0.159 HD
ATOM     79  H   UNL     1      -2.818  -5.018  -7.699  1.00  0.00     0.159 HD
ATOM     80  H   UNL     1      -4.793  -7.774  -8.313  1.00  0.00     0.159 HD
ATOM     81  H   UNL     1      -3.973  -6.404  -8.956  1.00  0.00     0.159 HD
ENDBRANCH  73  74
ENDBRANCH  72  73
ENDBRANCH  71  72
ENDBRANCH  45  71
ENDBRANCH   3  45
TORSDOF 20
ENDMDL
MODEL 41
REMARK VINA RESULT:    -5.456      7.407     10.909
REMARK INTER + INTRA:         -22.485
REMARK INTER:                 -17.654
REMARK INTRA:                  -4.830
REMARK UNBOUND:                -6.822
REMARK SMILES CCCCCC(=O)N[C@H](CC(=O)O)C(=O)N[C@H]1C(=O)N[C@H](CCCN=C(N)N)C(=O)N[C@@H]2CC[C@H](O)N(C2=O)[C@@H](CC(C)C)C(=O)N(C)[C@@H](Cc2ccccc2)C(=O)N[C@H](C(C)C)C(=O)O[C@@H]1C
REMARK SMILES IDX 30 1 31 2 29 3 32 5 35 6 37 7 34 8 38 9 33 10 39 11 36 12
REMARK SMILES IDX 40 14 41 15 42 16 43 17 44 18 45 19 46 20 47 21 48 22 49 23
REMARK SMILES IDX 50 24 51 25 52 26 56 27 53 28 55 29 54 30 57 31 58 32 59 33
REMARK SMILES IDX 60 35 61 36 62 37 63 38 64 39 65 40 66 41 67 42 68 43 21 45
REMARK SMILES IDX 20 46 18 47 19 48 17 50 16 52 14 53 15 54 9 56 8 57 6 58
REMARK SMILES IDX 7 59 5 61 4 62 3 63 2 64 1 65 10 66 11 67 12 68 13 69 22 71
REMARK SMILES IDX 23 72 24 73 25 74 26 75 27 76 28 77
REMARK H PARENT 31 4 36 13 59 34 20 49 16 55 8 60 13 70 27 78 27 79 28 80
REMARK H PARENT 28 81
REMARK Flexibility Score:  259.900
ROOT
ATOM      1  O   UNL     1      -2.517   1.629  -6.131  1.00  0.00    -0.273 OA
ATOM      2  N   UNL     1      -4.090   0.839  -7.592  1.00  0.00    -0.343 N 
ATOM      3  C   UNL     1      -3.289   1.831  -7.069  1.00  0.00     0.243 C 
ATOM      4  H   UNL     1      -4.702   1.038  -8.373  1.00  0.00     0.164 HD
ENDROOT
BRANCH   2   5
ATOM      5  C   UNL     1      -4.141  -0.479  -6.969  1.00  0.00     0.171 C 
ATOM      6  C   UNL     1      -5.461  -2.952  -7.708  1.00  0.00     0.214 C 
ATOM      7  N   UNL     1      -6.146  -2.009  -6.855  1.00  0.00    -0.303 N 
ATOM      8  C   UNL     1      -3.949  -2.918  -7.552  1.00  0.00     0.057 C 
ATOM      9  C   UNL     1      -5.593  -0.787  -6.505  1.00  0.00     0.247 C 
ATOM     10  C   UNL     1      -3.436  -1.523  -7.834  1.00  0.00     0.040 C 
ATOM     11  O   UNL     1      -6.221   0.051  -5.845  1.00  0.00    -0.272 OA
BRANCH   6  12
ATOM     12  O   UNL     1      -5.825  -2.670  -9.040  1.00  0.00    -0.373 OA
ATOM     13  H   UNL     1      -5.696  -3.496  -9.554  1.00  0.00     0.213 HD
ENDBRANCH   6  12
BRANCH   7  14
ATOM     14  C   UNL     1      -7.538  -2.333  -6.479  1.00  0.00     0.177 C 
BRANCH  14  15
ATOM     15  C   UNL     1      -8.595  -2.041  -7.563  1.00  0.00     0.038 C 
BRANCH  15  16
ATOM     16  C   UNL     1      -9.524  -3.176  -8.046  1.00  0.00    -0.015 C 
ATOM     17  C   UNL     1      -8.744  -4.386  -8.570  1.00  0.00     0.007 C 
ATOM     18  C   UNL     1     -10.428  -2.663  -9.173  1.00  0.00     0.007 C 
ENDBRANCH  15  16
ENDBRANCH  14  15
BRANCH  14  19
ATOM     19  C   UNL     1      -7.566  -3.548  -5.490  1.00  0.00     0.245 C 
ATOM     20  O   UNL     1      -6.728  -4.445  -5.682  1.00  0.00    -0.272 OA
BRANCH  19  21
ATOM     21  N   UNL     1      -8.525  -3.722  -4.508  1.00  0.00    -0.332 N 
ATOM     22  C   UNL     1      -9.838  -4.309  -4.707  1.00  0.00     0.147 C 
BRANCH  21  23
ATOM     23  C   UNL     1      -8.201  -3.262  -3.129  1.00  0.00     0.178 C 
BRANCH  23  24
ATOM     24  C   UNL     1      -9.210  -2.262  -2.528  1.00  0.00     0.070 C 
BRANCH  24  25
ATOM     25  C   UNL     1      -9.072  -0.815  -2.940  1.00  0.00    -0.045 A 
ATOM     26  C   UNL     1      -9.738  -0.324  -4.070  1.00  0.00     0.004 A 
ATOM     27  C   UNL     1      -8.267   0.060  -2.195  1.00  0.00     0.004 A 
ATOM     28  C   UNL     1      -9.592   1.011  -4.454  1.00  0.00     0.000 A 
ATOM     29  C   UNL     1      -8.123   1.394  -2.579  1.00  0.00     0.000 A 
ATOM     30  C   UNL     1      -8.784   1.868  -3.710  1.00  0.00     0.000 A 
ENDBRANCH  24  25
ENDBRANCH  23  24
BRANCH  23  31
ATOM     31  C   UNL     1      -7.792  -4.420  -2.188  1.00  0.00     0.243 C 
ATOM     32  O   UNL     1      -6.739  -5.046  -2.285  1.00  0.00    -0.273 OA
ATOM     33  N   UNL     1      -8.803  -4.819  -1.330  1.00  0.00    -0.341 N 
ATOM     34  H   UNL     1      -9.660  -4.261  -1.297  1.00  0.00     0.164 HD
BRANCH  33  35
ATOM     35  C   UNL     1      -8.681  -5.972  -0.433  1.00  0.00     0.194 C 
BRANCH  35  36
ATOM     36  C   UNL     1      -9.628  -7.154  -0.787  1.00  0.00     0.017 C 
ATOM     37  C   UNL     1      -8.830  -8.417  -1.156  1.00  0.00     0.010 C 
ATOM     38  C   UNL     1     -10.567  -6.846  -1.959  1.00  0.00     0.010 C 
ENDBRANCH  35  36
BRANCH  35  39
ATOM     39  C   UNL     1      -8.783  -5.576   1.066  1.00  0.00     0.329 C 
ATOM     40  O   UNL     1      -8.151  -4.660   1.578  1.00  0.00    -0.250 OA
BRANCH  39  41
ATOM     41  O   UNL     1      -9.724  -6.309   1.735  1.00  0.00    -0.458 OA
BRANCH  41  42
ATOM     42  C   UNL     1      -9.314  -6.873   3.004  1.00  0.00     0.205 CG0
ATOM     43  C   UNL     1      -8.409  -8.066   2.699  1.00  0.00     0.056 C 
ATOM     44  G   UNL     1     -10.576  -7.277   3.793  1.00  0.00     0.000 G0
ENDBRANCH  41  42
ENDBRANCH  39  41
ENDBRANCH  35  39
ENDBRANCH  33  35
ENDBRANCH  23  31
ENDBRANCH  21  23
ENDBRANCH  19  21
ENDBRANCH  14  19
ENDBRANCH   7  14
ENDBRANCH   2   5
BRANCH   3  45
ATOM     45  C   UNL     1      -3.411   3.201  -7.750  1.00  0.00     0.171 C 
BRANCH  45  46
ATOM     46  N   UNL     1      -2.458   3.178  -8.852  1.00  0.00    -0.342 N 
ATOM     47  C   UNL     1      -2.802   2.764 -10.115  1.00  0.00     0.247 C 
ATOM     48  O   UNL     1      -3.952   2.453 -10.426  1.00  0.00    -0.273 OA
ATOM     49  H   UNL     1      -1.507   3.482  -8.652  1.00  0.00     0.164 HD
BRANCH  47  50
ATOM     50  C   UNL     1      -1.639   2.690 -11.114  1.00  0.00     0.212 CG0
ATOM     51  G   UNL     1      -1.610   4.017 -11.898  1.00  0.00     0.000 G0
BRANCH  50  52
ATOM     52  N   UNL     1      -0.443   2.472 -10.304  1.00  0.00    -0.339 N 
ATOM     53  C   UNL     1       0.672   3.272 -10.372  1.00  0.00     0.243 C 
ATOM     54  O   UNL     1       0.769   4.206 -11.163  1.00  0.00    -0.273 OA
ATOM     55  H   UNL     1      -0.419   1.647  -9.708  1.00  0.00     0.164 HD
BRANCH  53  56
ATOM     56  C   UNL     1       1.841   2.796  -9.487  1.00  0.00     0.182 C 
BRANCH  56  57
ATOM     57  N   UNL     1       3.054   2.587 -10.284  1.00  0.00    -0.344 N 
ATOM     58  C   UNL     1       4.143   3.420 -10.200  1.00  0.00     0.220 C 
ATOM     59  O   UNL     1       4.150   4.435  -9.512  1.00  0.00    -0.275 OA
ATOM     60  H   UNL     1       3.128   1.707 -10.788  1.00  0.00     0.164 HD
BRANCH  58  61
ATOM     61  C   UNL     1       5.306   2.980 -11.070  1.00  0.00     0.100 C 
BRANCH  61  62
ATOM     62  C   UNL     1       5.305   3.608 -12.464  1.00  0.00     0.010 C 
BRANCH  62  63
ATOM     63  C   UNL     1       4.346   2.935 -13.455  1.00  0.00     0.000 C 
BRANCH  63  64
ATOM     64  C   UNL     1       3.251   3.856 -13.991  1.00  0.00    -0.003 C 
ATOM     65  C   UNL     1       3.636   5.321 -13.843  1.00  0.00     0.004 C 
ENDBRANCH  63  64
ENDBRANCH  62  63
ENDBRANCH  61  62
ENDBRANCH  58  61
ENDBRANCH  56  57
BRANCH  56  66
ATOM     66  C   UNL     1       1.462   1.557  -8.678  1.00  0.00     0.157 C 
BRANCH  66  67
ATOM     67  C   UNL     1       2.447   0.444  -8.894  1.00  0.00     0.305 C 
ATOM     68  O   UNL     1       2.381  -0.441  -9.734  1.00  0.00    -0.252 OA
BRANCH  67  69
ATOM     69  O   UNL     1       3.506   0.530  -8.066  1.00  0.00    -0.481 OA
ATOM     70  H   UNL     1       3.692  -0.395  -7.800  1.00  0.00     0.296 HD
ENDBRANCH  67  69
ENDBRANCH  66  67
ENDBRANCH  56  66
ENDBRANCH  53  56
ENDBRANCH  50  52
ENDBRANCH  47  50
ENDBRANCH  45  46
BRANCH  45  71
ATOM     71  C   UNL     1      -3.097   4.323  -6.754  1.00  0.00     0.037 C 
BRANCH  71  72
ATOM     72  C   UNL     1      -4.128   5.452  -6.816  1.00  0.00     0.026 C 
BRANCH  72  73
ATOM     73  C   UNL     1      -4.662   5.799  -5.428  1.00  0.00     0.146 C 
BRANCH  73  74
ATOM     74  N   UNL     1      -3.524   5.876  -4.517  1.00  0.00    -0.254 NA
ATOM     75  C   UNL     1      -3.750   6.223  -3.304  1.00  0.00     0.185 C 
ATOM     76  N   UNL     1      -2.724   6.301  -2.441  1.00  0.00    -0.370 N 
ATOM     77  N   UNL     1      -4.919   6.541  -2.719  1.00  0.00    -0.370 N 
ATOM     78  H   UNL     1      -1.806   6.085  -2.803  1.00  0.00     0.159 HD
ATOM     79  H   UNL     1      -2.801   6.703  -1.524  1.00  0.00     0.159 HD
ATOM     80  H   UNL     1      -5.779   6.522  -3.247  1.00  0.00     0.159 HD
ATOM     81  H   UNL     1      -4.990   6.687  -1.726  1.00  0.00     0.159 HD
ENDBRANCH  73  74
ENDBRANCH  72  73
ENDBRANCH  71  72
ENDBRANCH  45  71
ENDBRANCH   3  45
TORSDOF 20
ENDMDL
MODEL 42
REMARK VINA RESULT:    -5.449      4.859      7.828
REMARK INTER + INTRA:         -22.466
REMARK INTER:                 -16.447
REMARK INTRA:                  -6.018
REMARK UNBOUND:                -6.822
REMARK SMILES CCCCCC(=O)N[C@H](CC(=O)O)C(=O)N[C@H]1C(=O)N[C@H](CCCN=C(N)N)C(=O)N[C@@H]2CC[C@H](O)N(C2=O)[C@@H](CC(C)C)C(=O)N(C)[C@@H](Cc2ccccc2)C(=O)N[C@H](C(C)C)C(=O)O[C@@H]1C
REMARK SMILES IDX 30 1 31 2 29 3 32 5 35 6 37 7 34 8 38 9 33 10 39 11 36 12
REMARK SMILES IDX 40 14 41 15 42 16 43 17 44 18 45 19 46 20 47 21 48 22 49 23
REMARK SMILES IDX 50 24 51 25 52 26 56 27 53 28 55 29 54 30 57 31 58 32 59 33
REMARK SMILES IDX 60 35 61 36 62 37 63 38 64 39 65 40 66 41 67 42 68 43 21 45
REMARK SMILES IDX 20 46 18 47 19 48 17 50 16 52 14 53 15 54 9 56 8 57 6 58
REMARK SMILES IDX 7 59 5 61 4 62 3 63 2 64 1 65 10 66 11 67 12 68 13 69 22 71
REMARK SMILES IDX 23 72 24 73 25 74 26 75 27 76 28 77
REMARK H PARENT 31 4 36 13 59 34 20 49 16 55 8 60 13 70 27 78 27 79 28 80
REMARK H PARENT 28 81
REMARK Flexibility Score:  259.900
ROOT
ATOM      1  O   UNL     1      -8.543  -0.796  -6.207  1.00  0.00    -0.273 OA
ATOM      2  N   UNL     1      -9.066  -1.914  -4.281  1.00  0.00    -0.343 N 
ATOM      3  C   UNL     1      -8.844  -1.847  -5.640  1.00  0.00     0.243 C 
ATOM      4  H   UNL     1      -9.297  -2.799  -3.847  1.00  0.00     0.164 HD
ENDROOT
BRANCH   2   5
ATOM      5  C   UNL     1      -9.069  -0.702  -3.469  1.00  0.00     0.171 C 
ATOM      6  C   UNL     1      -8.580  -0.225  -0.652  1.00  0.00     0.214 C 
ATOM      7  N   UNL     1      -9.926  -0.483  -1.105  1.00  0.00    -0.303 N 
ATOM      8  C   UNL     1      -7.713   0.459  -1.698  1.00  0.00     0.057 C 
ATOM      9  C   UNL     1     -10.223  -0.769  -2.427  1.00  0.00     0.247 C 
ATOM     10  C   UNL     1      -7.667  -0.383  -2.954  1.00  0.00     0.040 C 
ATOM     11  O   UNL     1     -11.366  -1.074  -2.792  1.00  0.00    -0.272 OA
BRANCH   6  12
ATOM     12  O   UNL     1      -8.011  -1.456  -0.270  1.00  0.00    -0.373 OA
ATOM     13  H   UNL     1      -7.550  -1.307   0.584  1.00  0.00     0.213 HD
ENDBRANCH   6  12
BRANCH   7  14
ATOM     14  C   UNL     1     -10.976  -0.577  -0.068  1.00  0.00     0.177 C 
BRANCH  14  15
ATOM     15  C   UNL     1     -11.383  -2.011   0.325  1.00  0.00     0.038 C 
BRANCH  15  16
ATOM     16  C   UNL     1     -12.867  -2.431   0.239  1.00  0.00    -0.015 C 
ATOM     17  C   UNL     1     -13.754  -1.648   1.212  1.00  0.00     0.007 C 
ATOM     18  C   UNL     1     -13.002  -3.925   0.561  1.00  0.00     0.007 C 
ENDBRANCH  15  16
ENDBRANCH  14  15
BRANCH  14  19
ATOM     19  C   UNL     1     -10.880   0.640   0.915  1.00  0.00     0.245 C 
ATOM     20  O   UNL     1     -11.080   1.767   0.431  1.00  0.00    -0.272 OA
BRANCH  19  21
ATOM     21  N   UNL     1     -10.482   0.535   2.236  1.00  0.00    -0.332 N 
ATOM     22  C   UNL     1      -9.139   0.777   2.733  1.00  0.00     0.147 C 
BRANCH  21  23
ATOM     23  C   UNL     1     -11.504   0.131   3.241  1.00  0.00     0.178 C 
BRANCH  23  24
ATOM     24  C   UNL     1     -10.989  -0.822   4.338  1.00  0.00     0.070 C 
BRANCH  24  25
ATOM     25  C   UNL     1     -11.076  -2.305   4.058  1.00  0.00    -0.045 A 
ATOM     26  C   UNL     1     -10.037  -2.972   3.396  1.00  0.00     0.004 A 
ATOM     27  C   UNL     1     -12.207  -3.034   4.454  1.00  0.00     0.004 A 
ATOM     28  C   UNL     1     -10.133  -4.339   3.126  1.00  0.00     0.000 A 
ATOM     29  C   UNL     1     -12.301  -4.401   4.184  1.00  0.00     0.000 A 
ATOM     30  C   UNL     1     -11.265  -5.051   3.517  1.00  0.00     0.000 A 
ENDBRANCH  24  25
ENDBRANCH  23  24
BRANCH  23  31
ATOM     31  C   UNL     1     -12.347   1.322   3.756  1.00  0.00     0.243 C 
ATOM     32  O   UNL     1     -13.353   1.747   3.192  1.00  0.00    -0.273 OA
ATOM     33  N   UNL     1     -11.765   1.994   4.817  1.00  0.00    -0.341 N 
ATOM     34  H   UNL     1     -10.924   1.595   5.242  1.00  0.00     0.164 HD
BRANCH  33  35
ATOM     35  C   UNL     1     -12.326   3.221   5.390  1.00  0.00     0.194 C 
BRANCH  35  36
ATOM     36  C   UNL     1     -11.266   4.309   5.721  1.00  0.00     0.017 C 
ATOM     37  C   UNL     1     -11.928   5.589   6.260  1.00  0.00     0.010 C 
ATOM     38  C   UNL     1     -10.411   4.708   4.512  1.00  0.00     0.010 C 
ENDBRANCH  35  36
BRANCH  35  39
ATOM     39  C   UNL     1     -13.267   2.942   6.595  1.00  0.00     0.329 C 
ATOM     40  O   UNL     1     -12.890   2.495   7.671  1.00  0.00    -0.250 OA
BRANCH  39  41
ATOM     41  O   UNL     1     -14.554   3.335   6.350  1.00  0.00    -0.458 OA
BRANCH  41  42
ATOM     42  C   UNL     1     -15.325   3.760   7.500  1.00  0.00     0.205 CG0
ATOM     43  C   UNL     1     -15.686   5.228   7.286  1.00  0.00     0.056 C 
ATOM     44  G   UNL     1     -14.477   3.540   8.768  1.00  0.00     0.000 G0
ENDBRANCH  41  42
ENDBRANCH  39  41
ENDBRANCH  35  39
ENDBRANCH  33  35
ENDBRANCH  23  31
ENDBRANCH  21  23
ENDBRANCH  19  21
ENDBRANCH  14  19
ENDBRANCH   7  14
ENDBRANCH   2   5
BRANCH   3  45
ATOM     45  C   UNL     1      -8.976  -3.177  -6.394  1.00  0.00     0.171 C 
BRANCH  45  46
ATOM     46  N   UNL     1      -7.651  -3.460  -6.929  1.00  0.00    -0.342 N 
ATOM     47  C   UNL     1      -7.055  -4.690  -6.809  1.00  0.00     0.247 C 
ATOM     48  O   UNL     1      -7.623  -5.661  -6.307  1.00  0.00    -0.273 OA
ATOM     49  H   UNL     1      -7.169  -2.699  -7.403  1.00  0.00     0.164 HD
BRANCH  47  50
ATOM     50  C   UNL     1      -5.611  -4.766  -7.323  1.00  0.00     0.212 CG0
ATOM     51  G   UNL     1      -5.654  -5.333  -8.756  1.00  0.00     0.000 G0
BRANCH  50  52
ATOM     52  N   UNL     1      -5.102  -3.398  -7.258  1.00  0.00    -0.339 N 
ATOM     53  C   UNL     1      -3.781  -3.073  -7.450  1.00  0.00     0.243 C 
ATOM     54  O   UNL     1      -2.912  -3.920  -7.640  1.00  0.00    -0.273 OA
ATOM     55  H   UNL     1      -5.755  -2.663  -6.994  1.00  0.00     0.164 HD
BRANCH  53  56
ATOM     56  C   UNL     1      -3.467  -1.577  -7.248  1.00  0.00     0.182 C 
BRANCH  56  57
ATOM     57  N   UNL     1      -3.464  -0.862  -8.528  1.00  0.00    -0.344 N 
ATOM     58  C   UNL     1      -4.504  -0.057  -8.924  1.00  0.00     0.220 C 
ATOM     59  O   UNL     1      -5.536   0.062  -8.272  1.00  0.00    -0.275 OA
ATOM     60  H   UNL     1      -2.591  -0.852  -9.048  1.00  0.00     0.164 HD
BRANCH  58  61
ATOM     61  C   UNL     1      -4.261   0.629 -10.255  1.00  0.00     0.100 C 
BRANCH  61  62
ATOM     62  C   UNL     1      -5.484   1.365 -10.802  1.00  0.00     0.010 C 
BRANCH  62  63
ATOM     63  C   UNL     1      -6.212   0.623 -11.930  1.00  0.00     0.000 C 
BRANCH  63  64
ATOM     64  C   UNL     1      -7.413   1.373 -12.502  1.00  0.00    -0.003 C 
ATOM     65  C   UNL     1      -7.394   2.841 -12.099  1.00  0.00     0.004 C 
ENDBRANCH  63  64
ENDBRANCH  62  63
ENDBRANCH  61  62
ENDBRANCH  58  61
ENDBRANCH  56  57
BRANCH  56  66
ATOM     66  C   UNL     1      -2.166  -1.378  -6.473  1.00  0.00     0.157 C 
BRANCH  66  67
ATOM     67  C   UNL     1      -2.177  -0.081  -5.716  1.00  0.00     0.305 C 
ATOM     68  O   UNL     1      -2.529   1.010  -6.136  1.00  0.00    -0.252 OA
BRANCH  67  69
ATOM     69  O   UNL     1      -1.788  -0.233  -4.435  1.00  0.00    -0.481 OA
ATOM     70  H   UNL     1      -2.595  -0.060  -3.906  1.00  0.00     0.296 HD
ENDBRANCH  67  69
ENDBRANCH  66  67
ENDBRANCH  56  66
ENDBRANCH  53  56
ENDBRANCH  50  52
ENDBRANCH  47  50
ENDBRANCH  45  46
BRANCH  45  71
ATOM     71  C   UNL     1     -10.023  -3.058  -7.507  1.00  0.00     0.037 C 
BRANCH  71  72
ATOM     72  C   UNL     1      -9.455  -2.390  -8.762  1.00  0.00     0.026 C 
BRANCH  72  73
ATOM     73  C   UNL     1      -9.660  -3.259 -10.001  1.00  0.00     0.146 C 
BRANCH  73  74
ATOM     74  N   UNL     1      -9.075  -4.568  -9.730  1.00  0.00    -0.254 NA
ATOM     75  C   UNL     1      -8.051  -4.920 -10.417  1.00  0.00     0.185 C 
ATOM     76  N   UNL     1      -7.490  -6.119 -10.190  1.00  0.00    -0.370 N 
ATOM     77  N   UNL     1      -7.410  -4.244 -11.386  1.00  0.00    -0.370 N 
ATOM     78  H   UNL     1      -7.916  -6.697  -9.480  1.00  0.00     0.159 HD
ATOM     79  H   UNL     1      -6.783  -6.520 -10.781  1.00  0.00     0.159 HD
ATOM     80  H   UNL     1      -7.719  -3.324 -11.660  1.00  0.00     0.159 HD
ATOM     81  H   UNL     1      -6.543  -4.575 -11.776  1.00  0.00     0.159 HD
ENDBRANCH  73  74
ENDBRANCH  72  73
ENDBRANCH  71  72
ENDBRANCH  45  71
ENDBRANCH   3  45
TORSDOF 20
ENDMDL
MODEL 43
REMARK VINA RESULT:    -5.448      5.758      7.810
REMARK INTER + INTRA:         -22.461
REMARK INTER:                 -17.364
REMARK INTRA:                  -5.097
REMARK UNBOUND:                -6.822
REMARK SMILES CCCCCC(=O)N[C@H](CC(=O)O)C(=O)N[C@H]1C(=O)N[C@H](CCCN=C(N)N)C(=O)N[C@@H]2CC[C@H](O)N(C2=O)[C@@H](CC(C)C)C(=O)N(C)[C@@H](Cc2ccccc2)C(=O)N[C@H](C(C)C)C(=O)O[C@@H]1C
REMARK SMILES IDX 30 1 31 2 29 3 32 5 35 6 37 7 34 8 38 9 33 10 39 11 36 12
REMARK SMILES IDX 40 14 41 15 42 16 43 17 44 18 45 19 46 20 47 21 48 22 49 23
REMARK SMILES IDX 50 24 51 25 52 26 56 27 53 28 55 29 54 30 57 31 58 32 59 33
REMARK SMILES IDX 60 35 61 36 62 37 63 38 64 39 65 40 66 41 67 42 68 43 21 45
REMARK SMILES IDX 20 46 18 47 19 48 17 50 16 52 14 53 15 54 9 56 8 57 6 58
REMARK SMILES IDX 7 59 5 61 4 62 3 63 2 64 1 65 10 66 11 67 12 68 13 69 22 71
REMARK SMILES IDX 23 72 24 73 25 74 26 75 27 76 28 77
REMARK H PARENT 31 4 36 13 59 34 20 49 16 55 8 60 13 70 27 78 27 79 28 80
REMARK H PARENT 28 81
REMARK Flexibility Score:  259.900
ROOT
ATOM      1  O   UNL     1      -5.842  -0.902  -5.575  1.00  0.00    -0.273 OA
ATOM      2  N   UNL     1      -7.798   0.279  -5.674  1.00  0.00    -0.343 N 
ATOM      3  C   UNL     1      -6.541  -0.055  -6.131  1.00  0.00     0.243 C 
ATOM      4  H   UNL     1      -8.351   0.970  -6.165  1.00  0.00     0.164 HD
ENDROOT
BRANCH   2   5
ATOM      5  C   UNL     1      -8.307  -0.281  -4.426  1.00  0.00     0.171 C 
ATOM      6  C   UNL     1     -10.751   0.155  -2.930  1.00  0.00     0.214 C 
ATOM      7  N   UNL     1      -9.586   0.957  -2.637  1.00  0.00    -0.303 N 
ATOM      8  C   UNL     1     -10.411  -1.238  -3.436  1.00  0.00     0.057 C 
ATOM      9  C   UNL     1      -8.403   0.836  -3.348  1.00  0.00     0.247 C 
ATOM     10  C   UNL     1      -9.548  -1.136  -4.675  1.00  0.00     0.040 C 
ATOM     11  O   UNL     1      -7.438   1.585  -3.148  1.00  0.00    -0.272 OA
BRANCH   6  12
ATOM     12  O   UNL     1     -11.524   0.850  -3.882  1.00  0.00    -0.373 OA
ATOM     13  H   UNL     1     -12.140   0.199  -4.282  1.00  0.00     0.213 HD
ENDBRANCH   6  12
BRANCH   7  14
ATOM     14  C   UNL     1      -9.747   2.031  -1.634  1.00  0.00     0.177 C 
BRANCH  14  15
ATOM     15  C   UNL     1     -10.945   2.972  -1.866  1.00  0.00     0.038 C 
BRANCH  15  16
ATOM     16  C   UNL     1     -12.008   3.139  -0.757  1.00  0.00    -0.015 C 
ATOM     17  C   UNL     1     -13.415   3.347  -1.323  1.00  0.00     0.007 C 
ATOM     18  C   UNL     1     -11.658   4.349   0.118  1.00  0.00     0.007 C 
ENDBRANCH  15  16
ENDBRANCH  14  15
BRANCH  14  19
ATOM     19  C   UNL     1      -9.229   1.550  -0.235  1.00  0.00     0.245 C 
ATOM     20  O   UNL     1      -8.167   2.050   0.171  1.00  0.00    -0.272 OA
BRANCH  19  21
ATOM     21  N   UNL     1      -9.822   0.539   0.501  1.00  0.00    -0.332 N 
ATOM     22  C   UNL     1      -9.480  -0.870   0.425  1.00  0.00     0.147 C 
BRANCH  21  23
ATOM     23  C   UNL     1     -10.911   0.912   1.445  1.00  0.00     0.178 C 
BRANCH  23  24
ATOM     24  C   UNL     1     -12.000  -0.165   1.633  1.00  0.00     0.070 C 
BRANCH  24  25
ATOM     25  C   UNL     1     -13.326   0.070   0.947  1.00  0.00    -0.045 A 
ATOM     26  C   UNL     1     -14.387   0.680   1.628  1.00  0.00     0.004 A 
ATOM     27  C   UNL     1     -13.514  -0.327  -0.385  1.00  0.00     0.004 A 
ATOM     28  C   UNL     1     -15.615   0.878   0.993  1.00  0.00     0.000 A 
ATOM     29  C   UNL     1     -14.741  -0.127  -1.019  1.00  0.00     0.000 A 
ATOM     30  C   UNL     1     -15.792   0.473  -0.328  1.00  0.00     0.000 A 
ENDBRANCH  24  25
ENDBRANCH  23  24
BRANCH  23  31
ATOM     31  C   UNL     1     -10.384   1.541   2.756  1.00  0.00     0.243 C 
ATOM     32  O   UNL     1      -9.246   1.377   3.188  1.00  0.00    -0.273 OA
ATOM     33  N   UNL     1     -11.369   2.162   3.506  1.00  0.00    -0.341 N 
ATOM     34  H   UNL     1     -12.300   2.264   3.095  1.00  0.00     0.164 HD
BRANCH  33  35
ATOM     35  C   UNL     1     -11.124   2.723   4.838  1.00  0.00     0.194 C 
BRANCH  35  36
ATOM     36  C   UNL     1     -11.063   1.662   5.973  1.00  0.00     0.017 C 
ATOM     37  C   UNL     1     -12.197   0.632   5.836  1.00  0.00     0.010 C 
ATOM     38  C   UNL     1     -11.163   2.272   7.376  1.00  0.00     0.010 C 
ENDBRANCH  35  36
BRANCH  35  39
ATOM     39  C   UNL     1     -12.094   3.888   5.184  1.00  0.00     0.329 C 
ATOM     40  O   UNL     1     -13.314   3.777   5.217  1.00  0.00    -0.250 OA
BRANCH  39  41
ATOM     41  O   UNL     1     -11.430   5.031   5.532  1.00  0.00    -0.458 OA
BRANCH  41  42
ATOM     42  C   UNL     1     -12.046   5.841   6.562  1.00  0.00     0.205 CG0
ATOM     43  C   UNL     1     -12.663   7.058   5.875  1.00  0.00     0.056 C 
ATOM     44  G   UNL     1     -10.968   6.230   7.593  1.00  0.00     0.000 G0
ENDBRANCH  41  42
ENDBRANCH  39  41
ENDBRANCH  35  39
ENDBRANCH  33  35
ENDBRANCH  23  31
ENDBRANCH  21  23
ENDBRANCH  19  21
ENDBRANCH  14  19
ENDBRANCH   7  14
ENDBRANCH   2   5
BRANCH   3  45
ATOM     45  C   UNL     1      -6.084   0.687  -7.394  1.00  0.00     0.171 C 
BRANCH  45  46
ATOM     46  N   UNL     1      -6.161  -0.289  -8.474  1.00  0.00    -0.342 N 
ATOM     47  C   UNL     1      -6.862  -0.055  -9.630  1.00  0.00     0.247 C 
ATOM     48  O   UNL     1      -7.414   1.019  -9.870  1.00  0.00    -0.273 OA
ATOM     49  H   UNL     1      -5.670  -1.172  -8.339  1.00  0.00     0.164 HD
BRANCH  47  50
ATOM     50  C   UNL     1      -6.934  -1.244 -10.598  1.00  0.00     0.212 CG0
ATOM     51  G   UNL     1      -5.572  -1.349 -11.312  1.00  0.00     0.000 G0
BRANCH  50  52
ATOM     52  N   UNL     1      -7.242  -2.405  -9.768  1.00  0.00    -0.339 N 
ATOM     53  C   UNL     1      -6.904  -3.691 -10.112  1.00  0.00     0.243 C 
ATOM     54  O   UNL     1      -6.361  -3.970 -11.177  1.00  0.00    -0.273 OA
ATOM     55  H   UNL     1      -7.790  -2.251  -8.924  1.00  0.00     0.164 HD
BRANCH  53  56
ATOM     56  C   UNL     1      -7.410  -4.759  -9.121  1.00  0.00     0.182 C 
BRANCH  56  57
ATOM     57  N   UNL     1      -6.802  -6.064  -9.398  1.00  0.00    -0.344 N 
ATOM     58  C   UNL     1      -6.699  -7.046  -8.443  1.00  0.00     0.220 C 
ATOM     59  O   UNL     1      -7.039  -6.876  -7.277  1.00  0.00    -0.275 OA
ATOM     60  H   UNL     1      -6.601  -6.282 -10.371  1.00  0.00     0.164 HD
BRANCH  58  61
ATOM     61  C   UNL     1      -6.090  -8.334  -8.967  1.00  0.00     0.100 C 
BRANCH  61  62
ATOM     62  C   UNL     1      -4.977  -8.894  -8.081  1.00  0.00     0.010 C 
BRANCH  62  63
ATOM     63  C   UNL     1      -3.560  -8.556  -8.562  1.00  0.00     0.000 C 
BRANCH  63  64
ATOM     64  C   UNL     1      -3.050  -7.192  -8.099  1.00  0.00    -0.003 C 
ATOM     65  C   UNL     1      -2.135  -6.559  -9.137  1.00  0.00     0.004 C 
ENDBRANCH  63  64
ENDBRANCH  62  63
ENDBRANCH  61  62
ENDBRANCH  58  61
ENDBRANCH  56  57
BRANCH  56  66
ATOM     66  C   UNL     1      -8.936  -4.827  -9.100  1.00  0.00     0.157 C 
BRANCH  66  67
ATOM     67  C   UNL     1      -9.450  -5.822 -10.101  1.00  0.00     0.305 C 
ATOM     68  O   UNL     1      -9.335  -5.766 -11.316  1.00  0.00    -0.252 OA
BRANCH  67  69
ATOM     69  O   UNL     1     -10.044  -6.878  -9.513  1.00  0.00    -0.481 OA
ATOM     70  H   UNL     1      -9.712  -6.870  -8.590  1.00  0.00     0.296 HD
ENDBRANCH  67  69
ENDBRANCH  66  67
ENDBRANCH  56  66
ENDBRANCH  53  56
ENDBRANCH  50  52
ENDBRANCH  47  50
ENDBRANCH  45  46
BRANCH  45  71
ATOM     71  C   UNL     1      -4.658   1.219  -7.214  1.00  0.00     0.037 C 
BRANCH  71  72
ATOM     72  C   UNL     1      -3.623   0.348  -7.931  1.00  0.00     0.026 C 
BRANCH  72  73
ATOM     73  C   UNL     1      -2.416   1.168  -8.380  1.00  0.00     0.146 C 
BRANCH  73  74
ATOM     74  N   UNL     1      -2.592   2.531  -7.888  1.00  0.00    -0.254 NA
ATOM     75  C   UNL     1      -1.633   3.055  -7.218  1.00  0.00     0.185 C 
ATOM     76  N   UNL     1      -1.766   4.307  -6.752  1.00  0.00    -0.370 N 
ATOM     77  N   UNL     1      -0.444   2.522  -6.886  1.00  0.00    -0.370 N 
ATOM     78  H   UNL     1      -2.636   4.780  -6.952  1.00  0.00     0.159 HD
ATOM     79  H   UNL     1      -1.124   4.728  -6.103  1.00  0.00     0.159 HD
ATOM     80  H   UNL     1      -0.204   1.585  -7.172  1.00  0.00     0.159 HD
ATOM     81  H   UNL     1       0.279   3.072  -6.454  1.00  0.00     0.159 HD
ENDBRANCH  73  74
ENDBRANCH  72  73
ENDBRANCH  71  72
ENDBRANCH  45  71
ENDBRANCH   3  45
TORSDOF 20
ENDMDL
MODEL 44
REMARK VINA RESULT:    -5.373      5.957     14.971
REMARK INTER + INTRA:         -22.248
REMARK INTER:                 -14.664
REMARK INTRA:                  -7.583
REMARK UNBOUND:                -6.822
REMARK SMILES CCCCCC(=O)N[C@H](CC(=O)O)C(=O)N[C@H]1C(=O)N[C@H](CCCN=C(N)N)C(=O)N[C@@H]2CC[C@H](O)N(C2=O)[C@@H](CC(C)C)C(=O)N(C)[C@@H](Cc2ccccc2)C(=O)N[C@H](C(C)C)C(=O)O[C@@H]1C
REMARK SMILES IDX 30 1 31 2 29 3 32 5 35 6 37 7 34 8 38 9 33 10 39 11 36 12
REMARK SMILES IDX 40 14 41 15 42 16 43 17 44 18 45 19 46 20 47 21 48 22 49 23
REMARK SMILES IDX 50 24 51 25 52 26 56 27 53 28 55 29 54 30 57 31 58 32 59 33
REMARK SMILES IDX 60 35 61 36 62 37 63 38 64 39 65 40 66 41 67 42 68 43 21 45
REMARK SMILES IDX 20 46 18 47 19 48 17 50 16 52 14 53 15 54 9 56 8 57 6 58
REMARK SMILES IDX 7 59 5 61 4 62 3 63 2 64 1 65 10 66 11 67 12 68 13 69 22 71
REMARK SMILES IDX 23 72 24 73 25 74 26 75 27 76 28 77
REMARK H PARENT 31 4 36 13 59 34 20 49 16 55 8 60 13 70 27 78 27 79 28 80
REMARK H PARENT 28 81
REMARK Flexibility Score:  259.900
ROOT
ATOM      1  O   UNL     1     -10.392  -3.586  -4.196  1.00  0.00    -0.273 OA
ATOM      2  N   UNL     1      -8.542  -3.950  -5.491  1.00  0.00    -0.343 N 
ATOM      3  C   UNL     1      -9.346  -4.204  -4.401  1.00  0.00     0.243 C 
ATOM      4  H   UNL     1      -7.696  -4.488  -5.635  1.00  0.00     0.164 HD
ENDROOT
BRANCH   2   5
ATOM      5  C   UNL     1      -8.842  -2.844  -6.393  1.00  0.00     0.171 C 
ATOM      6  C   UNL     1      -7.973  -2.216  -9.087  1.00  0.00     0.214 C 
ATOM      7  N   UNL     1      -7.224  -1.706  -7.962  1.00  0.00    -0.303 N 
ATOM      8  C   UNL     1      -9.454  -2.398  -8.791  1.00  0.00     0.057 C 
ATOM      9  C   UNL     1      -7.554  -2.010  -6.651  1.00  0.00     0.247 C 
ATOM     10  C   UNL     1      -9.630  -3.327  -7.610  1.00  0.00     0.040 C 
ATOM     11  O   UNL     1      -6.857  -1.641  -5.697  1.00  0.00    -0.272 OA
BRANCH   6  12
ATOM     12  O   UNL     1      -7.394  -3.441  -9.471  1.00  0.00    -0.373 OA
ATOM     13  H   UNL     1      -7.120  -3.348 -10.408  1.00  0.00     0.213 HD
ENDBRANCH   6  12
BRANCH   7  14
ATOM     14  C   UNL     1      -5.986  -0.957  -8.265  1.00  0.00     0.177 C 
BRANCH  14  15
ATOM     15  C   UNL     1      -4.749  -1.826  -8.562  1.00  0.00     0.038 C 
BRANCH  15  16
ATOM     16  C   UNL     1      -3.821  -2.250  -7.402  1.00  0.00    -0.015 C 
ATOM     17  C   UNL     1      -3.426  -1.070  -6.509  1.00  0.00     0.007 C 
ATOM     18  C   UNL     1      -2.539  -2.876  -7.966  1.00  0.00     0.007 C 
ENDBRANCH  15  16
ENDBRANCH  14  15
BRANCH  14  19
ATOM     19  C   UNL     1      -6.331   0.400  -8.970  1.00  0.00     0.245 C 
ATOM     20  O   UNL     1      -7.010   1.212  -8.318  1.00  0.00    -0.272 OA
BRANCH  19  21
ATOM     21  N   UNL     1      -6.023   0.685 -10.288  1.00  0.00    -0.332 N 
ATOM     22  C   UNL     1      -6.779   0.241 -11.445  1.00  0.00     0.147 C 
BRANCH  21  23
ATOM     23  C   UNL     1      -4.810   1.506 -10.557  1.00  0.00     0.178 C 
BRANCH  23  24
ATOM     24  C   UNL     1      -3.540   0.694 -10.881  1.00  0.00     0.070 C 
BRANCH  24  25
ATOM     25  C   UNL     1      -2.419   0.735  -9.868  1.00  0.00    -0.045 A 
ATOM     26  C   UNL     1      -2.451   1.639  -8.799  1.00  0.00     0.004 A 
ATOM     27  C   UNL     1      -1.324  -0.134  -9.988  1.00  0.00     0.004 A 
ATOM     28  C   UNL     1      -1.404   1.683  -7.876  1.00  0.00     0.000 A 
ATOM     29  C   UNL     1      -0.279  -0.091  -9.065  1.00  0.00     0.000 A 
ATOM     30  C   UNL     1      -0.318   0.820  -8.011  1.00  0.00     0.000 A 
ENDBRANCH  24  25
ENDBRANCH  23  24
BRANCH  23  31
ATOM     31  C   UNL     1      -5.084   2.694 -11.510  1.00  0.00     0.243 C 
ATOM     32  O   UNL     1      -5.941   3.551 -11.309  1.00  0.00    -0.273 OA
ATOM     33  N   UNL     1      -4.402   2.608 -12.712  1.00  0.00    -0.341 N 
ATOM     34  H   UNL     1      -3.705   1.868 -12.822  1.00  0.00     0.164 HD
BRANCH  33  35
ATOM     35  C   UNL     1      -4.598   3.557 -13.811  1.00  0.00     0.194 C 
BRANCH  35  36
ATOM     36  C   UNL     1      -4.980   2.892 -15.164  1.00  0.00     0.017 C 
ATOM     37  C   UNL     1      -6.287   3.477 -15.726  1.00  0.00     0.010 C 
ATOM     38  C   UNL     1      -5.164   1.373 -15.060  1.00  0.00     0.010 C 
ENDBRANCH  35  36
BRANCH  35  39
ATOM     39  C   UNL     1      -3.410   4.547 -13.965  1.00  0.00     0.329 C 
ATOM     40  O   UNL     1      -2.591   4.499 -14.876  1.00  0.00    -0.250 OA
BRANCH  39  41
ATOM     41  O   UNL     1      -3.428   5.533 -13.018  1.00  0.00    -0.458 OA
BRANCH  41  42
ATOM     42  C   UNL     1      -2.780   6.777 -13.376  1.00  0.00     0.205 CG0
ATOM     43  C   UNL     1      -2.306   7.431 -12.080  1.00  0.00     0.056 C 
ATOM     44  G   UNL     1      -3.790   7.654 -14.143  1.00  0.00     0.000 G0
ENDBRANCH  41  42
ENDBRANCH  39  41
ENDBRANCH  35  39
ENDBRANCH  33  35
ENDBRANCH  23  31
ENDBRANCH  21  23
ENDBRANCH  19  21
ENDBRANCH  14  19
ENDBRANCH   7  14
ENDBRANCH   2   5
BRANCH   3  45
ATOM     45  C   UNL     1      -8.860  -5.324  -3.471  1.00  0.00     0.171 C 
BRANCH  45  46
ATOM     46  N   UNL     1      -9.321  -4.958  -2.139  1.00  0.00    -0.342 N 
ATOM     47  C   UNL     1      -9.990  -5.837  -1.325  1.00  0.00     0.247 C 
ATOM     48  O   UNL     1     -10.185  -7.014  -1.629  1.00  0.00    -0.273 OA
ATOM     49  H   UNL     1      -9.131  -4.008  -1.824  1.00  0.00     0.164 HD
BRANCH  47  50
ATOM     50  C   UNL     1     -10.508  -5.239  -0.009  1.00  0.00     0.212 CG0
ATOM     51  G   UNL     1      -9.567  -5.705   1.119  1.00  0.00     0.000 G0
BRANCH  50  52
ATOM     52  N   UNL     1     -10.498  -3.792  -0.208  1.00  0.00    -0.339 N 
ATOM     53  C   UNL     1     -10.031  -2.903   0.730  1.00  0.00     0.243 C 
ATOM     54  O   UNL     1      -9.632  -3.257   1.836  1.00  0.00    -0.273 OA
ATOM     55  H   UNL     1     -10.918  -3.429  -1.061  1.00  0.00     0.164 HD
BRANCH  53  56
ATOM     56  C   UNL     1     -10.200  -1.423   0.331  1.00  0.00     0.182 C 
BRANCH  56  57
ATOM     57  N   UNL     1      -8.905  -0.808   0.028  1.00  0.00    -0.344 N 
ATOM     58  C   UNL     1      -8.218  -1.073  -1.132  1.00  0.00     0.220 C 
ATOM     59  O   UNL     1      -8.602  -1.894  -1.958  1.00  0.00    -0.275 OA
ATOM     60  H   UNL     1      -8.602  -0.050   0.633  1.00  0.00     0.164 HD
BRANCH  58  61
ATOM     61  C   UNL     1      -6.930  -0.280  -1.262  1.00  0.00     0.100 C 
BRANCH  61  62
ATOM     62  C   UNL     1      -6.927   1.026  -0.468  1.00  0.00     0.010 C 
BRANCH  62  63
ATOM     63  C   UNL     1      -7.414   2.244  -1.263  1.00  0.00     0.000 C 
BRANCH  63  64
ATOM     64  C   UNL     1      -8.654   2.919  -0.679  1.00  0.00    -0.003 C 
ATOM     65  C   UNL     1      -9.929   2.379  -1.309  1.00  0.00     0.004 C 
ENDBRANCH  63  64
ENDBRANCH  62  63
ENDBRANCH  61  62
ENDBRANCH  58  61
ENDBRANCH  56  57
BRANCH  56  66
ATOM     66  C   UNL     1     -10.975  -0.643   1.392  1.00  0.00     0.157 C 
BRANCH  66  67
ATOM     67  C   UNL     1     -10.061   0.237   2.195  1.00  0.00     0.305 C 
ATOM     68  O   UNL     1      -9.995   1.456   2.154  1.00  0.00    -0.252 OA
BRANCH  67  69
ATOM     69  O   UNL     1      -9.303  -0.465   3.059  1.00  0.00    -0.481 OA
ATOM     70  H   UNL     1      -8.497  -0.698   2.552  1.00  0.00     0.296 HD
ENDBRANCH  67  69
ENDBRANCH  66  67
ENDBRANCH  56  66
ENDBRANCH  53  56
ENDBRANCH  50  52
ENDBRANCH  47  50
ENDBRANCH  45  46
BRANCH  45  71
ATOM     71  C   UNL     1      -7.332  -5.439  -3.529  1.00  0.00     0.037 C 
BRANCH  71  72
ATOM     72  C   UNL     1      -6.868  -6.895  -3.625  1.00  0.00     0.026 C 
BRANCH  72  73
ATOM     73  C   UNL     1      -5.717  -7.051  -4.616  1.00  0.00     0.146 C 
BRANCH  73  74
ATOM     74  N   UNL     1      -6.290  -7.355  -5.923  1.00  0.00    -0.254 NA
ATOM     75  C   UNL     1      -6.176  -6.474  -6.847  1.00  0.00     0.185 C 
ATOM     76  N   UNL     1      -6.692  -6.725  -8.061  1.00  0.00    -0.370 N 
ATOM     77  N   UNL     1      -5.586  -5.267  -6.795  1.00  0.00    -0.370 N 
ATOM     78  H   UNL     1      -7.161  -7.611  -8.184  1.00  0.00     0.159 HD
ATOM     79  H   UNL     1      -6.768  -6.032  -8.784  1.00  0.00     0.159 HD
ATOM     80  H   UNL     1      -5.150  -4.945  -5.944  1.00  0.00     0.159 HD
ATOM     81  H   UNL     1      -5.456  -4.706  -7.621  1.00  0.00     0.159 HD
ENDBRANCH  73  74
ENDBRANCH  72  73
ENDBRANCH  71  72
ENDBRANCH  45  71
ENDBRANCH   3  45
TORSDOF 20
ENDMDL
MODEL 45
REMARK VINA RESULT:    -5.365      5.695     14.525
REMARK INTER + INTRA:         -22.223
REMARK INTER:                 -15.169
REMARK INTRA:                  -7.054
REMARK UNBOUND:                -6.822
REMARK SMILES CCCCCC(=O)N[C@H](CC(=O)O)C(=O)N[C@H]1C(=O)N[C@H](CCCN=C(N)N)C(=O)N[C@@H]2CC[C@H](O)N(C2=O)[C@@H](CC(C)C)C(=O)N(C)[C@@H](Cc2ccccc2)C(=O)N[C@H](C(C)C)C(=O)O[C@@H]1C
REMARK SMILES IDX 30 1 31 2 29 3 32 5 35 6 37 7 34 8 38 9 33 10 39 11 36 12
REMARK SMILES IDX 40 14 41 15 42 16 43 17 44 18 45 19 46 20 47 21 48 22 49 23
REMARK SMILES IDX 50 24 51 25 52 26 56 27 53 28 55 29 54 30 57 31 58 32 59 33
REMARK SMILES IDX 60 35 61 36 62 37 63 38 64 39 65 40 66 41 67 42 68 43 21 45
REMARK SMILES IDX 20 46 18 47 19 48 17 50 16 52 14 53 15 54 9 56 8 57 6 58
REMARK SMILES IDX 7 59 5 61 4 62 3 63 2 64 1 65 10 66 11 67 12 68 13 69 22 71
REMARK SMILES IDX 23 72 24 73 25 74 26 75 27 76 28 77
REMARK H PARENT 31 4 36 13 59 34 20 49 16 55 8 60 13 70 27 78 27 79 28 80
REMARK H PARENT 28 81
REMARK Flexibility Score:  259.900
ROOT
ATOM      1  O   UNL     1      -9.225  -4.625  -5.418  1.00  0.00    -0.273 OA
ATOM      2  N   UNL     1      -7.148  -4.913  -6.333  1.00  0.00    -0.343 N 
ATOM      3  C   UNL     1      -8.108  -5.142  -5.371  1.00  0.00     0.243 C 
ATOM      4  H   UNL     1      -6.246  -5.368  -6.270  1.00  0.00     0.164 HD
ENDROOT
BRANCH   2   5
ATOM      5  C   UNL     1      -7.381  -3.943  -7.397  1.00  0.00     0.171 C 
ATOM      6  C   UNL     1      -5.707  -2.941  -9.542  1.00  0.00     0.214 C 
ATOM      7  N   UNL     1      -5.724  -2.251  -8.274  1.00  0.00    -0.303 N 
ATOM      8  C   UNL     1      -7.020  -3.636  -9.867  1.00  0.00     0.057 C 
ATOM      9  C   UNL     1      -6.461  -2.705  -7.192  1.00  0.00     0.247 C 
ATOM     10  C   UNL     1      -7.366  -4.617  -8.768  1.00  0.00     0.040 C 
ATOM     11  O   UNL     1      -6.403  -2.157  -6.083  1.00  0.00    -0.272 OA
BRANCH   6  12
ATOM     12  O   UNL     1      -4.651  -3.873  -9.511  1.00  0.00    -0.373 OA
ATOM     13  H   UNL     1      -5.043  -4.745  -9.290  1.00  0.00     0.213 HD
ENDBRANCH   6  12
BRANCH   7  14
ATOM     14  C   UNL     1      -4.800  -1.108  -8.120  1.00  0.00     0.177 C 
BRANCH  14  15
ATOM     15  C   UNL     1      -5.475   0.275  -8.039  1.00  0.00     0.038 C 
BRANCH  15  16
ATOM     16  C   UNL     1      -5.696   1.091  -9.332  1.00  0.00    -0.015 C 
ATOM     17  C   UNL     1      -7.043   0.785  -9.993  1.00  0.00     0.007 C 
ATOM     18  C   UNL     1      -4.584   0.776 -10.341  1.00  0.00     0.007 C 
ENDBRANCH  15  16
ENDBRANCH  14  15
BRANCH  14  19
ATOM     19  C   UNL     1      -3.526  -1.543  -7.318  1.00  0.00     0.245 C 
ATOM     20  O   UNL     1      -3.390  -2.758  -7.099  1.00  0.00    -0.272 OA
BRANCH  19  21
ATOM     21  N   UNL     1      -2.626  -0.653  -6.757  1.00  0.00    -0.332 N 
ATOM     22  C   UNL     1      -2.160  -0.680  -5.382  1.00  0.00     0.147 C 
BRANCH  21  23
ATOM     23  C   UNL     1      -2.091   0.434  -7.623  1.00  0.00     0.178 C 
BRANCH  23  24
ATOM     24  C   UNL     1      -2.052   1.826  -6.961  1.00  0.00     0.070 C 
BRANCH  24  25
ATOM     25  C   UNL     1      -2.933   2.898  -7.559  1.00  0.00    -0.045 A 
ATOM     26  C   UNL     1      -4.075   3.348  -6.885  1.00  0.00     0.004 A 
ATOM     27  C   UNL     1      -2.619   3.456  -8.808  1.00  0.00     0.004 A 
ATOM     28  C   UNL     1      -4.893   4.327  -7.453  1.00  0.00     0.000 A 
ATOM     29  C   UNL     1      -3.438   4.435  -9.374  1.00  0.00     0.000 A 
ATOM     30  C   UNL     1      -4.576   4.868  -8.697  1.00  0.00     0.000 A 
ENDBRANCH  24  25
ENDBRANCH  23  24
BRANCH  23  31
ATOM     31  C   UNL     1      -0.797   0.031  -8.369  1.00  0.00     0.243 C 
ATOM     32  O   UNL     1      -0.120  -0.954  -8.085  1.00  0.00    -0.273 OA
ATOM     33  N   UNL     1      -0.360   0.984  -9.273  1.00  0.00    -0.341 N 
ATOM     34  H   UNL     1      -0.965   1.786  -9.463  1.00  0.00     0.164 HD
BRANCH  33  35
ATOM     35  C   UNL     1       0.905   0.870 -10.005  1.00  0.00     0.194 C 
BRANCH  35  36
ATOM     36  C   UNL     1       2.030   1.803  -9.477  1.00  0.00     0.017 C 
ATOM     37  C   UNL     1       3.133   1.002  -8.763  1.00  0.00     0.010 C 
ATOM     38  C   UNL     1       1.523   2.864  -8.493  1.00  0.00     0.010 C 
ENDBRANCH  35  36
BRANCH  35  39
ATOM     39  C   UNL     1       0.719   0.997 -11.543  1.00  0.00     0.329 C 
ATOM     40  O   UNL     1      -0.316   0.713 -12.135  1.00  0.00    -0.250 OA
BRANCH  39  41
ATOM     41  O   UNL     1       1.812   1.544 -12.155  1.00  0.00    -0.458 OA
BRANCH  41  42
ATOM     42  C   UNL     1       1.991   1.221 -13.555  1.00  0.00     0.205 CG0
ATOM     43  C   UNL     1       3.019   0.094 -13.633  1.00  0.00     0.056 C 
ATOM     44  G   UNL     1       2.452   2.491 -14.298  1.00  0.00     0.000 G0
ENDBRANCH  41  42
ENDBRANCH  39  41
ENDBRANCH  35  39
ENDBRANCH  33  35
ENDBRANCH  23  31
ENDBRANCH  21  23
ENDBRANCH  19  21
ENDBRANCH  14  19
ENDBRANCH   7  14
ENDBRANCH   2   5
BRANCH   3  45
ATOM     45  C   UNL     1      -7.696  -6.103  -4.248  1.00  0.00     0.171 C 
BRANCH  45  46
ATOM     46  N   UNL     1      -8.714  -5.962  -3.215  1.00  0.00    -0.342 N 
ATOM     47  C   UNL     1      -9.454  -7.024  -2.760  1.00  0.00     0.247 C 
ATOM     48  O   UNL     1      -9.264  -8.181  -3.136  1.00  0.00    -0.273 OA
ATOM     49  H   UNL     1      -8.865  -5.029  -2.835  1.00  0.00     0.164 HD
BRANCH  47  50
ATOM     50  C   UNL     1     -10.564  -6.663  -1.762  1.00  0.00     0.212 CG0
ATOM     51  G   UNL     1     -11.038  -7.970  -1.097  1.00  0.00     0.000 G0
BRANCH  50  52
ATOM     52  N   UNL     1      -9.953  -5.726  -0.823  1.00  0.00    -0.339 N 
ATOM     53  C   UNL     1     -10.635  -4.684  -0.244  1.00  0.00     0.243 C 
ATOM     54  O   UNL     1     -11.805  -4.427  -0.514  1.00  0.00    -0.273 OA
ATOM     55  H   UNL     1      -8.955  -5.820  -0.643  1.00  0.00     0.164 HD
BRANCH  53  56
ATOM     56  C   UNL     1      -9.760  -3.778   0.646  1.00  0.00     0.182 C 
BRANCH  56  57
ATOM     57  N   UNL     1      -8.905  -2.908  -0.167  1.00  0.00    -0.344 N 
ATOM     58  C   UNL     1      -9.243  -1.610  -0.461  1.00  0.00     0.220 C 
ATOM     59  O   UNL     1     -10.313  -1.112  -0.128  1.00  0.00    -0.275 OA
ATOM     60  H   UNL     1      -7.969  -3.247  -0.376  1.00  0.00     0.164 HD
BRANCH  58  61
ATOM     61  C   UNL     1      -8.184  -0.880  -1.266  1.00  0.00     0.100 C 
BRANCH  61  62
ATOM     62  C   UNL     1      -8.590   0.537  -1.676  1.00  0.00     0.010 C 
BRANCH  62  63
ATOM     63  C   UNL     1      -8.553   0.787  -3.189  1.00  0.00     0.000 C 
BRANCH  63  64
ATOM     64  C   UNL     1      -9.742   0.202  -3.950  1.00  0.00    -0.003 C 
ATOM     65  C   UNL     1      -9.297  -0.864  -4.940  1.00  0.00     0.004 C 
ENDBRANCH  63  64
ENDBRANCH  62  63
ENDBRANCH  61  62
ENDBRANCH  58  61
ENDBRANCH  56  57
BRANCH  56  66
ATOM     66  C   UNL     1      -8.956  -4.595   1.657  1.00  0.00     0.157 C 
BRANCH  66  67
ATOM     67  C   UNL     1      -9.521  -4.456   3.041  1.00  0.00     0.305 C 
ATOM     68  O   UNL     1      -8.895  -4.256   4.071  1.00  0.00    -0.252 OA
BRANCH  67  69
ATOM     69  O   UNL     1     -10.866  -4.523   3.054  1.00  0.00    -0.481 OA
ATOM     70  H   UNL     1     -11.081  -5.086   3.827  1.00  0.00     0.296 HD
ENDBRANCH  67  69
ENDBRANCH  66  67
ENDBRANCH  56  66
ENDBRANCH  53  56
ENDBRANCH  50  52
ENDBRANCH  47  50
ENDBRANCH  45  46
BRANCH  45  71
ATOM     71  C   UNL     1      -6.302  -5.743  -3.722  1.00  0.00     0.037 C 
BRANCH  71  72
ATOM     72  C   UNL     1      -5.294  -6.873  -3.943  1.00  0.00     0.026 C 
BRANCH  72  73
ATOM     73  C   UNL     1      -4.264  -6.504  -5.009  1.00  0.00     0.146 C 
BRANCH  73  74
ATOM     74  N   UNL     1      -4.767  -6.970  -6.297  1.00  0.00    -0.254 NA
ATOM     75  C   UNL     1      -4.230  -6.492  -7.358  1.00  0.00     0.185 C 
ATOM     76  N   UNL     1      -4.671  -6.902  -8.559  1.00  0.00    -0.370 N 
ATOM     77  N   UNL     1      -3.237  -5.593  -7.471  1.00  0.00    -0.370 N 
ATOM     78  H   UNL     1      -5.424  -7.575  -8.564  1.00  0.00     0.159 HD
ATOM     79  H   UNL     1      -4.402  -6.469  -9.425  1.00  0.00     0.159 HD
ATOM     80  H   UNL     1      -2.804  -5.200  -6.649  1.00  0.00     0.159 HD
ATOM     81  H   UNL     1      -2.817  -5.379  -8.361  1.00  0.00     0.159 HD
ENDBRANCH  73  74
ENDBRANCH  72  73
ENDBRANCH  71  72
ENDBRANCH  45  71
ENDBRANCH   3  45
TORSDOF 20
ENDMDL
MODEL 46
REMARK VINA RESULT:    -5.344      5.481     14.261
REMARK INTER + INTRA:         -22.162
REMARK INTER:                 -15.041
REMARK INTRA:                  -7.121
REMARK UNBOUND:                -6.822
REMARK SMILES CCCCCC(=O)N[C@H](CC(=O)O)C(=O)N[C@H]1C(=O)N[C@H](CCCN=C(N)N)C(=O)N[C@@H]2CC[C@H](O)N(C2=O)[C@@H](CC(C)C)C(=O)N(C)[C@@H](Cc2ccccc2)C(=O)N[C@H](C(C)C)C(=O)O[C@@H]1C
REMARK SMILES IDX 30 1 31 2 29 3 32 5 35 6 37 7 34 8 38 9 33 10 39 11 36 12
REMARK SMILES IDX 40 14 41 15 42 16 43 17 44 18 45 19 46 20 47 21 48 22 49 23
REMARK SMILES IDX 50 24 51 25 52 26 56 27 53 28 55 29 54 30 57 31 58 32 59 33
REMARK SMILES IDX 60 35 61 36 62 37 63 38 64 39 65 40 66 41 67 42 68 43 21 45
REMARK SMILES IDX 20 46 18 47 19 48 17 50 16 52 14 53 15 54 9 56 8 57 6 58
REMARK SMILES IDX 7 59 5 61 4 62 3 63 2 64 1 65 10 66 11 67 12 68 13 69 22 71
REMARK SMILES IDX 23 72 24 73 25 74 26 75 27 76 28 77
REMARK H PARENT 31 4 36 13 59 34 20 49 16 55 8 60 13 70 27 78 27 79 28 80
REMARK H PARENT 28 81
REMARK Flexibility Score:  259.900
ROOT
ATOM      1  O   UNL     1     -10.527  -3.395  -4.938  1.00  0.00    -0.273 OA
ATOM      2  N   UNL     1      -8.614  -3.689  -6.156  1.00  0.00    -0.343 N 
ATOM      3  C   UNL     1      -9.422  -3.923  -5.064  1.00  0.00     0.243 C 
ATOM      4  H   UNL     1      -7.718  -4.153  -6.234  1.00  0.00     0.164 HD
ENDROOT
BRANCH   2   5
ATOM      5  C   UNL     1      -8.992  -2.700  -7.161  1.00  0.00     0.171 C 
ATOM      6  C   UNL     1      -8.070  -2.194  -9.862  1.00  0.00     0.214 C 
ATOM      7  N   UNL     1      -7.437  -1.514  -8.756  1.00  0.00    -0.303 N 
ATOM      8  C   UNL     1      -9.533  -2.521  -9.610  1.00  0.00     0.057 C 
ATOM      9  C   UNL     1      -7.794  -1.747  -7.438  1.00  0.00     0.247 C 
ATOM     10  C   UNL     1      -9.661  -3.367  -8.362  1.00  0.00     0.040 C 
ATOM     11  O   UNL     1      -7.190  -1.225  -6.492  1.00  0.00    -0.272 OA
BRANCH   6  12
ATOM     12  O   UNL     1      -7.339  -3.372 -10.117  1.00  0.00    -0.373 OA
ATOM     13  H   UNL     1      -6.469  -3.097 -10.478  1.00  0.00     0.213 HD
ENDBRANCH   6  12
BRANCH   7  14
ATOM     14  C   UNL     1      -6.278  -0.653  -9.074  1.00  0.00     0.177 C 
BRANCH  14  15
ATOM     15  C   UNL     1      -6.556   0.862  -9.037  1.00  0.00     0.038 C 
BRANCH  15  16
ATOM     16  C   UNL     1      -6.549   1.669 -10.355  1.00  0.00    -0.015 C 
ATOM     17  C   UNL     1      -5.160   1.726 -10.998  1.00  0.00     0.007 C 
ATOM     18  C   UNL     1      -7.013   3.106 -10.085  1.00  0.00     0.007 C 
ENDBRANCH  15  16
ENDBRANCH  14  15
BRANCH  14  19
ATOM     19  C   UNL     1      -4.947  -1.342  -8.614  1.00  0.00     0.245 C 
ATOM     20  O   UNL     1      -4.760  -2.509  -8.998  1.00  0.00    -0.272 OA
BRANCH  19  21
ATOM     21  N   UNL     1      -4.048  -0.771  -7.731  1.00  0.00    -0.332 N 
ATOM     22  C   UNL     1      -3.864  -1.163  -6.344  1.00  0.00     0.147 C 
BRANCH  21  23
ATOM     23  C   UNL     1      -3.199   0.347  -8.228  1.00  0.00     0.178 C 
BRANCH  23  24
ATOM     24  C   UNL     1      -2.998   1.500  -7.223  1.00  0.00     0.070 C 
BRANCH  24  25
ATOM     25  C   UNL     1      -3.605   2.837  -7.580  1.00  0.00    -0.045 A 
ATOM     26  C   UNL     1      -4.717   3.329  -6.885  1.00  0.00     0.004 A 
ATOM     27  C   UNL     1      -3.062   3.605  -8.621  1.00  0.00     0.004 A 
ATOM     28  C   UNL     1      -5.282   4.558  -7.232  1.00  0.00     0.000 A 
ATOM     29  C   UNL     1      -3.627   4.834  -8.966  1.00  0.00     0.000 A 
ATOM     30  C   UNL     1      -4.739   5.308  -8.273  1.00  0.00     0.000 A 
ENDBRANCH  24  25
ENDBRANCH  23  24
BRANCH  23  31
ATOM     31  C   UNL     1      -1.908  -0.140  -8.928  1.00  0.00     0.243 C 
ATOM     32  O   UNL     1      -1.432  -1.263  -8.786  1.00  0.00    -0.273 OA
ATOM     33  N   UNL     1      -1.226   0.866  -9.591  1.00  0.00    -0.341 N 
ATOM     34  H   UNL     1      -1.671   1.783  -9.671  1.00  0.00     0.164 HD
BRANCH  33  35
ATOM     35  C   UNL     1       0.080   0.662 -10.224  1.00  0.00     0.194 C 
BRANCH  35  36
ATOM     36  C   UNL     1       1.260   1.354  -9.485  1.00  0.00     0.017 C 
ATOM     37  C   UNL     1       2.350   0.339  -9.098  1.00  0.00     0.010 C 
ATOM     38  C   UNL     1       0.829   2.076  -8.202  1.00  0.00     0.010 C 
ENDBRANCH  35  36
BRANCH  35  39
ATOM     39  C   UNL     1       0.068   1.000 -11.741  1.00  0.00     0.329 C 
ATOM     40  O   UNL     1      -0.830   0.674 -12.509  1.00  0.00    -0.250 OA
BRANCH  39  41
ATOM     41  O   UNL     1       1.130   1.778 -12.109  1.00  0.00    -0.458 OA
BRANCH  41  42
ATOM     42  C   UNL     1       1.450   1.800 -13.521  1.00  0.00     0.205 CG0
ATOM     43  C   UNL     1       2.572   0.790 -13.748  1.00  0.00     0.056 C 
ATOM     44  G   UNL     1       1.861   3.235 -13.909  1.00  0.00     0.000 G0
ENDBRANCH  41  42
ENDBRANCH  39  41
ENDBRANCH  35  39
ENDBRANCH  33  35
ENDBRANCH  23  31
ENDBRANCH  21  23
ENDBRANCH  19  21
ENDBRANCH  14  19
ENDBRANCH   7  14
ENDBRANCH   2   5
BRANCH   3  45
ATOM     45  C   UNL     1      -8.859  -4.904  -4.028  1.00  0.00     0.171 C 
BRANCH  45  46
ATOM     46  N   UNL     1      -9.996  -5.315  -3.215  1.00  0.00    -0.342 N 
ATOM     47  C   UNL     1     -10.271  -6.632  -2.947  1.00  0.00     0.247 C 
ATOM     48  O   UNL     1      -9.541  -7.555  -3.310  1.00  0.00    -0.273 OA
ATOM     49  H   UNL     1     -10.595  -4.579  -2.847  1.00  0.00     0.164 HD
BRANCH  47  50
ATOM     50  C   UNL     1     -11.578  -6.880  -2.180  1.00  0.00     0.212 CG0
ATOM     51  G   UNL     1     -12.115  -8.261  -2.605  1.00  0.00     0.000 G0
BRANCH  50  52
ATOM     52  N   UNL     1     -11.219  -6.811  -0.766  1.00  0.00    -0.339 N 
ATOM     53  C   UNL     1     -11.268  -5.652  -0.030  1.00  0.00     0.243 C 
ATOM     54  O   UNL     1     -11.568  -4.567  -0.522  1.00  0.00    -0.273 OA
ATOM     55  H   UNL     1     -10.856  -7.655  -0.329  1.00  0.00     0.164 HD
BRANCH  53  56
ATOM     56  C   UNL     1     -10.760  -5.806   1.418  1.00  0.00     0.182 C 
BRANCH  56  57
ATOM     57  N   UNL     1     -11.160  -7.100   1.981  1.00  0.00    -0.344 N 
ATOM     58  C   UNL     1     -10.374  -7.790   2.871  1.00  0.00     0.220 C 
ATOM     59  O   UNL     1      -9.255  -7.411   3.200  1.00  0.00    -0.275 OA
ATOM     60  H   UNL     1     -12.118  -7.398   1.814  1.00  0.00     0.164 HD
BRANCH  58  61
ATOM     61  C   UNL     1     -11.012  -9.074   3.367  1.00  0.00     0.100 C 
BRANCH  61  62
ATOM     62  C   UNL     1     -12.392  -8.875   3.993  1.00  0.00     0.010 C 
BRANCH  62  63
ATOM     63  C   UNL     1     -12.374  -8.107   5.321  1.00  0.00     0.000 C 
BRANCH  63  64
ATOM     64  C   UNL     1     -13.139  -6.785   5.291  1.00  0.00    -0.003 C 
ATOM     65  C   UNL     1     -12.265  -5.626   5.748  1.00  0.00     0.004 C 
ENDBRANCH  63  64
ENDBRANCH  62  63
ENDBRANCH  61  62
ENDBRANCH  58  61
ENDBRANCH  56  57
BRANCH  56  66
ATOM     66  C   UNL     1     -11.201  -4.635   2.294  1.00  0.00     0.157 C 
BRANCH  66  67
ATOM     67  C   UNL     1     -10.023  -3.827   2.756  1.00  0.00     0.305 C 
ATOM     68  O   UNL     1      -9.666  -2.740   2.327  1.00  0.00    -0.252 OA
BRANCH  67  69
ATOM     69  O   UNL     1      -9.374  -4.410   3.781  1.00  0.00    -0.481 OA
ATOM     70  H   UNL     1      -9.854  -5.250   3.937  1.00  0.00     0.296 HD
ENDBRANCH  67  69
ENDBRANCH  66  67
ENDBRANCH  56  66
ENDBRANCH  53  56
ENDBRANCH  50  52
ENDBRANCH  47  50
ENDBRANCH  45  46
BRANCH  45  71
ATOM     71  C   UNL     1      -7.775  -4.225  -3.183  1.00  0.00     0.037 C 
BRANCH  71  72
ATOM     72  C   UNL     1      -8.346  -3.605  -1.905  1.00  0.00     0.026 C 
BRANCH  72  73
ATOM     73  C   UNL     1      -7.761  -2.219  -1.645  1.00  0.00     0.146 C 
BRANCH  73  74
ATOM     74  N   UNL     1      -7.668  -1.525  -2.926  1.00  0.00    -0.254 NA
ATOM     75  C   UNL     1      -8.536  -0.616  -3.179  1.00  0.00     0.185 C 
ATOM     76  N   UNL     1      -8.476   0.040  -4.349  1.00  0.00    -0.370 N 
ATOM     77  N   UNL     1      -9.558  -0.188  -2.418  1.00  0.00    -0.370 N 
ATOM     78  H   UNL     1      -7.738  -0.226  -4.986  1.00  0.00     0.159 HD
ATOM     79  H   UNL     1      -9.199   0.656  -4.676  1.00  0.00     0.159 HD
ATOM     80  H   UNL     1      -9.724  -0.590  -1.507  1.00  0.00     0.159 HD
ATOM     81  H   UNL     1     -10.107   0.616  -2.674  1.00  0.00     0.159 HD
ENDBRANCH  73  74
ENDBRANCH  72  73
ENDBRANCH  71  72
ENDBRANCH  45  71
ENDBRANCH   3  45
TORSDOF 20
ENDMDL
MODEL 47
REMARK VINA RESULT:    -5.334      8.635     13.886
REMARK INTER + INTRA:         -22.135
REMARK INTER:                 -17.059
REMARK INTRA:                  -5.076
REMARK UNBOUND:                -6.822
REMARK SMILES CCCCCC(=O)N[C@H](CC(=O)O)C(=O)N[C@H]1C(=O)N[C@H](CCCN=C(N)N)C(=O)N[C@@H]2CC[C@H](O)N(C2=O)[C@@H](CC(C)C)C(=O)N(C)[C@@H](Cc2ccccc2)C(=O)N[C@H](C(C)C)C(=O)O[C@@H]1C
REMARK SMILES IDX 30 1 31 2 29 3 32 5 35 6 37 7 34 8 38 9 33 10 39 11 36 12
REMARK SMILES IDX 40 14 41 15 42 16 43 17 44 18 45 19 46 20 47 21 48 22 49 23
REMARK SMILES IDX 50 24 51 25 52 26 56 27 53 28 55 29 54 30 57 31 58 32 59 33
REMARK SMILES IDX 60 35 61 36 62 37 63 38 64 39 65 40 66 41 67 42 68 43 21 45
REMARK SMILES IDX 20 46 18 47 19 48 17 50 16 52 14 53 15 54 9 56 8 57 6 58
REMARK SMILES IDX 7 59 5 61 4 62 3 63 2 64 1 65 10 66 11 67 12 68 13 69 22 71
REMARK SMILES IDX 23 72 24 73 25 74 26 75 27 76 28 77
REMARK H PARENT 31 4 36 13 59 34 20 49 16 55 8 60 13 70 27 78 27 79 28 80
REMARK H PARENT 28 81
REMARK Flexibility Score:  259.900
ROOT
ATOM      1  O   UNL     1      -4.237   4.062  -8.933  1.00  0.00    -0.273 OA
ATOM      2  N   UNL     1      -4.864   2.555 -10.534  1.00  0.00    -0.343 N 
ATOM      3  C   UNL     1      -4.648   3.835 -10.071  1.00  0.00     0.243 C 
ATOM      4  H   UNL     1      -5.189   2.405 -11.481  1.00  0.00     0.164 HD
ENDROOT
BRANCH   2   5
ATOM      5  C   UNL     1      -4.725   1.409  -9.642  1.00  0.00     0.171 C 
ATOM      6  C   UNL     1      -5.189  -1.430 -10.004  1.00  0.00     0.214 C 
ATOM      7  N   UNL     1      -6.260  -0.591  -9.518  1.00  0.00    -0.303 N 
ATOM      8  C   UNL     1      -3.808  -0.932  -9.608  1.00  0.00     0.057 C 
ATOM      9  C   UNL     1      -6.121   0.779  -9.371  1.00  0.00     0.247 C 
ATOM     10  C   UNL     1      -3.607   0.480 -10.114  1.00  0.00     0.040 C 
ATOM     11  O   UNL     1      -7.069   1.502  -9.036  1.00  0.00    -0.272 OA
BRANCH   6  12
ATOM     12  O   UNL     1      -5.303  -1.503 -11.407  1.00  0.00    -0.373 OA
ATOM     13  H   UNL     1      -5.524  -2.432 -11.629  1.00  0.00     0.213 HD
ENDBRANCH   6  12
BRANCH   7  14
ATOM     14  C   UNL     1      -7.576  -1.234  -9.317  1.00  0.00     0.177 C 
BRANCH  14  15
ATOM     15  C   UNL     1      -8.086  -2.071 -10.506  1.00  0.00     0.038 C 
BRANCH  15  16
ATOM     16  C   UNL     1      -8.246  -3.599 -10.348  1.00  0.00    -0.015 C 
ATOM     17  C   UNL     1      -6.935  -4.352 -10.594  1.00  0.00     0.007 C 
ATOM     18  C   UNL     1      -9.291  -4.117 -11.344  1.00  0.00     0.007 C 
ENDBRANCH  15  16
ENDBRANCH  14  15
BRANCH  14  19
ATOM     19  C   UNL     1      -7.783  -1.587  -7.804  1.00  0.00     0.245 C 
ATOM     20  O   UNL     1      -7.300  -0.799  -6.974  1.00  0.00    -0.272 OA
BRANCH  19  21
ATOM     21  N   UNL     1      -8.364  -2.762  -7.359  1.00  0.00    -0.332 N 
ATOM     22  C   UNL     1      -9.766  -3.113  -7.495  1.00  0.00     0.147 C 
BRANCH  21  23
ATOM     23  C   UNL     1      -7.490  -3.753  -6.671  1.00  0.00     0.178 C 
BRANCH  23  24
ATOM     24  C   UNL     1      -6.007  -3.706  -7.091  1.00  0.00     0.070 C 
BRANCH  24  25
ATOM     25  C   UNL     1      -5.317  -5.029  -7.330  1.00  0.00    -0.045 A 
ATOM     26  C   UNL     1      -3.921  -5.106  -7.415  1.00  0.00     0.004 A 
ATOM     27  C   UNL     1      -6.071  -6.203  -7.476  1.00  0.00     0.004 A 
ATOM     28  C   UNL     1      -3.292  -6.330  -7.653  1.00  0.00     0.000 A 
ATOM     29  C   UNL     1      -5.441  -7.426  -7.714  1.00  0.00     0.000 A 
ATOM     30  C   UNL     1      -4.052  -7.488  -7.805  1.00  0.00     0.000 A 
ENDBRANCH  24  25
ENDBRANCH  23  24
BRANCH  23  31
ATOM     31  C   UNL     1      -7.734  -3.815  -5.145  1.00  0.00     0.243 C 
ATOM     32  O   UNL     1      -7.521  -2.881  -4.376  1.00  0.00    -0.273 OA
ATOM     33  N   UNL     1      -8.042  -5.085  -4.685  1.00  0.00    -0.341 N 
ATOM     34  H   UNL     1      -8.202  -5.824  -5.374  1.00  0.00     0.164 HD
BRANCH  33  35
ATOM     35  C   UNL     1      -8.197  -5.404  -3.264  1.00  0.00     0.194 C 
BRANCH  35  36
ATOM     36  C   UNL     1      -7.003  -6.193  -2.656  1.00  0.00     0.017 C 
ATOM     37  C   UNL     1      -6.289  -5.375  -1.566  1.00  0.00     0.010 C 
ATOM     38  C   UNL     1      -5.949  -6.590  -3.697  1.00  0.00     0.010 C 
ENDBRANCH  35  36
BRANCH  35  39
ATOM     39  C   UNL     1      -9.560  -6.080  -2.948  1.00  0.00     0.329 C 
ATOM     40  O   UNL     1      -9.964  -7.099  -3.496  1.00  0.00    -0.250 OA
BRANCH  39  41
ATOM     41  O   UNL     1     -10.224  -5.460  -1.926  1.00  0.00    -0.458 OA
BRANCH  41  42
ATOM     42  C   UNL     1     -11.117  -6.290  -1.145  1.00  0.00     0.205 CG0
ATOM     43  C   UNL     1     -11.820  -5.380  -0.139  1.00  0.00     0.056 C 
ATOM     44  G   UNL     1     -10.289  -7.396  -0.461  1.00  0.00     0.000 G0
ENDBRANCH  41  42
ENDBRANCH  39  41
ENDBRANCH  35  39
ENDBRANCH  33  35
ENDBRANCH  23  31
ENDBRANCH  21  23
ENDBRANCH  19  21
ENDBRANCH  14  19
ENDBRANCH   7  14
ENDBRANCH   2   5
BRANCH   3  45
ATOM     45  C   UNL     1      -4.935   4.956 -11.079  1.00  0.00     0.171 C 
BRANCH  45  46
ATOM     46  N   UNL     1      -3.986   6.017 -10.769  1.00  0.00    -0.342 N 
ATOM     47  C   UNL     1      -3.207   6.612 -11.729  1.00  0.00     0.247 C 
ATOM     48  O   UNL     1      -3.305   6.347 -12.928  1.00  0.00    -0.273 OA
ATOM     49  H   UNL     1      -3.913   6.307  -9.795  1.00  0.00     0.164 HD
BRANCH  47  50
ATOM     50  C   UNL     1      -2.179   7.621 -11.199  1.00  0.00     0.212 CG0
ATOM     51  G   UNL     1      -1.043   7.720 -12.237  1.00  0.00     0.000 G0
BRANCH  50  52
ATOM     52  N   UNL     1      -2.913   8.871 -11.025  1.00  0.00    -0.339 N 
ATOM     53  C   UNL     1      -2.718   9.978 -11.815  1.00  0.00     0.243 C 
ATOM     54  O   UNL     1      -1.868  10.018 -12.700  1.00  0.00    -0.273 OA
ATOM     55  H   UNL     1      -3.553   8.938 -10.236  1.00  0.00     0.164 HD
BRANCH  53  56
ATOM     56  C   UNL     1      -3.545  11.208 -11.387  1.00  0.00     0.182 C 
BRANCH  56  57
ATOM     57  N   UNL     1      -4.394  10.895 -10.233  1.00  0.00    -0.344 N 
ATOM     58  C   UNL     1      -4.591  11.782  -9.203  1.00  0.00     0.220 C 
ATOM     59  O   UNL     1      -4.015  12.863  -9.138  1.00  0.00    -0.275 OA
ATOM     60  H   UNL     1      -4.966  10.057 -10.296  1.00  0.00     0.164 HD
BRANCH  58  61
ATOM     61  C   UNL     1      -5.553  11.271  -8.146  1.00  0.00     0.100 C 
BRANCH  61  62
ATOM     62  C   UNL     1      -4.864  10.753  -6.884  1.00  0.00     0.010 C 
BRANCH  62  63
ATOM     63  C   UNL     1      -5.537   9.523  -6.262  1.00  0.00     0.000 C 
BRANCH  63  64
ATOM     64  C   UNL     1      -7.007   9.353  -6.642  1.00  0.00    -0.003 C 
ATOM     65  C   UNL     1      -7.798   8.693  -5.522  1.00  0.00     0.004 C 
ENDBRANCH  63  64
ENDBRANCH  62  63
ENDBRANCH  61  62
ENDBRANCH  58  61
ENDBRANCH  56  57
BRANCH  56  66
ATOM     66  C   UNL     1      -4.346  11.778 -12.556  1.00  0.00     0.157 C 
BRANCH  66  67
ATOM     67  C   UNL     1      -4.401  13.278 -12.497  1.00  0.00     0.305 C 
ATOM     68  O   UNL     1      -3.451  14.046 -12.480  1.00  0.00    -0.252 OA
BRANCH  67  69
ATOM     69  O   UNL     1      -5.664  13.744 -12.514  1.00  0.00    -0.481 OA
ATOM     70  H   UNL     1      -5.675  14.461 -11.844  1.00  0.00     0.296 HD
ENDBRANCH  67  69
ENDBRANCH  66  67
ENDBRANCH  56  66
ENDBRANCH  53  56
ENDBRANCH  50  52
ENDBRANCH  47  50
ENDBRANCH  45  46
BRANCH  45  71
ATOM     71  C   UNL     1      -6.384   5.436 -10.945  1.00  0.00     0.037 C 
BRANCH  71  72
ATOM     72  C   UNL     1      -7.192   5.193 -12.222  1.00  0.00     0.026 C 
BRANCH  72  73
ATOM     73  C   UNL     1      -7.958   3.874 -12.158  1.00  0.00     0.146 C 
BRANCH  73  74
ATOM     74  N   UNL     1      -7.089   2.826 -12.684  1.00  0.00    -0.254 NA
ATOM     75  C   UNL     1      -7.451   1.608 -12.517  1.00  0.00     0.185 C 
ATOM     76  N   UNL     1      -6.672   0.621 -12.991  1.00  0.00    -0.370 N 
ATOM     77  N   UNL     1      -8.549   1.128 -11.909  1.00  0.00    -0.370 N 
ATOM     78  H   UNL     1      -5.819   0.896 -13.458  1.00  0.00     0.159 HD
ATOM     79  H   UNL     1      -6.815  -0.349 -12.774  1.00  0.00     0.159 HD
ATOM     80  H   UNL     1      -9.229   1.756 -11.507  1.00  0.00     0.159 HD
ATOM     81  H   UNL     1      -8.786   0.150 -11.940  1.00  0.00     0.159 HD
ENDBRANCH  73  74
ENDBRANCH  72  73
ENDBRANCH  71  72
ENDBRANCH  45  71
ENDBRANCH   3  45
TORSDOF 20
ENDMDL
MODEL 48
REMARK VINA RESULT:    -5.329      8.526     12.564
REMARK INTER + INTRA:         -22.119
REMARK INTER:                 -17.294
REMARK INTRA:                  -4.825
REMARK UNBOUND:                -6.822
REMARK SMILES CCCCCC(=O)N[C@H](CC(=O)O)C(=O)N[C@H]1C(=O)N[C@H](CCCN=C(N)N)C(=O)N[C@@H]2CC[C@H](O)N(C2=O)[C@@H](CC(C)C)C(=O)N(C)[C@@H](Cc2ccccc2)C(=O)N[C@H](C(C)C)C(=O)O[C@@H]1C
REMARK SMILES IDX 30 1 31 2 29 3 32 5 35 6 37 7 34 8 38 9 33 10 39 11 36 12
REMARK SMILES IDX 40 14 41 15 42 16 43 17 44 18 45 19 46 20 47 21 48 22 49 23
REMARK SMILES IDX 50 24 51 25 52 26 56 27 53 28 55 29 54 30 57 31 58 32 59 33
REMARK SMILES IDX 60 35 61 36 62 37 63 38 64 39 65 40 66 41 67 42 68 43 21 45
REMARK SMILES IDX 20 46 18 47 19 48 17 50 16 52 14 53 15 54 9 56 8 57 6 58
REMARK SMILES IDX 7 59 5 61 4 62 3 63 2 64 1 65 10 66 11 67 12 68 13 69 22 71
REMARK SMILES IDX 23 72 24 73 25 74 26 75 27 76 28 77
REMARK H PARENT 31 4 36 13 59 34 20 49 16 55 8 60 13 70 27 78 27 79 28 80
REMARK H PARENT 28 81
REMARK Flexibility Score:  259.900
ROOT
ATOM      1  O   UNL     1      -1.279   0.722 -10.889  1.00  0.00    -0.273 OA
ATOM      2  N   UNL     1      -3.395   1.010 -10.072  1.00  0.00    -0.343 N 
ATOM      3  C   UNL     1      -2.131   1.457 -10.389  1.00  0.00     0.243 C 
ATOM      4  H   UNL     1      -4.075   1.647  -9.675  1.00  0.00     0.164 HD
ENDROOT
BRANCH   2   5
ATOM      5  C   UNL     1      -3.741  -0.400 -10.209  1.00  0.00     0.171 C 
ATOM      6  C   UNL     1      -6.242  -1.844  -9.958  1.00  0.00     0.214 C 
ATOM      7  N   UNL     1      -5.395  -1.685  -8.800  1.00  0.00    -0.303 N 
ATOM      8  C   UNL     1      -5.470  -1.888 -11.267  1.00  0.00     0.057 C 
ATOM      9  C   UNL     1      -4.212  -0.964  -8.838  1.00  0.00     0.247 C 
ATOM     10  C   UNL     1      -4.646  -0.628 -11.419  1.00  0.00     0.040 C 
ATOM     11  O   UNL     1      -3.535  -0.759  -7.822  1.00  0.00    -0.272 OA
BRANCH   6  12
ATOM     12  O   UNL     1      -7.164  -0.779  -9.966  1.00  0.00    -0.373 OA
ATOM     13  H   UNL     1      -7.937  -1.064  -9.433  1.00  0.00     0.213 HD
ENDBRANCH   6  12
BRANCH   7  14
ATOM     14  C   UNL     1      -5.911  -2.202  -7.515  1.00  0.00     0.177 C 
BRANCH  14  15
ATOM     15  C   UNL     1      -7.254  -1.599  -7.057  1.00  0.00     0.038 C 
BRANCH  15  16
ATOM     16  C   UNL     1      -7.258  -0.430  -6.047  1.00  0.00    -0.015 C 
ATOM     17  C   UNL     1      -8.625  -0.234  -5.386  1.00  0.00     0.007 C 
ATOM     18  C   UNL     1      -6.877   0.873  -6.761  1.00  0.00     0.007 C 
ENDBRANCH  15  16
ENDBRANCH  14  15
BRANCH  14  19
ATOM     19  C   UNL     1      -5.471  -3.693  -7.312  1.00  0.00     0.245 C 
ATOM     20  O   UNL     1      -4.350  -3.882  -6.809  1.00  0.00    -0.272 OA
BRANCH  19  21
ATOM     21  N   UNL     1      -6.201  -4.780  -7.759  1.00  0.00    -0.332 N 
ATOM     22  C   UNL     1      -6.590  -5.026  -9.136  1.00  0.00     0.147 C 
BRANCH  21  23
ATOM     23  C   UNL     1      -6.639  -5.785  -6.751  1.00  0.00     0.178 C 
BRANCH  23  24
ATOM     24  C   UNL     1      -5.491  -6.524  -6.034  1.00  0.00     0.070 C 
BRANCH  24  25
ATOM     25  C   UNL     1      -4.724  -7.548  -6.837  1.00  0.00    -0.045 A 
ATOM     26  C   UNL     1      -3.616  -7.172  -7.609  1.00  0.00     0.004 A 
ATOM     27  C   UNL     1      -5.115  -8.895  -6.825  1.00  0.00     0.004 A 
ATOM     28  C   UNL     1      -2.923  -8.121  -8.362  1.00  0.00     0.000 A 
ATOM     29  C   UNL     1      -4.420  -9.843  -7.578  1.00  0.00     0.000 A 
ATOM     30  C   UNL     1      -3.326  -9.455  -8.348  1.00  0.00     0.000 A 
ENDBRANCH  24  25
ENDBRANCH  23  24
BRANCH  23  31
ATOM     31  C   UNL     1      -7.757  -5.258  -5.820  1.00  0.00     0.243 C 
ATOM     32  O   UNL     1      -8.658  -4.507  -6.185  1.00  0.00    -0.273 OA
ATOM     33  N   UNL     1      -7.550  -5.557  -4.484  1.00  0.00    -0.341 N 
ATOM     34  H   UNL     1      -6.779  -6.183  -4.240  1.00  0.00     0.164 HD
BRANCH  33  35
ATOM     35  C   UNL     1      -8.416  -5.059  -3.411  1.00  0.00     0.194 C 
BRANCH  35  36
ATOM     36  C   UNL     1      -7.675  -4.791  -2.070  1.00  0.00     0.017 C 
ATOM     37  C   UNL     1      -7.513  -3.283  -1.812  1.00  0.00     0.010 C 
ATOM     38  C   UNL     1      -6.276  -5.419  -2.017  1.00  0.00     0.010 C 
ENDBRANCH  35  36
BRANCH  35  39
ATOM     39  C   UNL     1      -9.683  -5.936  -3.209  1.00  0.00     0.329 C 
ATOM     40  O   UNL     1     -10.718  -5.804  -3.851  1.00  0.00    -0.250 OA
BRANCH  39  41
ATOM     41  O   UNL     1      -9.485  -6.931  -2.292  1.00  0.00    -0.458 OA
BRANCH  41  42
ATOM     42  C   UNL     1     -10.584  -7.198  -1.388  1.00  0.00     0.205 CG0
ATOM     43  C   UNL     1     -10.422  -6.266  -0.189  1.00  0.00     0.056 C 
ATOM     44  G   UNL     1     -10.542  -8.686  -0.989  1.00  0.00     0.000 G0
ENDBRANCH  41  42
ENDBRANCH  39  41
ENDBRANCH  35  39
ENDBRANCH  33  35
ENDBRANCH  23  31
ENDBRANCH  21  23
ENDBRANCH  19  21
ENDBRANCH  14  19
ENDBRANCH   7  14
ENDBRANCH   2   5
BRANCH   3  45
ATOM     45  C   UNL     1      -1.865   2.940 -10.095  1.00  0.00     0.171 C 
BRANCH  45  46
ATOM     46  N   UNL     1      -1.204   3.464 -11.283  1.00  0.00    -0.342 N 
ATOM     47  C   UNL     1      -1.829   4.319 -12.156  1.00  0.00     0.247 C 
ATOM     48  O   UNL     1      -2.962   4.761 -11.963  1.00  0.00    -0.273 OA
ATOM     49  H   UNL     1      -0.245   3.168 -11.452  1.00  0.00     0.164 HD
BRANCH  47  50
ATOM     50  C   UNL     1      -1.022   4.667 -13.415  1.00  0.00     0.212 CG0
ATOM     51  G   UNL     1      -1.953   5.445 -14.367  1.00  0.00     0.000 G0
BRANCH  50  52
ATOM     52  N   UNL     1       0.113   5.457 -12.944  1.00  0.00    -0.339 N 
ATOM     53  C   UNL     1       1.320   5.508 -13.597  1.00  0.00     0.243 C 
ATOM     54  O   UNL     1       1.557   4.848 -14.605  1.00  0.00    -0.273 OA
ATOM     55  H   UNL     1       0.015   5.939 -12.053  1.00  0.00     0.164 HD
BRANCH  53  56
ATOM     56  C   UNL     1       2.394   6.339 -12.865  1.00  0.00     0.182 C 
BRANCH  56  57
ATOM     57  N   UNL     1       3.443   5.475 -12.315  1.00  0.00    -0.344 N 
ATOM     58  C   UNL     1       3.163   4.393 -11.517  1.00  0.00     0.220 C 
ATOM     59  O   UNL     1       2.026   4.117 -11.149  1.00  0.00    -0.275 OA
ATOM     60  H   UNL     1       4.385   5.607 -12.676  1.00  0.00     0.164 HD
BRANCH  58  61
ATOM     61  C   UNL     1       4.397   3.609 -11.111  1.00  0.00     0.100 C 
BRANCH  61  62
ATOM     62  C   UNL     1       4.364   3.114  -9.665  1.00  0.00     0.010 C 
BRANCH  62  63
ATOM     63  C   UNL     1       4.278   1.588  -9.526  1.00  0.00     0.000 C 
BRANCH  63  64
ATOM     64  C   UNL     1       3.036   1.096  -8.784  1.00  0.00    -0.003 C 
ATOM     65  C   UNL     1       1.937   0.685  -9.754  1.00  0.00     0.004 C 
ENDBRANCH  63  64
ENDBRANCH  62  63
ENDBRANCH  61  62
ENDBRANCH  58  61
ENDBRANCH  56  57
BRANCH  56  66
ATOM     66  C   UNL     1       1.774   7.242 -11.801  1.00  0.00     0.157 C 
BRANCH  66  67
ATOM     67  C   UNL     1       2.832   7.962 -11.015  1.00  0.00     0.305 C 
ATOM     68  O   UNL     1       3.498   8.917 -11.386  1.00  0.00    -0.252 OA
BRANCH  67  69
ATOM     69  O   UNL     1       2.966   7.473  -9.768  1.00  0.00    -0.481 OA
ATOM     70  H   UNL     1       3.902   7.642  -9.532  1.00  0.00     0.296 HD
ENDBRANCH  67  69
ENDBRANCH  66  67
ENDBRANCH  56  66
ENDBRANCH  53  56
ENDBRANCH  50  52
ENDBRANCH  47  50
ENDBRANCH  45  46
BRANCH  45  71
ATOM     71  C   UNL     1      -0.986   3.087  -8.848  1.00  0.00     0.037 C 
BRANCH  71  72
ATOM     72  C   UNL     1      -1.460   4.226  -7.942  1.00  0.00     0.026 C 
BRANCH  72  73
ATOM     73  C   UNL     1      -2.787   4.810  -8.423  1.00  0.00     0.146 C 
BRANCH  73  74
ATOM     74  N   UNL     1      -2.814   6.222  -8.052  1.00  0.00    -0.254 NA
ATOM     75  C   UNL     1      -3.560   7.007  -8.739  1.00  0.00     0.185 C 
ATOM     76  N   UNL     1      -3.607   8.311  -8.421  1.00  0.00    -0.370 N 
ATOM     77  N   UNL     1      -4.350   6.719  -9.788  1.00  0.00    -0.370 N 
ATOM     78  H   UNL     1      -3.035   8.614  -7.646  1.00  0.00     0.159 HD
ATOM     79  H   UNL     1      -4.050   9.005  -8.996  1.00  0.00     0.159 HD
ATOM     80  H   UNL     1      -4.417   5.775 -10.136  1.00  0.00     0.159 HD
ATOM     81  H   UNL     1      -4.981   7.401 -10.176  1.00  0.00     0.159 HD
ENDBRANCH  73  74
ENDBRANCH  72  73
ENDBRANCH  71  72
ENDBRANCH  45  71
ENDBRANCH   3  45
TORSDOF 20
ENDMDL
MODEL 49
REMARK VINA RESULT:    -5.261      7.863     13.319
REMARK INTER + INTRA:         -21.926
REMARK INTER:                 -15.670
REMARK INTRA:                  -6.255
REMARK UNBOUND:                -6.822
REMARK SMILES CCCCCC(=O)N[C@H](CC(=O)O)C(=O)N[C@H]1C(=O)N[C@H](CCCN=C(N)N)C(=O)N[C@@H]2CC[C@H](O)N(C2=O)[C@@H](CC(C)C)C(=O)N(C)[C@@H](Cc2ccccc2)C(=O)N[C@H](C(C)C)C(=O)O[C@@H]1C
REMARK SMILES IDX 30 1 31 2 29 3 32 5 35 6 37 7 34 8 38 9 33 10 39 11 36 12
REMARK SMILES IDX 40 14 41 15 42 16 43 17 44 18 45 19 46 20 47 21 48 22 49 23
REMARK SMILES IDX 50 24 51 25 52 26 56 27 53 28 55 29 54 30 57 31 58 32 59 33
REMARK SMILES IDX 60 35 61 36 62 37 63 38 64 39 65 40 66 41 67 42 68 43 21 45
REMARK SMILES IDX 20 46 18 47 19 48 17 50 16 52 14 53 15 54 9 56 8 57 6 58
REMARK SMILES IDX 7 59 5 61 4 62 3 63 2 64 1 65 10 66 11 67 12 68 13 69 22 71
REMARK SMILES IDX 23 72 24 73 25 74 26 75 27 76 28 77
REMARK H PARENT 31 4 36 13 59 34 20 49 16 55 8 60 13 70 27 78 27 79 28 80
REMARK H PARENT 28 81
REMARK Flexibility Score:  259.900
ROOT
ATOM      1  O   UNL     1      -4.402   4.776  -9.164  1.00  0.00    -0.273 OA
ATOM      2  N   UNL     1      -4.687   2.853 -10.370  1.00  0.00    -0.343 N 
ATOM      3  C   UNL     1      -4.544   4.219 -10.254  1.00  0.00     0.243 C 
ATOM      4  H   UNL     1      -4.787   2.428 -11.283  1.00  0.00     0.164 HD
ENDROOT
BRANCH   2   5
ATOM      5  C   UNL     1      -4.796   2.014  -9.181  1.00  0.00     0.171 C 
ATOM      6  C   UNL     1      -4.930  -0.858  -8.809  1.00  0.00     0.214 C 
ATOM      7  N   UNL     1      -6.153  -0.103  -8.958  1.00  0.00    -0.303 N 
ATOM      8  C   UNL     1      -3.806  -0.062  -8.165  1.00  0.00     0.057 C 
ATOM      9  C   UNL     1      -6.158   1.263  -9.189  1.00  0.00     0.247 C 
ATOM     10  C   UNL     1      -3.530   1.184  -8.978  1.00  0.00     0.040 C 
ATOM     11  O   UNL     1      -7.206   1.888  -9.401  1.00  0.00    -0.272 OA
BRANCH   6  12
ATOM     12  O   UNL     1      -4.545  -1.309 -10.087  1.00  0.00    -0.373 OA
ATOM     13  H   UNL     1      -3.760  -0.784 -10.352  1.00  0.00     0.213 HD
ENDBRANCH   6  12
BRANCH   7  14
ATOM     14  C   UNL     1      -7.415  -0.872  -9.000  1.00  0.00     0.177 C 
BRANCH  14  15
ATOM     15  C   UNL     1      -7.637  -1.697 -10.283  1.00  0.00     0.038 C 
BRANCH  15  16
ATOM     16  C   UNL     1      -7.664  -3.239 -10.201  1.00  0.00    -0.015 C 
ATOM     17  C   UNL     1      -6.405  -3.878 -10.794  1.00  0.00     0.007 C 
ATOM     18  C   UNL     1      -8.881  -3.778 -10.964  1.00  0.00     0.007 C 
ENDBRANCH  15  16
ENDBRANCH  14  15
BRANCH  14  19
ATOM     19  C   UNL     1      -7.832  -1.312  -7.555  1.00  0.00     0.245 C 
ATOM     20  O   UNL     1      -7.563  -0.526  -6.631  1.00  0.00    -0.272 OA
BRANCH  19  21
ATOM     21  N   UNL     1      -8.369  -2.550  -7.251  1.00  0.00    -0.332 N 
ATOM     22  C   UNL     1      -9.735  -2.965  -7.518  1.00  0.00     0.147 C 
BRANCH  21  23
ATOM     23  C   UNL     1      -7.486  -3.547  -6.584  1.00  0.00     0.178 C 
BRANCH  23  24
ATOM     24  C   UNL     1      -5.991  -3.427  -6.943  1.00  0.00     0.070 C 
BRANCH  24  25
ATOM     25  C   UNL     1      -5.277  -4.695  -7.350  1.00  0.00    -0.045 A 
ATOM     26  C   UNL     1      -5.994  -5.870  -7.612  1.00  0.00     0.004 A 
ATOM     27  C   UNL     1      -3.879  -4.714  -7.467  1.00  0.00     0.004 A 
ATOM     28  C   UNL     1      -5.326  -7.042  -7.971  1.00  0.00     0.000 A 
ATOM     29  C   UNL     1      -3.213  -5.886  -7.827  1.00  0.00     0.000 A 
ATOM     30  C   UNL     1      -3.937  -7.050  -8.076  1.00  0.00     0.000 A 
ENDBRANCH  24  25
ENDBRANCH  23  24
BRANCH  23  31
ATOM     31  C   UNL     1      -7.784  -3.701  -5.073  1.00  0.00     0.243 C 
ATOM     32  O   UNL     1      -7.649  -2.798  -4.251  1.00  0.00    -0.273 OA
ATOM     33  N   UNL     1      -8.040  -5.007  -4.690  1.00  0.00    -0.341 N 
ATOM     34  H   UNL     1      -8.135  -5.717  -5.421  1.00  0.00     0.164 HD
BRANCH  33  35
ATOM     35  C   UNL     1      -8.231  -5.407  -3.293  1.00  0.00     0.194 C 
BRANCH  35  36
ATOM     36  C   UNL     1      -7.033  -6.191  -2.688  1.00  0.00     0.017 C 
ATOM     37  C   UNL     1      -6.332  -5.379  -1.586  1.00  0.00     0.010 C 
ATOM     38  C   UNL     1      -5.970  -6.567  -3.727  1.00  0.00     0.010 C 
ENDBRANCH  35  36
BRANCH  35  39
ATOM     39  C   UNL     1      -9.582  -6.140  -3.061  1.00  0.00     0.329 C 
ATOM     40  O   UNL     1      -9.847  -7.248  -3.510  1.00  0.00    -0.250 OA
BRANCH  39  41
ATOM     41  O   UNL     1     -10.412  -5.447  -2.224  1.00  0.00    -0.458 OA
BRANCH  41  42
ATOM     42  C   UNL     1     -10.925  -6.175  -1.083  1.00  0.00     0.205 CG0
ATOM     43  C   UNL     1      -9.979  -5.913   0.087  1.00  0.00     0.056 C 
ATOM     44  G   UNL     1     -11.008  -7.670  -1.450  1.00  0.00     0.000 G0
ENDBRANCH  41  42
ENDBRANCH  39  41
ENDBRANCH  35  39
ENDBRANCH  33  35
ENDBRANCH  23  31
ENDBRANCH  21  23
ENDBRANCH  19  21
ENDBRANCH  14  19
ENDBRANCH   7  14
ENDBRANCH   2   5
BRANCH   3  45
ATOM     45  C   UNL     1      -4.552   4.995 -11.577  1.00  0.00     0.171 C 
BRANCH  45  46
ATOM     46  N   UNL     1      -4.075   6.333 -11.252  1.00  0.00    -0.342 N 
ATOM     47  C   UNL     1      -3.119   6.975 -11.999  1.00  0.00     0.247 C 
ATOM     48  O   UNL     1      -2.650   6.501 -13.035  1.00  0.00    -0.273 OA
ATOM     49  H   UNL     1      -4.478   6.785 -10.434  1.00  0.00     0.164 HD
BRANCH  47  50
ATOM     50  C   UNL     1      -2.651   8.324 -11.434  1.00  0.00     0.212 CG0
ATOM     51  G   UNL     1      -2.496   9.298 -12.619  1.00  0.00     0.000 G0
BRANCH  50  52
ATOM     52  N   UNL     1      -3.685   8.729 -10.485  1.00  0.00    -0.339 N 
ATOM     53  C   UNL     1      -4.284   9.965 -10.503  1.00  0.00     0.243 C 
ATOM     54  O   UNL     1      -3.957  10.848 -11.291  1.00  0.00    -0.273 OA
ATOM     55  H   UNL     1      -3.921   8.079  -9.738  1.00  0.00     0.164 HD
BRANCH  53  56
ATOM     56  C   UNL     1      -5.284  10.194  -9.351  1.00  0.00     0.182 C 
BRANCH  56  57
ATOM     57  N   UNL     1      -5.983   8.952  -9.006  1.00  0.00    -0.344 N 
ATOM     58  C   UNL     1      -5.871   8.363  -7.770  1.00  0.00     0.220 C 
ATOM     59  O   UNL     1      -5.125   8.792  -6.896  1.00  0.00    -0.275 OA
ATOM     60  H   UNL     1      -6.686   8.622  -9.662  1.00  0.00     0.164 HD
BRANCH  58  61
ATOM     61  C   UNL     1      -6.727   7.120  -7.616  1.00  0.00     0.100 C 
BRANCH  61  62
ATOM     62  C   UNL     1      -6.320   6.233  -6.439  1.00  0.00     0.010 C 
BRANCH  62  63
ATOM     63  C   UNL     1      -7.409   6.067  -5.372  1.00  0.00     0.000 C 
BRANCH  63  64
ATOM     64  C   UNL     1      -8.290   7.300  -5.178  1.00  0.00    -0.003 C 
ATOM     65  C   UNL     1      -9.748   6.915  -4.974  1.00  0.00     0.004 C 
ENDBRANCH  63  64
ENDBRANCH  62  63
ENDBRANCH  61  62
ENDBRANCH  58  61
ENDBRANCH  56  57
BRANCH  56  66
ATOM     66  C   UNL     1      -6.252  11.332  -9.668  1.00  0.00     0.157 C 
BRANCH  66  67
ATOM     67  C   UNL     1      -6.526  12.168  -8.451  1.00  0.00     0.305 C 
ATOM     68  O   UNL     1      -6.288  11.871  -7.290  1.00  0.00    -0.252 OA
BRANCH  67  69
ATOM     69  O   UNL     1      -7.043  13.371  -8.762  1.00  0.00    -0.481 OA
ATOM     70  H   UNL     1      -7.061  13.390  -9.742  1.00  0.00     0.296 HD
ENDBRANCH  67  69
ENDBRANCH  66  67
ENDBRANCH  56  66
ENDBRANCH  53  56
ENDBRANCH  50  52
ENDBRANCH  47  50
ENDBRANCH  45  46
BRANCH  45  71
ATOM     71  C   UNL     1      -5.966   5.028 -12.168  1.00  0.00     0.037 C 
BRANCH  71  72
ATOM     72  C   UNL     1      -5.988   4.582 -13.633  1.00  0.00     0.026 C 
BRANCH  72  73
ATOM     73  C   UNL     1      -6.753   3.272 -13.808  1.00  0.00     0.146 C 
BRANCH  73  74
ATOM     74  N   UNL     1      -5.848   2.177 -13.469  1.00  0.00    -0.254 NA
ATOM     75  C   UNL     1      -6.343   1.153 -12.879  1.00  0.00     0.185 C 
ATOM     76  N   UNL     1      -5.536   0.129 -12.555  1.00  0.00    -0.370 N 
ATOM     77  N   UNL     1      -7.615   0.922 -12.511  1.00  0.00    -0.370 N 
ATOM     78  H   UNL     1      -4.559   0.224 -12.791  1.00  0.00     0.159 HD
ATOM     79  H   UNL     1      -5.821  -0.636 -11.969  1.00  0.00     0.159 HD
ATOM     80  H   UNL     1      -8.335   1.605 -12.694  1.00  0.00     0.159 HD
ATOM     81  H   UNL     1      -7.908   0.027 -12.156  1.00  0.00     0.159 HD
ENDBRANCH  73  74
ENDBRANCH  72  73
ENDBRANCH  71  72
ENDBRANCH  45  71
ENDBRANCH   3  45
TORSDOF 20
ENDMDL
MODEL 50
REMARK VINA RESULT:    -5.252      3.063      5.979
REMARK INTER + INTRA:         -21.898
REMARK INTER:                 -16.628
REMARK INTRA:                  -5.269
REMARK UNBOUND:                -6.822
REMARK SMILES CCCCCC(=O)N[C@H](CC(=O)O)C(=O)N[C@H]1C(=O)N[C@H](CCCN=C(N)N)C(=O)N[C@@H]2CC[C@H](O)N(C2=O)[C@@H](CC(C)C)C(=O)N(C)[C@@H](Cc2ccccc2)C(=O)N[C@H](C(C)C)C(=O)O[C@@H]1C
REMARK SMILES IDX 30 1 31 2 29 3 32 5 35 6 37 7 34 8 38 9 33 10 39 11 36 12
REMARK SMILES IDX 40 14 41 15 42 16 43 17 44 18 45 19 46 20 47 21 48 22 49 23
REMARK SMILES IDX 50 24 51 25 52 26 56 27 53 28 55 29 54 30 57 31 58 32 59 33
REMARK SMILES IDX 60 35 61 36 62 37 63 38 64 39 65 40 66 41 67 42 68 43 21 45
REMARK SMILES IDX 20 46 18 47 19 48 17 50 16 52 14 53 15 54 9 56 8 57 6 58
REMARK SMILES IDX 7 59 5 61 4 62 3 63 2 64 1 65 10 66 11 67 12 68 13 69 22 71
REMARK SMILES IDX 23 72 24 73 25 74 26 75 27 76 28 77
REMARK H PARENT 31 4 36 13 59 34 20 49 16 55 8 60 13 70 27 78 27 79 28 80
REMARK H PARENT 28 81
REMARK Flexibility Score:  259.900
ROOT
ATOM      1  O   UNL     1      -7.385  -2.124  -1.357  1.00  0.00    -0.273 OA
ATOM      2  N   UNL     1      -9.554  -2.790  -1.066  1.00  0.00    -0.343 N 
ATOM      3  C   UNL     1      -8.588  -1.923  -1.530  1.00  0.00     0.243 C 
ATOM      4  H   UNL     1     -10.533  -2.600  -1.240  1.00  0.00     0.164 HD
ENDROOT
BRANCH   2   5
ATOM      5  C   UNL     1      -9.189  -3.934  -0.238  1.00  0.00     0.171 C 
ATOM      6  C   UNL     1     -10.714  -6.166   0.810  1.00  0.00     0.214 C 
ATOM      7  N   UNL     1     -10.584  -4.963   1.598  1.00  0.00    -0.303 N 
ATOM      8  C   UNL     1      -9.522  -6.423  -0.099  1.00  0.00     0.057 C 
ATOM      9  C   UNL     1      -9.913  -3.842   1.136  1.00  0.00     0.247 C 
ATOM     10  C   UNL     1      -9.316  -5.240  -1.020  1.00  0.00     0.040 C 
ATOM     11  O   UNL     1      -9.879  -2.786   1.781  1.00  0.00    -0.272 OA
BRANCH   6  12
ATOM     12  O   UNL     1     -11.896  -6.058   0.052  1.00  0.00    -0.373 OA
ATOM     13  H   UNL     1     -11.745  -5.359  -0.619  1.00  0.00     0.213 HD
ENDBRANCH   6  12
BRANCH   7  14
ATOM     14  C   UNL     1     -11.326  -4.914   2.875  1.00  0.00     0.177 C 
BRANCH  14  15
ATOM     15  C   UNL     1     -12.839  -4.653   2.745  1.00  0.00     0.038 C 
BRANCH  15  16
ATOM     16  C   UNL     1     -13.392  -3.234   3.005  1.00  0.00    -0.015 C 
ATOM     17  C   UNL     1     -13.358  -2.355   1.752  1.00  0.00     0.007 C 
ATOM     18  C   UNL     1     -12.562  -2.547   4.097  1.00  0.00     0.007 C 
ENDBRANCH  15  16
ENDBRANCH  14  15
BRANCH  14  19
ATOM     19  C   UNL     1     -10.657  -5.862   3.929  1.00  0.00     0.245 C 
ATOM     20  O   UNL     1      -9.427  -5.761   4.072  1.00  0.00    -0.272 OA
BRANCH  19  21
ATOM     21  N   UNL     1     -11.334  -6.859   4.610  1.00  0.00    -0.332 N 
ATOM     22  C   UNL     1     -11.473  -8.235   4.169  1.00  0.00     0.147 C 
BRANCH  21  23
ATOM     23  C   UNL     1     -11.989  -6.501   5.898  1.00  0.00     0.178 C 
BRANCH  23  24
ATOM     24  C   UNL     1     -13.482  -6.877   5.991  1.00  0.00     0.070 C 
BRANCH  24  25
ATOM     25  C   UNL     1     -14.416  -5.848   6.583  1.00  0.00    -0.045 A 
ATOM     26  C   UNL     1     -15.134  -4.972   5.759  1.00  0.00     0.004 A 
ATOM     27  C   UNL     1     -14.573  -5.753   7.974  1.00  0.00     0.004 A 
ATOM     28  C   UNL     1     -15.982  -4.012   6.315  1.00  0.00     0.000 A 
ATOM     29  C   UNL     1     -15.422  -4.794   8.528  1.00  0.00     0.000 A 
ATOM     30  C   UNL     1     -16.124  -3.922   7.698  1.00  0.00     0.000 A 
ENDBRANCH  24  25
ENDBRANCH  23  24
BRANCH  23  31
ATOM     31  C   UNL     1     -11.142  -6.888   7.134  1.00  0.00     0.243 C 
ATOM     32  O   UNL     1     -10.106  -6.315   7.463  1.00  0.00    -0.273 OA
ATOM     33  N   UNL     1     -11.552  -8.063   7.740  1.00  0.00    -0.341 N 
ATOM     34  H   UNL     1     -12.420  -8.498   7.417  1.00  0.00     0.164 HD
BRANCH  33  35
ATOM     35  C   UNL     1     -10.828  -8.684   8.852  1.00  0.00     0.194 C 
BRANCH  35  36
ATOM     36  C   UNL     1     -10.068  -9.985   8.468  1.00  0.00     0.017 C 
ATOM     37  C   UNL     1      -9.851 -10.077   6.948  1.00  0.00     0.010 C 
ATOM     38  C   UNL     1     -10.796 -11.261   8.907  1.00  0.00     0.010 C 
ENDBRANCH  35  36
BRANCH  35  39
ATOM     39  C   UNL     1     -11.720  -8.882  10.110  1.00  0.00     0.329 C 
ATOM     40  O   UNL     1     -11.299  -8.858  11.260  1.00  0.00    -0.250 OA
BRANCH  39  41
ATOM     41  O   UNL     1     -13.045  -9.001   9.794  1.00  0.00    -0.458 OA
BRANCH  41  42
ATOM     42  C   UNL     1     -13.961  -9.127  10.908  1.00  0.00     0.205 CG0
ATOM     43  C   UNL     1     -15.216  -8.330  10.556  1.00  0.00     0.056 C 
ATOM     44  G   UNL     1     -13.265  -8.600  12.178  1.00  0.00     0.000 G0
ENDBRANCH  41  42
ENDBRANCH  39  41
ENDBRANCH  35  39
ENDBRANCH  33  35
ENDBRANCH  23  31
ENDBRANCH  21  23
ENDBRANCH  19  21
ENDBRANCH  14  19
ENDBRANCH   7  14
ENDBRANCH   2   5
BRANCH   3  45
ATOM     45  C   UNL     1      -9.114  -0.702  -2.296  1.00  0.00     0.171 C 
BRANCH  45  46
ATOM     46  N   UNL     1      -8.253  -0.569  -3.464  1.00  0.00    -0.342 N 
ATOM     47  C   UNL     1      -8.653   0.084  -4.603  1.00  0.00     0.247 C 
ATOM     48  O   UNL     1      -9.735   0.666  -4.695  1.00  0.00    -0.273 OA
ATOM     49  H   UNL     1      -7.327  -0.988  -3.410  1.00  0.00     0.164 HD
BRANCH  47  50
ATOM     50  C   UNL     1      -7.663   0.015  -5.774  1.00  0.00     0.212 CG0
ATOM     51  G   UNL     1      -6.248   0.238  -5.203  1.00  0.00     0.000 G0
BRANCH  50  52
ATOM     52  N   UNL     1      -7.846  -1.309  -6.362  1.00  0.00    -0.339 N 
ATOM     53  C   UNL     1      -7.862  -1.540  -7.716  1.00  0.00     0.243 C 
ATOM     54  O   UNL     1      -7.776  -0.635  -8.542  1.00  0.00    -0.273 OA
ATOM     55  H   UNL     1      -8.034  -2.085  -5.730  1.00  0.00     0.164 HD
BRANCH  53  56
ATOM     56  C   UNL     1      -8.157  -3.004  -8.100  1.00  0.00     0.182 C 
BRANCH  56  57
ATOM     57  N   UNL     1      -6.978  -3.639  -8.697  1.00  0.00    -0.344 N 
ATOM     58  C   UNL     1      -6.034  -4.294  -7.943  1.00  0.00     0.220 C 
ATOM     59  O   UNL     1      -6.072  -4.330  -6.718  1.00  0.00    -0.275 OA
ATOM     60  H   UNL     1      -6.961  -3.719  -9.710  1.00  0.00     0.164 HD
BRANCH  58  61
ATOM     61  C   UNL     1      -4.933  -4.925  -8.775  1.00  0.00     0.100 C 
BRANCH  61  62
ATOM     62  C   UNL     1      -3.540  -4.790  -8.158  1.00  0.00     0.010 C 
BRANCH  62  63
ATOM     63  C   UNL     1      -2.882  -3.424  -8.388  1.00  0.00     0.000 C 
BRANCH  63  64
ATOM     64  C   UNL     1      -3.648  -2.511  -9.344  1.00  0.00    -0.003 C 
ATOM     65  C   UNL     1      -2.925  -2.370 -10.675  1.00  0.00     0.004 C 
ENDBRANCH  63  64
ENDBRANCH  62  63
ENDBRANCH  61  62
ENDBRANCH  58  61
ENDBRANCH  56  57
BRANCH  56  66
ATOM     66  C   UNL     1      -9.387  -3.110  -9.000  1.00  0.00     0.157 C 
BRANCH  66  67
ATOM     67  C   UNL     1      -8.995  -3.368 -10.427  1.00  0.00     0.305 C 
ATOM     68  O   UNL     1      -9.094  -4.423 -11.034  1.00  0.00    -0.252 OA
BRANCH  67  69
ATOM     69  O   UNL     1      -8.542  -2.259 -11.042  1.00  0.00    -0.481 OA
ATOM     70  H   UNL     1      -9.170  -2.108 -11.780  1.00  0.00     0.296 HD
ENDBRANCH  67  69
ENDBRANCH  66  67
ENDBRANCH  56  66
ENDBRANCH  53  56
ENDBRANCH  50  52
ENDBRANCH  47  50
ENDBRANCH  45  46
BRANCH  45  71
ATOM     71  C   UNL     1      -9.061   0.547  -1.410  1.00  0.00     0.037 C 
BRANCH  71  72
ATOM     72  C   UNL     1      -7.644   0.837  -0.907  1.00  0.00     0.026 C 
BRANCH  72  73
ATOM     73  C   UNL     1      -7.609   0.993   0.611  1.00  0.00     0.146 C 
BRANCH  73  74
ATOM     74  N   UNL     1      -8.763   0.287   1.160  1.00  0.00    -0.254 NA
ATOM     75  C   UNL     1      -9.105   0.546   2.368  1.00  0.00     0.185 C 
ATOM     76  N   UNL     1     -10.163  -0.087   2.900  1.00  0.00    -0.370 N 
ATOM     77  N   UNL     1      -8.544   1.401   3.240  1.00  0.00    -0.370 N 
ATOM     78  H   UNL     1     -10.640  -0.755   2.312  1.00  0.00     0.159 HD
ATOM     79  H   UNL     1     -10.401  -0.045   3.875  1.00  0.00     0.159 HD
ATOM     80  H   UNL     1      -7.740   1.950   2.976  1.00  0.00     0.159 HD
ATOM     81  H   UNL     1      -8.972   1.607   4.128  1.00  0.00     0.159 HD
ENDBRANCH  73  74
ENDBRANCH  72  73
ENDBRANCH  71  72
ENDBRANCH  45  71
ENDBRANCH   3  45
TORSDOF 20
ENDMDL
