MODEL 1
REMARK VINA RESULT:    -5.694      0.000      0.000
REMARK INTER + INTRA:         -19.748
REMARK INTER:                 -14.182
REMARK INTRA:                  -5.566
REMARK UNBOUND:                -5.566
REMARK SMILES CCCCCCC[C@H](N)[C@H](O)C(=O)N[C@H](C)C(=O)N(C)[C@H](CC(C)C)C(=O)N[C@@H](Cc1ccc(O)cc1)C(=O)N[C@@H](Cc1ccc(O)cc1)C(=O)O
REMARK SMILES IDX 18 1 17 2 15 3 16 4 14 5 12 6 13 7 10 9 11 10 8 12 9 13 7 16
REMARK SMILES IDX 6 17 5 18 4 19 3 20 2 21 1 22 19 23 20 24 21 25 22 26 23 27
REMARK SMILES IDX 24 28 25 29 26 30 27 31 28 32 29 34 30 35 31 36 32 37 37 38
REMARK SMILES IDX 33 39 36 40 34 41 35 42 38 44 39 45 40 46 41 48 42 49 43 50
REMARK SMILES IDX 44 51 49 52 45 53 48 54 46 55 47 56 50 58 51 59 52 60
REMARK H PARENT 14 8 11 11 9 14 9 15 28 33 35 43 40 47 47 57 52 61
ROOT
ATOM      1  O   UNL     1       3.667  10.407   1.147  1.00  0.00    -0.272 OA
ATOM      2  C   UNL     1       3.130  10.245   2.253  1.00  0.00     0.245 C 
ENDROOT
BRANCH   2   3
ATOM      3  C   UNL     1       2.640  11.494   3.028  1.00  0.00     0.168 C 
ATOM      4  C   UNL     1       3.133  12.773   2.361  1.00  0.00     0.041 C 
BRANCH   3   5
ATOM      5  N   UNL     1       1.208  11.532   3.282  1.00  0.00    -0.342 N 
ATOM      6  C   UNL     1       0.683  11.264   4.528  1.00  0.00     0.251 C 
ATOM      7  O   UNL     1       1.365  10.937   5.494  1.00  0.00    -0.272 OA
ATOM      8  H   UNL     1       0.539  11.757   2.549  1.00  0.00     0.164 HD
BRANCH   6   9
ATOM      9  C   UNL     1      -0.834  11.503   4.598  1.00  0.00     0.219 C 
BRANCH   9  10
ATOM     10  O   UNL     1      -1.284  12.475   3.647  1.00  0.00    -0.382 OA
ATOM     11  H   UNL     1      -0.524  13.092   3.569  1.00  0.00     0.211 HD
ENDBRANCH   9  10
BRANCH   9  12
ATOM     12  C   UNL     1      -1.662  10.196   4.483  1.00  0.00     0.089 C 
BRANCH  12  13
ATOM     13  N   UNL     1      -0.733   9.046   4.563  1.00  0.00    -0.325 NA
ATOM     14  H   UNL     1      -1.022   8.433   5.328  1.00  0.00     0.119 HD
ATOM     15  H   UNL     1       0.193   9.386   4.830  1.00  0.00     0.119 HD
ENDBRANCH  12  13
BRANCH  12  16
ATOM     16  C   UNL     1      -2.808  10.027   5.509  1.00  0.00     0.022 C 
BRANCH  16  17
ATOM     17  C   UNL     1      -4.259  10.211   5.046  1.00  0.00     0.002 C 
BRANCH  17  18
ATOM     18  C   UNL     1      -4.433  10.443   3.547  1.00  0.00     0.000 C 
BRANCH  18  19
ATOM     19  C   UNL     1      -5.888  10.364   3.067  1.00  0.00    -0.000 C 
BRANCH  19  20
ATOM     20  C   UNL     1      -6.904  11.094   3.950  1.00  0.00    -0.000 C 
BRANCH  20  21
ATOM     21  C   UNL     1      -8.070  10.202   4.385  1.00  0.00    -0.003 C 
ATOM     22  C   UNL     1      -8.484  10.493   5.819  1.00  0.00     0.004 C 
ENDBRANCH  20  21
ENDBRANCH  19  20
ENDBRANCH  18  19
ENDBRANCH  17  18
ENDBRANCH  16  17
ENDBRANCH  12  16
ENDBRANCH   9  12
ENDBRANCH   6   9
ENDBRANCH   3   5
ENDBRANCH   2   3
BRANCH   2  23
ATOM     23  N   UNL     1       2.870   8.961   2.718  1.00  0.00    -0.332 N 
ATOM     24  C   UNL     1       3.376   8.418   3.970  1.00  0.00     0.147 C 
BRANCH  23  25
ATOM     25  C   UNL     1       1.916   8.078   1.992  1.00  0.00     0.174 C 
BRANCH  25  26
ATOM     26  C   UNL     1       2.622   6.966   1.182  1.00  0.00     0.038 C 
BRANCH  26  27
ATOM     27  C   UNL     1       2.600   5.542   1.782  1.00  0.00    -0.015 C 
ATOM     28  C   UNL     1       1.248   4.853   1.602  1.00  0.00     0.007 C 
ATOM     29  C   UNL     1       3.730   4.651   1.272  1.00  0.00     0.007 C 
ENDBRANCH  26  27
ENDBRANCH  25  26
BRANCH  25  30
ATOM     30  C   UNL     1       0.935   8.930   1.154  1.00  0.00     0.243 C 
ATOM     31  O   UNL     1      -0.033   9.495   1.661  1.00  0.00    -0.273 OA
ATOM     32  N   UNL     1       1.213   9.008  -0.186  1.00  0.00    -0.342 N 
ATOM     33  H   UNL     1       2.109   8.631  -0.507  1.00  0.00     0.164 HD
BRANCH  32  34
ATOM     34  C   UNL     1       0.378   9.747  -1.137  1.00  0.00     0.175 C 
BRANCH  34  35
ATOM     35  C   UNL     1       0.862  11.197  -1.296  1.00  0.00     0.070 C 
BRANCH  35  36
ATOM     36  C   UNL     1      -0.246  12.208  -1.103  1.00  0.00    -0.045 A 
ATOM     37  C   UNL     1       0.015  13.416  -0.438  1.00  0.00     0.007 A 
ATOM     38  C   UNL     1      -1.544  11.948  -1.560  1.00  0.00     0.007 A 
ATOM     39  C   UNL     1      -1.004  14.349  -0.243  1.00  0.00     0.046 A 
ATOM     40  C   UNL     1      -2.565  12.881  -1.365  1.00  0.00     0.046 A 
ATOM     41  C   UNL     1      -2.285  14.075  -0.708  1.00  0.00     0.115 A 
BRANCH  41  42
ATOM     42  O   UNL     1      -3.252  15.011  -0.495  1.00  0.00    -0.508 OA
ATOM     43  H   UNL     1      -2.844  15.891  -0.556  1.00  0.00     0.293 HD
ENDBRANCH  41  42
ENDBRANCH  35  36
ENDBRANCH  34  35
BRANCH  34  44
ATOM     44  C   UNL     1       0.391   8.984  -2.480  1.00  0.00     0.243 C 
ATOM     45  O   UNL     1       0.391   7.760  -2.583  1.00  0.00    -0.273 OA
ATOM     46  N   UNL     1       0.535   9.806  -3.578  1.00  0.00    -0.341 N 
ATOM     47  H   UNL     1       0.648  10.807  -3.434  1.00  0.00     0.164 HD
BRANCH  46  48
ATOM     48  C   UNL     1       0.641   9.307  -4.950  1.00  0.00     0.196 C 
BRANCH  48  49
ATOM     49  C   UNL     1       0.669  10.462  -5.966  1.00  0.00     0.072 C 
BRANCH  49  50
ATOM     50  C   UNL     1       0.227  11.777  -5.364  1.00  0.00    -0.045 A 
ATOM     51  C   UNL     1      -1.103  12.198  -5.507  1.00  0.00     0.007 A 
ATOM     52  C   UNL     1       1.132  12.597  -4.679  1.00  0.00     0.007 A 
ATOM     53  C   UNL     1      -1.520  13.415  -4.967  1.00  0.00     0.046 A 
ATOM     54  C   UNL     1       0.716  13.816  -4.140  1.00  0.00     0.046 A 
ATOM     55  C   UNL     1      -0.608  14.215  -4.288  1.00  0.00     0.115 A 
BRANCH  55  56
ATOM     56  O   UNL     1      -1.055  15.397  -3.777  1.00  0.00    -0.508 OA
ATOM     57  H   UNL     1      -1.992  15.496  -4.008  1.00  0.00     0.293 HD
ENDBRANCH  55  56
ENDBRANCH  49  50
ENDBRANCH  48  49
BRANCH  48  58
ATOM     58  C   UNL     1       1.924   8.475  -5.081  1.00  0.00     0.326 C 
ATOM     59  O   UNL     1       3.069   8.890  -5.159  1.00  0.00    -0.250 OA
BRANCH  58  60
ATOM     60  O   UNL     1       1.703   7.137  -5.093  1.00  0.00    -0.480 OA
ATOM     61  H   UNL     1       2.023   6.863  -5.980  1.00  0.00     0.296 HD
ENDBRANCH  58  60
ENDBRANCH  48  58
ENDBRANCH  46  48
ENDBRANCH  34  44
ENDBRANCH  32  34
ENDBRANCH  25  30
ENDBRANCH  23  25
ENDBRANCH   2  23
TORSDOF 28
ENDMDL
MODEL 2
REMARK VINA RESULT:    -5.608      3.728     10.830
REMARK INTER + INTRA:         -19.535
REMARK INTER:                 -15.752
REMARK INTRA:                  -3.783
REMARK UNBOUND:                -5.566
REMARK SMILES CCCCCCC[C@H](N)[C@H](O)C(=O)N[C@H](C)C(=O)N(C)[C@H](CC(C)C)C(=O)N[C@@H](Cc1ccc(O)cc1)C(=O)N[C@@H](Cc1ccc(O)cc1)C(=O)O
REMARK SMILES IDX 18 1 17 2 15 3 16 4 14 5 12 6 13 7 10 9 11 10 8 12 9 13 7 16
REMARK SMILES IDX 6 17 5 18 4 19 3 20 2 21 1 22 19 23 20 24 21 25 22 26 23 27
REMARK SMILES IDX 24 28 25 29 26 30 27 31 28 32 29 34 30 35 31 36 32 37 37 38
REMARK SMILES IDX 33 39 36 40 34 41 35 42 38 44 39 45 40 46 41 48 42 49 43 50
REMARK SMILES IDX 44 51 49 52 45 53 48 54 46 55 47 56 50 58 51 59 52 60
REMARK H PARENT 14 8 11 11 9 14 9 15 28 33 35 43 40 47 47 57 52 61
ROOT
ATOM      1  O   UNL     1      -0.529  11.954   4.820  1.00  0.00    -0.272 OA
ATOM      2  C   UNL     1      -0.712  11.440   3.706  1.00  0.00     0.245 C 
ENDROOT
BRANCH   2   3
ATOM      3  C   UNL     1      -0.353  12.262   2.443  1.00  0.00     0.168 C 
ATOM      4  C   UNL     1       1.156  12.291   2.227  1.00  0.00     0.041 C 
BRANCH   3   5
ATOM      5  N   UNL     1      -1.066  11.871   1.237  1.00  0.00    -0.342 N 
ATOM      6  C   UNL     1      -1.450  12.794   0.288  1.00  0.00     0.251 C 
ATOM      7  O   UNL     1      -1.262  14.001   0.402  1.00  0.00    -0.272 OA
ATOM      8  H   UNL     1      -1.309  10.902   1.048  1.00  0.00     0.164 HD
BRANCH   6   9
ATOM      9  C   UNL     1      -2.060  12.142  -0.964  1.00  0.00     0.219 C 
BRANCH   9  10
ATOM     10  O   UNL     1      -3.023  12.981  -1.611  1.00  0.00    -0.382 OA
ATOM     11  H   UNL     1      -3.265  13.633  -0.917  1.00  0.00     0.211 HD
ENDBRANCH   9  10
BRANCH   9  12
ATOM     12  C   UNL     1      -0.992  11.648  -1.974  1.00  0.00     0.089 C 
BRANCH  12  13
ATOM     13  N   UNL     1       0.349  11.950  -1.423  1.00  0.00    -0.325 NA
ATOM     14  H   UNL     1       0.995  12.135  -2.192  1.00  0.00     0.119 HD
ATOM     15  H   UNL     1       0.714  11.113  -0.962  1.00  0.00     0.119 HD
ENDBRANCH  12  13
BRANCH  12  16
ATOM     16  C   UNL     1      -1.077  10.156  -2.376  1.00  0.00     0.022 C 
BRANCH  16  17
ATOM     17  C   UNL     1       0.126   9.241  -2.109  1.00  0.00     0.002 C 
BRANCH  17  18
ATOM     18  C   UNL     1       0.669   8.515  -3.338  1.00  0.00     0.000 C 
BRANCH  18  19
ATOM     19  C   UNL     1       0.747   9.390  -4.596  1.00  0.00    -0.000 C 
BRANCH  19  20
ATOM     20  C   UNL     1       1.866   9.022  -5.575  1.00  0.00    -0.000 C 
BRANCH  20  21
ATOM     21  C   UNL     1       2.423   7.614  -5.348  1.00  0.00    -0.003 C 
ATOM     22  C   UNL     1       3.944   7.616  -5.323  1.00  0.00     0.004 C 
ENDBRANCH  20  21
ENDBRANCH  19  20
ENDBRANCH  18  19
ENDBRANCH  17  18
ENDBRANCH  16  17
ENDBRANCH  12  16
ENDBRANCH   9  12
ENDBRANCH   6   9
ENDBRANCH   3   5
ENDBRANCH   2   3
BRANCH   2  23
ATOM     23  N   UNL     1      -1.113  10.112   3.611  1.00  0.00    -0.332 N 
ATOM     24  C   UNL     1      -0.240   9.011   3.227  1.00  0.00     0.147 C 
BRANCH  23  25
ATOM     25  C   UNL     1      -2.482   9.708   4.034  1.00  0.00     0.174 C 
BRANCH  25  26
ATOM     26  C   UNL     1      -3.581  10.658   3.502  1.00  0.00     0.038 C 
BRANCH  26  27
ATOM     27  C   UNL     1      -4.637  10.045   2.556  1.00  0.00    -0.015 C 
ATOM     28  C   UNL     1      -6.023   9.973   3.196  1.00  0.00     0.007 C 
ATOM     29  C   UNL     1      -4.708  10.735   1.196  1.00  0.00     0.007 C 
ENDBRANCH  26  27
ENDBRANCH  25  26
BRANCH  25  30
ATOM     30  C   UNL     1      -2.526   9.502   5.565  1.00  0.00     0.243 C 
ATOM     31  O   UNL     1      -2.066   8.494   6.099  1.00  0.00    -0.273 OA
ATOM     32  N   UNL     1      -3.115  10.511   6.283  1.00  0.00    -0.342 N 
ATOM     33  H   UNL     1      -3.344  11.375   5.785  1.00  0.00     0.164 HD
BRANCH  32  34
ATOM     34  C   UNL     1      -3.270  10.475   7.740  1.00  0.00     0.175 C 
BRANCH  34  35
ATOM     35  C   UNL     1      -2.253  11.395   8.433  1.00  0.00     0.070 C 
BRANCH  35  36
ATOM     36  C   UNL     1      -1.610  10.751   9.640  1.00  0.00    -0.045 A 
ATOM     37  C   UNL     1      -0.562  11.403  10.308  1.00  0.00     0.007 A 
ATOM     38  C   UNL     1      -2.031   9.495  10.095  1.00  0.00     0.007 A 
ATOM     39  C   UNL     1       0.047  10.810  11.415  1.00  0.00     0.046 A 
ATOM     40  C   UNL     1      -1.421   8.900  11.202  1.00  0.00     0.046 A 
ATOM     41  C   UNL     1      -0.387   9.565  11.853  1.00  0.00     0.115 A 
BRANCH  41  42
ATOM     42  O   UNL     1       0.237   9.020  12.936  1.00  0.00    -0.508 OA
ATOM     43  H   UNL     1       0.568   8.141  12.686  1.00  0.00     0.293 HD
ENDBRANCH  41  42
ENDBRANCH  35  36
ENDBRANCH  34  35
BRANCH  34  44
ATOM     44  C   UNL     1      -4.726  10.866   8.076  1.00  0.00     0.243 C 
ATOM     45  O   UNL     1      -5.415  10.310   8.927  1.00  0.00    -0.273 OA
ATOM     46  N   UNL     1      -5.244  11.828   7.235  1.00  0.00    -0.341 N 
ATOM     47  H   UNL     1      -4.672  12.175   6.470  1.00  0.00     0.164 HD
BRANCH  46  48
ATOM     48  C   UNL     1      -6.625  12.310   7.316  1.00  0.00     0.196 C 
BRANCH  48  49
ATOM     49  C   UNL     1      -7.629  11.187   7.007  1.00  0.00     0.072 C 
BRANCH  49  50
ATOM     50  C   UNL     1      -8.359  11.403   5.700  1.00  0.00    -0.045 A 
ATOM     51  C   UNL     1      -9.295  10.457   5.258  1.00  0.00     0.007 A 
ATOM     52  C   UNL     1      -8.100  12.528   4.907  1.00  0.00     0.007 A 
ATOM     53  C   UNL     1      -9.964  10.638   4.047  1.00  0.00     0.046 A 
ATOM     54  C   UNL     1      -8.769  12.709   3.694  1.00  0.00     0.046 A 
ATOM     55  C   UNL     1      -9.697  11.762   3.275  1.00  0.00     0.115 A 
BRANCH  55  56
ATOM     56  O   UNL     1     -10.371  11.901   2.098  1.00  0.00    -0.508 OA
ATOM     57  H   UNL     1     -10.227  11.102   1.567  1.00  0.00     0.293 HD
ENDBRANCH  55  56
ENDBRANCH  49  50
ENDBRANCH  48  49
BRANCH  48  58
ATOM     58  C   UNL     1      -6.882  12.855   8.728  1.00  0.00     0.326 C 
ATOM     59  O   UNL     1      -6.344  13.813   9.259  1.00  0.00    -0.250 OA
BRANCH  58  60
ATOM     60  O   UNL     1      -7.831  12.166   9.410  1.00  0.00    -0.480 OA
ATOM     61  H   UNL     1      -7.329  11.765  10.152  1.00  0.00     0.296 HD
ENDBRANCH  58  60
ENDBRANCH  48  58
ENDBRANCH  46  48
ENDBRANCH  34  44
ENDBRANCH  32  34
ENDBRANCH  25  30
ENDBRANCH  23  25
ENDBRANCH   2  23
TORSDOF 28
ENDMDL
MODEL 3
REMARK VINA RESULT:    -5.512      6.301     11.966
REMARK INTER + INTRA:         -19.295
REMARK INTER:                 -11.916
REMARK INTRA:                  -7.378
REMARK UNBOUND:                -5.566
REMARK SMILES CCCCCCC[C@H](N)[C@H](O)C(=O)N[C@H](C)C(=O)N(C)[C@H](CC(C)C)C(=O)N[C@@H](Cc1ccc(O)cc1)C(=O)N[C@@H](Cc1ccc(O)cc1)C(=O)O
REMARK SMILES IDX 18 1 17 2 15 3 16 4 14 5 12 6 13 7 10 9 11 10 8 12 9 13 7 16
REMARK SMILES IDX 6 17 5 18 4 19 3 20 2 21 1 22 19 23 20 24 21 25 22 26 23 27
REMARK SMILES IDX 24 28 25 29 26 30 27 31 28 32 29 34 30 35 31 36 32 37 37 38
REMARK SMILES IDX 33 39 36 40 34 41 35 42 38 44 39 45 40 46 41 48 42 49 43 50
REMARK SMILES IDX 44 51 49 52 45 53 48 54 46 55 47 56 50 58 51 59 52 60
REMARK H PARENT 14 8 11 11 9 14 9 15 28 33 35 43 40 47 47 57 52 61
ROOT
ATOM      1  O   UNL     1      -8.857   9.658   5.550  1.00  0.00    -0.272 OA
ATOM      2  C   UNL     1      -7.917  10.462   5.638  1.00  0.00     0.245 C 
ENDROOT
BRANCH   2   3
ATOM      3  C   UNL     1      -6.990  10.656   4.412  1.00  0.00     0.168 C 
ATOM      4  C   UNL     1      -7.508  11.773   3.513  1.00  0.00     0.041 C 
BRANCH   3   5
ATOM      5  N   UNL     1      -5.582  10.826   4.731  1.00  0.00    -0.342 N 
ATOM      6  C   UNL     1      -4.586  10.467   3.847  1.00  0.00     0.251 C 
ATOM      7  O   UNL     1      -4.804   9.947   2.758  1.00  0.00    -0.272 OA
ATOM      8  H   UNL     1      -5.277  11.215   5.620  1.00  0.00     0.164 HD
BRANCH   6   9
ATOM      9  C   UNL     1      -3.185  10.868   4.335  1.00  0.00     0.219 C 
BRANCH   9  10
ATOM     10  O   UNL     1      -3.119  11.025   5.758  1.00  0.00    -0.382 OA
ATOM     11  H   UNL     1      -3.246  11.990   5.890  1.00  0.00     0.211 HD
ENDBRANCH   9  10
BRANCH   9  12
ATOM     12  C   UNL     1      -2.070   9.913   3.835  1.00  0.00     0.089 C 
BRANCH  12  13
ATOM     13  N   UNL     1      -1.854  10.162   2.391  1.00  0.00    -0.325 NA
ATOM     14  H   UNL     1      -1.137   9.523   2.043  1.00  0.00     0.119 HD
ATOM     15  H   UNL     1      -1.457  11.098   2.273  1.00  0.00     0.119 HD
ENDBRANCH  12  13
BRANCH  12  16
ATOM     16  C   UNL     1      -0.723   9.986   4.594  1.00  0.00     0.022 C 
BRANCH  16  17
ATOM     17  C   UNL     1      -0.219   8.744   5.343  1.00  0.00     0.002 C 
BRANCH  17  18
ATOM     18  C   UNL     1      -0.160   8.886   6.862  1.00  0.00     0.000 C 
BRANCH  18  19
ATOM     19  C   UNL     1       0.993   8.115   7.517  1.00  0.00    -0.000 C 
BRANCH  19  20
ATOM     20  C   UNL     1       0.583   7.176   8.655  1.00  0.00    -0.000 C 
BRANCH  20  21
ATOM     21  C   UNL     1       0.831   7.772  10.043  1.00  0.00    -0.003 C 
ATOM     22  C   UNL     1      -0.388   8.527  10.549  1.00  0.00     0.004 C 
ENDBRANCH  20  21
ENDBRANCH  19  20
ENDBRANCH  18  19
ENDBRANCH  17  18
ENDBRANCH  16  17
ENDBRANCH  12  16
ENDBRANCH   9  12
ENDBRANCH   6   9
ENDBRANCH   3   5
ENDBRANCH   2   3
BRANCH   2  23
ATOM     23  N   UNL     1      -7.784  11.256   6.773  1.00  0.00    -0.332 N 
ATOM     24  C   UNL     1      -8.068  12.682   6.821  1.00  0.00     0.147 C 
BRANCH  23  25
ATOM     25  C   UNL     1      -7.450  10.639   8.086  1.00  0.00     0.174 C 
BRANCH  25  26
ATOM     26  C   UNL     1      -8.117  11.363   9.278  1.00  0.00     0.038 C 
BRANCH  26  27
ATOM     27  C   UNL     1      -7.212  11.714  10.480  1.00  0.00    -0.015 C 
ATOM     28  C   UNL     1      -6.834  13.194  10.514  1.00  0.00     0.007 C 
ATOM     29  C   UNL     1      -7.789  11.276  11.824  1.00  0.00     0.007 C 
ENDBRANCH  26  27
ENDBRANCH  25  26
BRANCH  25  30
ATOM     30  C   UNL     1      -5.918  10.488   8.228  1.00  0.00     0.243 C 
ATOM     31  O   UNL     1      -5.134  11.170   7.570  1.00  0.00    -0.273 OA
ATOM     32  N   UNL     1      -5.496   9.544   9.129  1.00  0.00    -0.342 N 
ATOM     33  H   UNL     1      -6.202   9.121   9.737  1.00  0.00     0.164 HD
BRANCH  32  34
ATOM     34  C   UNL     1      -4.082   9.246   9.375  1.00  0.00     0.175 C 
BRANCH  34  35
ATOM     35  C   UNL     1      -3.425   8.602   8.145  1.00  0.00     0.070 C 
BRANCH  35  36
ATOM     36  C   UNL     1      -3.136   7.131   8.339  1.00  0.00    -0.045 A 
ATOM     37  C   UNL     1      -2.723   6.347   7.251  1.00  0.00     0.007 A 
ATOM     38  C   UNL     1      -3.296   6.526   9.593  1.00  0.00     0.007 A 
ATOM     39  C   UNL     1      -2.467   4.985   7.418  1.00  0.00     0.046 A 
ATOM     40  C   UNL     1      -3.041   5.163   9.761  1.00  0.00     0.046 A 
ATOM     41  C   UNL     1      -2.627   4.405   8.670  1.00  0.00     0.115 A 
BRANCH  41  42
ATOM     42  O   UNL     1      -2.370   3.071   8.790  1.00  0.00    -0.508 OA
ATOM     43  H   UNL     1      -1.930   2.921   9.643  1.00  0.00     0.293 HD
ENDBRANCH  41  42
ENDBRANCH  35  36
ENDBRANCH  34  35
BRANCH  34  44
ATOM     44  C   UNL     1      -3.380  10.561   9.783  1.00  0.00     0.243 C 
ATOM     45  O   UNL     1      -3.608  11.175  10.822  1.00  0.00    -0.273 OA
ATOM     46  N   UNL     1      -2.551  11.067   8.804  1.00  0.00    -0.341 N 
ATOM     47  H   UNL     1      -2.485  10.582   7.913  1.00  0.00     0.164 HD
BRANCH  46  48
ATOM     48  C   UNL     1      -1.831  12.336   8.935  1.00  0.00     0.196 C 
BRANCH  48  49
ATOM     49  C   UNL     1      -0.457  12.273   8.248  1.00  0.00     0.072 C 
BRANCH  49  50
ATOM     50  C   UNL     1       0.651  11.880   9.198  1.00  0.00    -0.045 A 
ATOM     51  C   UNL     1       0.476  12.040  10.580  1.00  0.00     0.007 A 
ATOM     52  C   UNL     1       1.867  11.376   8.718  1.00  0.00     0.007 A 
ATOM     53  C   UNL     1       1.497  11.693  11.466  1.00  0.00     0.046 A 
ATOM     54  C   UNL     1       2.889  11.030   9.605  1.00  0.00     0.046 A 
ATOM     55  C   UNL     1       2.695  11.191  10.972  1.00  0.00     0.115 A 
BRANCH  55  56
ATOM     56  O   UNL     1       3.668  10.866  11.871  1.00  0.00    -0.508 OA
ATOM     57  H   UNL     1       3.444  10.009  12.268  1.00  0.00     0.293 HD
ENDBRANCH  55  56
ENDBRANCH  49  50
ENDBRANCH  48  49
BRANCH  48  58
ATOM     58  C   UNL     1      -2.672  13.454   8.304  1.00  0.00     0.326 C 
ATOM     59  O   UNL     1      -3.483  14.175   8.864  1.00  0.00    -0.250 OA
BRANCH  58  60
ATOM     60  O   UNL     1      -2.438  13.625   6.979  1.00  0.00    -0.480 OA
ATOM     61  H   UNL     1      -1.475  13.455   6.896  1.00  0.00     0.296 HD
ENDBRANCH  58  60
ENDBRANCH  48  58
ENDBRANCH  46  48
ENDBRANCH  34  44
ENDBRANCH  32  34
ENDBRANCH  25  30
ENDBRANCH  23  25
ENDBRANCH   2  23
TORSDOF 28
ENDMDL
MODEL 4
REMARK VINA RESULT:    -5.342      4.974      8.012
REMARK INTER + INTRA:         -18.872
REMARK INTER:                 -13.328
REMARK INTRA:                  -5.544
REMARK UNBOUND:                -5.566
REMARK SMILES CCCCCCC[C@H](N)[C@H](O)C(=O)N[C@H](C)C(=O)N(C)[C@H](CC(C)C)C(=O)N[C@@H](Cc1ccc(O)cc1)C(=O)N[C@@H](Cc1ccc(O)cc1)C(=O)O
REMARK SMILES IDX 18 1 17 2 15 3 16 4 14 5 12 6 13 7 10 9 11 10 8 12 9 13 7 16
REMARK SMILES IDX 6 17 5 18 4 19 3 20 2 21 1 22 19 23 20 24 21 25 22 26 23 27
REMARK SMILES IDX 24 28 25 29 26 30 27 31 28 32 29 34 30 35 31 36 32 37 37 38
REMARK SMILES IDX 33 39 36 40 34 41 35 42 38 44 39 45 40 46 41 48 42 49 43 50
REMARK SMILES IDX 44 51 49 52 45 53 48 54 46 55 47 56 50 58 51 59 52 60
REMARK H PARENT 14 8 11 11 9 14 9 15 28 33 35 43 40 47 47 57 52 61
ROOT
ATOM      1  O   UNL     1       3.261   7.313   4.480  1.00  0.00    -0.272 OA
ATOM      2  C   UNL     1       3.410   8.474   4.887  1.00  0.00     0.245 C 
ENDROOT
BRANCH   2   3
ATOM      3  C   UNL     1       3.120   9.644   3.913  1.00  0.00     0.168 C 
ATOM      4  C   UNL     1       4.146   9.677   2.786  1.00  0.00     0.041 C 
BRANCH   3   5
ATOM      5  N   UNL     1       1.757   9.693   3.407  1.00  0.00    -0.342 N 
ATOM      6  C   UNL     1       0.819  10.562   3.924  1.00  0.00     0.251 C 
ATOM      7  O   UNL     1       1.044  11.319   4.862  1.00  0.00    -0.272 OA
ATOM      8  H   UNL     1       1.443   9.087   2.652  1.00  0.00     0.164 HD
BRANCH   6   9
ATOM      9  C   UNL     1      -0.505  10.540   3.143  1.00  0.00     0.219 C 
BRANCH   9  10
ATOM     10  O   UNL     1      -0.700   9.320   2.419  1.00  0.00    -0.382 OA
ATOM     11  H   UNL     1      -1.643   9.100   2.586  1.00  0.00     0.211 HD
ENDBRANCH   9  10
BRANCH   9  12
ATOM     12  C   UNL     1      -1.738  10.859   4.028  1.00  0.00     0.089 C 
BRANCH  12  13
ATOM     13  N   UNL     1      -1.739  12.310   4.323  1.00  0.00    -0.325 NA
ATOM     14  H   UNL     1      -1.003  12.764   3.779  1.00  0.00     0.119 HD
ATOM     15  H   UNL     1      -1.472  12.449   5.301  1.00  0.00     0.119 HD
ENDBRANCH  12  13
BRANCH  12  16
ATOM     16  C   UNL     1      -3.111  10.433   3.456  1.00  0.00     0.022 C 
BRANCH  16  17
ATOM     17  C   UNL     1      -4.336  10.425   4.381  1.00  0.00     0.002 C 
BRANCH  17  18
ATOM     18  C   UNL     1      -4.031  10.148   5.852  1.00  0.00     0.000 C 
BRANCH  18  19
ATOM     19  C   UNL     1      -5.222  10.381   6.791  1.00  0.00    -0.000 C 
BRANCH  19  20
ATOM     20  C   UNL     1      -6.539  10.737   6.095  1.00  0.00    -0.000 C 
BRANCH  20  21
ATOM     21  C   UNL     1      -7.726  10.811   7.059  1.00  0.00    -0.003 C 
ATOM     22  C   UNL     1      -8.839   9.862   6.643  1.00  0.00     0.004 C 
ENDBRANCH  20  21
ENDBRANCH  19  20
ENDBRANCH  18  19
ENDBRANCH  17  18
ENDBRANCH  16  17
ENDBRANCH  12  16
ENDBRANCH   9  12
ENDBRANCH   6   9
ENDBRANCH   3   5
ENDBRANCH   2   3
BRANCH   2  23
ATOM     23  N   UNL     1       3.712   8.710   6.224  1.00  0.00    -0.332 N 
ATOM     24  C   UNL     1       2.783   9.270   7.194  1.00  0.00     0.147 C 
BRANCH  23  25
ATOM     25  C   UNL     1       5.016   8.266   6.789  1.00  0.00     0.174 C 
BRANCH  25  26
ATOM     26  C   UNL     1       6.195   8.462   5.808  1.00  0.00     0.038 C 
BRANCH  26  27
ATOM     27  C   UNL     1       6.792   7.188   5.167  1.00  0.00    -0.015 C 
ATOM     28  C   UNL     1       6.819   7.260   3.641  1.00  0.00     0.007 C 
ATOM     29  C   UNL     1       8.170   6.823   5.712  1.00  0.00     0.007 C 
ENDBRANCH  26  27
ENDBRANCH  25  26
BRANCH  25  30
ATOM     30  C   UNL     1       4.896   6.826   7.337  1.00  0.00     0.243 C 
ATOM     31  O   UNL     1       5.638   6.403   8.223  1.00  0.00    -0.273 OA
ATOM     32  N   UNL     1       3.916   6.054   6.767  1.00  0.00    -0.342 N 
ATOM     33  H   UNL     1       3.251   6.517   6.142  1.00  0.00     0.164 HD
BRANCH  32  34
ATOM     34  C   UNL     1       3.675   4.658   7.142  1.00  0.00     0.175 C 
BRANCH  34  35
ATOM     35  C   UNL     1       2.207   4.429   7.533  1.00  0.00     0.070 C 
BRANCH  35  36
ATOM     36  C   UNL     1       1.243   5.201   6.661  1.00  0.00    -0.045 A 
ATOM     37  C   UNL     1       0.674   6.395   7.130  1.00  0.00     0.007 A 
ATOM     38  C   UNL     1       0.886   4.730   5.391  1.00  0.00     0.007 A 
ATOM     39  C   UNL     1      -0.228   7.107   6.339  1.00  0.00     0.046 A 
ATOM     40  C   UNL     1      -0.017   5.441   4.598  1.00  0.00     0.046 A 
ATOM     41  C   UNL     1      -0.565   6.625   5.079  1.00  0.00     0.115 A 
BRANCH  41  42
ATOM     42  O   UNL     1      -1.452   7.350   4.339  1.00  0.00    -0.508 OA
ATOM     43  H   UNL     1      -2.009   6.730   3.838  1.00  0.00     0.293 HD
ENDBRANCH  41  42
ENDBRANCH  35  36
ENDBRANCH  34  35
BRANCH  34  44
ATOM     44  C   UNL     1       4.103   3.763   5.957  1.00  0.00     0.243 C 
ATOM     45  O   UNL     1       4.232   2.544   6.019  1.00  0.00    -0.273 OA
ATOM     46  N   UNL     1       4.461   4.477   4.832  1.00  0.00    -0.341 N 
ATOM     47  H   UNL     1       4.449   5.493   4.867  1.00  0.00     0.164 HD
BRANCH  46  48
ATOM     48  C   UNL     1       4.964   3.851   3.608  1.00  0.00     0.196 C 
BRANCH  48  49
ATOM     49  C   UNL     1       4.542   4.644   2.359  1.00  0.00     0.072 C 
BRANCH  49  50
ATOM     50  C   UNL     1       3.121   4.349   1.935  1.00  0.00    -0.045 A 
ATOM     51  C   UNL     1       2.256   5.403   1.607  1.00  0.00     0.007 A 
ATOM     52  C   UNL     1       2.643   3.033   1.884  1.00  0.00     0.007 A 
ATOM     53  C   UNL     1       0.940   5.144   1.227  1.00  0.00     0.046 A 
ATOM     54  C   UNL     1       1.324   2.774   1.505  1.00  0.00     0.046 A 
ATOM     55  C   UNL     1       0.483   3.832   1.179  1.00  0.00     0.115 A 
BRANCH  55  56
ATOM     56  O   UNL     1      -0.811   3.622   0.804  1.00  0.00    -0.508 OA
ATOM     57  H   UNL     1      -1.076   2.738   1.105  1.00  0.00     0.293 HD
ENDBRANCH  55  56
ENDBRANCH  49  50
ENDBRANCH  48  49
BRANCH  48  58
ATOM     58  C   UNL     1       6.496   3.778   3.677  1.00  0.00     0.326 C 
ATOM     59  O   UNL     1       7.282   3.832   2.745  1.00  0.00    -0.250 OA
BRANCH  58  60
ATOM     60  O   UNL     1       6.975   3.651   4.941  1.00  0.00    -0.480 OA
ATOM     61  H   UNL     1       7.494   2.819   4.904  1.00  0.00     0.296 HD
ENDBRANCH  58  60
ENDBRANCH  48  58
ENDBRANCH  46  48
ENDBRANCH  34  44
ENDBRANCH  32  34
ENDBRANCH  25  30
ENDBRANCH  23  25
ENDBRANCH   2  23
TORSDOF 28
ENDMDL
MODEL 5
REMARK VINA RESULT:    -5.311     11.825     16.427
REMARK INTER + INTRA:         -18.794
REMARK INTER:                 -14.889
REMARK INTRA:                  -3.905
REMARK UNBOUND:                -5.566
REMARK SMILES CCCCCCC[C@H](N)[C@H](O)C(=O)N[C@H](C)C(=O)N(C)[C@H](CC(C)C)C(=O)N[C@@H](Cc1ccc(O)cc1)C(=O)N[C@@H](Cc1ccc(O)cc1)C(=O)O
REMARK SMILES IDX 18 1 17 2 15 3 16 4 14 5 12 6 13 7 10 9 11 10 8 12 9 13 7 16
REMARK SMILES IDX 6 17 5 18 4 19 3 20 2 21 1 22 19 23 20 24 21 25 22 26 23 27
REMARK SMILES IDX 24 28 25 29 26 30 27 31 28 32 29 34 30 35 31 36 32 37 37 38
REMARK SMILES IDX 33 39 36 40 34 41 35 42 38 44 39 45 40 46 41 48 42 49 43 50
REMARK SMILES IDX 44 51 49 52 45 53 48 54 46 55 47 56 50 58 51 59 52 60
REMARK H PARENT 14 8 11 11 9 14 9 15 28 33 35 43 40 47 47 57 52 61
ROOT
ATOM      1  O   UNL     1      -7.103  -1.365  11.043  1.00  0.00    -0.272 OA
ATOM      2  C   UNL     1      -5.883  -1.258  11.236  1.00  0.00     0.245 C 
ENDROOT
BRANCH   2   3
ATOM      3  C   UNL     1      -5.365  -0.046  12.051  1.00  0.00     0.168 C 
ATOM      4  C   UNL     1      -3.881   0.188  11.788  1.00  0.00     0.041 C 
BRANCH   3   5
ATOM      5  N   UNL     1      -6.142   1.173  11.893  1.00  0.00    -0.342 N 
ATOM      6  C   UNL     1      -6.287   2.082  12.919  1.00  0.00     0.251 C 
ATOM      7  O   UNL     1      -5.815   1.918  14.039  1.00  0.00    -0.272 OA
ATOM      8  H   UNL     1      -6.610   1.402  11.019  1.00  0.00     0.164 HD
BRANCH   6   9
ATOM      9  C   UNL     1      -7.026   3.358  12.484  1.00  0.00     0.219 C 
BRANCH   9  10
ATOM     10  O   UNL     1      -7.674   4.021  13.576  1.00  0.00    -0.382 OA
ATOM     11  H   UNL     1      -8.054   4.828  13.164  1.00  0.00     0.211 HD
ENDBRANCH   9  10
BRANCH   9  12
ATOM     12  C   UNL     1      -6.125   4.346  11.698  1.00  0.00     0.089 C 
BRANCH  12  13
ATOM     13  N   UNL     1      -6.914   5.563  11.400  1.00  0.00    -0.325 NA
ATOM     14  H   UNL     1      -7.129   6.046  12.274  1.00  0.00     0.119 HD
ATOM     15  H   UNL     1      -7.822   5.284  11.019  1.00  0.00     0.119 HD
ENDBRANCH  12  13
BRANCH  12  16
ATOM     16  C   UNL     1      -4.788   4.731  12.375  1.00  0.00     0.022 C 
BRANCH  16  17
ATOM     17  C   UNL     1      -3.472   4.216  11.778  1.00  0.00     0.002 C 
BRANCH  17  18
ATOM     18  C   UNL     1      -3.599   3.567  10.402  1.00  0.00     0.000 C 
BRANCH  18  19
ATOM     19  C   UNL     1      -2.271   3.446   9.643  1.00  0.00    -0.000 C 
BRANCH  19  20
ATOM     20  C   UNL     1      -2.106   4.407   8.463  1.00  0.00    -0.000 C 
BRANCH  20  21
ATOM     21  C   UNL     1      -3.406   4.631   7.686  1.00  0.00    -0.003 C 
ATOM     22  C   UNL     1      -3.284   4.147   6.249  1.00  0.00     0.004 C 
ENDBRANCH  20  21
ENDBRANCH  19  20
ENDBRANCH  18  19
ENDBRANCH  17  18
ENDBRANCH  16  17
ENDBRANCH  12  16
ENDBRANCH   9  12
ENDBRANCH   6   9
ENDBRANCH   3   5
ENDBRANCH   2   3
BRANCH   2  23
ATOM     23  N   UNL     1      -5.023  -2.274  10.833  1.00  0.00    -0.332 N 
ATOM     24  C   UNL     1      -4.400  -3.234  11.732  1.00  0.00     0.147 C 
BRANCH  23  25
ATOM     25  C   UNL     1      -4.783  -2.524   9.385  1.00  0.00     0.174 C 
BRANCH  25  26
ATOM     26  C   UNL     1      -5.400  -3.853   8.892  1.00  0.00     0.038 C 
BRANCH  26  27
ATOM     27  C   UNL     1      -6.203  -3.806   7.573  1.00  0.00    -0.015 C 
ATOM     28  C   UNL     1      -6.546  -2.378   7.149  1.00  0.00     0.007 C 
ATOM     29  C   UNL     1      -5.535  -4.561   6.428  1.00  0.00     0.007 C 
ENDBRANCH  26  27
ENDBRANCH  25  26
BRANCH  25  30
ATOM     30  C   UNL     1      -3.277  -2.381   9.064  1.00  0.00     0.243 C 
ATOM     31  O   UNL     1      -2.658  -1.345   9.300  1.00  0.00    -0.273 OA
ATOM     32  N   UNL     1      -2.685  -3.479   8.495  1.00  0.00    -0.342 N 
ATOM     33  H   UNL     1      -3.228  -4.345   8.461  1.00  0.00     0.164 HD
BRANCH  32  34
ATOM     34  C   UNL     1      -1.275  -3.514   8.099  1.00  0.00     0.175 C 
BRANCH  34  35
ATOM     35  C   UNL     1      -0.972  -2.467   7.016  1.00  0.00     0.070 C 
BRANCH  35  36
ATOM     36  C   UNL     1      -1.871  -2.599   5.807  1.00  0.00    -0.045 A 
ATOM     37  C   UNL     1      -1.545  -3.502   4.785  1.00  0.00     0.007 A 
ATOM     38  C   UNL     1      -3.022  -1.811   5.679  1.00  0.00     0.007 A 
ATOM     39  C   UNL     1      -2.361  -3.621   3.659  1.00  0.00     0.046 A 
ATOM     40  C   UNL     1      -3.839  -1.928   4.552  1.00  0.00     0.046 A 
ATOM     41  C   UNL     1      -3.501  -2.834   3.552  1.00  0.00     0.115 A 
BRANCH  41  42
ATOM     42  O   UNL     1      -4.270  -2.978   2.435  1.00  0.00    -0.508 OA
ATOM     43  H   UNL     1      -4.762  -2.152   2.295  1.00  0.00     0.293 HD
ENDBRANCH  41  42
ENDBRANCH  35  36
ENDBRANCH  34  35
BRANCH  34  44
ATOM     44  C   UNL     1      -0.416  -3.300   9.366  1.00  0.00     0.243 C 
ATOM     45  O   UNL     1      -0.251  -4.143  10.242  1.00  0.00    -0.273 OA
ATOM     46  N   UNL     1       0.055  -2.011   9.497  1.00  0.00    -0.341 N 
ATOM     47  H   UNL     1      -0.207  -1.316   8.803  1.00  0.00     0.164 HD
BRANCH  46  48
ATOM     48  C   UNL     1       0.834  -1.552  10.649  1.00  0.00     0.196 C 
BRANCH  48  49
ATOM     49  C   UNL     1       2.193  -0.978  10.214  1.00  0.00     0.072 C 
BRANCH  49  50
ATOM     50  C   UNL     1       3.054  -0.568  11.387  1.00  0.00    -0.045 A 
ATOM     51  C   UNL     1       3.476   0.764  11.511  1.00  0.00     0.007 A 
ATOM     52  C   UNL     1       3.458  -1.504  12.347  1.00  0.00     0.007 A 
ATOM     53  C   UNL     1       4.282   1.152  12.582  1.00  0.00     0.046 A 
ATOM     54  C   UNL     1       4.266  -1.116  13.418  1.00  0.00     0.046 A 
ATOM     55  C   UNL     1       4.670   0.210  13.527  1.00  0.00     0.115 A 
BRANCH  55  56
ATOM     56  O   UNL     1       5.459   0.629  14.557  1.00  0.00    -0.508 OA
ATOM     57  H   UNL     1       4.886   0.898  15.292  1.00  0.00     0.293 HD
ENDBRANCH  55  56
ENDBRANCH  49  50
ENDBRANCH  48  49
BRANCH  48  58
ATOM     58  C   UNL     1       0.035  -0.473  11.394  1.00  0.00     0.326 C 
ATOM     59  O   UNL     1      -0.088  -0.347  12.602  1.00  0.00    -0.250 OA
BRANCH  58  60
ATOM     60  O   UNL     1      -0.569   0.419  10.570  1.00  0.00    -0.480 OA
ATOM     61  H   UNL     1      -0.405   1.281  11.010  1.00  0.00     0.296 HD
ENDBRANCH  58  60
ENDBRANCH  48  58
ENDBRANCH  46  48
ENDBRANCH  34  44
ENDBRANCH  32  34
ENDBRANCH  25  30
ENDBRANCH  23  25
ENDBRANCH   2  23
TORSDOF 28
ENDMDL
MODEL 6
REMARK VINA RESULT:    -5.308      6.810     10.856
REMARK INTER + INTRA:         -18.786
REMARK INTER:                 -11.758
REMARK INTRA:                  -7.028
REMARK UNBOUND:                -5.566
REMARK SMILES CCCCCCC[C@H](N)[C@H](O)C(=O)N[C@H](C)C(=O)N(C)[C@H](CC(C)C)C(=O)N[C@@H](Cc1ccc(O)cc1)C(=O)N[C@@H](Cc1ccc(O)cc1)C(=O)O
REMARK SMILES IDX 18 1 17 2 15 3 16 4 14 5 12 6 13 7 10 9 11 10 8 12 9 13 7 16
REMARK SMILES IDX 6 17 5 18 4 19 3 20 2 21 1 22 19 23 20 24 21 25 22 26 23 27
REMARK SMILES IDX 24 28 25 29 26 30 27 31 28 32 29 34 30 35 31 36 32 37 37 38
REMARK SMILES IDX 33 39 36 40 34 41 35 42 38 44 39 45 40 46 41 48 42 49 43 50
REMARK SMILES IDX 44 51 49 52 45 53 48 54 46 55 47 56 50 58 51 59 52 60
REMARK H PARENT 14 8 11 11 9 14 9 15 28 33 35 43 40 47 47 57 52 61
ROOT
ATOM      1  O   UNL     1      -0.046   3.723   9.336  1.00  0.00    -0.272 OA
ATOM      2  C   UNL     1      -0.273   2.978  10.300  1.00  0.00     0.245 C 
ENDROOT
BRANCH   2   3
ATOM      3  C   UNL     1       0.907   2.581  11.223  1.00  0.00     0.168 C 
ATOM      4  C   UNL     1       1.619   1.344  10.689  1.00  0.00     0.041 C 
BRANCH   3   5
ATOM      5  N   UNL     1       1.839   3.658  11.520  1.00  0.00    -0.342 N 
ATOM      6  C   UNL     1       1.652   4.508  12.590  1.00  0.00     0.251 C 
ATOM      7  O   UNL     1       0.681   4.452  13.337  1.00  0.00    -0.272 OA
ATOM      8  H   UNL     1       2.664   3.825  10.950  1.00  0.00     0.164 HD
BRANCH   6   9
ATOM      9  C   UNL     1       2.831   5.473  12.794  1.00  0.00     0.219 C 
BRANCH   9  10
ATOM     10  O   UNL     1       4.086   4.794  12.919  1.00  0.00    -0.382 OA
ATOM     11  H   UNL     1       3.841   3.844  12.869  1.00  0.00     0.211 HD
ENDBRANCH   9  10
BRANCH   9  12
ATOM     12  C   UNL     1       2.908   6.579  11.710  1.00  0.00     0.089 C 
BRANCH  12  13
ATOM     13  N   UNL     1       3.388   5.965  10.450  1.00  0.00    -0.325 NA
ATOM     14  H   UNL     1       4.410   5.973  10.441  1.00  0.00     0.119 HD
ATOM     15  H   UNL     1       3.110   6.560   9.666  1.00  0.00     0.119 HD
ENDBRANCH  12  13
BRANCH  12  16
ATOM     16  C   UNL     1       1.603   7.369  11.452  1.00  0.00     0.022 C 
BRANCH  16  17
ATOM     17  C   UNL     1       0.854   7.164  10.128  1.00  0.00     0.002 C 
BRANCH  17  18
ATOM     18  C   UNL     1       0.992   8.308   9.126  1.00  0.00     0.000 C 
BRANCH  18  19
ATOM     19  C   UNL     1       1.781   9.512   9.658  1.00  0.00    -0.000 C 
BRANCH  19  20
ATOM     20  C   UNL     1       1.006  10.833   9.693  1.00  0.00    -0.000 C 
BRANCH  20  21
ATOM     21  C   UNL     1      -0.468  10.673   9.314  1.00  0.00    -0.003 C 
ATOM     22  C   UNL     1      -1.382  11.073  10.462  1.00  0.00     0.004 C 
ENDBRANCH  20  21
ENDBRANCH  19  20
ENDBRANCH  18  19
ENDBRANCH  17  18
ENDBRANCH  16  17
ENDBRANCH  12  16
ENDBRANCH   9  12
ENDBRANCH   6   9
ENDBRANCH   3   5
ENDBRANCH   2   3
BRANCH   2  23
ATOM     23  N   UNL     1      -1.580   2.615  10.607  1.00  0.00    -0.332 N 
ATOM     24  C   UNL     1      -2.119   1.271  10.462  1.00  0.00     0.147 C 
BRANCH  23  25
ATOM     25  C   UNL     1      -2.501   3.594  11.245  1.00  0.00     0.174 C 
BRANCH  25  26
ATOM     26  C   UNL     1      -3.456   2.942  12.273  1.00  0.00     0.038 C 
BRANCH  26  27
ATOM     27  C   UNL     1      -4.124   3.881  13.302  1.00  0.00    -0.015 C 
ATOM     28  C   UNL     1      -5.650   3.844  13.222  1.00  0.00     0.007 C 
ATOM     29  C   UNL     1      -3.655   3.643  14.735  1.00  0.00     0.007 C 
ENDBRANCH  26  27
ENDBRANCH  25  26
BRANCH  25  30
ATOM     30  C   UNL     1      -3.228   4.425  10.162  1.00  0.00     0.243 C 
ATOM     31  O   UNL     1      -4.328   4.097   9.721  1.00  0.00    -0.273 OA
ATOM     32  N   UNL     1      -2.563   5.542   9.726  1.00  0.00    -0.342 N 
ATOM     33  H   UNL     1      -1.724   5.825  10.239  1.00  0.00     0.164 HD
BRANCH  32  34
ATOM     34  C   UNL     1      -3.087   6.432   8.686  1.00  0.00     0.175 C 
BRANCH  34  35
ATOM     35  C   UNL     1      -2.705   7.895   8.959  1.00  0.00     0.070 C 
BRANCH  35  36
ATOM     36  C   UNL     1      -3.676   8.877   8.342  1.00  0.00    -0.045 A 
ATOM     37  C   UNL     1      -3.484   9.319   7.024  1.00  0.00     0.007 A 
ATOM     38  C   UNL     1      -4.759   9.375   9.077  1.00  0.00     0.007 A 
ATOM     39  C   UNL     1      -4.367  10.235   6.451  1.00  0.00     0.046 A 
ATOM     40  C   UNL     1      -5.642  10.294   8.505  1.00  0.00     0.046 A 
ATOM     41  C   UNL     1      -5.438  10.715   7.195  1.00  0.00     0.115 A 
BRANCH  41  42
ATOM     42  O   UNL     1      -6.275  11.611   6.599  1.00  0.00    -0.508 OA
ATOM     43  H   UNL     1      -6.289  11.427   5.645  1.00  0.00     0.293 HD
ENDBRANCH  41  42
ENDBRANCH  35  36
ENDBRANCH  34  35
BRANCH  34  44
ATOM     44  C   UNL     1      -2.553   5.940   7.322  1.00  0.00     0.243 C 
ATOM     45  O   UNL     1      -3.086   5.068   6.642  1.00  0.00    -0.273 OA
ATOM     46  N   UNL     1      -1.331   6.482   6.984  1.00  0.00    -0.341 N 
ATOM     47  H   UNL     1      -0.873   7.114   7.636  1.00  0.00     0.164 HD
BRANCH  46  48
ATOM     48  C   UNL     1      -0.595   6.117   5.771  1.00  0.00     0.196 C 
BRANCH  48  49
ATOM     49  C   UNL     1       0.457   7.179   5.412  1.00  0.00     0.072 C 
BRANCH  49  50
ATOM     50  C   UNL     1      -0.157   8.526   5.106  1.00  0.00    -0.045 A 
ATOM     51  C   UNL     1       0.207   9.649   5.863  1.00  0.00     0.007 A 
ATOM     52  C   UNL     1      -1.106   8.671   4.086  1.00  0.00     0.007 A 
ATOM     53  C   UNL     1      -0.363  10.895   5.598  1.00  0.00     0.046 A 
ATOM     54  C   UNL     1      -1.678   9.917   3.821  1.00  0.00     0.046 A 
ATOM     55  C   UNL     1      -1.300  11.020   4.580  1.00  0.00     0.115 A 
BRANCH  55  56
ATOM     56  O   UNL     1      -1.835  12.253   4.354  1.00  0.00    -0.508 OA
ATOM     57  H   UNL     1      -1.168  12.799   3.909  1.00  0.00     0.293 HD
ENDBRANCH  55  56
ENDBRANCH  49  50
ENDBRANCH  48  49
BRANCH  48  58
ATOM     58  C   UNL     1       0.095   4.764   5.994  1.00  0.00     0.326 C 
ATOM     59  O   UNL     1      -0.184   3.697   5.471  1.00  0.00    -0.250 OA
BRANCH  58  60
ATOM     60  O   UNL     1       1.130   4.822   6.869  1.00  0.00    -0.480 OA
ATOM     61  H   UNL     1       1.899   5.030   6.296  1.00  0.00     0.296 HD
ENDBRANCH  58  60
ENDBRANCH  48  58
ENDBRANCH  46  48
ENDBRANCH  34  44
ENDBRANCH  32  34
ENDBRANCH  25  30
ENDBRANCH  23  25
ENDBRANCH   2  23
TORSDOF 28
ENDMDL
MODEL 7
REMARK VINA RESULT:    -5.190      5.885      8.411
REMARK INTER + INTRA:         -18.494
REMARK INTER:                 -14.964
REMARK INTRA:                  -3.530
REMARK UNBOUND:                -5.566
REMARK SMILES CCCCCCC[C@H](N)[C@H](O)C(=O)N[C@H](C)C(=O)N(C)[C@H](CC(C)C)C(=O)N[C@@H](Cc1ccc(O)cc1)C(=O)N[C@@H](Cc1ccc(O)cc1)C(=O)O
REMARK SMILES IDX 18 1 17 2 15 3 16 4 14 5 12 6 13 7 10 9 11 10 8 12 9 13 7 16
REMARK SMILES IDX 6 17 5 18 4 19 3 20 2 21 1 22 19 23 20 24 21 25 22 26 23 27
REMARK SMILES IDX 24 28 25 29 26 30 27 31 28 32 29 34 30 35 31 36 32 37 37 38
REMARK SMILES IDX 33 39 36 40 34 41 35 42 38 44 39 45 40 46 41 48 42 49 43 50
REMARK SMILES IDX 44 51 49 52 45 53 48 54 46 55 47 56 50 58 51 59 52 60
REMARK H PARENT 14 8 11 11 9 14 9 15 28 33 35 43 40 47 47 57 52 61
ROOT
ATOM      1  O   UNL     1      -3.399   5.415   7.354  1.00  0.00    -0.272 OA
ATOM      2  C   UNL     1      -2.362   5.507   8.028  1.00  0.00     0.245 C 
ENDROOT
BRANCH   2   3
ATOM      3  C   UNL     1      -2.490   5.756   9.552  1.00  0.00     0.168 C 
ATOM      4  C   UNL     1      -3.928   6.103   9.925  1.00  0.00     0.041 C 
BRANCH   3   5
ATOM      5  N   UNL     1      -1.953   4.697  10.391  1.00  0.00    -0.342 N 
ATOM      6  C   UNL     1      -1.127   4.965  11.462  1.00  0.00     0.251 C 
ATOM      7  O   UNL     1      -0.753   6.094  11.762  1.00  0.00    -0.272 OA
ATOM      8  H   UNL     1      -2.165   3.717  10.220  1.00  0.00     0.164 HD
BRANCH   6   9
ATOM      9  C   UNL     1      -0.797   3.711  12.288  1.00  0.00     0.219 C 
BRANCH   9  10
ATOM     10  O   UNL     1      -0.416   4.020  13.634  1.00  0.00    -0.382 OA
ATOM     11  H   UNL     1       0.558   4.130  13.579  1.00  0.00     0.211 HD
ENDBRANCH   9  10
BRANCH   9  12
ATOM     12  C   UNL     1      -1.931   2.652  12.266  1.00  0.00     0.089 C 
BRANCH  12  13
ATOM     13  N   UNL     1      -1.532   1.560  11.348  1.00  0.00    -0.325 NA
ATOM     14  H   UNL     1      -0.522   1.598  11.201  1.00  0.00     0.119 HD
ATOM     15  H   UNL     1      -1.942   1.735  10.428  1.00  0.00     0.119 HD
ENDBRANCH  12  13
BRANCH  12  16
ATOM     16  C   UNL     1      -2.341   2.070  13.639  1.00  0.00     0.022 C 
BRANCH  16  17
ATOM     17  C   UNL     1      -3.708   2.441  14.230  1.00  0.00     0.002 C 
BRANCH  17  18
ATOM     18  C   UNL     1      -3.960   3.940  14.378  1.00  0.00     0.000 C 
BRANCH  18  19
ATOM     19  C   UNL     1      -5.226   4.435  13.665  1.00  0.00    -0.000 C 
BRANCH  19  20
ATOM     20  C   UNL     1      -5.570   3.699  12.367  1.00  0.00    -0.000 C 
BRANCH  20  21
ATOM     21  C   UNL     1      -7.022   3.905  11.928  1.00  0.00    -0.003 C 
ATOM     22  C   UNL     1      -7.659   5.079  12.654  1.00  0.00     0.004 C 
ENDBRANCH  20  21
ENDBRANCH  19  20
ENDBRANCH  18  19
ENDBRANCH  17  18
ENDBRANCH  16  17
ENDBRANCH  12  16
ENDBRANCH   9  12
ENDBRANCH   6   9
ENDBRANCH   3   5
ENDBRANCH   2   3
BRANCH   2  23
ATOM     23  N   UNL     1      -1.125   5.268   7.440  1.00  0.00    -0.332 N 
ATOM     24  C   UNL     1      -0.583   3.946   7.167  1.00  0.00     0.147 C 
BRANCH  23  25
ATOM     25  C   UNL     1      -0.309   6.400   6.921  1.00  0.00     0.174 C 
BRANCH  25  26
ATOM     26  C   UNL     1      -0.084   7.512   7.973  1.00  0.00     0.038 C 
BRANCH  26  27
ATOM     27  C   UNL     1       1.188   7.405   8.843  1.00  0.00    -0.015 C 
ATOM     28  C   UNL     1       2.467   7.367   8.007  1.00  0.00     0.007 C 
ATOM     29  C   UNL     1       1.280   8.485   9.918  1.00  0.00     0.007 C 
ENDBRANCH  26  27
ENDBRANCH  25  26
BRANCH  25  30
ATOM     30  C   UNL     1      -0.900   6.915   5.588  1.00  0.00     0.243 C 
ATOM     31  O   UNL     1      -1.342   6.148   4.734  1.00  0.00    -0.273 OA
ATOM     32  N   UNL     1      -0.891   8.276   5.422  1.00  0.00    -0.342 N 
ATOM     33  H   UNL     1      -0.639   8.850   6.231  1.00  0.00     0.164 HD
BRANCH  32  34
ATOM     34  C   UNL     1      -1.384   8.939   4.213  1.00  0.00     0.175 C 
BRANCH  34  35
ATOM     35  C   UNL     1      -2.018  10.300   4.540  1.00  0.00     0.070 C 
BRANCH  35  36
ATOM     36  C   UNL     1      -3.502  10.339   4.249  1.00  0.00    -0.045 A 
ATOM     37  C   UNL     1      -4.425  10.351   5.306  1.00  0.00     0.007 A 
ATOM     38  C   UNL     1      -3.975  10.342   2.930  1.00  0.00     0.007 A 
ATOM     39  C   UNL     1      -5.795  10.373   5.046  1.00  0.00     0.046 A 
ATOM     40  C   UNL     1      -5.347  10.363   2.670  1.00  0.00     0.046 A 
ATOM     41  C   UNL     1      -6.246  10.380   3.732  1.00  0.00     0.115 A 
BRANCH  41  42
ATOM     42  O   UNL     1      -7.593  10.399   3.521  1.00  0.00    -0.508 OA
ATOM     43  H   UNL     1      -7.846   9.564   3.095  1.00  0.00     0.293 HD
ENDBRANCH  41  42
ENDBRANCH  35  36
ENDBRANCH  34  35
BRANCH  34  44
ATOM     44  C   UNL     1      -0.203   9.076   3.225  1.00  0.00     0.243 C 
ATOM     45  O   UNL     1       0.439   8.130   2.777  1.00  0.00    -0.273 OA
ATOM     46  N   UNL     1       0.161  10.383   2.983  1.00  0.00    -0.341 N 
ATOM     47  H   UNL     1      -0.328  11.130   3.470  1.00  0.00     0.164 HD
BRANCH  46  48
ATOM     48  C   UNL     1       1.294  10.760   2.135  1.00  0.00     0.196 C 
BRANCH  48  49
ATOM     49  C   UNL     1       0.830  11.539   0.893  1.00  0.00     0.072 C 
BRANCH  49  50
ATOM     50  C   UNL     1       0.593  10.643  -0.301  1.00  0.00    -0.045 A 
ATOM     51  C   UNL     1       1.425   9.536  -0.521  1.00  0.00     0.007 A 
ATOM     52  C   UNL     1      -0.437  10.913  -1.211  1.00  0.00     0.007 A 
ATOM     53  C   UNL     1       1.225   8.710  -1.627  1.00  0.00     0.046 A 
ATOM     54  C   UNL     1      -0.638  10.086  -2.319  1.00  0.00     0.046 A 
ATOM     55  C   UNL     1       0.195   8.990  -2.517  1.00  0.00     0.115 A 
BRANCH  55  56
ATOM     56  O   UNL     1       0.034   8.160  -3.586  1.00  0.00    -0.508 OA
ATOM     57  H   UNL     1      -0.869   7.804  -3.564  1.00  0.00     0.293 HD
ENDBRANCH  55  56
ENDBRANCH  49  50
ENDBRANCH  48  49
BRANCH  48  58
ATOM     58  C   UNL     1       2.264  11.624   2.952  1.00  0.00     0.326 C 
ATOM     59  O   UNL     1       2.008  12.653   3.556  1.00  0.00    -0.250 OA
BRANCH  58  60
ATOM     60  O   UNL     1       3.530  11.135   2.984  1.00  0.00    -0.480 OA
ATOM     61  H   UNL     1       3.535  10.573   3.789  1.00  0.00     0.296 HD
ENDBRANCH  58  60
ENDBRANCH  48  58
ENDBRANCH  46  48
ENDBRANCH  34  44
ENDBRANCH  32  34
ENDBRANCH  25  30
ENDBRANCH  23  25
ENDBRANCH   2  23
TORSDOF 28
ENDMDL
MODEL 8
REMARK VINA RESULT:    -5.137      4.615     11.399
REMARK INTER + INTRA:         -18.361
REMARK INTER:                 -13.002
REMARK INTRA:                  -5.359
REMARK UNBOUND:                -5.566
REMARK SMILES CCCCCCC[C@H](N)[C@H](O)C(=O)N[C@H](C)C(=O)N(C)[C@H](CC(C)C)C(=O)N[C@@H](Cc1ccc(O)cc1)C(=O)N[C@@H](Cc1ccc(O)cc1)C(=O)O
REMARK SMILES IDX 18 1 17 2 15 3 16 4 14 5 12 6 13 7 10 9 11 10 8 12 9 13 7 16
REMARK SMILES IDX 6 17 5 18 4 19 3 20 2 21 1 22 19 23 20 24 21 25 22 26 23 27
REMARK SMILES IDX 24 28 25 29 26 30 27 31 28 32 29 34 30 35 31 36 32 37 37 38
REMARK SMILES IDX 33 39 36 40 34 41 35 42 38 44 39 45 40 46 41 48 42 49 43 50
REMARK SMILES IDX 44 51 49 52 45 53 48 54 46 55 47 56 50 58 51 59 52 60
REMARK H PARENT 14 8 11 11 9 14 9 15 28 33 35 43 40 47 47 57 52 61
ROOT
ATOM      1  O   UNL     1      -8.330   9.699   4.449  1.00  0.00    -0.272 OA
ATOM      2  C   UNL     1      -7.370  10.448   4.683  1.00  0.00     0.245 C 
ENDROOT
BRANCH   2   3
ATOM      3  C   UNL     1      -6.259  10.585   3.612  1.00  0.00     0.168 C 
ATOM      4  C   UNL     1      -6.641  11.627   2.566  1.00  0.00     0.041 C 
BRANCH   3   5
ATOM      5  N   UNL     1      -4.924  10.813   4.142  1.00  0.00    -0.342 N 
ATOM      6  C   UNL     1      -3.797  10.681   3.358  1.00  0.00     0.251 C 
ATOM      7  O   UNL     1      -3.828  10.327   2.184  1.00  0.00    -0.272 OA
ATOM      8  H   UNL     1      -4.770  11.077   5.112  1.00  0.00     0.164 HD
BRANCH   6   9
ATOM      9  C   UNL     1      -2.513  11.108   4.087  1.00  0.00     0.219 C 
BRANCH   9  10
ATOM     10  O   UNL     1      -2.669  11.134   5.511  1.00  0.00    -0.382 OA
ATOM     11  H   UNL     1      -1.875  10.656   5.839  1.00  0.00     0.211 HD
ENDBRANCH   9  10
BRANCH   9  12
ATOM     12  C   UNL     1      -1.275  10.265   3.684  1.00  0.00     0.089 C 
BRANCH  12  13
ATOM     13  N   UNL     1      -1.731   8.897   3.347  1.00  0.00    -0.325 NA
ATOM     14  H   UNL     1      -0.921   8.324   3.102  1.00  0.00     0.119 HD
ATOM     15  H   UNL     1      -2.297   8.937   2.496  1.00  0.00     0.119 HD
ENDBRANCH  12  13
BRANCH  12  16
ATOM     16  C   UNL     1      -0.412  10.836   2.533  1.00  0.00     0.022 C 
BRANCH  16  17
ATOM     17  C   UNL     1       0.430   9.875   1.683  1.00  0.00     0.002 C 
BRANCH  17  18
ATOM     18  C   UNL     1       1.906   9.798   2.069  1.00  0.00     0.000 C 
BRANCH  18  19
ATOM     19  C   UNL     1       2.835  10.604   1.152  1.00  0.00    -0.000 C 
BRANCH  19  20
ATOM     20  C   UNL     1       3.465  11.844   1.792  1.00  0.00    -0.000 C 
BRANCH  20  21
ATOM     21  C   UNL     1       2.547  13.070   1.756  1.00  0.00    -0.003 C 
ATOM     22  C   UNL     1       1.811  13.172   0.430  1.00  0.00     0.004 C 
ENDBRANCH  20  21
ENDBRANCH  19  20
ENDBRANCH  18  19
ENDBRANCH  17  18
ENDBRANCH  16  17
ENDBRANCH  12  16
ENDBRANCH   9  12
ENDBRANCH   6   9
ENDBRANCH   3   5
ENDBRANCH   2   3
BRANCH   2  23
ATOM     23  N   UNL     1      -7.365  11.234   5.830  1.00  0.00    -0.332 N 
ATOM     24  C   UNL     1      -7.645  12.662   5.853  1.00  0.00     0.147 C 
BRANCH  23  25
ATOM     25  C   UNL     1      -7.189  10.608   7.169  1.00  0.00     0.174 C 
BRANCH  25  26
ATOM     26  C   UNL     1      -8.076  11.256   8.258  1.00  0.00     0.038 C 
BRANCH  26  27
ATOM     27  C   UNL     1      -9.215  10.390   8.840  1.00  0.00    -0.015 C 
ATOM     28  C   UNL     1      -8.855   8.905   8.884  1.00  0.00     0.007 C 
ATOM     29  C   UNL     1      -9.702  10.865  10.207  1.00  0.00     0.007 C 
ENDBRANCH  26  27
ENDBRANCH  25  26
BRANCH  25  30
ATOM     30  C   UNL     1      -5.689  10.557   7.539  1.00  0.00     0.243 C 
ATOM     31  O   UNL     1      -4.874  11.344   7.060  1.00  0.00    -0.273 OA
ATOM     32  N   UNL     1      -5.330   9.576   8.427  1.00  0.00    -0.342 N 
ATOM     33  H   UNL     1      -6.082   9.055   8.887  1.00  0.00     0.164 HD
BRANCH  32  34
ATOM     34  C   UNL     1      -3.950   9.361   8.870  1.00  0.00     0.175 C 
BRANCH  34  35
ATOM     35  C   UNL     1      -3.041   8.965   7.696  1.00  0.00     0.070 C 
BRANCH  35  36
ATOM     36  C   UNL     1      -2.707   7.491   7.687  1.00  0.00    -0.045 A 
ATOM     37  C   UNL     1      -3.226   6.647   8.680  1.00  0.00     0.007 A 
ATOM     38  C   UNL     1      -1.862   6.951   6.708  1.00  0.00     0.007 A 
ATOM     39  C   UNL     1      -2.913   5.287   8.688  1.00  0.00     0.046 A 
ATOM     40  C   UNL     1      -1.546   5.590   6.715  1.00  0.00     0.046 A 
ATOM     41  C   UNL     1      -2.076   4.770   7.706  1.00  0.00     0.115 A 
BRANCH  41  42
ATOM     42  O   UNL     1      -1.792   3.437   7.751  1.00  0.00    -0.508 OA
ATOM     43  H   UNL     1      -2.087   3.035   6.917  1.00  0.00     0.293 HD
ENDBRANCH  41  42
ENDBRANCH  35  36
ENDBRANCH  34  35
BRANCH  34  44
ATOM     44  C   UNL     1      -3.464  10.652   9.567  1.00  0.00     0.243 C 
ATOM     45  O   UNL     1      -3.897  11.068  10.638  1.00  0.00    -0.273 OA
ATOM     46  N   UNL     1      -2.576  11.384   8.808  1.00  0.00    -0.341 N 
ATOM     47  H   UNL     1      -2.336  11.056   7.875  1.00  0.00     0.164 HD
BRANCH  46  48
ATOM     48  C   UNL     1      -2.030  12.676   9.229  1.00  0.00     0.196 C 
BRANCH  48  49
ATOM     49  C   UNL     1      -0.500  12.713   9.081  1.00  0.00     0.072 C 
BRANCH  49  50
ATOM     50  C   UNL     1       0.061  11.428   8.516  1.00  0.00    -0.045 A 
ATOM     51  C   UNL     1       0.266  11.303   7.134  1.00  0.00     0.007 A 
ATOM     52  C   UNL     1       0.363  10.344   9.350  1.00  0.00     0.007 A 
ATOM     53  C   UNL     1       0.770  10.117   6.599  1.00  0.00     0.046 A 
ATOM     54  C   UNL     1       0.867   9.157   8.814  1.00  0.00     0.046 A 
ATOM     55  C   UNL     1       1.067   9.054   7.442  1.00  0.00     0.115 A 
BRANCH  55  56
ATOM     56  O   UNL     1       1.557   7.912   6.880  1.00  0.00    -0.508 OA
ATOM     57  H   UNL     1       0.873   7.539   6.301  1.00  0.00     0.293 HD
ENDBRANCH  55  56
ENDBRANCH  49  50
ENDBRANCH  48  49
BRANCH  48  58
ATOM     58  C   UNL     1      -2.656  13.785   8.372  1.00  0.00     0.326 C 
ATOM     59  O   UNL     1      -3.176  14.818   8.764  1.00  0.00    -0.250 OA
BRANCH  58  60
ATOM     60  O   UNL     1      -2.584  13.545   7.038  1.00  0.00    -0.480 OA
ATOM     61  H   UNL     1      -2.962  14.360   6.641  1.00  0.00     0.296 HD
ENDBRANCH  58  60
ENDBRANCH  48  58
ENDBRANCH  46  48
ENDBRANCH  34  44
ENDBRANCH  32  34
ENDBRANCH  25  30
ENDBRANCH  23  25
ENDBRANCH   2  23
TORSDOF 28
ENDMDL
MODEL 9
REMARK VINA RESULT:    -4.941      5.644     11.967
REMARK INTER + INTRA:         -17.874
REMARK INTER:                 -12.203
REMARK INTRA:                  -5.670
REMARK UNBOUND:                -5.566
REMARK SMILES CCCCCCC[C@H](N)[C@H](O)C(=O)N[C@H](C)C(=O)N(C)[C@H](CC(C)C)C(=O)N[C@@H](Cc1ccc(O)cc1)C(=O)N[C@@H](Cc1ccc(O)cc1)C(=O)O
REMARK SMILES IDX 18 1 17 2 15 3 16 4 14 5 12 6 13 7 10 9 11 10 8 12 9 13 7 16
REMARK SMILES IDX 6 17 5 18 4 19 3 20 2 21 1 22 19 23 20 24 21 25 22 26 23 27
REMARK SMILES IDX 24 28 25 29 26 30 27 31 28 32 29 34 30 35 31 36 32 37 37 38
REMARK SMILES IDX 33 39 36 40 34 41 35 42 38 44 39 45 40 46 41 48 42 49 43 50
REMARK SMILES IDX 44 51 49 52 45 53 48 54 46 55 47 56 50 58 51 59 52 60
REMARK H PARENT 14 8 11 11 9 14 9 15 28 33 35 43 40 47 47 57 52 61
ROOT
ATOM      1  O   UNL     1      -9.269  10.001   5.236  1.00  0.00    -0.272 OA
ATOM      2  C   UNL     1      -8.201  10.603   5.423  1.00  0.00     0.245 C 
ENDROOT
BRANCH   2   3
ATOM      3  C   UNL     1      -7.286  10.885   4.205  1.00  0.00     0.168 C 
ATOM      4  C   UNL     1      -7.731  12.148   3.475  1.00  0.00     0.041 C 
BRANCH   3   5
ATOM      5  N   UNL     1      -5.862  10.904   4.502  1.00  0.00    -0.342 N 
ATOM      6  C   UNL     1      -4.928  10.402   3.621  1.00  0.00     0.251 C 
ATOM      7  O   UNL     1      -5.221   9.871   2.555  1.00  0.00    -0.272 OA
ATOM      8  H   UNL     1      -5.501  11.288   5.372  1.00  0.00     0.164 HD
BRANCH   6   9
ATOM      9  C   UNL     1      -3.483  10.656   4.078  1.00  0.00     0.219 C 
BRANCH   9  10
ATOM     10  O   UNL     1      -3.295  10.412   5.478  1.00  0.00    -0.382 OA
ATOM     11  H   UNL     1      -2.479   9.865   5.509  1.00  0.00     0.211 HD
ENDBRANCH   9  10
BRANCH   9  12
ATOM     12  C   UNL     1      -2.433   9.883   3.238  1.00  0.00     0.089 C 
BRANCH  12  13
ATOM     13  N   UNL     1      -2.087  10.701   2.054  1.00  0.00    -0.325 NA
ATOM     14  H   UNL     1      -1.414  10.192   1.479  1.00  0.00     0.119 HD
ATOM     15  H   UNL     1      -1.592  11.541   2.365  1.00  0.00     0.119 HD
ENDBRANCH  12  13
BRANCH  12  16
ATOM     16  C   UNL     1      -1.146   9.458   3.985  1.00  0.00     0.022 C 
BRANCH  16  17
ATOM     17  C   UNL     1       0.219   9.770   3.358  1.00  0.00     0.002 C 
BRANCH  17  18
ATOM     18  C   UNL     1       0.861   8.611   2.599  1.00  0.00     0.000 C 
BRANCH  18  19
ATOM     19  C   UNL     1       1.635   7.632   3.493  1.00  0.00    -0.000 C 
BRANCH  19  20
ATOM     20  C   UNL     1       1.124   6.189   3.472  1.00  0.00    -0.000 C 
BRANCH  20  21
ATOM     21  C   UNL     1       0.002   5.936   4.483  1.00  0.00    -0.003 C 
ATOM     22  C   UNL     1       0.353   6.498   5.852  1.00  0.00     0.004 C 
ENDBRANCH  20  21
ENDBRANCH  19  20
ENDBRANCH  18  19
ENDBRANCH  17  18
ENDBRANCH  16  17
ENDBRANCH  12  16
ENDBRANCH   9  12
ENDBRANCH   6   9
ENDBRANCH   3   5
ENDBRANCH   2   3
BRANCH   2  23
ATOM     23  N   UNL     1      -7.904  11.116   6.681  1.00  0.00    -0.332 N 
ATOM     24  C   UNL     1      -7.956  12.528   7.030  1.00  0.00     0.147 C 
BRANCH  23  25
ATOM     25  C   UNL     1      -7.626  10.199   7.820  1.00  0.00     0.174 C 
BRANCH  25  26
ATOM     26  C   UNL     1      -8.488  10.507   9.066  1.00  0.00     0.038 C 
BRANCH  26  27
ATOM     27  C   UNL     1      -9.376   9.363   9.604  1.00  0.00    -0.015 C 
ATOM     28  C   UNL     1      -9.086   8.027   8.920  1.00  0.00     0.007 C 
ATOM     29  C   UNL     1      -9.319   9.213  11.122  1.00  0.00     0.007 C 
ENDBRANCH  26  27
ENDBRANCH  25  26
BRANCH  25  30
ATOM     30  C   UNL     1      -6.108  10.155   8.110  1.00  0.00     0.243 C 
ATOM     31  O   UNL     1      -5.293  10.743   7.399  1.00  0.00    -0.273 OA
ATOM     32  N   UNL     1      -5.733   9.416   9.202  1.00  0.00    -0.342 N 
ATOM     33  H   UNL     1      -6.474   9.076   9.821  1.00  0.00     0.164 HD
BRANCH  32  34
ATOM     34  C   UNL     1      -4.337   9.240   9.611  1.00  0.00     0.175 C 
BRANCH  34  35
ATOM     35  C   UNL     1      -3.490   8.656   8.470  1.00  0.00     0.070 C 
BRANCH  35  36
ATOM     36  C   UNL     1      -3.240   7.173   8.627  1.00  0.00    -0.045 A 
ATOM     37  C   UNL     1      -2.879   6.401   7.513  1.00  0.00     0.007 A 
ATOM     38  C   UNL     1      -3.386   6.548   9.872  1.00  0.00     0.007 A 
ATOM     39  C   UNL     1      -2.660   5.029   7.645  1.00  0.00     0.046 A 
ATOM     40  C   UNL     1      -3.168   5.174  10.005  1.00  0.00     0.046 A 
ATOM     41  C   UNL     1      -2.805   4.427   8.889  1.00  0.00     0.115 A 
BRANCH  41  42
ATOM     42  O   UNL     1      -2.585   3.084   8.975  1.00  0.00    -0.508 OA
ATOM     43  H   UNL     1      -2.566   2.721   8.074  1.00  0.00     0.293 HD
ENDBRANCH  41  42
ENDBRANCH  35  36
ENDBRANCH  34  35
BRANCH  34  44
ATOM     44  C   UNL     1      -3.802  10.610  10.086  1.00  0.00     0.243 C 
ATOM     45  O   UNL     1      -4.338  11.305  10.945  1.00  0.00    -0.273 OA
ATOM     46  N   UNL     1      -2.720  11.058   9.358  1.00  0.00    -0.341 N 
ATOM     47  H   UNL     1      -2.383  10.499   8.578  1.00  0.00     0.164 HD
BRANCH  46  48
ATOM     48  C   UNL     1      -2.083  12.358   9.579  1.00  0.00     0.196 C 
BRANCH  48  49
ATOM     49  C   UNL     1      -0.621  12.197  10.028  1.00  0.00     0.072 C 
BRANCH  49  50
ATOM     50  C   UNL     1      -0.102  10.791   9.827  1.00  0.00    -0.045 A 
ATOM     51  C   UNL     1       0.435  10.416   8.587  1.00  0.00     0.007 A 
ATOM     52  C   UNL     1      -0.168   9.844  10.857  1.00  0.00     0.007 A 
ATOM     53  C   UNL     1       0.905   9.118   8.385  1.00  0.00     0.046 A 
ATOM     54  C   UNL     1       0.301   8.544  10.654  1.00  0.00     0.046 A 
ATOM     55  C   UNL     1       0.835   8.192   9.419  1.00  0.00     0.115 A 
BRANCH  55  56
ATOM     56  O   UNL     1       1.303   6.934   9.180  1.00  0.00    -0.508 OA
ATOM     57  H   UNL     1       0.750   6.527   8.494  1.00  0.00     0.293 HD
ENDBRANCH  55  56
ENDBRANCH  49  50
ENDBRANCH  48  49
BRANCH  48  58
ATOM     58  C   UNL     1      -2.134  13.167   8.275  1.00  0.00     0.326 C 
ATOM     59  O   UNL     1      -1.504  14.177   8.007  1.00  0.00    -0.250 OA
BRANCH  58  60
ATOM     60  O   UNL     1      -2.980  12.649   7.349  1.00  0.00    -0.480 OA
ATOM     61  H   UNL     1      -3.735  12.328   7.888  1.00  0.00     0.296 HD
ENDBRANCH  58  60
ENDBRANCH  48  58
ENDBRANCH  46  48
ENDBRANCH  34  44
ENDBRANCH  32  34
ENDBRANCH  25  30
ENDBRANCH  23  25
ENDBRANCH   2  23
TORSDOF 28
ENDMDL
MODEL 10
REMARK VINA RESULT:    -4.726     13.070     16.606
REMARK INTER + INTRA:         -17.337
REMARK INTER:                 -14.315
REMARK INTRA:                  -3.022
REMARK UNBOUND:                -5.566
REMARK SMILES CCCCCCC[C@H](N)[C@H](O)C(=O)N[C@H](C)C(=O)N(C)[C@H](CC(C)C)C(=O)N[C@@H](Cc1ccc(O)cc1)C(=O)N[C@@H](Cc1ccc(O)cc1)C(=O)O
REMARK SMILES IDX 18 1 17 2 15 3 16 4 14 5 12 6 13 7 10 9 11 10 8 12 9 13 7 16
REMARK SMILES IDX 6 17 5 18 4 19 3 20 2 21 1 22 19 23 20 24 21 25 22 26 23 27
REMARK SMILES IDX 24 28 25 29 26 30 27 31 28 32 29 34 30 35 31 36 32 37 37 38
REMARK SMILES IDX 33 39 36 40 34 41 35 42 38 44 39 45 40 46 41 48 42 49 43 50
REMARK SMILES IDX 44 51 49 52 45 53 48 54 46 55 47 56 50 58 51 59 52 60
REMARK H PARENT 14 8 11 11 9 14 9 15 28 33 35 43 40 47 47 57 52 61
ROOT
ATOM      1  O   UNL     1      -7.079  -1.212  11.108  1.00  0.00    -0.272 OA
ATOM      2  C   UNL     1      -5.888  -0.957  11.338  1.00  0.00     0.245 C 
ENDROOT
BRANCH   2   3
ATOM      3  C   UNL     1      -5.542   0.355  12.085  1.00  0.00     0.168 C 
ATOM      4  C   UNL     1      -4.090   0.751  11.840  1.00  0.00     0.041 C 
BRANCH   3   5
ATOM      5  N   UNL     1      -6.454   1.460  11.834  1.00  0.00    -0.342 N 
ATOM      6  C   UNL     1      -6.578   2.516  12.713  1.00  0.00     0.251 C 
ATOM      7  O   UNL     1      -5.971   2.586  13.776  1.00  0.00    -0.272 OA
ATOM      8  H   UNL     1      -7.037   1.496  11.001  1.00  0.00     0.164 HD
BRANCH   6   9
ATOM      9  C   UNL     1      -7.489   3.631  12.177  1.00  0.00     0.219 C 
BRANCH   9  10
ATOM     10  O   UNL     1      -8.381   4.143  13.174  1.00  0.00    -0.382 OA
ATOM     11  H   UNL     1      -9.135   3.514  13.155  1.00  0.00     0.211 HD
ENDBRANCH   9  10
BRANCH   9  12
ATOM     12  C   UNL     1      -6.705   4.784  11.496  1.00  0.00     0.089 C 
BRANCH  12  13
ATOM     13  N   UNL     1      -5.420   4.243  10.997  1.00  0.00    -0.325 NA
ATOM     14  H   UNL     1      -4.783   4.111  11.785  1.00  0.00     0.119 HD
ATOM     15  H   UNL     1      -4.972   4.948  10.407  1.00  0.00     0.119 HD
ENDBRANCH  12  13
BRANCH  12  16
ATOM     16  C   UNL     1      -7.446   5.528  10.359  1.00  0.00     0.022 C 
BRANCH  16  17
ATOM     17  C   UNL     1      -8.159   6.851  10.673  1.00  0.00     0.002 C 
BRANCH  17  18
ATOM     18  C   UNL     1      -8.747   7.569   9.460  1.00  0.00     0.000 C 
BRANCH  18  19
ATOM     19  C   UNL     1      -8.266   9.018   9.299  1.00  0.00    -0.000 C 
BRANCH  19  20
ATOM     20  C   UNL     1      -9.372  10.076   9.320  1.00  0.00    -0.000 C 
BRANCH  20  21
ATOM     21  C   UNL     1     -10.314   9.935  10.519  1.00  0.00    -0.003 C 
ATOM     22  C   UNL     1      -9.655  10.415  11.802  1.00  0.00     0.004 C 
ENDBRANCH  20  21
ENDBRANCH  19  20
ENDBRANCH  18  19
ENDBRANCH  17  18
ENDBRANCH  16  17
ENDBRANCH  12  16
ENDBRANCH   9  12
ENDBRANCH   6   9
ENDBRANCH   3   5
ENDBRANCH   2   3
BRANCH   2  23
ATOM     23  N   UNL     1      -4.905  -1.894  11.037  1.00  0.00    -0.332 N 
ATOM     24  C   UNL     1      -4.240  -2.737  12.020  1.00  0.00     0.147 C 
BRANCH  23  25
ATOM     25  C   UNL     1      -4.556  -2.187   9.620  1.00  0.00     0.174 C 
BRANCH  25  26
ATOM     26  C   UNL     1      -5.209  -3.487   9.095  1.00  0.00     0.038 C 
BRANCH  26  27
ATOM     27  C   UNL     1      -6.202  -3.347   7.920  1.00  0.00    -0.015 C 
ATOM     28  C   UNL     1      -5.720  -2.352   6.864  1.00  0.00     0.007 C 
ATOM     29  C   UNL     1      -6.571  -4.679   7.274  1.00  0.00     0.007 C 
ENDBRANCH  26  27
ENDBRANCH  25  26
BRANCH  25  30
ATOM     30  C   UNL     1      -3.022  -2.142   9.431  1.00  0.00     0.243 C 
ATOM     31  O   UNL     1      -2.377  -1.107   9.592  1.00  0.00    -0.273 OA
ATOM     32  N   UNL     1      -2.434  -3.326   9.066  1.00  0.00    -0.342 N 
ATOM     33  H   UNL     1      -3.013  -4.170   9.090  1.00  0.00     0.164 HD
BRANCH  32  34
ATOM     34  C   UNL     1      -0.997  -3.464   8.816  1.00  0.00     0.175 C 
BRANCH  34  35
ATOM     35  C   UNL     1      -0.520  -2.481   7.737  1.00  0.00     0.070 C 
BRANCH  35  36
ATOM     36  C   UNL     1      -1.129  -2.761   6.381  1.00  0.00    -0.045 A 
ATOM     37  C   UNL     1      -2.083  -1.883   5.845  1.00  0.00     0.007 A 
ATOM     38  C   UNL     1      -0.769  -3.904   5.654  1.00  0.00     0.007 A 
ATOM     39  C   UNL     1      -2.660  -2.141   4.601  1.00  0.00     0.046 A 
ATOM     40  C   UNL     1      -1.348  -4.163   4.409  1.00  0.00     0.046 A 
ATOM     41  C   UNL     1      -2.288  -3.277   3.893  1.00  0.00     0.115 A 
BRANCH  41  42
ATOM     42  O   UNL     1      -2.877  -3.493   2.683  1.00  0.00    -0.508 OA
ATOM     43  H   UNL     1      -3.678  -2.945   2.632  1.00  0.00     0.293 HD
ENDBRANCH  41  42
ENDBRANCH  35  36
ENDBRANCH  34  35
BRANCH  34  44
ATOM     44  C   UNL     1      -0.256  -3.255  10.156  1.00  0.00     0.243 C 
ATOM     45  O   UNL     1      -0.250  -4.064  11.080  1.00  0.00    -0.273 OA
ATOM     46  N   UNL     1       0.304  -2.001  10.283  1.00  0.00    -0.341 N 
ATOM     47  H   UNL     1       0.172  -1.323   9.536  1.00  0.00     0.164 HD
BRANCH  46  48
ATOM     48  C   UNL     1       0.999  -1.547  11.490  1.00  0.00     0.196 C 
BRANCH  48  49
ATOM     49  C   UNL     1       2.049  -0.473  11.161  1.00  0.00     0.072 C 
BRANCH  49  50
ATOM     50  C   UNL     1       3.358  -0.700  11.882  1.00  0.00    -0.045 A 
ATOM     51  C   UNL     1       3.810   0.237  12.823  1.00  0.00     0.007 A 
ATOM     52  C   UNL     1       4.145  -1.827  11.611  1.00  0.00     0.007 A 
ATOM     53  C   UNL     1       5.023   0.045  13.485  1.00  0.00     0.046 A 
ATOM     54  C   UNL     1       5.360  -2.018  12.273  1.00  0.00     0.046 A 
ATOM     55  C   UNL     1       5.788  -1.080  13.206  1.00  0.00     0.115 A 
BRANCH  55  56
ATOM     56  O   UNL     1       6.968  -1.230  13.873  1.00  0.00    -0.508 OA
ATOM     57  H   UNL     1       7.310  -2.120  13.693  1.00  0.00     0.293 HD
ENDBRANCH  55  56
ENDBRANCH  49  50
ENDBRANCH  48  49
BRANCH  48  58
ATOM     58  C   UNL     1      -0.032  -0.975  12.473  1.00  0.00     0.326 C 
ATOM     59  O   UNL     1      -0.601  -1.568  13.375  1.00  0.00    -0.250 OA
BRANCH  58  60
ATOM     60  O   UNL     1      -0.291   0.343  12.280  1.00  0.00    -0.480 OA
ATOM     61  H   UNL     1      -0.904   0.562  13.015  1.00  0.00     0.296 HD
ENDBRANCH  58  60
ENDBRANCH  48  58
ENDBRANCH  46  48
ENDBRANCH  34  44
ENDBRANCH  32  34
ENDBRANCH  25  30
ENDBRANCH  23  25
ENDBRANCH   2  23
TORSDOF 28
ENDMDL
