MODEL 1
REMARK VINA RESULT:    -6.553      0.000      0.000
REMARK INTER + INTRA:         -16.770
REMARK INTER:                 -13.257
REMARK INTRA:                  -3.513
REMARK UNBOUND:                -3.513
REMARK SMILES CC[C@@H](C)[C@@H](NC(=O)[C@@H](O)Cc1ccc(O)c(Cl)c1)C(=O)N1[C@H](C(=O)NCCCCN=C(N)N)C[C@H]2CC[C@H](OS(=O)(=O)O)C[C@@H]21
REMARK SMILES IDX 22 1 36 2 46 3 35 4 23 5 45 6 37 7 39 8 38 9 20 10 21 11
REMARK SMILES IDX 5 12 6 13 7 14 8 15 9 17 11 18 12 19 17 20 19 21 15 22 14 23
REMARK SMILES IDX 13 24 18 25 16 26 10 28 3 30 4 31 2 32 1 33 24 34 25 35
REMARK SMILES IDX 26 36 27 38 28 39 29 40 30 41 31 42 32 43 33 44 34 45 40 50
REMARK SMILES IDX 41 51 42 52 43 53 44 54
REMARK H PARENT 6 16 16 27 10 29 26 37 33 46 33 47 34 48 34 49 44 55
ROOT
ATOM      1  N   UNL     1       4.239   4.056  -5.696  1.00  0.00    -0.326 N 
ATOM      2  C   UNL     1       2.882   3.075  -7.350  1.00  0.00     0.014 C 
ATOM      3  C   UNL     1       2.859   4.072  -6.188  1.00  0.00     0.091 C 
ATOM      4  C   UNL     1       3.879   2.030  -6.876  1.00  0.00     0.041 C 
ATOM      5  C   UNL     1       4.991   2.943  -6.327  1.00  0.00     0.175 C 
ATOM      6  C   UNL     1       2.285   5.393  -6.695  1.00  0.00     0.059 C 
ATOM      7  C   UNL     1       1.477   2.646  -7.725  1.00  0.00     0.008 C 
ATOM      8  C   UNL     1       1.236   5.226  -7.816  1.00  0.00     0.143 C 
ATOM      9  C   UNL     1       0.524   3.860  -7.744  1.00  0.00     0.034 C 
ENDROOT
BRANCH   1  10
ATOM     10  C   UNL     1       4.814   4.746  -4.642  1.00  0.00     0.246 C 
ATOM     11  O   UNL     1       5.473   5.764  -4.878  1.00  0.00    -0.272 OA
BRANCH  10  12
ATOM     12  C   UNL     1       4.583   4.252  -3.185  1.00  0.00     0.174 C 
BRANCH  12  13
ATOM     13  N   UNL     1       3.707   3.081  -3.188  1.00  0.00    -0.342 N 
ATOM     14  C   UNL     1       4.117   1.787  -2.957  1.00  0.00     0.249 C 
ATOM     15  O   UNL     1       5.271   1.474  -2.692  1.00  0.00    -0.272 OA
ATOM     16  H   UNL     1       2.758   3.163  -3.544  1.00  0.00     0.164 HD
BRANCH  14  17
ATOM     17  C   UNL     1       2.958   0.771  -3.046  1.00  0.00     0.207 C 
BRANCH  17  18
ATOM     18  C   UNL     1       1.651   1.479  -3.416  1.00  0.00     0.077 C 
BRANCH  18  19
ATOM     19  C   UNL     1       0.959   0.809  -4.582  1.00  0.00    -0.043 A 
ATOM     20  C   UNL     1      -1.025   0.466  -5.935  1.00  0.00     0.083 A 
ATOM     21  C   UNL     1      -0.374   1.123  -4.889  1.00  0.00     0.028 A 
ATOM     22  C   UNL     1      -0.352  -0.505  -6.676  1.00  0.00     0.134 A 
ATOM     23  C   UNL     1       0.969  -0.825  -6.383  1.00  0.00     0.048 A 
ATOM     24  C   UNL     1       1.623  -0.171  -5.336  1.00  0.00     0.008 A 
ATOM     25  Cl  UNL     1      -2.663   0.865  -6.297  1.00  0.00    -0.080 Cl
BRANCH  22  26
ATOM     26  O   UNL     1      -0.952  -1.182  -7.703  1.00  0.00    -0.506 OA
ATOM     27  H   UNL     1      -1.878  -1.332  -7.437  1.00  0.00     0.293 HD
ENDBRANCH  22  26
ENDBRANCH  18  19
ENDBRANCH  17  18
BRANCH  17  28
ATOM     28  O   UNL     1       2.786   0.072  -1.803  1.00  0.00    -0.383 OA
ATOM     29  H   UNL     1       2.537  -0.850  -2.041  1.00  0.00     0.211 HD
ENDBRANCH  17  28
ENDBRANCH  14  17
ENDBRANCH  12  13
BRANCH  12  30
ATOM     30  C   UNL     1       4.068   5.375  -2.245  1.00  0.00     0.018 C 
ATOM     31  C   UNL     1       2.993   6.221  -2.944  1.00  0.00     0.010 C 
BRANCH  30  32
ATOM     32  C   UNL     1       5.190   6.288  -1.694  1.00  0.00     0.002 C 
ATOM     33  C   UNL     1       6.501   5.585  -1.370  1.00  0.00     0.004 C 
ENDBRANCH  30  32
ENDBRANCH  12  30
ENDBRANCH  10  12
ENDBRANCH   1  10
BRANCH   5  34
ATOM     34  C   UNL     1       5.908   3.472  -7.461  1.00  0.00     0.242 C 
ATOM     35  O   UNL     1       5.977   4.667  -7.748  1.00  0.00    -0.273 OA
ATOM     36  N   UNL     1       6.597   2.504  -8.157  1.00  0.00    -0.354 N 
ATOM     37  H   UNL     1       6.408   1.523  -7.951  1.00  0.00     0.163 HD
BRANCH  36  38
ATOM     38  C   UNL     1       7.653   2.829  -9.094  1.00  0.00     0.116 C 
BRANCH  38  39
ATOM     39  C   UNL     1       7.741   1.749 -10.169  1.00  0.00     0.023 C 
BRANCH  39  40
ATOM     40  C   UNL     1       7.181   0.411  -9.699  1.00  0.00     0.026 C 
BRANCH  40  41
ATOM     41  C   UNL     1       6.260  -0.194 -10.759  1.00  0.00     0.146 C 
BRANCH  41  42
ATOM     42  N   UNL     1       6.863  -1.406 -11.300  1.00  0.00    -0.254 NA
ATOM     43  C   UNL     1       6.140  -2.448 -11.476  1.00  0.00     0.185 C 
ATOM     44  N   UNL     1       4.831  -2.643 -11.236  1.00  0.00    -0.370 N 
ATOM     45  N   UNL     1       6.715  -3.556 -11.972  1.00  0.00    -0.370 N 
ATOM     46  H   UNL     1       4.451  -3.574 -11.189  1.00  0.00     0.159 HD
ATOM     47  H   UNL     1       4.239  -1.903 -10.871  1.00  0.00     0.159 HD
ATOM     48  H   UNL     1       7.700  -3.491 -12.189  1.00  0.00     0.159 HD
ATOM     49  H   UNL     1       6.186  -4.318 -12.355  1.00  0.00     0.159 HD
ENDBRANCH  41  42
ENDBRANCH  40  41
ENDBRANCH  39  40
ENDBRANCH  38  39
ENDBRANCH  36  38
ENDBRANCH   5  34
BRANCH   8  50
ATOM     50  O   UNL     1       1.862   5.344  -9.094  1.00  0.00    -0.245 OA
BRANCH  50  51
ATOM     51  S   UNL     1       1.242   6.362 -10.201  1.00  0.00     0.397 S 
ATOM     52  O   UNL     1       2.094   6.325 -11.368  1.00  0.00    -0.169 OA
ATOM     53  O   UNL     1       0.880   7.611  -9.563  1.00  0.00    -0.169 OA
BRANCH  51  54
ATOM     54  O   UNL     1      -0.115   5.611 -10.625  1.00  0.00    -0.264 OA
ATOM     55  H   UNL     1      -0.426   6.008 -11.464  1.00  0.00     0.236 HD
ENDBRANCH  51  54
ENDBRANCH  50  51
ENDBRANCH   8  50
TORSDOF 19
ENDMDL
MODEL 2
REMARK VINA RESULT:    -6.547      4.711      8.864
REMARK INTER + INTRA:         -16.759
REMARK INTER:                 -14.241
REMARK INTRA:                  -2.517
REMARK UNBOUND:                -3.513
REMARK SMILES CC[C@@H](C)[C@@H](NC(=O)[C@@H](O)Cc1ccc(O)c(Cl)c1)C(=O)N1[C@H](C(=O)NCCCCN=C(N)N)C[C@H]2CC[C@H](OS(=O)(=O)O)C[C@@H]21
REMARK SMILES IDX 22 1 36 2 46 3 35 4 23 5 45 6 37 7 39 8 38 9 20 10 21 11
REMARK SMILES IDX 5 12 6 13 7 14 8 15 9 17 11 18 12 19 17 20 19 21 15 22 14 23
REMARK SMILES IDX 13 24 18 25 16 26 10 28 3 30 4 31 2 32 1 33 24 34 25 35
REMARK SMILES IDX 26 36 27 38 28 39 29 40 30 41 31 42 32 43 33 44 34 45 40 50
REMARK SMILES IDX 41 51 42 52 43 53 44 54
REMARK H PARENT 6 16 16 27 10 29 26 37 33 46 33 47 34 48 34 49 44 55
ROOT
ATOM      1  N   UNL     1       3.875   2.274 -10.249  1.00  0.00    -0.326 N 
ATOM      2  C   UNL     1       2.813   4.251 -10.960  1.00  0.00     0.014 C 
ATOM      3  C   UNL     1       3.373   2.918 -11.466  1.00  0.00     0.091 C 
ATOM      4  C   UNL     1       3.765   4.606  -9.829  1.00  0.00     0.041 C 
ATOM      5  C   UNL     1       3.871   3.241  -9.124  1.00  0.00     0.175 C 
ATOM      6  C   UNL     1       2.281   2.207 -12.264  1.00  0.00     0.059 C 
ATOM      7  C   UNL     1       2.621   5.227 -12.104  1.00  0.00     0.008 C 
ATOM      8  C   UNL     1       1.324   3.169 -13.000  1.00  0.00     0.143 C 
ATOM      9  C   UNL     1       1.995   4.519 -13.324  1.00  0.00     0.034 C 
ENDROOT
BRANCH   1  10
ATOM     10  C   UNL     1       4.508   1.053 -10.087  1.00  0.00     0.246 C 
ATOM     11  O   UNL     1       3.823   0.036  -9.934  1.00  0.00    -0.272 OA
BRANCH  10  12
ATOM     12  C   UNL     1       6.061   0.981 -10.144  1.00  0.00     0.174 C 
BRANCH  12  13
ATOM     13  N   UNL     1       6.627   2.326 -10.050  1.00  0.00    -0.342 N 
ATOM     14  C   UNL     1       7.456   2.767  -9.043  1.00  0.00     0.249 C 
ATOM     15  O   UNL     1       7.839   2.062  -8.118  1.00  0.00    -0.272 OA
ATOM     16  H   UNL     1       6.276   3.063 -10.657  1.00  0.00     0.164 HD
BRANCH  14  17
ATOM     17  C   UNL     1       7.872   4.243  -9.217  1.00  0.00     0.207 C 
BRANCH  17  18
ATOM     18  C   UNL     1       9.398   4.368  -9.267  1.00  0.00     0.077 C 
BRANCH  18  19
ATOM     19  C   UNL     1       9.959   3.875 -10.582  1.00  0.00    -0.043 A 
ATOM     20  C   UNL     1      11.687   2.713 -11.827  1.00  0.00     0.083 A 
ATOM     21  C   UNL     1      11.145   3.124 -10.608  1.00  0.00     0.028 A 
ATOM     22  C   UNL     1      11.051   3.048 -13.022  1.00  0.00     0.134 A 
ATOM     23  C   UNL     1       9.875   3.790 -13.010  1.00  0.00     0.048 A 
ATOM     24  C   UNL     1       9.332   4.205 -11.793  1.00  0.00     0.008 A 
ATOM     25  Cl  UNL     1      13.145   1.792 -11.839  1.00  0.00    -0.080 Cl
BRANCH  22  26
ATOM     26  O   UNL     1      11.549   2.676 -14.242  1.00  0.00    -0.506 OA
ATOM     27  H   UNL     1      11.148   1.814 -14.457  1.00  0.00     0.293 HD
ENDBRANCH  22  26
ENDBRANCH  18  19
ENDBRANCH  17  18
BRANCH  17  28
ATOM     28  O   UNL     1       7.362   5.054  -8.145  1.00  0.00    -0.383 OA
ATOM     29  H   UNL     1       8.131   5.249  -7.563  1.00  0.00     0.211 HD
ENDBRANCH  17  28
ENDBRANCH  14  17
ENDBRANCH  12  13
BRANCH  12  30
ATOM     30  C   UNL     1       6.581   0.205 -11.384  1.00  0.00     0.018 C 
ATOM     31  C   UNL     1       6.625  -1.306 -11.104  1.00  0.00     0.010 C 
BRANCH  30  32
ATOM     32  C   UNL     1       7.961   0.692 -11.889  1.00  0.00     0.002 C 
ATOM     33  C   UNL     1       8.204   0.523 -13.383  1.00  0.00     0.004 C 
ENDBRANCH  30  32
ENDBRANCH  12  30
ENDBRANCH  10  12
ENDBRANCH   1  10
BRANCH   5  34
ATOM     34  C   UNL     1       2.663   2.987  -8.183  1.00  0.00     0.242 C 
ATOM     35  O   UNL     1       2.070   3.902  -7.612  1.00  0.00    -0.273 OA
ATOM     36  N   UNL     1       2.338   1.663  -7.993  1.00  0.00    -0.354 N 
ATOM     37  H   UNL     1       2.940   0.946  -8.397  1.00  0.00     0.163 HD
BRANCH  36  38
ATOM     38  C   UNL     1       1.118   1.255  -7.327  1.00  0.00     0.116 C 
BRANCH  38  39
ATOM     39  C   UNL     1       1.426   0.167  -6.300  1.00  0.00     0.023 C 
BRANCH  39  40
ATOM     40  C   UNL     1       0.186  -0.623  -5.898  1.00  0.00     0.026 C 
BRANCH  40  41
ATOM     41  C   UNL     1      -0.719  -0.864  -7.106  1.00  0.00     0.146 C 
BRANCH  41  42
ATOM     42  N   UNL     1      -1.732  -1.857  -6.772  1.00  0.00    -0.254 NA
ATOM     43  C   UNL     1      -2.968  -1.527  -6.779  1.00  0.00     0.185 C 
ATOM     44  N   UNL     1      -3.548  -0.345  -7.059  1.00  0.00    -0.370 N 
ATOM     45  N   UNL     1      -3.886  -2.456  -6.464  1.00  0.00    -0.370 N 
ATOM     46  H   UNL     1      -4.499  -0.164  -6.789  1.00  0.00     0.159 HD
ATOM     47  H   UNL     1      -3.000   0.465  -7.330  1.00  0.00     0.159 HD
ATOM     48  H   UNL     1      -3.534  -3.379  -6.248  1.00  0.00     0.159 HD
ATOM     49  H   UNL     1      -4.863  -2.349  -6.673  1.00  0.00     0.159 HD
ENDBRANCH  41  42
ENDBRANCH  40  41
ENDBRANCH  39  40
ENDBRANCH  38  39
ENDBRANCH  36  38
ENDBRANCH   5  34
BRANCH   8  50
ATOM     50  O   UNL     1       0.168   3.418 -12.200  1.00  0.00    -0.245 OA
BRANCH  50  51
ATOM     51  S   UNL     1      -1.176   4.014 -12.895  1.00  0.00     0.397 S 
ATOM     52  O   UNL     1      -1.014   3.928 -14.329  1.00  0.00    -0.169 OA
ATOM     53  O   UNL     1      -1.550   5.254 -12.246  1.00  0.00    -0.169 OA
BRANCH  51  54
ATOM     54  O   UNL     1      -2.274   2.904 -12.511  1.00  0.00    -0.264 OA
ATOM     55  H   UNL     1      -2.816   3.261 -11.778  1.00  0.00     0.236 HD
ENDBRANCH  51  54
ENDBRANCH  50  51
ENDBRANCH   8  50
TORSDOF 19
ENDMDL
MODEL 3
REMARK VINA RESULT:    -6.430      3.867      7.397
REMARK INTER + INTRA:         -16.522
REMARK INTER:                 -11.808
REMARK INTRA:                  -4.714
REMARK UNBOUND:                -3.513
REMARK SMILES CC[C@@H](C)[C@@H](NC(=O)[C@@H](O)Cc1ccc(O)c(Cl)c1)C(=O)N1[C@H](C(=O)NCCCCN=C(N)N)C[C@H]2CC[C@H](OS(=O)(=O)O)C[C@@H]21
REMARK SMILES IDX 22 1 36 2 46 3 35 4 23 5 45 6 37 7 39 8 38 9 20 10 21 11
REMARK SMILES IDX 5 12 6 13 7 14 8 15 9 17 11 18 12 19 17 20 19 21 15 22 14 23
REMARK SMILES IDX 13 24 18 25 16 26 10 28 3 30 4 31 2 32 1 33 24 34 25 35
REMARK SMILES IDX 26 36 27 38 28 39 29 40 30 41 31 42 32 43 33 44 34 45 40 50
REMARK SMILES IDX 41 51 42 52 43 53 44 54
REMARK H PARENT 6 16 16 27 10 29 26 37 33 46 33 47 34 48 34 49 44 55
ROOT
ATOM      1  N   UNL     1       0.333   3.833  -5.254  1.00  0.00    -0.326 N 
ATOM      2  C   UNL     1      -1.197   2.365  -4.230  1.00  0.00     0.014 C 
ATOM      3  C   UNL     1      -1.022   3.302  -5.429  1.00  0.00     0.091 C 
ATOM      4  C   UNL     1      -0.416   3.074  -3.135  1.00  0.00     0.041 C 
ATOM      5  C   UNL     1       0.853   3.465  -3.914  1.00  0.00     0.175 C 
ATOM      6  C   UNL     1      -1.334   2.519  -6.703  1.00  0.00     0.059 C 
ATOM      7  C   UNL     1      -2.660   2.037  -4.008  1.00  0.00     0.008 C 
ATOM      8  C   UNL     1      -2.401   1.420  -6.512  1.00  0.00     0.143 C 
ATOM      9  C   UNL     1      -3.362   1.742  -5.350  1.00  0.00     0.034 C 
ENDROOT
BRANCH   1  10
ATOM     10  C   UNL     1       1.036   4.744  -6.023  1.00  0.00     0.246 C 
ATOM     11  O   UNL     1       1.416   5.800  -5.507  1.00  0.00    -0.272 OA
BRANCH  10  12
ATOM     12  C   UNL     1       1.368   4.402  -7.505  1.00  0.00     0.174 C 
BRANCH  12  13
ATOM     13  N   UNL     1       2.163   3.176  -7.567  1.00  0.00    -0.342 N 
ATOM     14  C   UNL     1       1.987   2.167  -8.487  1.00  0.00     0.249 C 
ATOM     15  O   UNL     1       1.153   2.198  -9.382  1.00  0.00    -0.272 OA
ATOM     16  H   UNL     1       2.785   2.939  -6.798  1.00  0.00     0.164 HD
BRANCH  14  17
ATOM     17  C   UNL     1       2.972   0.996  -8.281  1.00  0.00     0.207 C 
BRANCH  17  18
ATOM     18  C   UNL     1       3.648   0.626  -9.605  1.00  0.00     0.077 C 
BRANCH  18  19
ATOM     19  C   UNL     1       5.057   1.171  -9.688  1.00  0.00    -0.043 A 
ATOM     20  C   UNL     1       7.205   1.283 -10.809  1.00  0.00     0.083 A 
ATOM     21  C   UNL     1       5.890   0.818 -10.761  1.00  0.00     0.028 A 
ATOM     22  C   UNL     1       7.695   2.099  -9.788  1.00  0.00     0.134 A 
ATOM     23  C   UNL     1       6.880   2.456  -8.720  1.00  0.00     0.048 A 
ATOM     24  C   UNL     1       5.564   1.991  -8.668  1.00  0.00     0.008 A 
ATOM     25  Cl  UNL     1       8.214   0.839 -12.135  1.00  0.00    -0.080 Cl
BRANCH  22  26
ATOM     26  O   UNL     1       8.980   2.570  -9.786  1.00  0.00    -0.506 OA
ATOM     27  H   UNL     1       9.127   2.987 -10.656  1.00  0.00     0.293 HD
ENDBRANCH  22  26
ENDBRANCH  18  19
ENDBRANCH  17  18
BRANCH  17  28
ATOM     28  O   UNL     1       2.300  -0.158  -7.750  1.00  0.00    -0.383 OA
ATOM     29  H   UNL     1       1.731   0.172  -7.018  1.00  0.00     0.211 HD
ENDBRANCH  17  28
ENDBRANCH  14  17
ENDBRANCH  12  13
BRANCH  12  30
ATOM     30  C   UNL     1       2.040   5.583  -8.257  1.00  0.00     0.018 C 
ATOM     31  C   UNL     1       1.339   5.845  -9.599  1.00  0.00     0.010 C 
BRANCH  30  32
ATOM     32  C   UNL     1       3.560   5.394  -8.478  1.00  0.00     0.002 C 
ATOM     33  C   UNL     1       3.988   5.201  -9.928  1.00  0.00     0.004 C 
ENDBRANCH  30  32
ENDBRANCH  12  30
ENDBRANCH  10  12
ENDBRANCH   1  10
BRANCH   5  34
ATOM     34  C   UNL     1       1.849   2.278  -4.017  1.00  0.00     0.242 C 
ATOM     35  O   UNL     1       1.852   1.504  -4.973  1.00  0.00    -0.273 OA
ATOM     36  N   UNL     1       2.690   2.124  -2.937  1.00  0.00    -0.354 N 
ATOM     37  H   UNL     1       2.558   2.724  -2.122  1.00  0.00     0.163 HD
BRANCH  36  38
ATOM     38  C   UNL     1       3.815   1.213  -2.958  1.00  0.00     0.116 C 
BRANCH  38  39
ATOM     39  C   UNL     1       5.096   1.979  -3.283  1.00  0.00     0.023 C 
BRANCH  39  40
ATOM     40  C   UNL     1       5.383   2.026  -4.780  1.00  0.00     0.026 C 
BRANCH  40  41
ATOM     41  C   UNL     1       5.077   3.412  -5.347  1.00  0.00     0.146 C 
BRANCH  41  42
ATOM     42  N   UNL     1       4.836   4.348  -4.257  1.00  0.00    -0.254 NA
ATOM     43  C   UNL     1       5.279   5.546  -4.342  1.00  0.00     0.185 C 
ATOM     44  N   UNL     1       5.976   6.144  -5.326  1.00  0.00    -0.370 N 
ATOM     45  N   UNL     1       5.050   6.393  -3.324  1.00  0.00    -0.370 N 
ATOM     46  H   UNL     1       6.466   7.006  -5.156  1.00  0.00     0.159 HD
ATOM     47  H   UNL     1       6.224   5.651  -6.178  1.00  0.00     0.159 HD
ATOM     48  H   UNL     1       4.522   6.024  -2.545  1.00  0.00     0.159 HD
ATOM     49  H   UNL     1       5.150   7.388  -3.412  1.00  0.00     0.159 HD
ENDBRANCH  41  42
ENDBRANCH  40  41
ENDBRANCH  39  40
ENDBRANCH  38  39
ENDBRANCH  36  38
ENDBRANCH   5  34
BRANCH   8  50
ATOM     50  O   UNL     1      -1.772   0.166  -6.246  1.00  0.00    -0.245 OA
BRANCH  50  51
ATOM     51  S   UNL     1      -1.810  -1.006  -7.373  1.00  0.00     0.397 S 
ATOM     52  O   UNL     1      -0.446  -1.375  -7.679  1.00  0.00    -0.169 OA
ATOM     53  O   UNL     1      -2.753  -0.651  -8.413  1.00  0.00    -0.169 OA
BRANCH  51  54
ATOM     54  O   UNL     1      -2.424  -2.244  -6.549  1.00  0.00    -0.264 OA
ATOM     55  H   UNL     1      -1.772  -2.973  -6.577  1.00  0.00     0.236 HD
ENDBRANCH  51  54
ENDBRANCH  50  51
ENDBRANCH   8  50
TORSDOF 19
ENDMDL
MODEL 4
REMARK VINA RESULT:    -6.398     12.197     16.093
REMARK INTER + INTRA:         -16.455
REMARK INTER:                 -12.088
REMARK INTRA:                  -4.368
REMARK UNBOUND:                -3.513
REMARK SMILES CC[C@@H](C)[C@@H](NC(=O)[C@@H](O)Cc1ccc(O)c(Cl)c1)C(=O)N1[C@H](C(=O)NCCCCN=C(N)N)C[C@H]2CC[C@H](OS(=O)(=O)O)C[C@@H]21
REMARK SMILES IDX 22 1 36 2 46 3 35 4 23 5 45 6 37 7 39 8 38 9 20 10 21 11
REMARK SMILES IDX 5 12 6 13 7 14 8 15 9 17 11 18 12 19 17 20 19 21 15 22 14 23
REMARK SMILES IDX 13 24 18 25 16 26 10 28 3 30 4 31 2 32 1 33 24 34 25 35
REMARK SMILES IDX 26 36 27 38 28 39 29 40 30 41 31 42 32 43 33 44 34 45 40 50
REMARK SMILES IDX 41 51 42 52 43 53 44 54
REMARK H PARENT 6 16 16 27 10 29 26 37 33 46 33 47 34 48 34 49 44 55
ROOT
ATOM      1  N   UNL     1      -9.992   6.762  -6.316  1.00  0.00    -0.326 N 
ATOM      2  C   UNL     1      -8.685   4.836  -5.964  1.00  0.00     0.014 C 
ATOM      3  C   UNL     1      -8.596   6.356  -6.128  1.00  0.00     0.091 C 
ATOM      4  C   UNL     1      -9.833   4.465  -6.890  1.00  0.00     0.041 C 
ATOM      5  C   UNL     1     -10.846   5.566  -6.522  1.00  0.00     0.175 C 
ATOM      6  C   UNL     1      -7.831   6.926  -4.935  1.00  0.00     0.059 C 
ATOM      7  C   UNL     1      -7.329   4.189  -6.165  1.00  0.00     0.008 C 
ATOM      8  C   UNL     1      -6.754   5.973  -4.374  1.00  0.00     0.143 C 
ATOM      9  C   UNL     1      -6.228   4.997  -5.447  1.00  0.00     0.034 C 
ENDROOT
BRANCH   1  10
ATOM     10  C   UNL     1     -10.529   8.019  -6.533  1.00  0.00     0.246 C 
ATOM     11  O   UNL     1     -11.242   8.527  -5.661  1.00  0.00    -0.272 OA
BRANCH  10  12
ATOM     12  C   UNL     1     -10.190   8.782  -7.847  1.00  0.00     0.174 C 
BRANCH  12  13
ATOM     13  N   UNL     1     -10.261   7.869  -8.986  1.00  0.00    -0.342 N 
ATOM     14  C   UNL     1     -11.293   7.818  -9.895  1.00  0.00     0.249 C 
ATOM     15  O   UNL     1     -12.266   8.561  -9.864  1.00  0.00    -0.272 OA
ATOM     16  H   UNL     1      -9.607   7.093  -9.051  1.00  0.00     0.164 HD
BRANCH  14  17
ATOM     17  C   UNL     1     -11.084   6.734 -10.975  1.00  0.00     0.207 C 
BRANCH  17  18
ATOM     18  C   UNL     1     -10.019   7.180 -11.982  1.00  0.00     0.077 C 
BRANCH  18  19
ATOM     19  C   UNL     1      -8.947   6.130 -12.167  1.00  0.00    -0.043 A 
ATOM     20  C   UNL     1      -7.418   4.918 -13.608  1.00  0.00     0.083 A 
ATOM     21  C   UNL     1      -8.371   5.921 -13.430  1.00  0.00     0.028 A 
ATOM     22  C   UNL     1      -7.035   4.119 -12.530  1.00  0.00     0.134 A 
ATOM     23  C   UNL     1      -7.597   4.315 -11.274  1.00  0.00     0.048 A 
ATOM     24  C   UNL     1      -8.553   5.317 -11.093  1.00  0.00     0.008 A 
ATOM     25  Cl  UNL     1      -6.722   4.676 -15.167  1.00  0.00    -0.080 Cl
BRANCH  22  26
ATOM     26  O   UNL     1      -6.112   3.116 -12.658  1.00  0.00    -0.506 OA
ATOM     27  H   UNL     1      -5.239   3.516 -12.487  1.00  0.00     0.293 HD
ENDBRANCH  22  26
ENDBRANCH  18  19
ENDBRANCH  17  18
BRANCH  17  28
ATOM     28  O   UNL     1     -12.310   6.453 -11.670  1.00  0.00    -0.383 OA
ATOM     29  H   UNL     1     -13.032   6.799 -11.098  1.00  0.00     0.211 HD
ENDBRANCH  17  28
ENDBRANCH  14  17
ENDBRANCH  12  13
BRANCH  12  30
ATOM     30  C   UNL     1      -8.832   9.531  -7.771  1.00  0.00     0.018 C 
ATOM     31  C   UNL     1      -8.986  10.868  -7.030  1.00  0.00     0.010 C 
BRANCH  30  32
ATOM     32  C   UNL     1      -8.173   9.763  -9.153  1.00  0.00     0.002 C 
ATOM     33  C   UNL     1      -8.745  10.919  -9.962  1.00  0.00     0.004 C 
ENDBRANCH  30  32
ENDBRANCH  12  30
ENDBRANCH  10  12
ENDBRANCH   1  10
BRANCH   5  34
ATOM     34  C   UNL     1     -11.625   5.216  -5.227  1.00  0.00     0.242 C 
ATOM     35  O   UNL     1     -11.376   5.748  -4.145  1.00  0.00    -0.273 OA
ATOM     36  N   UNL     1     -12.576   4.230  -5.363  1.00  0.00    -0.354 N 
ATOM     37  H   UNL     1     -12.654   3.742  -6.257  1.00  0.00     0.163 HD
BRANCH  36  38
ATOM     38  C   UNL     1     -13.536   3.932  -4.321  1.00  0.00     0.116 C 
BRANCH  38  39
ATOM     39  C   UNL     1     -14.860   4.630  -4.620  1.00  0.00     0.023 C 
BRANCH  39  40
ATOM     40  C   UNL     1     -14.956   6.004  -3.964  1.00  0.00     0.026 C 
BRANCH  40  41
ATOM     41  C   UNL     1     -14.822   7.113  -5.008  1.00  0.00     0.146 C 
BRANCH  41  42
ATOM     42  N   UNL     1     -14.773   6.530  -6.342  1.00  0.00    -0.254 NA
ATOM     43  C   UNL     1     -14.366   7.239  -7.328  1.00  0.00     0.185 C 
ATOM     44  N   UNL     1     -13.943   8.516  -7.359  1.00  0.00    -0.370 N 
ATOM     45  N   UNL     1     -14.333   6.685  -8.551  1.00  0.00    -0.370 N 
ATOM     46  H   UNL     1     -13.888   9.016  -8.230  1.00  0.00     0.159 HD
ATOM     47  H   UNL     1     -13.892   9.081  -6.517  1.00  0.00     0.159 HD
ATOM     48  H   UNL     1     -14.628   5.720  -8.614  1.00  0.00     0.159 HD
ATOM     49  H   UNL     1     -13.815   7.082  -9.314  1.00  0.00     0.159 HD
ENDBRANCH  41  42
ENDBRANCH  40  41
ENDBRANCH  39  40
ENDBRANCH  38  39
ENDBRANCH  36  38
ENDBRANCH   5  34
BRANCH   8  50
ATOM     50  O   UNL     1      -7.289   5.210  -3.292  1.00  0.00    -0.245 OA
BRANCH  50  51
ATOM     51  S   UNL     1      -6.858   5.571  -1.766  1.00  0.00     0.397 S 
ATOM     52  O   UNL     1      -6.648   6.999  -1.687  1.00  0.00    -0.169 OA
ATOM     53  O   UNL     1      -5.857   4.629  -1.308  1.00  0.00    -0.169 OA
BRANCH  51  54
ATOM     54  O   UNL     1      -8.217   5.282  -0.956  1.00  0.00    -0.264 OA
ATOM     55  H   UNL     1      -8.662   4.521  -1.382  1.00  0.00     0.236 HD
ENDBRANCH  51  54
ENDBRANCH  50  51
ENDBRANCH   8  50
TORSDOF 19
ENDMDL
MODEL 5
REMARK VINA RESULT:    -6.390      5.465     10.092
REMARK INTER + INTRA:         -16.440
REMARK INTER:                 -13.371
REMARK INTRA:                  -3.069
REMARK UNBOUND:                -3.513
REMARK SMILES CC[C@@H](C)[C@@H](NC(=O)[C@@H](O)Cc1ccc(O)c(Cl)c1)C(=O)N1[C@H](C(=O)NCCCCN=C(N)N)C[C@H]2CC[C@H](OS(=O)(=O)O)C[C@@H]21
REMARK SMILES IDX 22 1 36 2 46 3 35 4 23 5 45 6 37 7 39 8 38 9 20 10 21 11
REMARK SMILES IDX 5 12 6 13 7 14 8 15 9 17 11 18 12 19 17 20 19 21 15 22 14 23
REMARK SMILES IDX 13 24 18 25 16 26 10 28 3 30 4 31 2 32 1 33 24 34 25 35
REMARK SMILES IDX 26 36 27 38 28 39 29 40 30 41 31 42 32 43 33 44 34 45 40 50
REMARK SMILES IDX 41 51 42 52 43 53 44 54
REMARK H PARENT 6 16 16 27 10 29 26 37 33 46 33 47 34 48 34 49 44 55
ROOT
ATOM      1  N   UNL     1      -0.394   2.699  -3.608  1.00  0.00    -0.326 N 
ATOM      2  C   UNL     1      -1.911   4.165  -4.654  1.00  0.00     0.014 C 
ATOM      3  C   UNL     1      -1.665   2.687  -4.337  1.00  0.00     0.091 C 
ATOM      4  C   UNL     1      -0.504   4.696  -4.885  1.00  0.00     0.041 C 
ATOM      5  C   UNL     1       0.232   4.042  -3.701  1.00  0.00     0.175 C 
ATOM      6  C   UNL     1      -2.900   2.133  -3.629  1.00  0.00     0.059 C 
ATOM      7  C   UNL     1      -2.952   4.319  -5.745  1.00  0.00     0.008 C 
ATOM      8  C   UNL     1      -4.222   2.796  -4.075  1.00  0.00     0.143 C 
ATOM      9  C   UNL     1      -4.134   3.355  -5.510  1.00  0.00     0.034 C 
ENDROOT
BRANCH   1  10
ATOM     10  C   UNL     1       0.339   1.649  -3.084  1.00  0.00     0.246 C 
ATOM     11  O   UNL     1       0.100   1.263  -1.935  1.00  0.00    -0.272 OA
BRANCH  10  12
ATOM     12  C   UNL     1       1.416   0.950  -3.964  1.00  0.00     0.174 C 
BRANCH  12  13
ATOM     13  N   UNL     1       2.676   1.690  -3.891  1.00  0.00    -0.342 N 
ATOM     14  C   UNL     1       3.762   1.327  -3.127  1.00  0.00     0.249 C 
ATOM     15  O   UNL     1       3.804   0.316  -2.437  1.00  0.00    -0.272 OA
ATOM     16  H   UNL     1       2.734   2.626  -4.284  1.00  0.00     0.164 HD
BRANCH  14  17
ATOM     17  C   UNL     1       4.936   2.322  -3.250  1.00  0.00     0.207 C 
BRANCH  17  18
ATOM     18  C   UNL     1       4.415   3.729  -3.557  1.00  0.00     0.077 C 
BRANCH  18  19
ATOM     19  C   UNL     1       4.740   4.703  -2.447  1.00  0.00    -0.043 A 
ATOM     20  C   UNL     1       4.040   6.424  -0.888  1.00  0.00     0.083 A 
ATOM     21  C   UNL     1       3.728   5.492  -1.877  1.00  0.00     0.028 A 
ATOM     22  C   UNL     1       5.360   6.577  -0.463  1.00  0.00     0.134 A 
ATOM     23  C   UNL     1       6.372   5.803  -1.019  1.00  0.00     0.048 A 
ATOM     24  C   UNL     1       6.063   4.870  -2.011  1.00  0.00     0.008 A 
ATOM     25  Cl  UNL     1       2.782   7.384  -0.200  1.00  0.00    -0.080 Cl
BRANCH  22  26
ATOM     26  O   UNL     1       5.716   7.486   0.497  1.00  0.00    -0.506 OA
ATOM     27  H   UNL     1       6.601   7.816   0.255  1.00  0.00     0.293 HD
ENDBRANCH  22  26
ENDBRANCH  18  19
ENDBRANCH  17  18
BRANCH  17  28
ATOM     28  O   UNL     1       5.851   1.917  -4.281  1.00  0.00    -0.383 OA
ATOM     29  H   UNL     1       6.676   2.434  -4.131  1.00  0.00     0.211 HD
ENDBRANCH  17  28
ENDBRANCH  14  17
ENDBRANCH  12  13
BRANCH  12  30
ATOM     30  C   UNL     1       0.944   0.727  -5.426  1.00  0.00     0.018 C 
ATOM     31  C   UNL     1       1.335  -0.675  -5.918  1.00  0.00     0.010 C 
BRANCH  30  32
ATOM     32  C   UNL     1       1.457   1.801  -6.416  1.00  0.00     0.002 C 
ATOM     33  C   UNL     1       2.447   1.303  -7.460  1.00  0.00     0.004 C 
ENDBRANCH  30  32
ENDBRANCH  12  30
ENDBRANCH  10  12
ENDBRANCH   1  10
BRANCH   5  34
ATOM     34  C   UNL     1       0.021   4.839  -2.386  1.00  0.00     0.242 C 
ATOM     35  O   UNL     1       0.290   6.037  -2.293  1.00  0.00    -0.273 OA
ATOM     36  N   UNL     1      -0.436   4.099  -1.319  1.00  0.00    -0.354 N 
ATOM     37  H   UNL     1      -0.527   3.087  -1.426  1.00  0.00     0.163 HD
BRANCH  36  38
ATOM     38  C   UNL     1      -0.890   4.714  -0.089  1.00  0.00     0.116 C 
BRANCH  38  39
ATOM     39  C   UNL     1      -2.381   5.030  -0.187  1.00  0.00     0.023 C 
BRANCH  39  40
ATOM     40  C   UNL     1      -2.933   5.634   1.100  1.00  0.00     0.026 C 
BRANCH  40  41
ATOM     41  C   UNL     1      -2.251   5.022   2.323  1.00  0.00     0.146 C 
BRANCH  41  42
ATOM     42  N   UNL     1      -3.143   4.058   2.953  1.00  0.00    -0.254 NA
ATOM     43  C   UNL     1      -3.381   4.141   4.208  1.00  0.00     0.185 C 
ATOM     44  N   UNL     1      -2.926   5.021   5.119  1.00  0.00    -0.370 N 
ATOM     45  N   UNL     1      -4.203   3.240   4.771  1.00  0.00    -0.370 N 
ATOM     46  H   UNL     1      -2.998   4.825   6.102  1.00  0.00     0.159 HD
ATOM     47  H   UNL     1      -2.303   5.781   4.861  1.00  0.00     0.159 HD
ATOM     48  H   UNL     1      -4.597   2.545   4.151  1.00  0.00     0.159 HD
ATOM     49  H   UNL     1      -4.621   3.374   5.674  1.00  0.00     0.159 HD
ENDBRANCH  41  42
ENDBRANCH  40  41
ENDBRANCH  39  40
ENDBRANCH  38  39
ENDBRANCH  36  38
ENDBRANCH   5  34
BRANCH   8  50
ATOM     50  O   UNL     1      -4.556   3.866  -3.191  1.00  0.00    -0.245 OA
BRANCH  50  51
ATOM     51  S   UNL     1      -5.883   3.752  -2.258  1.00  0.00     0.397 S 
ATOM     52  O   UNL     1      -7.035   3.668  -3.128  1.00  0.00    -0.169 OA
ATOM     53  O   UNL     1      -5.809   4.723  -1.186  1.00  0.00    -0.169 OA
BRANCH  51  54
ATOM     54  O   UNL     1      -5.715   2.288  -1.613  1.00  0.00    -0.264 OA
ATOM     55  H   UNL     1      -4.761   2.068  -1.617  1.00  0.00     0.236 HD
ENDBRANCH  51  54
ENDBRANCH  50  51
ENDBRANCH   8  50
TORSDOF 19
ENDMDL
MODEL 6
REMARK VINA RESULT:    -6.338     12.948     16.196
REMARK INTER + INTRA:         -16.335
REMARK INTER:                 -11.083
REMARK INTRA:                  -5.252
REMARK UNBOUND:                -3.513
REMARK SMILES CC[C@@H](C)[C@@H](NC(=O)[C@@H](O)Cc1ccc(O)c(Cl)c1)C(=O)N1[C@H](C(=O)NCCCCN=C(N)N)C[C@H]2CC[C@H](OS(=O)(=O)O)C[C@@H]21
REMARK SMILES IDX 22 1 36 2 46 3 35 4 23 5 45 6 37 7 39 8 38 9 20 10 21 11
REMARK SMILES IDX 5 12 6 13 7 14 8 15 9 17 11 18 12 19 17 20 19 21 15 22 14 23
REMARK SMILES IDX 13 24 18 25 16 26 10 28 3 30 4 31 2 32 1 33 24 34 25 35
REMARK SMILES IDX 26 36 27 38 28 39 29 40 30 41 31 42 32 43 33 44 34 45 40 50
REMARK SMILES IDX 41 51 42 52 43 53 44 54
REMARK H PARENT 6 16 16 27 10 29 26 37 33 46 33 47 34 48 34 49 44 55
ROOT
ATOM      1  N   UNL     1     -11.787   5.466  -5.953  1.00  0.00    -0.326 N 
ATOM      2  C   UNL     1     -14.032   6.007  -5.496  1.00  0.00     0.014 C 
ATOM      3  C   UNL     1     -12.780   5.379  -4.878  1.00  0.00     0.091 C 
ATOM      4  C   UNL     1     -13.935   5.584  -6.953  1.00  0.00     0.041 C 
ATOM      5  C   UNL     1     -12.446   5.868  -7.221  1.00  0.00     0.175 C 
ATOM      6  C   UNL     1     -12.483   6.090  -3.559  1.00  0.00     0.059 C 
ATOM      7  C   UNL     1     -15.270   5.646  -4.697  1.00  0.00     0.008 C 
ATOM      8  C   UNL     1     -13.745   6.594  -2.827  1.00  0.00     0.143 C 
ATOM      9  C   UNL     1     -14.993   5.760  -3.183  1.00  0.00     0.034 C 
ENDROOT
BRANCH   1  10
ATOM     10  C   UNL     1     -10.471   5.038  -5.983  1.00  0.00     0.246 C 
ATOM     11  O   UNL     1     -10.109   4.267  -6.878  1.00  0.00    -0.272 OA
BRANCH  10  12
ATOM     12  C   UNL     1      -9.468   5.570  -4.919  1.00  0.00     0.174 C 
BRANCH  12  13
ATOM     13  N   UNL     1      -9.537   7.030  -4.853  1.00  0.00    -0.342 N 
ATOM     14  C   UNL     1      -9.506   7.771  -3.694  1.00  0.00     0.249 C 
ATOM     15  O   UNL     1      -9.387   7.284  -2.576  1.00  0.00    -0.272 OA
ATOM     16  H   UNL     1      -9.793   7.559  -5.683  1.00  0.00     0.164 HD
BRANCH  14  17
ATOM     17  C   UNL     1      -9.615   9.288  -3.954  1.00  0.00     0.207 C 
BRANCH  17  18
ATOM     18  C   UNL     1      -8.226   9.934  -3.953  1.00  0.00     0.077 C 
BRANCH  18  19
ATOM     19  C   UNL     1      -7.770  10.287  -5.351  1.00  0.00    -0.043 A 
ATOM     20  C   UNL     1      -8.289  10.867  -7.649  1.00  0.00     0.083 A 
ATOM     21  C   UNL     1      -8.711  10.590  -6.348  1.00  0.00     0.028 A 
ATOM     22  C   UNL     1      -6.929  10.841  -7.962  1.00  0.00     0.134 A 
ATOM     23  C   UNL     1      -5.987  10.543  -6.985  1.00  0.00     0.048 A 
ATOM     24  C   UNL     1      -6.406  10.264  -5.682  1.00  0.00     0.008 A 
ATOM     25  Cl  UNL     1      -9.460  11.236  -8.859  1.00  0.00    -0.080 Cl
BRANCH  22  26
ATOM     26  O   UNL     1      -6.469  11.096  -9.226  1.00  0.00    -0.506 OA
ATOM     27  H   UNL     1      -5.527  10.844  -9.237  1.00  0.00     0.293 HD
ENDBRANCH  22  26
ENDBRANCH  18  19
ENDBRANCH  17  18
BRANCH  17  28
ATOM     28  O   UNL     1     -10.437   9.925  -2.962  1.00  0.00    -0.383 OA
ATOM     29  H   UNL     1     -11.310  10.078  -3.389  1.00  0.00     0.211 HD
ENDBRANCH  17  28
ENDBRANCH  14  17
ENDBRANCH  12  13
BRANCH  12  30
ATOM     30  C   UNL     1      -8.021   5.055  -5.148  1.00  0.00     0.018 C 
ATOM     31  C   UNL     1      -7.407   4.548  -3.834  1.00  0.00     0.010 C 
BRANCH  30  32
ATOM     32  C   UNL     1      -7.086   6.101  -5.803  1.00  0.00     0.002 C 
ATOM     33  C   UNL     1      -5.681   5.607  -6.124  1.00  0.00     0.004 C 
ENDBRANCH  30  32
ENDBRANCH  12  30
ENDBRANCH  10  12
ENDBRANCH   1  10
BRANCH   5  34
ATOM     34  C   UNL     1     -12.195   7.370  -7.519  1.00  0.00     0.242 C 
ATOM     35  O   UNL     1     -11.500   8.078  -6.790  1.00  0.00    -0.273 OA
ATOM     36  N   UNL     1     -12.847   7.864  -8.626  1.00  0.00    -0.354 N 
ATOM     37  H   UNL     1     -13.503   7.259  -9.121  1.00  0.00     0.163 HD
BRANCH  36  38
ATOM     38  C   UNL     1     -12.560   9.175  -9.172  1.00  0.00     0.116 C 
BRANCH  38  39
ATOM     39  C   UNL     1     -12.009   9.036 -10.590  1.00  0.00     0.023 C 
BRANCH  39  40
ATOM     40  C   UNL     1     -12.436   7.733 -11.256  1.00  0.00     0.026 C 
BRANCH  40  41
ATOM     41  C   UNL     1     -11.219   6.867 -11.583  1.00  0.00     0.146 C 
BRANCH  41  42
ATOM     42  N   UNL     1     -10.194   7.052 -10.564  1.00  0.00    -0.254 NA
ATOM     43  C   UNL     1      -9.801   6.050  -9.872  1.00  0.00     0.185 C 
ATOM     44  N   UNL     1     -10.187   4.761  -9.919  1.00  0.00    -0.370 N 
ATOM     45  N   UNL     1      -8.859   6.242  -8.934  1.00  0.00    -0.370 N 
ATOM     46  H   UNL     1      -9.976   4.135  -9.160  1.00  0.00     0.159 HD
ATOM     47  H   UNL     1     -10.884   4.438 -10.582  1.00  0.00     0.159 HD
ATOM     48  H   UNL     1      -8.506   7.185  -8.840  1.00  0.00     0.159 HD
ATOM     49  H   UNL     1      -8.336   5.488  -8.526  1.00  0.00     0.159 HD
ENDBRANCH  41  42
ENDBRANCH  40  41
ENDBRANCH  39  40
ENDBRANCH  38  39
ENDBRANCH  36  38
ENDBRANCH   5  34
BRANCH   8  50
ATOM     50  O   UNL     1     -13.998   7.957  -3.167  1.00  0.00    -0.245 OA
BRANCH  50  51
ATOM     51  S   UNL     1     -13.823   9.113  -2.035  1.00  0.00     0.397 S 
ATOM     52  O   UNL     1     -12.697   8.755  -1.203  1.00  0.00    -0.169 OA
ATOM     53  O   UNL     1     -15.116   9.437  -1.468  1.00  0.00    -0.169 OA
BRANCH  51  54
ATOM     54  O   UNL     1     -13.337  10.370  -2.912  1.00  0.00    -0.264 OA
ATOM     55  H   UNL     1     -13.757  11.173  -2.541  1.00  0.00     0.236 HD
ENDBRANCH  51  54
ENDBRANCH  50  51
ENDBRANCH   8  50
TORSDOF 19
ENDMDL
MODEL 7
REMARK VINA RESULT:    -6.298      4.319      7.317
REMARK INTER + INTRA:         -16.254
REMARK INTER:                 -14.025
REMARK INTRA:                  -2.229
REMARK UNBOUND:                -3.513
REMARK SMILES CC[C@@H](C)[C@@H](NC(=O)[C@@H](O)Cc1ccc(O)c(Cl)c1)C(=O)N1[C@H](C(=O)NCCCCN=C(N)N)C[C@H]2CC[C@H](OS(=O)(=O)O)C[C@@H]21
REMARK SMILES IDX 22 1 36 2 46 3 35 4 23 5 45 6 37 7 39 8 38 9 20 10 21 11
REMARK SMILES IDX 5 12 6 13 7 14 8 15 9 17 11 18 12 19 17 20 19 21 15 22 14 23
REMARK SMILES IDX 13 24 18 25 16 26 10 28 3 30 4 31 2 32 1 33 24 34 25 35
REMARK SMILES IDX 26 36 27 38 28 39 29 40 30 41 31 42 32 43 33 44 34 45 40 50
REMARK SMILES IDX 41 51 42 52 43 53 44 54
REMARK H PARENT 6 16 16 27 10 29 26 37 33 46 33 47 34 48 34 49 44 55
ROOT
ATOM      1  N   UNL     1       1.668   2.893  -3.975  1.00  0.00    -0.326 N 
ATOM      2  C   UNL     1       0.263   4.515  -3.006  1.00  0.00     0.014 C 
ATOM      3  C   UNL     1       1.225   4.276  -4.174  1.00  0.00     0.091 C 
ATOM      4  C   UNL     1       0.889   3.701  -1.885  1.00  0.00     0.041 C 
ATOM      5  C   UNL     1       1.228   2.405  -2.645  1.00  0.00     0.175 C 
ATOM      6  C   UNL     1       0.502   4.626  -5.474  1.00  0.00     0.059 C 
ATOM      7  C   UNL     1       0.016   5.997  -2.801  1.00  0.00     0.008 C 
ATOM      8  C   UNL     1      -0.536   5.758  -5.322  1.00  0.00     0.143 C 
ATOM      9  C   UNL     1      -0.194   6.706  -4.155  1.00  0.00     0.034 C 
ENDROOT
BRANCH   1  10
ATOM     10  C   UNL     1       2.560   2.133  -4.712  1.00  0.00     0.246 C 
ATOM     11  O   UNL     1       2.498   0.901  -4.644  1.00  0.00    -0.272 OA
BRANCH  10  12
ATOM     12  C   UNL     1       3.589   2.842  -5.639  1.00  0.00     0.174 C 
BRANCH  12  13
ATOM     13  N   UNL     1       3.596   2.205  -6.956  1.00  0.00    -0.342 N 
ATOM     14  C   UNL     1       3.120   2.778  -8.113  1.00  0.00     0.249 C 
ATOM     15  O   UNL     1       2.658   3.911  -8.173  1.00  0.00    -0.272 OA
ATOM     16  H   UNL     1       3.803   1.212  -7.034  1.00  0.00     0.164 HD
BRANCH  14  17
ATOM     17  C   UNL     1       3.250   1.846  -9.337  1.00  0.00     0.207 C 
BRANCH  17  18
ATOM     18  C   UNL     1       4.516   2.181 -10.133  1.00  0.00     0.077 C 
BRANCH  18  19
ATOM     19  C   UNL     1       5.192   0.937 -10.662  1.00  0.00    -0.043 A 
ATOM     20  C   UNL     1       7.015  -0.113 -11.870  1.00  0.00     0.083 A 
ATOM     21  C   UNL     1       6.418   1.031 -11.340  1.00  0.00     0.028 A 
ATOM     22  C   UNL     1       6.393  -1.355 -11.730  1.00  0.00     0.134 A 
ATOM     23  C   UNL     1       5.179  -1.462 -11.061  1.00  0.00     0.048 A 
ATOM     24  C   UNL     1       4.578  -0.318 -10.530  1.00  0.00     0.008 A 
ATOM     25  Cl  UNL     1       8.521   0.022 -12.700  1.00  0.00    -0.080 Cl
BRANCH  22  26
ATOM     26  O   UNL     1       6.935  -2.502 -12.242  1.00  0.00    -0.506 OA
ATOM     27  H   UNL     1       7.809  -2.611 -11.823  1.00  0.00     0.293 HD
ENDBRANCH  22  26
ENDBRANCH  18  19
ENDBRANCH  17  18
BRANCH  17  28
ATOM     28  O   UNL     1       2.104   1.957 -10.196  1.00  0.00    -0.383 OA
ATOM     29  H   UNL     1       2.300   2.694 -10.818  1.00  0.00     0.211 HD
ENDBRANCH  17  28
ENDBRANCH  14  17
ENDBRANCH  12  13
BRANCH  12  30
ATOM     30  C   UNL     1       5.007   2.920  -5.012  1.00  0.00     0.018 C 
ATOM     31  C   UNL     1       5.983   1.989  -5.749  1.00  0.00     0.010 C 
BRANCH  30  32
ATOM     32  C   UNL     1       5.032   2.623  -3.493  1.00  0.00     0.002 C 
ATOM     33  C   UNL     1       5.142   3.846  -2.592  1.00  0.00     0.004 C 
ENDBRANCH  30  32
ENDBRANCH  12  30
ENDBRANCH  10  12
ENDBRANCH   1  10
BRANCH   5  34
ATOM     34  C   UNL     1      -0.012   1.481  -2.781  1.00  0.00     0.242 C 
ATOM     35  O   UNL     1      -0.619   1.047  -1.802  1.00  0.00    -0.273 OA
ATOM     36  N   UNL     1      -0.348   1.139  -4.071  1.00  0.00    -0.354 N 
ATOM     37  H   UNL     1       0.265   1.432  -4.833  1.00  0.00     0.163 HD
BRANCH  36  38
ATOM     38  C   UNL     1      -1.591   0.468  -4.394  1.00  0.00     0.116 C 
BRANCH  38  39
ATOM     39  C   UNL     1      -1.885   0.613  -5.886  1.00  0.00     0.023 C 
BRANCH  39  40
ATOM     40  C   UNL     1      -2.530  -0.637  -6.476  1.00  0.00     0.026 C 
BRANCH  40  41
ATOM     41  C   UNL     1      -2.440  -0.624  -8.002  1.00  0.00     0.146 C 
BRANCH  41  42
ATOM     42  N   UNL     1      -3.720  -1.021  -8.574  1.00  0.00    -0.254 NA
ATOM     43  C   UNL     1      -3.864  -1.046  -9.846  1.00  0.00     0.185 C 
ATOM     44  N   UNL     1      -2.986  -0.754 -10.822  1.00  0.00    -0.370 N 
ATOM     45  N   UNL     1      -5.053  -1.410 -10.353  1.00  0.00    -0.370 N 
ATOM     46  H   UNL     1      -3.302  -0.581 -11.761  1.00  0.00     0.159 HD
ATOM     47  H   UNL     1      -2.033  -0.473 -10.615  1.00  0.00     0.159 HD
ATOM     48  H   UNL     1      -5.770  -1.656  -9.684  1.00  0.00     0.159 HD
ATOM     49  H   UNL     1      -5.175  -1.682 -11.312  1.00  0.00     0.159 HD
ENDBRANCH  41  42
ENDBRANCH  40  41
ENDBRANCH  39  40
ENDBRANCH  38  39
ENDBRANCH  36  38
ENDBRANCH   5  34
BRANCH   8  50
ATOM     50  O   UNL     1      -1.833   5.206  -5.093  1.00  0.00    -0.245 OA
BRANCH  50  51
ATOM     51  S   UNL     1      -3.067   5.624  -6.067  1.00  0.00     0.397 S 
ATOM     52  O   UNL     1      -2.986   4.815  -7.262  1.00  0.00    -0.169 OA
ATOM     53  O   UNL     1      -3.168   7.067  -6.132  1.00  0.00    -0.169 OA
BRANCH  51  54
ATOM     54  O   UNL     1      -4.339   5.075  -5.251  1.00  0.00    -0.264 OA
ATOM     55  H   UNL     1      -4.978   5.812  -5.163  1.00  0.00     0.236 HD
ENDBRANCH  51  54
ENDBRANCH  50  51
ENDBRANCH   8  50
TORSDOF 19
ENDMDL
MODEL 8
REMARK VINA RESULT:    -6.280      3.691      8.607
REMARK INTER + INTRA:         -16.218
REMARK INTER:                 -13.137
REMARK INTRA:                  -3.081
REMARK UNBOUND:                -3.513
REMARK SMILES CC[C@@H](C)[C@@H](NC(=O)[C@@H](O)Cc1ccc(O)c(Cl)c1)C(=O)N1[C@H](C(=O)NCCCCN=C(N)N)C[C@H]2CC[C@H](OS(=O)(=O)O)C[C@@H]21
REMARK SMILES IDX 22 1 36 2 46 3 35 4 23 5 45 6 37 7 39 8 38 9 20 10 21 11
REMARK SMILES IDX 5 12 6 13 7 14 8 15 9 17 11 18 12 19 17 20 19 21 15 22 14 23
REMARK SMILES IDX 13 24 18 25 16 26 10 28 3 30 4 31 2 32 1 33 24 34 25 35
REMARK SMILES IDX 26 36 27 38 28 39 29 40 30 41 31 42 32 43 33 44 34 45 40 50
REMARK SMILES IDX 41 51 42 52 43 53 44 54
REMARK H PARENT 6 16 16 27 10 29 26 37 33 46 33 47 34 48 34 49 44 55
ROOT
ATOM      1  N   UNL     1       3.856   1.990  -9.615  1.00  0.00    -0.326 N 
ATOM      2  C   UNL     1       2.833   4.104  -9.464  1.00  0.00     0.014 C 
ATOM      3  C   UNL     1       3.587   3.182 -10.425  1.00  0.00     0.091 C 
ATOM      4  C   UNL     1       3.483   3.797  -8.124  1.00  0.00     0.041 C 
ATOM      5  C   UNL     1       3.534   2.260  -8.192  1.00  0.00     0.175 C 
ATOM      6  C   UNL     1       2.754   3.021 -11.695  1.00  0.00     0.059 C 
ATOM      7  C   UNL     1       2.824   5.531  -9.977  1.00  0.00     0.008 C 
ATOM      8  C   UNL     1       1.913   4.267 -12.048  1.00  0.00     0.143 C 
ATOM      9  C   UNL     1       2.536   5.563 -11.493  1.00  0.00     0.034 C 
ENDROOT
BRANCH   1  10
ATOM     10  C   UNL     1       4.527   0.825  -9.946  1.00  0.00     0.246 C 
ATOM     11  O   UNL     1       3.876  -0.202 -10.166  1.00  0.00    -0.272 OA
BRANCH  10  12
ATOM     12  C   UNL     1       6.078   0.843 -10.075  1.00  0.00     0.174 C 
BRANCH  12  13
ATOM     13  N   UNL     1       6.572   2.215  -9.959  1.00  0.00    -0.342 N 
ATOM     14  C   UNL     1       7.405   2.674  -8.964  1.00  0.00     0.249 C 
ATOM     15  O   UNL     1       7.852   1.967  -8.069  1.00  0.00    -0.272 OA
ATOM     16  H   UNL     1       6.165   2.947 -10.536  1.00  0.00     0.164 HD
BRANCH  14  17
ATOM     17  C   UNL     1       7.734   4.175  -9.107  1.00  0.00     0.207 C 
BRANCH  17  18
ATOM     18  C   UNL     1       9.250   4.387  -9.171  1.00  0.00     0.077 C 
BRANCH  18  19
ATOM     19  C   UNL     1       9.824   3.945 -10.498  1.00  0.00    -0.043 A 
ATOM     20  C   UNL     1       9.669   3.810 -12.915  1.00  0.00     0.083 A 
ATOM     21  C   UNL     1       9.163   4.261 -11.696  1.00  0.00     0.028 A 
ATOM     22  C   UNL     1      10.834   3.042 -12.947  1.00  0.00     0.134 A 
ATOM     23  C   UNL     1      11.499   2.723 -11.769  1.00  0.00     0.048 A 
ATOM     24  C   UNL     1      10.994   3.171 -10.546  1.00  0.00     0.008 A 
ATOM     25  Cl  UNL     1       8.843   4.207 -14.376  1.00  0.00    -0.080 Cl
BRANCH  22  26
ATOM     26  O   UNL     1      11.363   2.569 -14.118  1.00  0.00    -0.506 OA
ATOM     27  H   UNL     1      11.862   1.762 -13.893  1.00  0.00     0.293 HD
ENDBRANCH  22  26
ENDBRANCH  18  19
ENDBRANCH  17  18
BRANCH  17  28
ATOM     28  O   UNL     1       7.193   4.930  -8.012  1.00  0.00    -0.383 OA
ATOM     29  H   UNL     1       6.874   4.269  -7.357  1.00  0.00     0.211 HD
ENDBRANCH  17  28
ENDBRANCH  14  17
ENDBRANCH  12  13
BRANCH  12  30
ATOM     30  C   UNL     1       6.581   0.139 -11.363  1.00  0.00     0.018 C 
ATOM     31  C   UNL     1       6.752  -1.371 -11.130  1.00  0.00     0.010 C 
BRANCH  30  32
ATOM     32  C   UNL     1       7.890   0.740 -11.930  1.00  0.00     0.002 C 
ATOM     33  C   UNL     1       8.162   0.442 -13.399  1.00  0.00     0.004 C 
ENDBRANCH  30  32
ENDBRANCH  12  30
ENDBRANCH  10  12
ENDBRANCH   1  10
BRANCH   5  34
ATOM     34  C   UNL     1       2.171   1.625  -7.807  1.00  0.00     0.242 C 
ATOM     35  O   UNL     1       1.153   1.794  -8.479  1.00  0.00    -0.273 OA
ATOM     36  N   UNL     1       2.170   0.906  -6.634  1.00  0.00    -0.354 N 
ATOM     37  H   UNL     1       3.014   0.901  -6.059  1.00  0.00     0.163 HD
BRANCH  36  38
ATOM     38  C   UNL     1       1.053   0.074  -6.237  1.00  0.00     0.116 C 
BRANCH  38  39
ATOM     39  C   UNL     1       0.711   0.329  -4.771  1.00  0.00     0.023 C 
BRANCH  39  40
ATOM     40  C   UNL     1       0.836   1.801  -4.391  1.00  0.00     0.026 C 
BRANCH  40  41
ATOM     41  C   UNL     1       1.868   1.988  -3.279  1.00  0.00     0.146 C 
BRANCH  41  42
ATOM     42  N   UNL     1       3.180   2.238  -3.861  1.00  0.00    -0.254 NA
ATOM     43  C   UNL     1       4.219   1.716  -3.326  1.00  0.00     0.185 C 
ATOM     44  N   UNL     1       4.330   0.919  -2.247  1.00  0.00    -0.370 N 
ATOM     45  N   UNL     1       5.420   1.962  -3.875  1.00  0.00    -0.370 N 
ATOM     46  H   UNL     1       5.220   0.785  -1.799  1.00  0.00     0.159 HD
ATOM     47  H   UNL     1       3.516   0.622  -1.718  1.00  0.00     0.159 HD
ATOM     48  H   UNL     1       5.425   2.547  -4.699  1.00  0.00     0.159 HD
ATOM     49  H   UNL     1       6.236   1.413  -3.669  1.00  0.00     0.159 HD
ENDBRANCH  41  42
ENDBRANCH  40  41
ENDBRANCH  39  40
ENDBRANCH  38  39
ENDBRANCH  36  38
ENDBRANCH   5  34
BRANCH   8  50
ATOM     50  O   UNL     1       0.594   4.134 -11.517  1.00  0.00    -0.245 OA
BRANCH  50  51
ATOM     51  S   UNL     1      -0.639   3.766 -12.512  1.00  0.00     0.397 S 
ATOM     52  O   UNL     1      -1.342   2.633 -11.952  1.00  0.00    -0.169 OA
ATOM     53  O   UNL     1      -0.174   3.768 -13.884  1.00  0.00    -0.169 OA
BRANCH  51  54
ATOM     54  O   UNL     1      -1.616   5.027 -12.317  1.00  0.00    -0.264 OA
ATOM     55  H   UNL     1      -2.413   4.717 -11.840  1.00  0.00     0.236 HD
ENDBRANCH  51  54
ENDBRANCH  50  51
ENDBRANCH   8  50
TORSDOF 19
ENDMDL
MODEL 9
REMARK VINA RESULT:    -6.246     12.386     16.435
REMARK INTER + INTRA:         -16.150
REMARK INTER:                 -11.867
REMARK INTRA:                  -4.283
REMARK UNBOUND:                -3.513
REMARK SMILES CC[C@@H](C)[C@@H](NC(=O)[C@@H](O)Cc1ccc(O)c(Cl)c1)C(=O)N1[C@H](C(=O)NCCCCN=C(N)N)C[C@H]2CC[C@H](OS(=O)(=O)O)C[C@@H]21
REMARK SMILES IDX 22 1 36 2 46 3 35 4 23 5 45 6 37 7 39 8 38 9 20 10 21 11
REMARK SMILES IDX 5 12 6 13 7 14 8 15 9 17 11 18 12 19 17 20 19 21 15 22 14 23
REMARK SMILES IDX 13 24 18 25 16 26 10 28 3 30 4 31 2 32 1 33 24 34 25 35
REMARK SMILES IDX 26 36 27 38 28 39 29 40 30 41 31 42 32 43 33 44 34 45 40 50
REMARK SMILES IDX 41 51 42 52 43 53 44 54
REMARK H PARENT 6 16 16 27 10 29 26 37 33 46 33 47 34 48 34 49 44 55
ROOT
ATOM      1  N   UNL     1     -10.437   6.969  -6.473  1.00  0.00    -0.326 N 
ATOM      2  C   UNL     1      -9.012   5.097  -6.384  1.00  0.00     0.014 C 
ATOM      3  C   UNL     1      -9.015   6.628  -6.366  1.00  0.00     0.091 C 
ATOM      4  C   UNL     1     -10.164   4.770  -7.322  1.00  0.00     0.041 C 
ATOM      5  C   UNL     1     -11.226   5.756  -6.802  1.00  0.00     0.175 C 
ATOM      6  C   UNL     1      -8.248   7.098  -5.131  1.00  0.00     0.059 C 
ATOM      7  C   UNL     1      -7.628   4.561  -6.692  1.00  0.00     0.008 C 
ATOM      8  C   UNL     1      -7.102   6.152  -4.714  1.00  0.00     0.143 C 
ATOM      9  C   UNL     1      -6.554   5.344  -5.908  1.00  0.00     0.034 C 
ENDROOT
BRANCH   1  10
ATOM     10  C   UNL     1     -11.051   8.208  -6.525  1.00  0.00     0.246 C 
ATOM     11  O   UNL     1     -11.699   8.600  -5.549  1.00  0.00    -0.272 OA
BRANCH  10  12
ATOM     12  C   UNL     1     -10.877   9.098  -7.790  1.00  0.00     0.174 C 
BRANCH  12  13
ATOM     13  N   UNL     1     -10.815   8.258  -8.986  1.00  0.00    -0.342 N 
ATOM     14  C   UNL     1     -11.905   7.846  -9.719  1.00  0.00     0.249 C 
ATOM     15  O   UNL     1     -13.059   8.165  -9.463  1.00  0.00    -0.272 OA
ATOM     16  H   UNL     1      -9.945   7.789  -9.228  1.00  0.00     0.164 HD
BRANCH  14  17
ATOM     17  C   UNL     1     -11.514   6.953 -10.916  1.00  0.00     0.207 C 
BRANCH  17  18
ATOM     18  C   UNL     1     -10.264   7.504 -11.610  1.00  0.00     0.077 C 
BRANCH  18  19
ATOM     19  C   UNL     1      -9.227   6.427 -11.837  1.00  0.00    -0.043 A 
ATOM     20  C   UNL     1      -7.743   5.217 -13.326  1.00  0.00     0.083 A 
ATOM     21  C   UNL     1      -8.663   6.243 -13.109  1.00  0.00     0.028 A 
ATOM     22  C   UNL     1      -7.383   4.369 -12.278  1.00  0.00     0.134 A 
ATOM     23  C   UNL     1      -7.933   4.539 -11.014  1.00  0.00     0.048 A 
ATOM     24  C   UNL     1      -8.856   5.565 -10.793  1.00  0.00     0.008 A 
ATOM     25  Cl  UNL     1      -7.062   5.007 -14.896  1.00  0.00    -0.080 Cl
BRANCH  22  26
ATOM     26  O   UNL     1      -6.493   3.342 -12.446  1.00  0.00    -0.506 OA
ATOM     27  H   UNL     1      -7.001   2.514 -12.358  1.00  0.00     0.293 HD
ENDBRANCH  22  26
ENDBRANCH  18  19
ENDBRANCH  17  18
BRANCH  17  28
ATOM     28  O   UNL     1     -12.587   6.865 -11.867  1.00  0.00    -0.383 OA
ATOM     29  H   UNL     1     -12.994   7.760 -11.902  1.00  0.00     0.211 HD
ENDBRANCH  17  28
ENDBRANCH  14  17
ENDBRANCH  12  13
BRANCH  12  30
ATOM     30  C   UNL     1      -9.666  10.064  -7.682  1.00  0.00     0.018 C 
ATOM     31  C   UNL     1      -8.439   9.485  -8.402  1.00  0.00     0.010 C 
BRANCH  30  32
ATOM     32  C   UNL     1      -9.300  10.441  -6.226  1.00  0.00     0.002 C 
ATOM     33  C   UNL     1      -9.956  11.711  -5.697  1.00  0.00     0.004 C 
ENDBRANCH  30  32
ENDBRANCH  12  30
ENDBRANCH  10  12
ENDBRANCH   1  10
BRANCH   5  34
ATOM     34  C   UNL     1     -11.945   5.209  -5.540  1.00  0.00     0.242 C 
ATOM     35  O   UNL     1     -11.542   5.441  -4.400  1.00  0.00    -0.273 OA
ATOM     36  N   UNL     1     -13.033   4.402  -5.789  1.00  0.00    -0.354 N 
ATOM     37  H   UNL     1     -13.246   4.149  -6.755  1.00  0.00     0.163 HD
BRANCH  36  38
ATOM     38  C   UNL     1     -13.943   3.985  -4.742  1.00  0.00     0.116 C 
BRANCH  38  39
ATOM     39  C   UNL     1     -14.845   5.151  -4.344  1.00  0.00     0.023 C 
BRANCH  39  40
ATOM     40  C   UNL     1     -15.196   5.137  -2.860  1.00  0.00     0.026 C 
BRANCH  40  41
ATOM     41  C   UNL     1     -14.206   5.984  -2.061  1.00  0.00     0.146 C 
BRANCH  41  42
ATOM     42  N   UNL     1     -14.314   7.380  -2.464  1.00  0.00    -0.254 NA
ATOM     43  C   UNL     1     -13.252   8.068  -2.657  1.00  0.00     0.185 C 
ATOM     44  N   UNL     1     -11.959   7.712  -2.549  1.00  0.00    -0.370 N 
ATOM     45  N   UNL     1     -13.373   9.354  -3.024  1.00  0.00    -0.370 N 
ATOM     46  H   UNL     1     -11.238   8.410  -2.490  1.00  0.00     0.159 HD
ATOM     47  H   UNL     1     -11.686   6.768  -2.293  1.00  0.00     0.159 HD
ATOM     48  H   UNL     1     -14.316   9.701  -3.137  1.00  0.00     0.159 HD
ATOM     49  H   UNL     1     -12.614   9.881  -3.418  1.00  0.00     0.159 HD
ENDBRANCH  41  42
ENDBRANCH  40  41
ENDBRANCH  39  40
ENDBRANCH  38  39
ENDBRANCH  36  38
ENDBRANCH   5  34
BRANCH   8  50
ATOM     50  O   UNL     1      -7.560   5.236  -3.719  1.00  0.00    -0.245 OA
BRANCH  50  51
ATOM     51  S   UNL     1      -7.862   5.771  -2.213  1.00  0.00     0.397 S 
ATOM     52  O   UNL     1      -9.251   6.165  -2.149  1.00  0.00    -0.169 OA
ATOM     53  O   UNL     1      -6.799   6.660  -1.791  1.00  0.00    -0.169 OA
BRANCH  51  54
ATOM     54  O   UNL     1      -7.749   4.420  -1.348  1.00  0.00    -0.264 OA
ATOM     55  H   UNL     1      -8.416   3.790  -1.691  1.00  0.00     0.236 HD
ENDBRANCH  51  54
ENDBRANCH  50  51
ENDBRANCH   8  50
TORSDOF 19
ENDMDL
MODEL 10
REMARK VINA RESULT:    -6.182      5.212      9.979
REMARK INTER + INTRA:         -16.020
REMARK INTER:                 -13.005
REMARK INTRA:                  -3.015
REMARK UNBOUND:                -3.513
REMARK SMILES CC[C@@H](C)[C@@H](NC(=O)[C@@H](O)Cc1ccc(O)c(Cl)c1)C(=O)N1[C@H](C(=O)NCCCCN=C(N)N)C[C@H]2CC[C@H](OS(=O)(=O)O)C[C@@H]21
REMARK SMILES IDX 22 1 36 2 46 3 35 4 23 5 45 6 37 7 39 8 38 9 20 10 21 11
REMARK SMILES IDX 5 12 6 13 7 14 8 15 9 17 11 18 12 19 17 20 19 21 15 22 14 23
REMARK SMILES IDX 13 24 18 25 16 26 10 28 3 30 4 31 2 32 1 33 24 34 25 35
REMARK SMILES IDX 26 36 27 38 28 39 29 40 30 41 31 42 32 43 33 44 34 45 40 50
REMARK SMILES IDX 41 51 42 52 43 53 44 54
REMARK H PARENT 6 16 16 27 10 29 26 37 33 46 33 47 34 48 34 49 44 55
ROOT
ATOM      1  N   UNL     1      -0.417   2.514  -3.156  1.00  0.00    -0.326 N 
ATOM      2  C   UNL     1      -1.831   4.258  -3.864  1.00  0.00     0.014 C 
ATOM      3  C   UNL     1      -1.553   2.763  -4.048  1.00  0.00     0.091 C 
ATOM      4  C   UNL     1      -0.440   4.834  -3.652  1.00  0.00     0.041 C 
ATOM      5  C   UNL     1       0.135   3.801  -2.665  1.00  0.00     0.175 C 
ATOM      6  C   UNL     1      -2.850   1.996  -3.799  1.00  0.00     0.059 C 
ATOM      7  C   UNL     1      -2.693   4.792  -4.991  1.00  0.00     0.008 C 
ATOM      8  C   UNL     1      -4.121   2.776  -4.202  1.00  0.00     0.143 C 
ATOM      9  C   UNL     1      -3.839   3.808  -5.312  1.00  0.00     0.034 C 
ENDROOT
BRANCH   1  10
ATOM     10  C   UNL     1       0.284   1.345  -2.917  1.00  0.00     0.246 C 
ATOM     11  O   UNL     1       0.024   0.684  -1.905  1.00  0.00    -0.272 OA
BRANCH  10  12
ATOM     12  C   UNL     1       1.351   0.865  -3.944  1.00  0.00     0.174 C 
BRANCH  12  13
ATOM     13  N   UNL     1       2.581   1.639  -3.782  1.00  0.00    -0.342 N 
ATOM     14  C   UNL     1       3.648   1.271  -2.994  1.00  0.00     0.249 C 
ATOM     15  O   UNL     1       3.695   0.227  -2.354  1.00  0.00    -0.272 OA
ATOM     16  H   UNL     1       2.624   2.595  -4.125  1.00  0.00     0.164 HD
BRANCH  14  17
ATOM     17  C   UNL     1       4.792   2.306  -3.018  1.00  0.00     0.207 C 
BRANCH  17  18
ATOM     18  C   UNL     1       4.233   3.717  -3.231  1.00  0.00     0.077 C 
BRANCH  18  19
ATOM     19  C   UNL     1       4.817   4.707  -2.247  1.00  0.00    -0.043 A 
ATOM     20  C   UNL     1       4.577   6.682  -0.860  1.00  0.00     0.083 A 
ATOM     21  C   UNL     1       4.023   5.741  -1.729  1.00  0.00     0.028 A 
ATOM     22  C   UNL     1       5.924   6.597  -0.506  1.00  0.00     0.134 A 
ATOM     23  C   UNL     1       6.722   5.577  -1.012  1.00  0.00     0.048 A 
ATOM     24  C   UNL     1       6.170   4.635  -1.883  1.00  0.00     0.008 A 
ATOM     25  Cl  UNL     1       3.586   7.946  -0.233  1.00  0.00    -0.080 Cl
BRANCH  22  26
ATOM     26  O   UNL     1       6.515   7.502   0.334  1.00  0.00    -0.506 OA
ATOM     27  H   UNL     1       5.916   8.270   0.384  1.00  0.00     0.293 HD
ENDBRANCH  22  26
ENDBRANCH  18  19
ENDBRANCH  17  18
BRANCH  17  28
ATOM     28  O   UNL     1       5.739   2.007  -4.057  1.00  0.00    -0.383 OA
ATOM     29  H   UNL     1       5.741   2.788  -4.656  1.00  0.00     0.211 HD
ENDBRANCH  17  28
ENDBRANCH  14  17
ENDBRANCH  12  13
BRANCH  12  30
ATOM     30  C   UNL     1       0.827   0.884  -5.405  1.00  0.00     0.018 C 
ATOM     31  C   UNL     1      -0.216  -0.223  -5.626  1.00  0.00     0.010 C 
BRANCH  30  32
ATOM     32  C   UNL     1       1.947   0.779  -6.468  1.00  0.00     0.002 C 
ATOM     33  C   UNL     1       1.920   1.851  -7.551  1.00  0.00     0.004 C 
ENDBRANCH  30  32
ENDBRANCH  12  30
ENDBRANCH  10  12
ENDBRANCH   1  10
BRANCH   5  34
ATOM     34  C   UNL     1      -0.328   4.080  -1.211  1.00  0.00     0.242 C 
ATOM     35  O   UNL     1      -1.235   3.442  -0.676  1.00  0.00    -0.273 OA
ATOM     36  N   UNL     1       0.311   5.125  -0.582  1.00  0.00    -0.354 N 
ATOM     37  H   UNL     1       0.969   5.692  -1.118  1.00  0.00     0.163 HD
BRANCH  36  38
ATOM     38  C   UNL     1       0.160   5.385   0.834  1.00  0.00     0.116 C 
BRANCH  38  39
ATOM     39  C   UNL     1      -0.706   6.625   1.045  1.00  0.00     0.023 C 
BRANCH  39  40
ATOM     40  C   UNL     1       0.122   7.867   1.359  1.00  0.00     0.026 C 
BRANCH  40  41
ATOM     41  C   UNL     1       0.612   7.841   2.807  1.00  0.00     0.146 C 
BRANCH  41  42
ATOM     42  N   UNL     1       2.068   7.805   2.834  1.00  0.00    -0.254 NA
ATOM     43  C   UNL     1       2.667   6.787   3.327  1.00  0.00     0.185 C 
ATOM     44  N   UNL     1       2.161   5.661   3.864  1.00  0.00    -0.370 N 
ATOM     45  N   UNL     1       4.010   6.775   3.347  1.00  0.00    -0.370 N 
ATOM     46  H   UNL     1       2.736   5.060   4.430  1.00  0.00     0.159 HD
ATOM     47  H   UNL     1       1.161   5.498   3.916  1.00  0.00     0.159 HD
ATOM     48  H   UNL     1       4.471   7.584   2.953  1.00  0.00     0.159 HD
ATOM     49  H   UNL     1       4.544   5.937   3.492  1.00  0.00     0.159 HD
ENDBRANCH  41  42
ENDBRANCH  40  41
ENDBRANCH  39  40
ENDBRANCH  38  39
ENDBRANCH  36  38
ENDBRANCH   5  34
BRANCH   8  50
ATOM     50  O   UNL     1      -4.654   3.463  -3.069  1.00  0.00    -0.245 OA
BRANCH  50  51
ATOM     51  S   UNL     1      -6.144   3.093  -2.534  1.00  0.00     0.397 S 
ATOM     52  O   UNL     1      -6.835   2.387  -3.589  1.00  0.00    -0.169 OA
ATOM     53  O   UNL     1      -6.728   4.247  -1.884  1.00  0.00    -0.169 OA
BRANCH  51  54
ATOM     54  O   UNL     1      -5.831   1.993  -1.403  1.00  0.00    -0.264 OA
ATOM     55  H   UNL     1      -6.454   2.140  -0.663  1.00  0.00     0.236 HD
ENDBRANCH  51  54
ENDBRANCH  50  51
ENDBRANCH   8  50
TORSDOF 19
ENDMDL
MODEL 11
REMARK VINA RESULT:    -6.133      4.125      8.024
REMARK INTER + INTRA:         -15.920
REMARK INTER:                 -13.478
REMARK INTRA:                  -2.442
REMARK UNBOUND:                -3.513
REMARK SMILES CC[C@@H](C)[C@@H](NC(=O)[C@@H](O)Cc1ccc(O)c(Cl)c1)C(=O)N1[C@H](C(=O)NCCCCN=C(N)N)C[C@H]2CC[C@H](OS(=O)(=O)O)C[C@@H]21
REMARK SMILES IDX 22 1 36 2 46 3 35 4 23 5 45 6 37 7 39 8 38 9 20 10 21 11
REMARK SMILES IDX 5 12 6 13 7 14 8 15 9 17 11 18 12 19 17 20 19 21 15 22 14 23
REMARK SMILES IDX 13 24 18 25 16 26 10 28 3 30 4 31 2 32 1 33 24 34 25 35
REMARK SMILES IDX 26 36 27 38 28 39 29 40 30 41 31 42 32 43 33 44 34 45 40 50
REMARK SMILES IDX 41 51 42 52 43 53 44 54
REMARK H PARENT 6 16 16 27 10 29 26 37 33 46 33 47 34 48 34 49 44 55
ROOT
ATOM      1  N   UNL     1       3.436   2.221 -10.143  1.00  0.00    -0.326 N 
ATOM      2  C   UNL     1       2.141   4.128 -10.620  1.00  0.00     0.014 C 
ATOM      3  C   UNL     1       2.965   3.019 -11.279  1.00  0.00     0.091 C 
ATOM      4  C   UNL     1       2.895   4.380  -9.323  1.00  0.00     0.041 C 
ATOM      5  C   UNL     1       3.152   2.931  -8.872  1.00  0.00     0.175 C 
ATOM      6  C   UNL     1       2.098   2.335 -12.335  1.00  0.00     0.059 C 
ATOM      7  C   UNL     1       1.911   5.277 -11.582  1.00  0.00     0.008 C 
ATOM      8  C   UNL     1       1.077   3.278 -13.007  1.00  0.00     0.143 C 
ATOM      9  C   UNL     1       1.544   4.748 -12.984  1.00  0.00     0.034 C 
ENDROOT
BRANCH   1  10
ATOM     10  C   UNL     1       4.243   1.096 -10.123  1.00  0.00     0.246 C 
ATOM     11  O   UNL     1       3.716  -0.022 -10.104  1.00  0.00    -0.272 OA
BRANCH  10  12
ATOM     12  C   UNL     1       5.790   1.260 -10.166  1.00  0.00     0.174 C 
BRANCH  12  13
ATOM     13  N   UNL     1       6.139   2.680 -10.220  1.00  0.00    -0.342 N 
ATOM     14  C   UNL     1       6.853   3.355  -9.255  1.00  0.00     0.249 C 
ATOM     15  O   UNL     1       7.303   2.828  -8.246  1.00  0.00    -0.272 OA
ATOM     16  H   UNL     1       5.703   3.279 -10.916  1.00  0.00     0.164 HD
BRANCH  14  17
ATOM     17  C   UNL     1       7.044   4.849  -9.593  1.00  0.00     0.207 C 
BRANCH  17  18
ATOM     18  C   UNL     1       5.875   5.675  -9.046  1.00  0.00     0.077 C 
BRANCH  18  19
ATOM     19  C   UNL     1       6.082   6.052  -7.597  1.00  0.00    -0.043 A 
ATOM     20  C   UNL     1       7.486   6.966  -5.842  1.00  0.00     0.083 A 
ATOM     21  C   UNL     1       7.277   6.665  -7.188  1.00  0.00     0.028 A 
ATOM     22  C   UNL     1       6.506   6.658  -4.898  1.00  0.00     0.134 A 
ATOM     23  C   UNL     1       5.318   6.051  -5.288  1.00  0.00     0.048 A 
ATOM     24  C   UNL     1       5.107   5.746  -6.635  1.00  0.00     0.008 A 
ATOM     25  Cl  UNL     1       8.961   7.719  -5.359  1.00  0.00    -0.080 Cl
BRANCH  22  26
ATOM     26  O   UNL     1       6.669   6.925  -3.565  1.00  0.00    -0.506 OA
ATOM     27  H   UNL     1       6.547   6.080  -3.093  1.00  0.00     0.293 HD
ENDBRANCH  22  26
ENDBRANCH  18  19
ENDBRANCH  17  18
BRANCH  17  28
ATOM     28  O   UNL     1       7.147   5.050 -11.012  1.00  0.00    -0.383 OA
ATOM     29  H   UNL     1       7.644   4.275 -11.360  1.00  0.00     0.211 HD
ENDBRANCH  17  28
ENDBRANCH  14  17
ENDBRANCH  12  13
BRANCH  12  30
ATOM     30  C   UNL     1       6.448   0.444 -11.310  1.00  0.00     0.018 C 
ATOM     31  C   UNL     1       6.833  -0.963 -10.827  1.00  0.00     0.010 C 
BRANCH  30  32
ATOM     32  C   UNL     1       7.676   1.143 -11.945  1.00  0.00     0.002 C 
ATOM     33  C   UNL     1       8.175   0.527 -13.245  1.00  0.00     0.004 C 
ENDBRANCH  30  32
ENDBRANCH  12  30
ENDBRANCH  10  12
ENDBRANCH   1  10
BRANCH   5  34
ATOM     34  C   UNL     1       1.910   2.322  -8.167  1.00  0.00     0.242 C 
ATOM     35  O   UNL     1       0.914   1.956  -8.790  1.00  0.00    -0.273 OA
ATOM     36  N   UNL     1       1.983   2.272  -6.793  1.00  0.00    -0.354 N 
ATOM     37  H   UNL     1       2.783   2.700  -6.327  1.00  0.00     0.163 HD
BRANCH  36  38
ATOM     38  C   UNL     1       1.018   1.545  -5.994  1.00  0.00     0.116 C 
BRANCH  38  39
ATOM     39  C   UNL     1       1.254   0.043  -6.134  1.00  0.00     0.023 C 
BRANCH  39  40
ATOM     40  C   UNL     1      -0.046  -0.752  -6.152  1.00  0.00     0.026 C 
BRANCH  40  41
ATOM     41  C   UNL     1      -1.218   0.133  -6.577  1.00  0.00     0.146 C 
BRANCH  41  42
ATOM     42  N   UNL     1      -1.548  -0.124  -7.972  1.00  0.00    -0.254 NA
ATOM     43  C   UNL     1      -2.672  -0.661  -8.269  1.00  0.00     0.185 C 
ATOM     44  N   UNL     1      -3.678  -1.060  -7.469  1.00  0.00    -0.370 N 
ATOM     45  N   UNL     1      -2.955  -0.893  -9.561  1.00  0.00    -0.370 N 
ATOM     46  H   UNL     1      -4.389  -1.683  -7.812  1.00  0.00     0.159 HD
ATOM     47  H   UNL     1      -3.635  -0.945  -6.461  1.00  0.00     0.159 HD
ATOM     48  H   UNL     1      -2.252  -0.613 -10.232  1.00  0.00     0.159 HD
ATOM     49  H   UNL     1      -3.886  -1.083  -9.888  1.00  0.00     0.159 HD
ENDBRANCH  41  42
ENDBRANCH  40  41
ENDBRANCH  39  40
ENDBRANCH  38  39
ENDBRANCH  36  38
ENDBRANCH   5  34
BRANCH   8  50
ATOM     50  O   UNL     1      -0.183   3.193 -12.339  1.00  0.00    -0.245 OA
BRANCH  50  51
ATOM     51  S   UNL     1      -1.503   3.847 -13.029  1.00  0.00     0.397 S 
ATOM     52  O   UNL     1      -1.285   3.890 -14.457  1.00  0.00    -0.169 OA
ATOM     53  O   UNL     1      -1.907   5.022 -12.286  1.00  0.00    -0.169 OA
BRANCH  51  54
ATOM     54  O   UNL     1      -2.608   2.704 -12.788  1.00  0.00    -0.264 OA
ATOM     55  H   UNL     1      -2.287   2.125 -12.067  1.00  0.00     0.236 HD
ENDBRANCH  51  54
ENDBRANCH  50  51
ENDBRANCH   8  50
TORSDOF 19
ENDMDL
MODEL 12
REMARK VINA RESULT:    -6.099     13.887     17.392
REMARK INTER + INTRA:         -15.851
REMARK INTER:                 -10.450
REMARK INTRA:                  -5.400
REMARK UNBOUND:                -3.513
REMARK SMILES CC[C@@H](C)[C@@H](NC(=O)[C@@H](O)Cc1ccc(O)c(Cl)c1)C(=O)N1[C@H](C(=O)NCCCCN=C(N)N)C[C@H]2CC[C@H](OS(=O)(=O)O)C[C@@H]21
REMARK SMILES IDX 22 1 36 2 46 3 35 4 23 5 45 6 37 7 39 8 38 9 20 10 21 11
REMARK SMILES IDX 5 12 6 13 7 14 8 15 9 17 11 18 12 19 17 20 19 21 15 22 14 23
REMARK SMILES IDX 13 24 18 25 16 26 10 28 3 30 4 31 2 32 1 33 24 34 25 35
REMARK SMILES IDX 26 36 27 38 28 39 29 40 30 41 31 42 32 43 33 44 34 45 40 50
REMARK SMILES IDX 41 51 42 52 43 53 44 54
REMARK H PARENT 6 16 16 27 10 29 26 37 33 46 33 47 34 48 34 49 44 55
ROOT
ATOM      1  N   UNL     1     -12.331   9.524  -8.459  1.00  0.00    -0.326 N 
ATOM      2  C   UNL     1     -14.120   8.641  -7.209  1.00  0.00     0.014 C 
ATOM      3  C   UNL     1     -13.103   8.288  -8.298  1.00  0.00     0.091 C 
ATOM      4  C   UNL     1     -14.417  10.106  -7.489  1.00  0.00     0.041 C 
ATOM      5  C   UNL     1     -12.989  10.633  -7.725  1.00  0.00     0.175 C 
ATOM      6  C   UNL     1     -12.361   7.021  -7.875  1.00  0.00     0.059 C 
ATOM      7  C   UNL     1     -15.260   7.642  -7.188  1.00  0.00     0.008 C 
ATOM      8  C   UNL     1     -13.219   6.051  -7.035  1.00  0.00     0.143 C 
ATOM      9  C   UNL     1     -14.724   6.202  -7.333  1.00  0.00     0.034 C 
ENDROOT
BRANCH   1  10
ATOM     10  C   UNL     1     -11.285   9.812  -9.319  1.00  0.00     0.246 C 
ATOM     11  O   UNL     1     -10.174  10.077  -8.847  1.00  0.00    -0.272 OA
BRANCH  10  12
ATOM     12  C   UNL     1     -11.518   9.753 -10.857  1.00  0.00     0.174 C 
BRANCH  12  13
ATOM     13  N   UNL     1     -10.673   8.717 -11.450  1.00  0.00    -0.342 N 
ATOM     14  C   UNL     1     -11.074   7.429 -11.721  1.00  0.00     0.249 C 
ATOM     15  O   UNL     1     -12.208   7.011 -11.518  1.00  0.00    -0.272 OA
ATOM     16  H   UNL     1      -9.670   8.869 -11.527  1.00  0.00     0.164 HD
BRANCH  14  17
ATOM     17  C   UNL     1      -9.947   6.569 -12.331  1.00  0.00     0.207 C 
BRANCH  17  18
ATOM     18  C   UNL     1      -8.682   6.657 -11.471  1.00  0.00     0.077 C 
BRANCH  18  19
ATOM     19  C   UNL     1      -8.883   6.029 -10.110  1.00  0.00    -0.043 A 
ATOM     20  C   UNL     1      -8.462   6.007  -7.721  1.00  0.00     0.083 A 
ATOM     21  C   UNL     1      -8.316   6.616  -8.968  1.00  0.00     0.028 A 
ATOM     22  C   UNL     1      -9.170   4.811  -7.607  1.00  0.00     0.134 A 
ATOM     23  C   UNL     1      -9.736   4.218  -8.729  1.00  0.00     0.048 A 
ATOM     24  C   UNL     1      -9.591   4.824  -9.979  1.00  0.00     0.008 A 
ATOM     25  Cl  UNL     1      -7.758   6.744  -6.330  1.00  0.00    -0.080 Cl
BRANCH  22  26
ATOM     26  O   UNL     1      -9.330   4.171  -6.407  1.00  0.00    -0.506 OA
ATOM     27  H   UNL     1     -10.284   4.192  -6.204  1.00  0.00     0.293 HD
ENDBRANCH  22  26
ENDBRANCH  18  19
ENDBRANCH  17  18
BRANCH  17  28
ATOM     28  O   UNL     1      -9.642   6.989 -13.671  1.00  0.00    -0.383 OA
ATOM     29  H   UNL     1     -10.503   7.023 -14.147  1.00  0.00     0.211 HD
ENDBRANCH  17  28
ENDBRANCH  14  17
ENDBRANCH  12  13
BRANCH  12  30
ATOM     30  C   UNL     1     -11.335  11.133 -11.544  1.00  0.00     0.018 C 
ATOM     31  C   UNL     1     -12.696  11.754 -11.894  1.00  0.00     0.010 C 
BRANCH  30  32
ATOM     32  C   UNL     1     -10.433  11.086 -12.802  1.00  0.00     0.002 C 
ATOM     33  C   UNL     1     -10.004  12.442 -13.347  1.00  0.00     0.004 C 
ENDBRANCH  30  32
ENDBRANCH  12  30
ENDBRANCH  10  12
ENDBRANCH   1  10
BRANCH   5  34
ATOM     34  C   UNL     1     -12.256  10.917  -6.386  1.00  0.00     0.242 C 
ATOM     35  O   UNL     1     -12.746  10.629  -5.294  1.00  0.00    -0.273 OA
ATOM     36  N   UNL     1     -11.046  11.562  -6.507  1.00  0.00    -0.354 N 
ATOM     37  H   UNL     1     -10.749  11.882  -7.430  1.00  0.00     0.163 HD
BRANCH  36  38
ATOM     38  C   UNL     1     -10.135  11.712  -5.391  1.00  0.00     0.116 C 
BRANCH  38  39
ATOM     39  C   UNL     1      -8.897  10.845  -5.613  1.00  0.00     0.023 C 
BRANCH  39  40
ATOM     40  C   UNL     1      -8.746   9.763  -4.549  1.00  0.00     0.026 C 
BRANCH  40  41
ATOM     41  C   UNL     1      -9.691  10.021  -3.375  1.00  0.00     0.146 C 
BRANCH  41  42
ATOM     42  N   UNL     1     -10.346   8.778  -2.988  1.00  0.00    -0.254 NA
ATOM     43  C   UNL     1     -11.532   8.810  -2.509  1.00  0.00     0.185 C 
ATOM     44  N   UNL     1     -12.346   9.857  -2.282  1.00  0.00    -0.370 N 
ATOM     45  N   UNL     1     -12.117   7.654  -2.154  1.00  0.00    -0.370 N 
ATOM     46  H   UNL     1     -13.147   9.764  -1.681  1.00  0.00     0.159 HD
ATOM     47  H   UNL     1     -12.067  10.807  -2.507  1.00  0.00     0.159 HD
ATOM     48  H   UNL     1     -11.574   6.814  -2.301  1.00  0.00     0.159 HD
ATOM     49  H   UNL     1     -13.105   7.569  -2.000  1.00  0.00     0.159 HD
ENDBRANCH  41  42
ENDBRANCH  40  41
ENDBRANCH  39  40
ENDBRANCH  38  39
ENDBRANCH  36  38
ENDBRANCH   5  34
BRANCH   8  50
ATOM     50  O   UNL     1     -13.006   6.288  -5.643  1.00  0.00    -0.245 OA
BRANCH  50  51
ATOM     51  S   UNL     1     -12.290   5.144  -4.734  1.00  0.00     0.397 S 
ATOM     52  O   UNL     1     -11.997   4.015  -5.587  1.00  0.00    -0.169 OA
ATOM     53  O   UNL     1     -13.014   4.989  -3.489  1.00  0.00    -0.169 OA
BRANCH  51  54
ATOM     54  O   UNL     1     -10.870   5.821  -4.400  1.00  0.00    -0.264 OA
ATOM     55  H   UNL     1     -10.875   6.075  -3.455  1.00  0.00     0.236 HD
ENDBRANCH  51  54
ENDBRANCH  50  51
ENDBRANCH   8  50
TORSDOF 19
ENDMDL
MODEL 13
REMARK VINA RESULT:    -6.026     16.578     19.908
REMARK INTER + INTRA:         -15.703
REMARK INTER:                  -9.841
REMARK INTRA:                  -5.862
REMARK UNBOUND:                -3.513
REMARK SMILES CC[C@@H](C)[C@@H](NC(=O)[C@@H](O)Cc1ccc(O)c(Cl)c1)C(=O)N1[C@H](C(=O)NCCCCN=C(N)N)C[C@H]2CC[C@H](OS(=O)(=O)O)C[C@@H]21
REMARK SMILES IDX 22 1 36 2 46 3 35 4 23 5 45 6 37 7 39 8 38 9 20 10 21 11
REMARK SMILES IDX 5 12 6 13 7 14 8 15 9 17 11 18 12 19 17 20 19 21 15 22 14 23
REMARK SMILES IDX 13 24 18 25 16 26 10 28 3 30 4 31 2 32 1 33 24 34 25 35
REMARK SMILES IDX 26 36 27 38 28 39 29 40 30 41 31 42 32 43 33 44 34 45 40 50
REMARK SMILES IDX 41 51 42 52 43 53 44 54
REMARK H PARENT 6 16 16 27 10 29 26 37 33 46 33 47 34 48 34 49 44 55
ROOT
ATOM      1  N   UNL     1      -9.238  10.151   6.560  1.00  0.00    -0.326 N 
ATOM      2  C   UNL     1      -8.150   9.555   4.559  1.00  0.00     0.014 C 
ATOM      3  C   UNL     1      -7.892   9.958   6.014  1.00  0.00     0.091 C 
ATOM      4  C   UNL     1      -9.387  10.365   4.202  1.00  0.00     0.041 C 
ATOM      5  C   UNL     1     -10.238  10.133   5.464  1.00  0.00     0.175 C 
ATOM      6  C   UNL     1      -6.995   8.901   6.655  1.00  0.00     0.059 C 
ATOM      7  C   UNL     1      -6.895   9.707   3.723  1.00  0.00     0.008 C 
ATOM      8  C   UNL     1      -6.007   8.241   5.669  1.00  0.00     0.143 C 
ATOM      9  C   UNL     1      -5.665   9.169   4.485  1.00  0.00     0.034 C 
ENDROOT
BRANCH   1  10
ATOM     10  C   UNL     1      -9.634  10.541   7.828  1.00  0.00     0.246 C 
ATOM     11  O   UNL     1      -9.666  11.744   8.105  1.00  0.00    -0.272 OA
BRANCH  10  12
ATOM     12  C   UNL     1     -10.069   9.461   8.861  1.00  0.00     0.174 C 
BRANCH  12  13
ATOM     13  N   UNL     1      -9.450   8.177   8.531  1.00  0.00    -0.342 N 
ATOM     14  C   UNL     1      -8.635   7.453   9.373  1.00  0.00     0.249 C 
ATOM     15  O   UNL     1      -8.359   7.796  10.516  1.00  0.00    -0.272 OA
ATOM     16  H   UNL     1      -9.460   7.845   7.570  1.00  0.00     0.164 HD
BRANCH  14  17
ATOM     17  C   UNL     1      -8.123   6.148   8.728  1.00  0.00     0.207 C 
BRANCH  17  18
ATOM     18  C   UNL     1      -8.662   4.929   9.485  1.00  0.00     0.077 C 
BRANCH  18  19
ATOM     19  C   UNL     1     -10.095   4.625   9.111  1.00  0.00    -0.043 A 
ATOM     20  C   UNL     1     -12.341   3.966   9.749  1.00  0.00     0.083 A 
ATOM     21  C   UNL     1     -11.031   4.295  10.103  1.00  0.00     0.028 A 
ATOM     22  C   UNL     1     -12.722   3.964   8.407  1.00  0.00     0.134 A 
ATOM     23  C   UNL     1     -11.805   4.289   7.415  1.00  0.00     0.048 A 
ATOM     24  C   UNL     1     -10.493   4.616   7.765  1.00  0.00     0.008 A 
ATOM     25  Cl  UNL     1     -13.477   3.563  10.983  1.00  0.00    -0.080 Cl
BRANCH  22  26
ATOM     26  O   UNL     1     -13.991   3.638   8.012  1.00  0.00    -0.506 OA
ATOM     27  H   UNL     1     -14.050   3.845   7.061  1.00  0.00     0.293 HD
ENDBRANCH  22  26
ENDBRANCH  18  19
ENDBRANCH  17  18
BRANCH  17  28
ATOM     28  O   UNL     1      -6.687   6.105   8.718  1.00  0.00    -0.383 OA
ATOM     29  H   UNL     1      -6.430   5.816   7.813  1.00  0.00     0.211 HD
ENDBRANCH  17  28
ENDBRANCH  14  17
ENDBRANCH  12  13
BRANCH  12  30
ATOM     30  C   UNL     1     -11.611   9.355   9.005  1.00  0.00     0.018 C 
ATOM     31  C   UNL     1     -12.110  10.211  10.179  1.00  0.00     0.010 C 
BRANCH  30  32
ATOM     32  C   UNL     1     -12.123   7.901   9.151  1.00  0.00     0.002 C 
ATOM     33  C   UNL     1     -13.374   7.568   8.349  1.00  0.00     0.004 C 
ENDBRANCH  30  32
ENDBRANCH  12  30
ENDBRANCH  10  12
ENDBRANCH   1  10
BRANCH   5  34
ATOM     34  C   UNL     1     -10.975   8.769   5.414  1.00  0.00     0.242 C 
ATOM     35  O   UNL     1     -10.544   7.767   5.984  1.00  0.00    -0.273 OA
ATOM     36  N   UNL     1     -12.116   8.747   4.643  1.00  0.00    -0.354 N 
ATOM     37  H   UNL     1     -12.356   9.576   4.098  1.00  0.00     0.163 HD
BRANCH  36  38
ATOM     38  C   UNL     1     -13.037   7.630   4.656  1.00  0.00     0.116 C 
BRANCH  38  39
ATOM     39  C   UNL     1     -13.410   7.248   3.226  1.00  0.00     0.023 C 
BRANCH  39  40
ATOM     40  C   UNL     1     -12.296   7.557   2.231  1.00  0.00     0.026 C 
BRANCH  40  41
ATOM     41  C   UNL     1     -11.492   6.297   1.909  1.00  0.00     0.146 C 
BRANCH  41  42
ATOM     42  N   UNL     1     -10.306   6.240   2.754  1.00  0.00    -0.254 NA
ATOM     43  C   UNL     1     -10.206   5.326   3.644  1.00  0.00     0.185 C 
ATOM     44  N   UNL     1     -11.057   4.334   3.965  1.00  0.00    -0.370 N 
ATOM     45  N   UNL     1      -9.107   5.294   4.416  1.00  0.00    -0.370 N 
ATOM     46  H   UNL     1     -10.965   3.843   4.838  1.00  0.00     0.159 HD
ATOM     47  H   UNL     1     -11.934   4.203   3.471  1.00  0.00     0.159 HD
ATOM     48  H   UNL     1      -8.410   6.003   4.233  1.00  0.00     0.159 HD
ATOM     49  H   UNL     1      -8.847   4.490   4.958  1.00  0.00     0.159 HD
ENDBRANCH  41  42
ENDBRANCH  40  41
ENDBRANCH  39  40
ENDBRANCH  38  39
ENDBRANCH  36  38
ENDBRANCH   5  34
BRANCH   8  50
ATOM     50  O   UNL     1      -6.564   7.033   5.151  1.00  0.00    -0.245 OA
BRANCH  50  51
ATOM     51  S   UNL     1      -5.764   5.631   5.350  1.00  0.00     0.397 S 
ATOM     52  O   UNL     1      -5.068   5.336   4.117  1.00  0.00    -0.169 OA
ATOM     53  O   UNL     1      -6.632   4.660   5.983  1.00  0.00    -0.169 OA
BRANCH  51  54
ATOM     54  O   UNL     1      -4.625   6.041   6.408  1.00  0.00    -0.264 OA
ATOM     55  H   UNL     1      -4.942   5.792   7.300  1.00  0.00     0.236 HD
ENDBRANCH  51  54
ENDBRANCH  50  51
ENDBRANCH   8  50
TORSDOF 19
ENDMDL
MODEL 14
REMARK VINA RESULT:    -5.972      5.367      9.861
REMARK INTER + INTRA:         -15.595
REMARK INTER:                 -11.792
REMARK INTRA:                  -3.803
REMARK UNBOUND:                -3.513
REMARK SMILES CC[C@@H](C)[C@@H](NC(=O)[C@@H](O)Cc1ccc(O)c(Cl)c1)C(=O)N1[C@H](C(=O)NCCCCN=C(N)N)C[C@H]2CC[C@H](OS(=O)(=O)O)C[C@@H]21
REMARK SMILES IDX 22 1 36 2 46 3 35 4 23 5 45 6 37 7 39 8 38 9 20 10 21 11
REMARK SMILES IDX 5 12 6 13 7 14 8 15 9 17 11 18 12 19 17 20 19 21 15 22 14 23
REMARK SMILES IDX 13 24 18 25 16 26 10 28 3 30 4 31 2 32 1 33 24 34 25 35
REMARK SMILES IDX 26 36 27 38 28 39 29 40 30 41 31 42 32 43 33 44 34 45 40 50
REMARK SMILES IDX 41 51 42 52 43 53 44 54
REMARK H PARENT 6 16 16 27 10 29 26 37 33 46 33 47 34 48 34 49 44 55
ROOT
ATOM      1  N   UNL     1      -0.500   2.576  -3.116  1.00  0.00    -0.326 N 
ATOM      2  C   UNL     1      -1.851   4.354  -3.861  1.00  0.00     0.014 C 
ATOM      3  C   UNL     1      -1.644   2.842  -3.992  1.00  0.00     0.091 C 
ATOM      4  C   UNL     1      -0.430   4.874  -3.702  1.00  0.00     0.041 C 
ATOM      5  C   UNL     1       0.121   3.854  -2.688  1.00  0.00     0.175 C 
ATOM      6  C   UNL     1      -2.968   2.145  -3.685  1.00  0.00     0.059 C 
ATOM      7  C   UNL     1      -2.714   4.882  -4.990  1.00  0.00     0.008 C 
ATOM      8  C   UNL     1      -4.211   2.966  -4.091  1.00  0.00     0.143 C 
ATOM      9  C   UNL     1      -3.910   3.941  -5.247  1.00  0.00     0.034 C 
ENDROOT
BRANCH   1  10
ATOM     10  C   UNL     1       0.153   1.385  -2.845  1.00  0.00     0.246 C 
ATOM     11  O   UNL     1      -0.159   0.744  -1.836  1.00  0.00    -0.272 OA
BRANCH  10  12
ATOM     12  C   UNL     1       1.233   0.860  -3.836  1.00  0.00     0.174 C 
BRANCH  12  13
ATOM     13  N   UNL     1       2.467   1.629  -3.682  1.00  0.00    -0.342 N 
ATOM     14  C   UNL     1       3.614   1.168  -3.075  1.00  0.00     0.249 C 
ATOM     15  O   UNL     1       3.737   0.039  -2.617  1.00  0.00    -0.272 OA
ATOM     16  H   UNL     1       2.466   2.628  -3.871  1.00  0.00     0.164 HD
BRANCH  14  17
ATOM     17  C   UNL     1       4.741   2.223  -3.053  1.00  0.00     0.207 C 
BRANCH  17  18
ATOM     18  C   UNL     1       4.164   3.627  -3.257  1.00  0.00     0.077 C 
BRANCH  18  19
ATOM     19  C   UNL     1       4.727   4.616  -2.261  1.00  0.00    -0.043 A 
ATOM     20  C   UNL     1       4.412   6.482  -0.743  1.00  0.00     0.083 A 
ATOM     21  C   UNL     1       3.882   5.538  -1.624  1.00  0.00     0.028 A 
ATOM     22  C   UNL     1       5.785   6.512  -0.495  1.00  0.00     0.134 A 
ATOM     23  C   UNL     1       6.633   5.605  -1.119  1.00  0.00     0.048 A 
ATOM     24  C   UNL     1       6.106   4.660  -2.003  1.00  0.00     0.008 A 
ATOM     25  Cl  UNL     1       3.358   7.606   0.030  1.00  0.00    -0.080 Cl
BRANCH  22  26
ATOM     26  O   UNL     1       6.351   7.425   0.353  1.00  0.00    -0.506 OA
ATOM     27  H   UNL     1       7.234   7.631  -0.007  1.00  0.00     0.293 HD
ENDBRANCH  22  26
ENDBRANCH  18  19
ENDBRANCH  17  18
BRANCH  17  28
ATOM     28  O   UNL     1       5.719   1.957  -4.071  1.00  0.00    -0.383 OA
ATOM     29  H   UNL     1       5.724   2.747  -4.657  1.00  0.00     0.211 HD
ENDBRANCH  17  28
ENDBRANCH  14  17
ENDBRANCH  12  13
BRANCH  12  30
ATOM     30  C   UNL     1       0.734   0.830  -5.306  1.00  0.00     0.018 C 
ATOM     31  C   UNL     1       1.032  -0.530  -5.956  1.00  0.00     0.010 C 
BRANCH  30  32
ATOM     32  C   UNL     1       1.304   1.974  -6.179  1.00  0.00     0.002 C 
ATOM     33  C   UNL     1       0.297   2.657  -7.096  1.00  0.00     0.004 C 
ENDBRANCH  30  32
ENDBRANCH  12  30
ENDBRANCH  10  12
ENDBRANCH   1  10
BRANCH   5  34
ATOM     34  C   UNL     1      -0.296   4.210  -1.236  1.00  0.00     0.242 C 
ATOM     35  O   UNL     1      -1.099   3.530  -0.597  1.00  0.00    -0.273 OA
ATOM     36  N   UNL     1       0.256   5.368  -0.735  1.00  0.00    -0.354 N 
ATOM     37  H   UNL     1       0.820   5.951  -1.355  1.00  0.00     0.163 HD
BRANCH  36  38
ATOM     38  C   UNL     1       0.150   5.733   0.662  1.00  0.00     0.116 C 
BRANCH  38  39
ATOM     39  C   UNL     1      -1.123   6.545   0.890  1.00  0.00     0.023 C 
BRANCH  39  40
ATOM     40  C   UNL     1      -1.472   7.429  -0.303  1.00  0.00     0.026 C 
BRANCH  40  41
ATOM     41  C   UNL     1      -2.745   6.935  -0.990  1.00  0.00     0.146 C 
BRANCH  41  42
ATOM     42  N   UNL     1      -3.534   8.074  -1.443  1.00  0.00    -0.254 NA
ATOM     43  C   UNL     1      -4.522   7.884  -2.235  1.00  0.00     0.185 C 
ATOM     44  N   UNL     1      -5.001   6.744  -2.763  1.00  0.00    -0.370 N 
ATOM     45  N   UNL     1      -5.233   8.948  -2.644  1.00  0.00    -0.370 N 
ATOM     46  H   UNL     1      -5.622   6.766  -3.554  1.00  0.00     0.159 HD
ATOM     47  H   UNL     1      -4.588   5.842  -2.547  1.00  0.00     0.159 HD
ATOM     48  H   UNL     1      -4.943   9.847  -2.285  1.00  0.00     0.159 HD
ATOM     49  H   UNL     1      -6.144   8.865  -3.060  1.00  0.00     0.159 HD
ENDBRANCH  41  42
ENDBRANCH  40  41
ENDBRANCH  39  40
ENDBRANCH  38  39
ENDBRANCH  36  38
ENDBRANCH   5  34
BRANCH   8  50
ATOM     50  O   UNL     1      -4.687   3.720  -2.975  1.00  0.00    -0.245 OA
BRANCH  50  51
ATOM     51  S   UNL     1      -6.089   3.304  -2.264  1.00  0.00     0.397 S 
ATOM     52  O   UNL     1      -6.947   2.725  -3.273  1.00  0.00    -0.169 OA
ATOM     53  O   UNL     1      -6.541   4.384  -1.411  1.00  0.00    -0.169 OA
BRANCH  51  54
ATOM     54  O   UNL     1      -5.637   2.083  -1.320  1.00  0.00    -0.264 OA
ATOM     55  H   UNL     1      -4.963   1.565  -1.805  1.00  0.00     0.236 HD
ENDBRANCH  51  54
ENDBRANCH  50  51
ENDBRANCH   8  50
TORSDOF 19
ENDMDL
MODEL 15
REMARK VINA RESULT:    -5.956      4.013      8.730
REMARK INTER + INTRA:         -15.563
REMARK INTER:                 -13.014
REMARK INTRA:                  -2.549
REMARK UNBOUND:                -3.513
REMARK SMILES CC[C@@H](C)[C@@H](NC(=O)[C@@H](O)Cc1ccc(O)c(Cl)c1)C(=O)N1[C@H](C(=O)NCCCCN=C(N)N)C[C@H]2CC[C@H](OS(=O)(=O)O)C[C@@H]21
REMARK SMILES IDX 22 1 36 2 46 3 35 4 23 5 45 6 37 7 39 8 38 9 20 10 21 11
REMARK SMILES IDX 5 12 6 13 7 14 8 15 9 17 11 18 12 19 17 20 19 21 15 22 14 23
REMARK SMILES IDX 13 24 18 25 16 26 10 28 3 30 4 31 2 32 1 33 24 34 25 35
REMARK SMILES IDX 26 36 27 38 28 39 29 40 30 41 31 42 32 43 33 44 34 45 40 50
REMARK SMILES IDX 41 51 42 52 43 53 44 54
REMARK H PARENT 6 16 16 27 10 29 26 37 33 46 33 47 34 48 34 49 44 55
ROOT
ATOM      1  N   UNL     1       3.794   2.574 -10.205  1.00  0.00    -0.326 N 
ATOM      2  C   UNL     1       3.151   4.504 -11.389  1.00  0.00     0.014 C 
ATOM      3  C   UNL     1       3.352   2.994 -11.538  1.00  0.00     0.091 C 
ATOM      4  C   UNL     1       4.248   4.893 -10.410  1.00  0.00     0.041 C 
ATOM      5  C   UNL     1       4.100   3.764  -9.373  1.00  0.00     0.175 C 
ATOM      6  C   UNL     1       2.067   2.388 -12.099  1.00  0.00     0.059 C 
ATOM      7  C   UNL     1       3.092   5.179 -12.745  1.00  0.00     0.008 C 
ATOM      8  C   UNL     1       1.295   3.335 -13.043  1.00  0.00     0.143 C 
ATOM      9  C   UNL     1       2.225   4.360 -13.724  1.00  0.00     0.034 C 
ENDROOT
BRANCH   1  10
ATOM     10  C   UNL     1       4.145   1.318  -9.740  1.00  0.00     0.246 C 
ATOM     11  O   UNL     1       3.277   0.600  -9.232  1.00  0.00    -0.272 OA
BRANCH  10  12
ATOM     12  C   UNL     1       5.610   0.821  -9.908  1.00  0.00     0.174 C 
BRANCH  12  13
ATOM     13  N   UNL     1       6.517   1.964 -10.000  1.00  0.00    -0.342 N 
ATOM     14  C   UNL     1       7.459   2.305  -9.055  1.00  0.00     0.249 C 
ATOM     15  O   UNL     1       7.661   1.662  -8.032  1.00  0.00    -0.272 OA
ATOM     16  H   UNL     1       6.362   2.674 -10.711  1.00  0.00     0.164 HD
BRANCH  14  17
ATOM     17  C   UNL     1       8.250   3.575  -9.432  1.00  0.00     0.207 C 
BRANCH  17  18
ATOM     18  C   UNL     1       9.755   3.291  -9.426  1.00  0.00     0.077 C 
BRANCH  18  19
ATOM     19  C   UNL     1      10.298   3.103 -10.825  1.00  0.00    -0.043 A 
ATOM     20  C   UNL     1       9.933   2.947 -13.218  1.00  0.00     0.083 A 
ATOM     21  C   UNL     1       9.438   3.169 -11.932  1.00  0.00     0.028 A 
ATOM     22  C   UNL     1      11.285   2.657 -13.405  1.00  0.00     0.134 A 
ATOM     23  C   UNL     1      12.148   2.589 -12.317  1.00  0.00     0.048 A 
ATOM     24  C   UNL     1      11.655   2.810 -11.029  1.00  0.00     0.008 A 
ATOM     25  Cl  UNL     1       8.862   3.031 -14.566  1.00  0.00    -0.080 Cl
BRANCH  22  26
ATOM     26  O   UNL     1      11.815   2.422 -14.645  1.00  0.00    -0.506 OA
ATOM     27  H   UNL     1      12.483   1.720 -14.535  1.00  0.00     0.293 HD
ENDBRANCH  22  26
ENDBRANCH  18  19
ENDBRANCH  17  18
BRANCH  17  28
ATOM     28  O   UNL     1       7.964   4.651  -8.524  1.00  0.00    -0.383 OA
ATOM     29  H   UNL     1       7.609   5.385  -9.076  1.00  0.00     0.211 HD
ENDBRANCH  17  28
ENDBRANCH  14  17
ENDBRANCH  12  13
BRANCH  12  30
ATOM     30  C   UNL     1       5.777  -0.165 -11.095  1.00  0.00     0.018 C 
ATOM     31  C   UNL     1       4.900  -1.412 -10.898  1.00  0.00     0.010 C 
BRANCH  30  32
ATOM     32  C   UNL     1       7.245  -0.584 -11.353  1.00  0.00     0.002 C 
ATOM     33  C   UNL     1       7.848  -0.075 -12.657  1.00  0.00     0.004 C 
ENDBRANCH  30  32
ENDBRANCH  12  30
ENDBRANCH  10  12
ENDBRANCH   1  10
BRANCH   5  34
ATOM     34  C   UNL     1       2.947   4.051  -8.375  1.00  0.00     0.242 C 
ATOM     35  O   UNL     1       1.995   3.284  -8.233  1.00  0.00    -0.273 OA
ATOM     36  N   UNL     1       3.038   5.249  -7.703  1.00  0.00    -0.354 N 
ATOM     37  H   UNL     1       3.787   5.896  -7.952  1.00  0.00     0.163 HD
BRANCH  36  38
ATOM     38  C   UNL     1       2.174   5.577  -6.588  1.00  0.00     0.116 C 
BRANCH  38  39
ATOM     39  C   UNL     1       2.940   5.423  -5.276  1.00  0.00     0.023 C 
BRANCH  39  40
ATOM     40  C   UNL     1       2.551   4.157  -4.520  1.00  0.00     0.026 C 
BRANCH  40  41
ATOM     41  C   UNL     1       3.610   3.070  -4.701  1.00  0.00     0.146 C 
BRANCH  41  42
ATOM     42  N   UNL     1       3.322   1.949  -3.816  1.00  0.00    -0.254 NA
ATOM     43  C   UNL     1       4.222   1.537  -3.004  1.00  0.00     0.185 C 
ATOM     44  N   UNL     1       5.476   1.982  -2.802  1.00  0.00    -0.370 N 
ATOM     45  N   UNL     1       3.939   0.500  -2.199  1.00  0.00    -0.370 N 
ATOM     46  H   UNL     1       6.149   1.416  -2.314  1.00  0.00     0.159 HD
ATOM     47  H   UNL     1       5.850   2.772  -3.319  1.00  0.00     0.159 HD
ATOM     48  H   UNL     1       3.009   0.110  -2.280  1.00  0.00     0.159 HD
ATOM     49  H   UNL     1       4.487   0.275  -1.388  1.00  0.00     0.159 HD
ENDBRANCH  41  42
ENDBRANCH  40  41
ENDBRANCH  39  40
ENDBRANCH  38  39
ENDBRANCH  36  38
ENDBRANCH   5  34
BRANCH   8  50
ATOM     50  O   UNL     1       0.294   4.046 -12.313  1.00  0.00    -0.245 OA
BRANCH  50  51
ATOM     51  S   UNL     1      -1.265   3.926 -12.762  1.00  0.00     0.397 S 
ATOM     52  O   UNL     1      -1.928   5.160 -12.405  1.00  0.00    -0.169 OA
ATOM     53  O   UNL     1      -1.788   2.637 -12.359  1.00  0.00    -0.169 OA
BRANCH  51  54
ATOM     54  O   UNL     1      -1.154   3.936 -14.366  1.00  0.00    -0.264 OA
ATOM     55  H   UNL     1      -0.565   3.200 -14.629  1.00  0.00     0.236 HD
ENDBRANCH  51  54
ENDBRANCH  50  51
ENDBRANCH   8  50
TORSDOF 19
ENDMDL
MODEL 16
REMARK VINA RESULT:    -5.927      3.962      8.024
REMARK INTER + INTRA:         -15.503
REMARK INTER:                 -10.906
REMARK INTRA:                  -4.598
REMARK UNBOUND:                -3.513
REMARK SMILES CC[C@@H](C)[C@@H](NC(=O)[C@@H](O)Cc1ccc(O)c(Cl)c1)C(=O)N1[C@H](C(=O)NCCCCN=C(N)N)C[C@H]2CC[C@H](OS(=O)(=O)O)C[C@@H]21
REMARK SMILES IDX 22 1 36 2 46 3 35 4 23 5 45 6 37 7 39 8 38 9 20 10 21 11
REMARK SMILES IDX 5 12 6 13 7 14 8 15 9 17 11 18 12 19 17 20 19 21 15 22 14 23
REMARK SMILES IDX 13 24 18 25 16 26 10 28 3 30 4 31 2 32 1 33 24 34 25 35
REMARK SMILES IDX 26 36 27 38 28 39 29 40 30 41 31 42 32 43 33 44 34 45 40 50
REMARK SMILES IDX 41 51 42 52 43 53 44 54
REMARK H PARENT 6 16 16 27 10 29 26 37 33 46 33 47 34 48 34 49 44 55
ROOT
ATOM      1  N   UNL     1      -0.307   2.699  -5.633  1.00  0.00    -0.326 N 
ATOM      2  C   UNL     1       1.101   4.252  -6.705  1.00  0.00     0.014 C 
ATOM      3  C   UNL     1       0.487   2.857  -6.855  1.00  0.00     0.091 C 
ATOM      4  C   UNL     1       1.339   4.354  -5.206  1.00  0.00     0.041 C 
ATOM      5  C   UNL     1       0.005   3.793  -4.680  1.00  0.00     0.175 C 
ATOM      6  C   UNL     1      -0.232   2.788  -8.200  1.00  0.00     0.059 C 
ATOM      7  C   UNL     1       2.267   4.437  -7.656  1.00  0.00     0.008 C 
ATOM      8  C   UNL     1       0.419   3.656  -9.299  1.00  0.00     0.143 C 
ATOM      9  C   UNL     1       1.926   3.870  -9.050  1.00  0.00     0.034 C 
ENDROOT
BRANCH   1  10
ATOM     10  C   UNL     1      -1.072   1.628  -5.204  1.00  0.00     0.246 C 
ATOM     11  O   UNL     1      -2.302   1.745  -5.166  1.00  0.00    -0.272 OA
BRANCH  10  12
ATOM     12  C   UNL     1      -0.374   0.291  -4.821  1.00  0.00     0.174 C 
BRANCH  12  13
ATOM     13  N   UNL     1       0.917   0.565  -4.192  1.00  0.00    -0.342 N 
ATOM     14  C   UNL     1       1.113   0.763  -2.843  1.00  0.00     0.249 C 
ATOM     15  O   UNL     1       0.219   0.704  -2.008  1.00  0.00    -0.272 OA
ATOM     16  H   UNL     1       1.720   0.798  -4.770  1.00  0.00     0.164 HD
BRANCH  14  17
ATOM     17  C   UNL     1       2.589   1.049  -2.491  1.00  0.00     0.207 C 
BRANCH  17  18
ATOM     18  C   UNL     1       3.466   0.951  -3.743  1.00  0.00     0.077 C 
BRANCH  18  19
ATOM     19  C   UNL     1       4.078   2.286  -4.106  1.00  0.00    -0.043 A 
ATOM     20  C   UNL     1       5.206   3.715  -5.709  1.00  0.00     0.083 A 
ATOM     21  C   UNL     1       4.598   2.500  -5.392  1.00  0.00     0.028 A 
ATOM     22  C   UNL     1       5.299   4.721  -4.746  1.00  0.00     0.134 A 
ATOM     23  C   UNL     1       4.787   4.523  -3.469  1.00  0.00     0.048 A 
ATOM     24  C   UNL     1       4.180   3.306  -3.148  1.00  0.00     0.008 A 
ATOM     25  Cl  UNL     1       5.840   3.960  -7.294  1.00  0.00    -0.080 Cl
BRANCH  22  26
ATOM     26  O   UNL     1       5.895   5.925  -5.007  1.00  0.00    -0.506 OA
ATOM     27  H   UNL     1       6.489   5.785  -5.768  1.00  0.00     0.293 HD
ENDBRANCH  22  26
ENDBRANCH  18  19
ENDBRANCH  17  18
BRANCH  17  28
ATOM     28  O   UNL     1       3.071   0.130  -1.498  1.00  0.00    -0.383 OA
ATOM     29  H   UNL     1       2.952  -0.770  -1.880  1.00  0.00     0.211 HD
ENDBRANCH  17  28
ENDBRANCH  14  17
ENDBRANCH  12  13
BRANCH  12  30
ATOM     30  C   UNL     1      -0.253  -0.687  -6.020  1.00  0.00     0.018 C 
ATOM     31  C   UNL     1       1.139  -0.592  -6.665  1.00  0.00     0.010 C 
BRANCH  30  32
ATOM     32  C   UNL     1      -1.351  -0.493  -7.094  1.00  0.00     0.002 C 
ATOM     33  C   UNL     1      -2.597  -1.350  -6.914  1.00  0.00     0.004 C 
ENDBRANCH  30  32
ENDBRANCH  12  30
ENDBRANCH  10  12
ENDBRANCH   1  10
BRANCH   5  34
ATOM     34  C   UNL     1      -1.114   4.869  -4.694  1.00  0.00     0.242 C 
ATOM     35  O   UNL     1      -0.910   6.034  -4.350  1.00  0.00    -0.273 OA
ATOM     36  N   UNL     1      -2.359   4.415  -5.065  1.00  0.00    -0.354 N 
ATOM     37  H   UNL     1      -2.491   3.415  -5.222  1.00  0.00     0.163 HD
BRANCH  36  38
ATOM     38  C   UNL     1      -3.460   5.315  -5.339  1.00  0.00     0.116 C 
BRANCH  38  39
ATOM     39  C   UNL     1      -4.400   5.366  -4.137  1.00  0.00     0.023 C 
BRANCH  39  40
ATOM     40  C   UNL     1      -4.588   4.000  -3.486  1.00  0.00     0.026 C 
BRANCH  40  41
ATOM     41  C   UNL     1      -4.276   4.065  -1.991  1.00  0.00     0.146 C 
BRANCH  41  42
ATOM     42  N   UNL     1      -3.982   2.728  -1.491  1.00  0.00    -0.254 NA
ATOM     43  C   UNL     1      -2.765   2.364  -1.332  1.00  0.00     0.185 C 
ATOM     44  N   UNL     1      -1.624   3.041  -1.557  1.00  0.00    -0.370 N 
ATOM     45  N   UNL     1      -2.516   1.126  -0.875  1.00  0.00    -0.370 N 
ATOM     46  H   UNL     1      -0.745   2.556  -1.623  1.00  0.00     0.159 HD
ATOM     47  H   UNL     1      -1.629   3.999  -1.893  1.00  0.00     0.159 HD
ATOM     48  H   UNL     1      -3.323   0.553  -0.671  1.00  0.00     0.159 HD
ATOM     49  H   UNL     1      -1.623   0.853  -0.504  1.00  0.00     0.159 HD
ENDBRANCH  41  42
ENDBRANCH  40  41
ENDBRANCH  39  40
ENDBRANCH  38  39
ENDBRANCH  36  38
ENDBRANCH   5  34
BRANCH   8  50
ATOM     50  O   UNL     1      -0.216   4.934  -9.356  1.00  0.00    -0.245 OA
BRANCH  50  51
ATOM     51  S   UNL     1      -0.525   5.613 -10.801  1.00  0.00     0.397 S 
ATOM     52  O   UNL     1       0.705   6.191 -11.294  1.00  0.00    -0.169 OA
ATOM     53  O   UNL     1      -1.749   6.383 -10.724  1.00  0.00    -0.169 OA
BRANCH  51  54
ATOM     54  O   UNL     1      -0.805   4.327 -11.724  1.00  0.00    -0.264 OA
ATOM     55  H   UNL     1      -1.748   4.347 -11.986  1.00  0.00     0.236 HD
ENDBRANCH  51  54
ENDBRANCH  50  51
ENDBRANCH   8  50
TORSDOF 19
ENDMDL
MODEL 17
REMARK VINA RESULT:    -5.926     12.028     15.204
REMARK INTER + INTRA:         -15.502
REMARK INTER:                 -11.819
REMARK INTRA:                  -3.683
REMARK UNBOUND:                -3.513
REMARK SMILES CC[C@@H](C)[C@@H](NC(=O)[C@@H](O)Cc1ccc(O)c(Cl)c1)C(=O)N1[C@H](C(=O)NCCCCN=C(N)N)C[C@H]2CC[C@H](OS(=O)(=O)O)C[C@@H]21
REMARK SMILES IDX 22 1 36 2 46 3 35 4 23 5 45 6 37 7 39 8 38 9 20 10 21 11
REMARK SMILES IDX 5 12 6 13 7 14 8 15 9 17 11 18 12 19 17 20 19 21 15 22 14 23
REMARK SMILES IDX 13 24 18 25 16 26 10 28 3 30 4 31 2 32 1 33 24 34 25 35
REMARK SMILES IDX 26 36 27 38 28 39 29 40 30 41 31 42 32 43 33 44 34 45 40 50
REMARK SMILES IDX 41 51 42 52 43 53 44 54
REMARK H PARENT 6 16 16 27 10 29 26 37 33 46 33 47 34 48 34 49 44 55
ROOT
ATOM      1  N   UNL     1     -10.652   6.612  -6.564  1.00  0.00    -0.326 N 
ATOM      2  C   UNL     1      -9.648   4.902  -7.834  1.00  0.00     0.014 C 
ATOM      3  C   UNL     1     -10.427   6.215  -7.957  1.00  0.00     0.091 C 
ATOM      4  C   UNL     1     -10.246   4.275  -6.584  1.00  0.00     0.041 C 
ATOM      5  C   UNL     1     -10.280   5.501  -5.653  1.00  0.00     0.175 C 
ATOM      6  C   UNL     1      -9.639   7.161  -8.862  1.00  0.00     0.059 C 
ATOM      7  C   UNL     1      -9.675   4.131  -9.139  1.00  0.00     0.008 C 
ATOM      8  C   UNL     1      -8.826   6.439  -9.958  1.00  0.00     0.143 C 
ATOM      9  C   UNL     1      -9.443   5.077 -10.335  1.00  0.00     0.034 C 
ENDROOT
BRANCH   1  10
ATOM     10  C   UNL     1     -11.321   7.710  -6.051  1.00  0.00     0.246 C 
ATOM     11  O   UNL     1     -10.723   8.787  -5.956  1.00  0.00    -0.272 OA
BRANCH  10  12
ATOM     12  C   UNL     1     -12.818   7.577  -5.648  1.00  0.00     0.174 C 
BRANCH  12  13
ATOM     13  N   UNL     1     -12.985   7.908  -4.233  1.00  0.00    -0.342 N 
ATOM     14  C   UNL     1     -13.344   9.145  -3.748  1.00  0.00     0.249 C 
ATOM     15  O   UNL     1     -13.593  10.111  -4.459  1.00  0.00    -0.272 OA
ATOM     16  H   UNL     1     -12.662   7.256  -3.522  1.00  0.00     0.164 HD
BRANCH  14  17
ATOM     17  C   UNL     1     -13.419   9.182  -2.207  1.00  0.00     0.207 C 
BRANCH  17  18
ATOM     18  C   UNL     1     -14.475   8.195  -1.699  1.00  0.00     0.077 C 
BRANCH  18  19
ATOM     19  C   UNL     1     -13.851   7.038  -0.952  1.00  0.00    -0.043 A 
ATOM     20  C   UNL     1     -13.920   4.727  -0.217  1.00  0.00     0.083 A 
ATOM     21  C   UNL     1     -14.473   5.780  -0.947  1.00  0.00     0.028 A 
ATOM     22  C   UNL     1     -12.746   4.924   0.512  1.00  0.00     0.134 A 
ATOM     23  C   UNL     1     -12.119   6.164   0.515  1.00  0.00     0.048 A 
ATOM     24  C   UNL     1     -12.672   7.220  -0.214  1.00  0.00     0.008 A 
ATOM     25  Cl  UNL     1     -14.700   3.189  -0.222  1.00  0.00    -0.080 Cl
BRANCH  22  26
ATOM     26  O   UNL     1     -12.172   3.925   1.251  1.00  0.00    -0.506 OA
ATOM     27  H   UNL     1     -11.333   3.698   0.811  1.00  0.00     0.293 HD
ENDBRANCH  22  26
ENDBRANCH  18  19
ENDBRANCH  17  18
BRANCH  17  28
ATOM     28  O   UNL     1     -13.734  10.502  -1.735  1.00  0.00    -0.383 OA
ATOM     29  H   UNL     1     -13.190  10.639  -0.927  1.00  0.00     0.211 HD
ENDBRANCH  17  28
ENDBRANCH  14  17
ENDBRANCH  12  13
BRANCH  12  30
ATOM     30  C   UNL     1     -13.414   6.189  -6.006  1.00  0.00     0.018 C 
ATOM     31  C   UNL     1     -14.533   6.328  -7.051  1.00  0.00     0.010 C 
BRANCH  30  32
ATOM     32  C   UNL     1     -13.928   5.398  -4.779  1.00  0.00     0.002 C 
ATOM     33  C   UNL     1     -13.814   3.883  -4.886  1.00  0.00     0.004 C 
ENDBRANCH  30  32
ENDBRANCH  12  30
ENDBRANCH  10  12
ENDBRANCH   1  10
BRANCH   5  34
ATOM     34  C   UNL     1      -8.897   5.764  -5.001  1.00  0.00     0.242 C 
ATOM     35  O   UNL     1      -8.183   6.711  -5.332  1.00  0.00    -0.273 OA
ATOM     36  N   UNL     1      -8.503   4.832  -4.067  1.00  0.00    -0.354 N 
ATOM     37  H   UNL     1      -9.083   4.005  -3.923  1.00  0.00     0.163 HD
BRANCH  36  38
ATOM     38  C   UNL     1      -7.352   5.034  -3.211  1.00  0.00     0.116 C 
BRANCH  38  39
ATOM     39  C   UNL     1      -6.672   3.695  -2.934  1.00  0.00     0.023 C 
BRANCH  39  40
ATOM     40  C   UNL     1      -6.667   2.780  -4.154  1.00  0.00     0.026 C 
BRANCH  40  41
ATOM     41  C   UNL     1      -5.487   3.103  -5.070  1.00  0.00     0.146 C 
BRANCH  41  42
ATOM     42  N   UNL     1      -5.856   4.170  -5.991  1.00  0.00    -0.254 NA
ATOM     43  C   UNL     1      -4.943   4.892  -6.523  1.00  0.00     0.185 C 
ATOM     44  N   UNL     1      -3.606   4.842  -6.377  1.00  0.00    -0.370 N 
ATOM     45  N   UNL     1      -5.304   5.873  -7.366  1.00  0.00    -0.370 N 
ATOM     46  H   UNL     1      -3.030   5.617  -6.658  1.00  0.00     0.159 HD
ATOM     47  H   UNL     1      -3.160   4.149  -5.784  1.00  0.00     0.159 HD
ATOM     48  H   UNL     1      -6.296   5.973  -7.539  1.00  0.00     0.159 HD
ATOM     49  H   UNL     1      -4.658   6.316  -7.994  1.00  0.00     0.159 HD
ENDBRANCH  41  42
ENDBRANCH  40  41
ENDBRANCH  39  40
ENDBRANCH  38  39
ENDBRANCH  36  38
ENDBRANCH   5  34
BRANCH   8  50
ATOM     50  O   UNL     1      -7.487   6.221  -9.512  1.00  0.00    -0.245 OA
BRANCH  50  51
ATOM     51  S   UNL     1      -6.249   6.886 -10.332  1.00  0.00     0.397 S 
ATOM     52  O   UNL     1      -5.313   5.834 -10.657  1.00  0.00    -0.169 OA
ATOM     53  O   UNL     1      -5.825   8.102  -9.671  1.00  0.00    -0.169 OA
BRANCH  51  54
ATOM     54  O   UNL     1      -6.948   7.295 -11.721  1.00  0.00    -0.264 OA
ATOM     55  H   UNL     1      -7.855   7.605 -11.519  1.00  0.00     0.236 HD
ENDBRANCH  51  54
ENDBRANCH  50  51
ENDBRANCH   8  50
TORSDOF 19
ENDMDL
MODEL 18
REMARK VINA RESULT:    -5.896      5.757      9.577
REMARK INTER + INTRA:         -15.441
REMARK INTER:                 -11.312
REMARK INTRA:                  -4.129
REMARK UNBOUND:                -3.513
REMARK SMILES CC[C@@H](C)[C@@H](NC(=O)[C@@H](O)Cc1ccc(O)c(Cl)c1)C(=O)N1[C@H](C(=O)NCCCCN=C(N)N)C[C@H]2CC[C@H](OS(=O)(=O)O)C[C@@H]21
REMARK SMILES IDX 22 1 36 2 46 3 35 4 23 5 45 6 37 7 39 8 38 9 20 10 21 11
REMARK SMILES IDX 5 12 6 13 7 14 8 15 9 17 11 18 12 19 17 20 19 21 15 22 14 23
REMARK SMILES IDX 13 24 18 25 16 26 10 28 3 30 4 31 2 32 1 33 24 34 25 35
REMARK SMILES IDX 26 36 27 38 28 39 29 40 30 41 31 42 32 43 33 44 34 45 40 50
REMARK SMILES IDX 41 51 42 52 43 53 44 54
REMARK H PARENT 6 16 16 27 10 29 26 37 33 46 33 47 34 48 34 49 44 55
ROOT
ATOM      1  N   UNL     1       8.886   3.272 -11.446  1.00  0.00    -0.326 N 
ATOM      2  C   UNL     1      11.153   3.326 -10.811  1.00  0.00     0.014 C 
ATOM      3  C   UNL     1      10.170   2.641 -11.766  1.00  0.00     0.091 C 
ATOM      4  C   UNL     1      10.308   3.554  -9.568  1.00  0.00     0.041 C 
ATOM      5  C   UNL     1       9.013   4.085 -10.211  1.00  0.00     0.175 C 
ATOM      6  C   UNL     1      10.708   2.774 -13.189  1.00  0.00     0.059 C 
ATOM      7  C   UNL     1      12.441   2.535 -10.700  1.00  0.00     0.008 C 
ATOM      8  C   UNL     1      12.250   2.789 -13.273  1.00  0.00     0.143 C 
ATOM      9  C   UNL     1      12.901   2.045 -12.089  1.00  0.00     0.034 C 
ENDROOT
BRANCH   1  10
ATOM     10  C   UNL     1       7.628   3.042 -11.976  1.00  0.00     0.246 C 
ATOM     11  O   UNL     1       7.210   3.780 -12.875  1.00  0.00    -0.272 OA
BRANCH  10  12
ATOM     12  C   UNL     1       6.787   1.838 -11.461  1.00  0.00     0.174 C 
BRANCH  12  13
ATOM     13  N   UNL     1       6.157   2.179 -10.186  1.00  0.00    -0.342 N 
ATOM     14  C   UNL     1       4.901   2.725 -10.047  1.00  0.00     0.249 C 
ATOM     15  O   UNL     1       4.152   2.962 -10.986  1.00  0.00    -0.272 OA
ATOM     16  H   UNL     1       6.713   2.184  -9.335  1.00  0.00     0.164 HD
BRANCH  14  17
ATOM     17  C   UNL     1       4.526   2.987  -8.572  1.00  0.00     0.207 C 
BRANCH  17  18
ATOM     18  C   UNL     1       5.668   2.560  -7.645  1.00  0.00     0.077 C 
BRANCH  18  19
ATOM     19  C   UNL     1       5.429   3.002  -6.219  1.00  0.00    -0.043 A 
ATOM     20  C   UNL     1       5.131   4.774  -4.589  1.00  0.00     0.083 A 
ATOM     21  C   UNL     1       5.301   4.366  -5.912  1.00  0.00     0.028 A 
ATOM     22  C   UNL     1       5.088   3.826  -3.566  1.00  0.00     0.134 A 
ATOM     23  C   UNL     1       5.214   2.472  -3.855  1.00  0.00     0.048 A 
ATOM     24  C   UNL     1       5.386   2.061  -5.179  1.00  0.00     0.008 A 
ATOM     25  Cl  UNL     1       4.976   6.454  -4.232  1.00  0.00    -0.080 Cl
BRANCH  22  26
ATOM     26  O   UNL     1       4.933   4.178  -2.253  1.00  0.00    -0.506 OA
ATOM     27  H   UNL     1       5.822   4.395  -1.914  1.00  0.00     0.293 HD
ENDBRANCH  22  26
ENDBRANCH  18  19
ENDBRANCH  17  18
BRANCH  17  28
ATOM     28  O   UNL     1       3.328   2.282  -8.210  1.00  0.00    -0.383 OA
ATOM     29  H   UNL     1       2.851   2.864  -7.575  1.00  0.00     0.211 HD
ENDBRANCH  17  28
ENDBRANCH  14  17
ENDBRANCH  12  13
BRANCH  12  30
ATOM     30  C   UNL     1       7.608   0.523 -11.383  1.00  0.00     0.018 C 
ATOM     31  C   UNL     1       7.926  -0.007 -12.790  1.00  0.00     0.010 C 
BRANCH  30  32
ATOM     32  C   UNL     1       6.930  -0.584 -10.539  1.00  0.00     0.002 C 
ATOM     33  C   UNL     1       6.392  -1.769 -11.330  1.00  0.00     0.004 C 
ENDBRANCH  30  32
ENDBRANCH  12  30
ENDBRANCH  10  12
ENDBRANCH   1  10
BRANCH   5  34
ATOM     34  C   UNL     1       9.123   5.594 -10.556  1.00  0.00     0.242 C 
ATOM     35  O   UNL     1       8.903   6.029 -11.686  1.00  0.00    -0.273 OA
ATOM     36  N   UNL     1       9.537   6.403  -9.520  1.00  0.00    -0.354 N 
ATOM     37  H   UNL     1       9.820   5.969  -8.641  1.00  0.00     0.163 HD
BRANCH  36  38
ATOM     38  C   UNL     1       9.487   7.848  -9.600  1.00  0.00     0.116 C 
BRANCH  38  39
ATOM     39  C   UNL     1      10.896   8.406  -9.785  1.00  0.00     0.023 C 
BRANCH  39  40
ATOM     40  C   UNL     1      10.938   9.571 -10.768  1.00  0.00     0.026 C 
BRANCH  40  41
ATOM     41  C   UNL     1      10.169   9.231 -12.044  1.00  0.00     0.146 C 
BRANCH  41  42
ATOM     42  N   UNL     1      11.082   9.215 -13.180  1.00  0.00    -0.254 NA
ATOM     43  C   UNL     1      11.605   8.108 -13.556  1.00  0.00     0.185 C 
ATOM     44  N   UNL     1      11.453   6.867 -13.061  1.00  0.00    -0.370 N 
ATOM     45  N   UNL     1      12.448   8.116 -14.602  1.00  0.00    -0.370 N 
ATOM     46  H   UNL     1      12.105   6.138 -13.295  1.00  0.00     0.159 HD
ATOM     47  H   UNL     1      10.839   6.678 -12.275  1.00  0.00     0.159 HD
ATOM     48  H   UNL     1      12.611   9.012 -15.040  1.00  0.00     0.159 HD
ATOM     49  H   UNL     1      12.705   7.281 -15.099  1.00  0.00     0.159 HD
ENDBRANCH  41  42
ENDBRANCH  40  41
ENDBRANCH  39  40
ENDBRANCH  38  39
ENDBRANCH  36  38
ENDBRANCH   5  34
BRANCH   8  50
ATOM     50  O   UNL     1      12.727   4.135 -13.280  1.00  0.00    -0.245 OA
BRANCH  50  51
ATOM     51  S   UNL     1      13.603   4.669 -14.543  1.00  0.00     0.397 S 
ATOM     52  O   UNL     1      14.207   3.522 -15.184  1.00  0.00    -0.169 OA
ATOM     53  O   UNL     1      14.390   5.815 -14.138  1.00  0.00    -0.169 OA
BRANCH  51  54
ATOM     54  O   UNL     1      12.460   5.183 -15.550  1.00  0.00    -0.264 OA
ATOM     55  H   UNL     1      11.676   4.610 -15.430  1.00  0.00     0.236 HD
ENDBRANCH  51  54
ENDBRANCH  50  51
ENDBRANCH   8  50
TORSDOF 19
ENDMDL
MODEL 19
REMARK VINA RESULT:    -5.891      5.998      9.942
REMARK INTER + INTRA:         -15.431
REMARK INTER:                 -11.775
REMARK INTRA:                  -3.657
REMARK UNBOUND:                -3.513
REMARK SMILES CC[C@@H](C)[C@@H](NC(=O)[C@@H](O)Cc1ccc(O)c(Cl)c1)C(=O)N1[C@H](C(=O)NCCCCN=C(N)N)C[C@H]2CC[C@H](OS(=O)(=O)O)C[C@@H]21
REMARK SMILES IDX 22 1 36 2 46 3 35 4 23 5 45 6 37 7 39 8 38 9 20 10 21 11
REMARK SMILES IDX 5 12 6 13 7 14 8 15 9 17 11 18 12 19 17 20 19 21 15 22 14 23
REMARK SMILES IDX 13 24 18 25 16 26 10 28 3 30 4 31 2 32 1 33 24 34 25 35
REMARK SMILES IDX 26 36 27 38 28 39 29 40 30 41 31 42 32 43 33 44 34 45 40 50
REMARK SMILES IDX 41 51 42 52 43 53 44 54
REMARK H PARENT 6 16 16 27 10 29 26 37 33 46 33 47 34 48 34 49 44 55
ROOT
ATOM      1  N   UNL     1      -3.161   3.925  -6.243  1.00  0.00    -0.326 N 
ATOM      2  C   UNL     1      -5.195   5.104  -6.108  1.00  0.00     0.014 C 
ATOM      3  C   UNL     1      -4.600   3.693  -6.090  1.00  0.00     0.091 C 
ATOM      4  C   UNL     1      -4.287   5.837  -7.083  1.00  0.00     0.041 C 
ATOM      5  C   UNL     1      -2.911   5.344  -6.598  1.00  0.00     0.175 C 
ATOM      6  C   UNL     1      -5.089   2.979  -4.831  1.00  0.00     0.059 C 
ATOM      7  C   UNL     1      -6.687   5.061  -6.370  1.00  0.00     0.008 C 
ATOM      8  C   UNL     1      -6.498   3.415  -4.376  1.00  0.00     0.143 C 
ATOM      9  C   UNL     1      -7.351   3.934  -5.551  1.00  0.00     0.034 C 
ENDROOT
BRANCH   1  10
ATOM     10  C   UNL     1      -2.119   3.017  -6.316  1.00  0.00     0.246 C 
ATOM     11  O   UNL     1      -1.369   3.040  -7.298  1.00  0.00    -0.272 OA
BRANCH  10  12
ATOM     12  C   UNL     1      -1.887   2.020  -5.144  1.00  0.00     0.174 C 
BRANCH  12  13
ATOM     13  N   UNL     1      -0.635   2.338  -4.458  1.00  0.00    -0.342 N 
ATOM     14  C   UNL     1      -0.520   2.635  -3.119  1.00  0.00     0.249 C 
ATOM     15  O   UNL     1      -1.464   2.639  -2.338  1.00  0.00    -0.272 OA
ATOM     16  H   UNL     1       0.204   2.527  -5.002  1.00  0.00     0.164 HD
BRANCH  14  17
ATOM     17  C   UNL     1       0.933   2.944  -2.699  1.00  0.00     0.207 C 
BRANCH  17  18
ATOM     18  C   UNL     1       1.810   1.697  -2.849  1.00  0.00     0.077 C 
BRANCH  18  19
ATOM     19  C   UNL     1       2.938   1.918  -3.831  1.00  0.00    -0.043 A 
ATOM     20  C   UNL     1       3.750   2.003  -6.116  1.00  0.00     0.083 A 
ATOM     21  C   UNL     1       2.698   1.848  -5.213  1.00  0.00     0.028 A 
ATOM     22  C   UNL     1       5.045   2.228  -5.647  1.00  0.00     0.134 A 
ATOM     23  C   UNL     1       5.297   2.300  -4.282  1.00  0.00     0.048 A 
ATOM     24  C   UNL     1       4.246   2.143  -3.375  1.00  0.00     0.008 A 
ATOM     25  Cl  UNL     1       3.436   1.912  -7.809  1.00  0.00    -0.080 Cl
BRANCH  22  26
ATOM     26  O   UNL     1       6.110   2.376  -6.493  1.00  0.00    -0.506 OA
ATOM     27  H   UNL     1       6.438   3.286  -6.375  1.00  0.00     0.293 HD
ENDBRANCH  22  26
ENDBRANCH  18  19
ENDBRANCH  17  18
BRANCH  17  28
ATOM     28  O   UNL     1       0.991   3.408  -1.341  1.00  0.00    -0.383 OA
ATOM     29  H   UNL     1       1.205   2.619  -0.793  1.00  0.00     0.211 HD
ENDBRANCH  17  28
ENDBRANCH  14  17
ENDBRANCH  12  13
BRANCH  12  30
ATOM     30  C   UNL     1      -1.954   0.536  -5.596  1.00  0.00     0.018 C 
ATOM     31  C   UNL     1      -0.552   0.002  -5.926  1.00  0.00     0.010 C 
BRANCH  30  32
ATOM     32  C   UNL     1      -2.911   0.293  -6.789  1.00  0.00     0.002 C 
ATOM     33  C   UNL     1      -2.936  -1.133  -7.323  1.00  0.00     0.004 C 
ENDBRANCH  30  32
ENDBRANCH  12  30
ENDBRANCH  10  12
ENDBRANCH   1  10
BRANCH   5  34
ATOM     34  C   UNL     1      -2.421   6.142  -5.360  1.00  0.00     0.242 C 
ATOM     35  O   UNL     1      -2.505   5.697  -4.215  1.00  0.00    -0.273 OA
ATOM     36  N   UNL     1      -1.935   7.402  -5.630  1.00  0.00    -0.354 N 
ATOM     37  H   UNL     1      -2.002   7.760  -6.584  1.00  0.00     0.163 HD
BRANCH  36  38
ATOM     38  C   UNL     1      -1.243   8.194  -4.635  1.00  0.00     0.116 C 
BRANCH  38  39
ATOM     39  C   UNL     1      -1.608   9.667  -4.799  1.00  0.00     0.023 C 
BRANCH  39  40
ATOM     40  C   UNL     1      -2.031  10.313  -3.484  1.00  0.00     0.026 C 
BRANCH  40  41
ATOM     41  C   UNL     1      -3.554  10.317  -3.348  1.00  0.00     0.146 C 
BRANCH  41  42
ATOM     42  N   UNL     1      -4.085   9.012  -3.718  1.00  0.00    -0.254 NA
ATOM     43  C   UNL     1      -4.726   8.321  -2.852  1.00  0.00     0.185 C 
ATOM     44  N   UNL     1      -5.021   8.599  -1.569  1.00  0.00    -0.370 N 
ATOM     45  N   UNL     1      -5.204   7.118  -3.212  1.00  0.00    -0.370 N 
ATOM     46  H   UNL     1      -5.312   7.870  -0.940  1.00  0.00     0.159 HD
ATOM     47  H   UNL     1      -4.746   9.475  -1.137  1.00  0.00     0.159 HD
ATOM     48  H   UNL     1      -5.032   6.835  -4.167  1.00  0.00     0.159 HD
ATOM     49  H   UNL     1      -5.904   6.631  -2.682  1.00  0.00     0.159 HD
ENDBRANCH  41  42
ENDBRANCH  40  41
ENDBRANCH  39  40
ENDBRANCH  38  39
ENDBRANCH  36  38
ENDBRANCH   5  34
BRANCH   8  50
ATOM     50  O   UNL     1      -6.399   4.450  -3.397  1.00  0.00    -0.245 OA
BRANCH  50  51
ATOM     51  S   UNL     1      -6.690   4.106  -1.834  1.00  0.00     0.397 S 
ATOM     52  O   UNL     1      -6.441   2.697  -1.632  1.00  0.00    -0.169 OA
ATOM     53  O   UNL     1      -7.935   4.724  -1.424  1.00  0.00    -0.169 OA
BRANCH  51  54
ATOM     54  O   UNL     1      -5.488   4.874  -1.091  1.00  0.00    -0.264 OA
ATOM     55  H   UNL     1      -5.733   4.971  -0.149  1.00  0.00     0.236 HD
ENDBRANCH  51  54
ENDBRANCH  50  51
ENDBRANCH   8  50
TORSDOF 19
ENDMDL
MODEL 20
REMARK VINA RESULT:    -5.847      3.218      4.771
REMARK INTER + INTRA:         -15.341
REMARK INTER:                 -11.225
REMARK INTRA:                  -4.116
REMARK UNBOUND:                -3.513
REMARK SMILES CC[C@@H](C)[C@@H](NC(=O)[C@@H](O)Cc1ccc(O)c(Cl)c1)C(=O)N1[C@H](C(=O)NCCCCN=C(N)N)C[C@H]2CC[C@H](OS(=O)(=O)O)C[C@@H]21
REMARK SMILES IDX 22 1 36 2 46 3 35 4 23 5 45 6 37 7 39 8 38 9 20 10 21 11
REMARK SMILES IDX 5 12 6 13 7 14 8 15 9 17 11 18 12 19 17 20 19 21 15 22 14 23
REMARK SMILES IDX 13 24 18 25 16 26 10 28 3 30 4 31 2 32 1 33 24 34 25 35
REMARK SMILES IDX 26 36 27 38 28 39 29 40 30 41 31 42 32 43 33 44 34 45 40 50
REMARK SMILES IDX 41 51 42 52 43 53 44 54
REMARK H PARENT 6 16 16 27 10 29 26 37 33 46 33 47 34 48 34 49 44 55
ROOT
ATOM      1  N   UNL     1       3.603   2.614  -8.872  1.00  0.00    -0.326 N 
ATOM      2  C   UNL     1       3.133   2.274 -11.154  1.00  0.00     0.014 C 
ATOM      3  C   UNL     1       2.774   3.155  -9.953  1.00  0.00     0.091 C 
ATOM      4  C   UNL     1       3.373   0.916 -10.512  1.00  0.00     0.041 C 
ATOM      5  C   UNL     1       4.222   1.335  -9.298  1.00  0.00     0.175 C 
ATOM      6  C   UNL     1       2.967   4.617 -10.353  1.00  0.00     0.059 C 
ATOM      7  C   UNL     1       2.095   2.404 -12.251  1.00  0.00     0.008 C 
ATOM      8  C   UNL     1       2.687   4.895 -11.846  1.00  0.00     0.143 C 
ATOM      9  C   UNL     1       1.694   3.881 -12.448  1.00  0.00     0.034 C 
ENDROOT
BRANCH   1  10
ATOM     10  C   UNL     1       3.691   2.998  -7.545  1.00  0.00     0.246 C 
ATOM     11  O   UNL     1       3.963   4.173  -7.275  1.00  0.00    -0.272 OA
BRANCH  10  12
ATOM     12  C   UNL     1       3.405   1.956  -6.425  1.00  0.00     0.174 C 
BRANCH  12  13
ATOM     13  N   UNL     1       1.982   1.620  -6.409  1.00  0.00    -0.342 N 
ATOM     14  C   UNL     1       1.438   0.461  -6.917  1.00  0.00     0.249 C 
ATOM     15  O   UNL     1       2.099  -0.439  -7.419  1.00  0.00    -0.272 OA
ATOM     16  H   UNL     1       1.298   2.333  -6.168  1.00  0.00     0.164 HD
BRANCH  14  17
ATOM     17  C   UNL     1      -0.097   0.407  -6.766  1.00  0.00     0.207 C 
BRANCH  17  18
ATOM     18  C   UNL     1      -0.490   0.402  -5.285  1.00  0.00     0.077 C 
BRANCH  18  19
ATOM     19  C   UNL     1      -1.698   1.273  -5.021  1.00  0.00    -0.043 A 
ATOM     20  C   UNL     1      -3.122   2.479  -3.472  1.00  0.00     0.083 A 
ATOM     21  C   UNL     1      -1.980   1.718  -3.720  1.00  0.00     0.028 A 
ATOM     22  C   UNL     1      -3.989   2.799  -4.518  1.00  0.00     0.134 A 
ATOM     23  C   UNL     1      -3.722   2.365  -5.811  1.00  0.00     0.048 A 
ATOM     24  C   UNL     1      -2.580   1.601  -6.062  1.00  0.00     0.008 A 
ATOM     25  Cl  UNL     1      -3.452   3.016  -1.866  1.00  0.00    -0.080 Cl
BRANCH  22  26
ATOM     26  O   UNL     1      -5.127   3.534  -4.321  1.00  0.00    -0.506 OA
ATOM     27  H   UNL     1      -5.617   3.103  -3.597  1.00  0.00     0.293 HD
ENDBRANCH  22  26
ENDBRANCH  18  19
ENDBRANCH  17  18
BRANCH  17  28
ATOM     28  O   UNL     1      -0.639  -0.759  -7.407  1.00  0.00    -0.383 OA
ATOM     29  H   UNL     1      -1.250  -1.169  -6.753  1.00  0.00     0.211 HD
ENDBRANCH  17  28
ENDBRANCH  14  17
ENDBRANCH  12  13
BRANCH  12  30
ATOM     30  C   UNL     1       3.921   2.414  -5.034  1.00  0.00     0.018 C 
ATOM     31  C   UNL     1       5.389   2.007  -4.835  1.00  0.00     0.010 C 
BRANCH  30  32
ATOM     32  C   UNL     1       3.062   1.901  -3.853  1.00  0.00     0.002 C 
ATOM     33  C   UNL     1       3.712   0.824  -2.994  1.00  0.00     0.004 C 
ENDBRANCH  30  32
ENDBRANCH  12  30
ENDBRANCH  10  12
ENDBRANCH   1  10
BRANCH   5  34
ATOM     34  C   UNL     1       5.710   1.545  -9.685  1.00  0.00     0.242 C 
ATOM     35  O   UNL     1       6.349   2.535  -9.329  1.00  0.00    -0.273 OA
ATOM     36  N   UNL     1       6.246   0.572 -10.499  1.00  0.00    -0.354 N 
ATOM     37  H   UNL     1       5.633  -0.161 -10.858  1.00  0.00     0.163 HD
BRANCH  36  38
ATOM     38  C   UNL     1       7.665   0.494 -10.779  1.00  0.00     0.116 C 
BRANCH  38  39
ATOM     39  C   UNL     1       7.890   0.372 -12.284  1.00  0.00     0.023 C 
BRANCH  39  40
ATOM     40  C   UNL     1       8.913   1.377 -12.803  1.00  0.00     0.026 C 
BRANCH  40  41
ATOM     41  C   UNL     1       9.186   2.461 -11.760  1.00  0.00     0.146 C 
BRANCH  41  42
ATOM     42  N   UNL     1       9.155   3.773 -12.394  1.00  0.00    -0.254 NA
ATOM     43  C   UNL     1       8.060   4.435 -12.424  1.00  0.00     0.185 C 
ATOM     44  N   UNL     1       6.844   4.120 -11.941  1.00  0.00    -0.370 N 
ATOM     45  N   UNL     1       8.051   5.641 -13.017  1.00  0.00    -0.370 N 
ATOM     46  H   UNL     1       6.026   4.619 -12.247  1.00  0.00     0.159 HD
ATOM     47  H   UNL     1       6.676   3.248 -11.450  1.00  0.00     0.159 HD
ATOM     48  H   UNL     1       8.931   5.958 -13.400  1.00  0.00     0.159 HD
ATOM     49  H   UNL     1       7.316   6.310 -12.876  1.00  0.00     0.159 HD
ENDBRANCH  41  42
ENDBRANCH  40  41
ENDBRANCH  39  40
ENDBRANCH  38  39
ENDBRANCH  36  38
ENDBRANCH   5  34
BRANCH   8  50
ATOM     50  O   UNL     1       3.903   4.836 -12.592  1.00  0.00    -0.245 OA
BRANCH  50  51
ATOM     51  S   UNL     1       4.452   6.171 -13.341  1.00  0.00     0.397 S 
ATOM     52  O   UNL     1       3.323   7.039 -13.589  1.00  0.00    -0.169 OA
ATOM     53  O   UNL     1       5.367   5.795 -14.398  1.00  0.00    -0.169 OA
BRANCH  51  54
ATOM     54  O   UNL     1       5.304   6.883 -12.178  1.00  0.00    -0.264 OA
ATOM     55  H   UNL     1       4.743   6.918 -11.376  1.00  0.00     0.236 HD
ENDBRANCH  51  54
ENDBRANCH  50  51
ENDBRANCH   8  50
TORSDOF 19
ENDMDL
MODEL 21
REMARK VINA RESULT:    -5.827      3.639      8.052
REMARK INTER + INTRA:         -15.301
REMARK INTER:                 -11.644
REMARK INTRA:                  -3.657
REMARK UNBOUND:                -3.513
REMARK SMILES CC[C@@H](C)[C@@H](NC(=O)[C@@H](O)Cc1ccc(O)c(Cl)c1)C(=O)N1[C@H](C(=O)NCCCCN=C(N)N)C[C@H]2CC[C@H](OS(=O)(=O)O)C[C@@H]21
REMARK SMILES IDX 22 1 36 2 46 3 35 4 23 5 45 6 37 7 39 8 38 9 20 10 21 11
REMARK SMILES IDX 5 12 6 13 7 14 8 15 9 17 11 18 12 19 17 20 19 21 15 22 14 23
REMARK SMILES IDX 13 24 18 25 16 26 10 28 3 30 4 31 2 32 1 33 24 34 25 35
REMARK SMILES IDX 26 36 27 38 28 39 29 40 30 41 31 42 32 43 33 44 34 45 40 50
REMARK SMILES IDX 41 51 42 52 43 53 44 54
REMARK H PARENT 6 16 16 27 10 29 26 37 33 46 33 47 34 48 34 49 44 55
ROOT
ATOM      1  N   UNL     1       8.648   2.724 -10.147  1.00  0.00    -0.326 N 
ATOM      2  C   UNL     1      10.200   3.995 -11.379  1.00  0.00     0.014 C 
ATOM      3  C   UNL     1       9.157   2.881 -11.512  1.00  0.00     0.091 C 
ATOM      4  C   UNL     1      10.785   3.743  -9.999  1.00  0.00     0.041 C 
ATOM      5  C   UNL     1       9.495   3.488  -9.198  1.00  0.00     0.175 C 
ATOM      6  C   UNL     1       8.172   3.270 -12.613  1.00  0.00     0.059 C 
ATOM      7  C   UNL     1      11.120   4.023 -12.584  1.00  0.00     0.008 C 
ATOM      8  C   UNL     1       8.803   4.112 -13.743  1.00  0.00     0.143 C 
ATOM      9  C   UNL     1      10.315   3.846 -13.888  1.00  0.00     0.034 C 
ENDROOT
BRANCH   1  10
ATOM     10  C   UNL     1       7.698   1.848  -9.649  1.00  0.00     0.246 C 
ATOM     11  O   UNL     1       7.701   1.580  -8.443  1.00  0.00    -0.272 OA
BRANCH  10  12
ATOM     12  C   UNL     1       6.624   1.257 -10.607  1.00  0.00     0.174 C 
BRANCH  12  13
ATOM     13  N   UNL     1       5.289   1.451 -10.040  1.00  0.00    -0.342 N 
ATOM     14  C   UNL     1       4.576   2.628 -10.083  1.00  0.00     0.249 C 
ATOM     15  O   UNL     1       4.975   3.647 -10.632  1.00  0.00    -0.272 OA
ATOM     16  H   UNL     1       4.898   0.745  -9.421  1.00  0.00     0.164 HD
BRANCH  14  17
ATOM     17  C   UNL     1       3.206   2.519  -9.381  1.00  0.00     0.207 C 
BRANCH  17  18
ATOM     18  C   UNL     1       3.109   1.208  -8.594  1.00  0.00     0.077 C 
BRANCH  18  19
ATOM     19  C   UNL     1       3.019   1.452  -7.105  1.00  0.00    -0.043 A 
ATOM     20  C   UNL     1       4.002   2.275  -5.045  1.00  0.00     0.083 A 
ATOM     21  C   UNL     1       4.066   2.096  -6.428  1.00  0.00     0.028 A 
ATOM     22  C   UNL     1       2.895   1.813  -4.332  1.00  0.00     0.134 A 
ATOM     23  C   UNL     1       1.850   1.175  -4.990  1.00  0.00     0.048 A 
ATOM     24  C   UNL     1       1.913   0.992  -6.374  1.00  0.00     0.008 A 
ATOM     25  Cl  UNL     1       5.299   3.068  -4.231  1.00  0.00    -0.080 Cl
BRANCH  22  26
ATOM     26  O   UNL     1       2.792   1.957  -2.975  1.00  0.00    -0.506 OA
ATOM     27  H   UNL     1       3.695   2.107  -2.640  1.00  0.00     0.293 HD
ENDBRANCH  22  26
ENDBRANCH  18  19
ENDBRANCH  17  18
BRANCH  17  28
ATOM     28  O   UNL     1       2.131   2.585 -10.332  1.00  0.00    -0.383 OA
ATOM     29  H   UNL     1       1.754   3.491 -10.255  1.00  0.00     0.211 HD
ENDBRANCH  17  28
ENDBRANCH  14  17
ENDBRANCH  12  13
BRANCH  12  30
ATOM     30  C   UNL     1       6.900  -0.226 -10.976  1.00  0.00     0.018 C 
ATOM     31  C   UNL     1       7.613  -0.326 -12.334  1.00  0.00     0.010 C 
BRANCH  30  32
ATOM     32  C   UNL     1       5.633  -1.114 -10.974  1.00  0.00     0.002 C 
ATOM     33  C   UNL     1       5.610  -2.219 -12.021  1.00  0.00     0.004 C 
ENDBRANCH  30  32
ENDBRANCH  12  30
ENDBRANCH  10  12
ENDBRANCH   1  10
BRANCH   5  34
ATOM     34  C   UNL     1       8.803   4.816  -8.790  1.00  0.00     0.242 C 
ATOM     35  O   UNL     1       9.424   5.754  -8.290  1.00  0.00    -0.273 OA
ATOM     36  N   UNL     1       7.440   4.848  -8.976  1.00  0.00    -0.354 N 
ATOM     37  H   UNL     1       6.966   3.997  -9.281  1.00  0.00     0.163 HD
BRANCH  36  38
ATOM     38  C   UNL     1       6.671   6.069  -8.854  1.00  0.00     0.116 C 
BRANCH  38  39
ATOM     39  C   UNL     1       5.527   5.864  -7.864  1.00  0.00     0.023 C 
BRANCH  39  40
ATOM     40  C   UNL     1       6.020   5.693  -6.431  1.00  0.00     0.026 C 
BRANCH  40  41
ATOM     41  C   UNL     1       6.094   7.043  -5.718  1.00  0.00     0.146 C 
BRANCH  41  42
ATOM     42  N   UNL     1       7.236   7.060  -4.814  1.00  0.00    -0.254 NA
ATOM     43  C   UNL     1       8.363   7.505  -5.226  1.00  0.00     0.185 C 
ATOM     44  N   UNL     1       8.712   7.997  -6.429  1.00  0.00    -0.370 N 
ATOM     45  N   UNL     1       9.405   7.508  -4.378  1.00  0.00    -0.370 N 
ATOM     46  H   UNL     1       9.680   8.081  -6.688  1.00  0.00     0.159 HD
ATOM     47  H   UNL     1       8.040   8.080  -7.186  1.00  0.00     0.159 HD
ATOM     48  H   UNL     1       9.225   7.161  -3.446  1.00  0.00     0.159 HD
ATOM     49  H   UNL     1      10.237   8.047  -4.540  1.00  0.00     0.159 HD
ENDBRANCH  41  42
ENDBRANCH  40  41
ENDBRANCH  39  40
ENDBRANCH  38  39
ENDBRANCH  36  38
ENDBRANCH   5  34
BRANCH   8  50
ATOM     50  O   UNL     1       8.610   5.503 -13.484  1.00  0.00    -0.245 OA
BRANCH  50  51
ATOM     51  S   UNL     1       7.115   6.137 -13.575  1.00  0.00     0.397 S 
ATOM     52  O   UNL     1       6.375   5.393 -14.569  1.00  0.00    -0.169 OA
ATOM     53  O   UNL     1       7.202   7.582 -13.617  1.00  0.00    -0.169 OA
BRANCH  51  54
ATOM     54  O   UNL     1       6.486   5.719 -12.156  1.00  0.00    -0.264 OA
ATOM     55  H   UNL     1       5.518   5.631 -12.273  1.00  0.00     0.236 HD
ENDBRANCH  51  54
ENDBRANCH  50  51
ENDBRANCH   8  50
TORSDOF 19
ENDMDL
MODEL 22
REMARK VINA RESULT:    -5.817      5.138      8.940
REMARK INTER + INTRA:         -15.281
REMARK INTER:                 -12.308
REMARK INTRA:                  -2.973
REMARK UNBOUND:                -3.513
REMARK SMILES CC[C@@H](C)[C@@H](NC(=O)[C@@H](O)Cc1ccc(O)c(Cl)c1)C(=O)N1[C@H](C(=O)NCCCCN=C(N)N)C[C@H]2CC[C@H](OS(=O)(=O)O)C[C@@H]21
REMARK SMILES IDX 22 1 36 2 46 3 35 4 23 5 45 6 37 7 39 8 38 9 20 10 21 11
REMARK SMILES IDX 5 12 6 13 7 14 8 15 9 17 11 18 12 19 17 20 19 21 15 22 14 23
REMARK SMILES IDX 13 24 18 25 16 26 10 28 3 30 4 31 2 32 1 33 24 34 25 35
REMARK SMILES IDX 26 36 27 38 28 39 29 40 30 41 31 42 32 43 33 44 34 45 40 50
REMARK SMILES IDX 41 51 42 52 43 53 44 54
REMARK H PARENT 6 16 16 27 10 29 26 37 33 46 33 47 34 48 34 49 44 55
ROOT
ATOM      1  N   UNL     1       0.140   1.887  -2.526  1.00  0.00    -0.326 N 
ATOM      2  C   UNL     1      -1.802   3.006  -1.807  1.00  0.00     0.014 C 
ATOM      3  C   UNL     1      -0.273   3.051  -1.736  1.00  0.00     0.091 C 
ATOM      4  C   UNL     1      -2.093   1.513  -1.820  1.00  0.00     0.041 C 
ATOM      5  C   UNL     1      -1.037   1.038  -2.834  1.00  0.00     0.175 C 
ATOM      6  C   UNL     1       0.191   4.434  -2.187  1.00  0.00     0.059 C 
ATOM      7  C   UNL     1      -2.420   3.875  -0.730  1.00  0.00     0.008 C 
ATOM      8  C   UNL     1      -0.803   5.565  -1.846  1.00  0.00     0.143 C 
ATOM      9  C   UNL     1      -1.673   5.221  -0.621  1.00  0.00     0.034 C 
ENDROOT
BRANCH   1  10
ATOM     10  C   UNL     1       1.409   1.406  -2.800  1.00  0.00     0.246 C 
ATOM     11  O   UNL     1       1.780   0.352  -2.272  1.00  0.00    -0.272 OA
BRANCH  10  12
ATOM     12  C   UNL     1       2.323   2.176  -3.797  1.00  0.00     0.174 C 
BRANCH  12  13
ATOM     13  N   UNL     1       2.392   1.457  -5.068  1.00  0.00    -0.342 N 
ATOM     14  C   UNL     1       2.376   2.047  -6.312  1.00  0.00     0.249 C 
ATOM     15  O   UNL     1       2.328   3.257  -6.492  1.00  0.00    -0.272 OA
ATOM     16  H   UNL     1       2.277   0.446  -5.082  1.00  0.00     0.164 HD
BRANCH  14  17
ATOM     17  C   UNL     1       2.445   1.017  -7.460  1.00  0.00     0.207 C 
BRANCH  17  18
ATOM     18  C   UNL     1       2.772   1.714  -8.785  1.00  0.00     0.077 C 
BRANCH  18  19
ATOM     19  C   UNL     1       4.048   1.184  -9.398  1.00  0.00    -0.043 A 
ATOM     20  C   UNL     1       5.208  -0.472 -10.739  1.00  0.00     0.083 A 
ATOM     21  C   UNL     1       4.022   0.043 -10.215  1.00  0.00     0.028 A 
ATOM     22  C   UNL     1       6.425   0.147 -10.451  1.00  0.00     0.134 A 
ATOM     23  C   UNL     1       6.466   1.278  -9.643  1.00  0.00     0.048 A 
ATOM     24  C   UNL     1       5.280   1.794  -9.116  1.00  0.00     0.008 A 
ATOM     25  Cl  UNL     1       5.155  -1.875 -11.740  1.00  0.00    -0.080 Cl
BRANCH  22  26
ATOM     26  O   UNL     1       7.615  -0.327 -10.933  1.00  0.00    -0.506 OA
ATOM     27  H   UNL     1       7.481  -1.273 -11.130  1.00  0.00     0.293 HD
ENDBRANCH  22  26
ENDBRANCH  18  19
ENDBRANCH  17  18
BRANCH  17  28
ATOM     28  O   UNL     1       1.205   0.303  -7.590  1.00  0.00    -0.383 OA
ATOM     29  H   UNL     1       0.955   0.025  -6.680  1.00  0.00     0.211 HD
ENDBRANCH  17  28
ENDBRANCH  14  17
ENDBRANCH  12  13
BRANCH  12  30
ATOM     30  C   UNL     1       3.728   2.481  -3.211  1.00  0.00     0.018 C 
ATOM     31  C   UNL     1       4.113   3.949  -3.450  1.00  0.00     0.010 C 
BRANCH  30  32
ATOM     32  C   UNL     1       4.840   1.545  -3.745  1.00  0.00     0.002 C 
ATOM     33  C   UNL     1       5.675   2.111  -4.886  1.00  0.00     0.004 C 
ENDBRANCH  30  32
ENDBRANCH  12  30
ENDBRANCH  10  12
ENDBRANCH   1  10
BRANCH   5  34
ATOM     34  C   UNL     1      -1.507   1.261  -4.297  1.00  0.00     0.242 C 
ATOM     35  O   UNL     1      -0.754   1.117  -5.259  1.00  0.00    -0.273 OA
ATOM     36  N   UNL     1      -2.811   1.683  -4.435  1.00  0.00    -0.354 N 
ATOM     37  H   UNL     1      -3.349   1.900  -3.595  1.00  0.00     0.163 HD
BRANCH  36  38
ATOM     38  C   UNL     1      -3.475   1.731  -5.721  1.00  0.00     0.116 C 
BRANCH  38  39
ATOM     39  C   UNL     1      -4.410   2.937  -5.776  1.00  0.00     0.023 C 
BRANCH  39  40
ATOM     40  C   UNL     1      -5.558   2.832  -4.777  1.00  0.00     0.026 C 
BRANCH  40  41
ATOM     41  C   UNL     1      -6.752   3.670  -5.234  1.00  0.00     0.146 C 
BRANCH  41  42
ATOM     42  N   UNL     1      -7.563   4.040  -4.081  1.00  0.00    -0.254 NA
ATOM     43  C   UNL     1      -7.291   5.110  -3.433  1.00  0.00     0.185 C 
ATOM     44  N   UNL     1      -6.324   6.023  -3.637  1.00  0.00    -0.370 N 
ATOM     45  N   UNL     1      -8.048   5.431  -2.371  1.00  0.00    -0.370 N 
ATOM     46  H   UNL     1      -6.075   6.676  -2.914  1.00  0.00     0.159 HD
ATOM     47  H   UNL     1      -5.668   5.942  -4.408  1.00  0.00     0.159 HD
ATOM     48  H   UNL     1      -8.806   4.799  -2.153  1.00  0.00     0.159 HD
ATOM     49  H   UNL     1      -8.053   6.350  -1.965  1.00  0.00     0.159 HD
ENDBRANCH  41  42
ENDBRANCH  40  41
ENDBRANCH  39  40
ENDBRANCH  38  39
ENDBRANCH  36  38
ENDBRANCH   5  34
BRANCH   8  50
ATOM     50  O   UNL     1      -1.663   5.814  -2.959  1.00  0.00    -0.245 OA
BRANCH  50  51
ATOM     51  S   UNL     1      -2.331   7.285  -3.144  1.00  0.00     0.397 S 
ATOM     52  O   UNL     1      -1.405   8.265  -2.622  1.00  0.00    -0.169 OA
ATOM     53  O   UNL     1      -3.715   7.247  -2.721  1.00  0.00    -0.169 OA
BRANCH  51  54
ATOM     54  O   UNL     1      -2.306   7.466  -4.742  1.00  0.00    -0.264 OA
ATOM     55  H   UNL     1      -2.630   6.634  -5.141  1.00  0.00     0.236 HD
ENDBRANCH  51  54
ENDBRANCH  50  51
ENDBRANCH   8  50
TORSDOF 19
ENDMDL
MODEL 23
REMARK VINA RESULT:    -5.772      4.637      8.209
REMARK INTER + INTRA:         -15.190
REMARK INTER:                 -11.494
REMARK INTRA:                  -3.696
REMARK UNBOUND:                -3.513
REMARK SMILES CC[C@@H](C)[C@@H](NC(=O)[C@@H](O)Cc1ccc(O)c(Cl)c1)C(=O)N1[C@H](C(=O)NCCCCN=C(N)N)C[C@H]2CC[C@H](OS(=O)(=O)O)C[C@@H]21
REMARK SMILES IDX 22 1 36 2 46 3 35 4 23 5 45 6 37 7 39 8 38 9 20 10 21 11
REMARK SMILES IDX 5 12 6 13 7 14 8 15 9 17 11 18 12 19 17 20 19 21 15 22 14 23
REMARK SMILES IDX 13 24 18 25 16 26 10 28 3 30 4 31 2 32 1 33 24 34 25 35
REMARK SMILES IDX 26 36 27 38 28 39 29 40 30 41 31 42 32 43 33 44 34 45 40 50
REMARK SMILES IDX 41 51 42 52 43 53 44 54
REMARK H PARENT 6 16 16 27 10 29 26 37 33 46 33 47 34 48 34 49 44 55
ROOT
ATOM      1  N   UNL     1       8.496   2.450 -10.225  1.00  0.00    -0.326 N 
ATOM      2  C   UNL     1      10.270   3.055 -11.649  1.00  0.00     0.014 C 
ATOM      3  C   UNL     1       9.192   1.990 -11.430  1.00  0.00     0.091 C 
ATOM      4  C   UNL     1      10.649   3.445 -10.228  1.00  0.00     0.041 C 
ATOM      5  C   UNL     1       9.250   3.562  -9.595  1.00  0.00     0.175 C 
ATOM      6  C   UNL     1       8.388   1.844 -12.720  1.00  0.00     0.059 C 
ATOM      7  C   UNL     1      11.344   2.554 -12.594  1.00  0.00     0.008 C 
ATOM      8  C   UNL     1       9.213   2.103 -13.999  1.00  0.00     0.143 C 
ATOM      9  C   UNL     1      10.712   1.811 -13.790  1.00  0.00     0.034 C 
ENDROOT
BRANCH   1  10
ATOM     10  C   UNL     1       7.438   1.878  -9.538  1.00  0.00     0.246 C 
ATOM     11  O   UNL     1       7.636   1.406  -8.413  1.00  0.00    -0.272 OA
BRANCH  10  12
ATOM     12  C   UNL     1       6.019   1.881 -10.176  1.00  0.00     0.174 C 
BRANCH  12  13
ATOM     13  N   UNL     1       5.026   2.292  -9.183  1.00  0.00    -0.342 N 
ATOM     14  C   UNL     1       4.407   3.521  -9.147  1.00  0.00     0.249 C 
ATOM     15  O   UNL     1       4.601   4.407  -9.970  1.00  0.00    -0.272 OA
ATOM     16  H   UNL     1       4.881   1.724  -8.352  1.00  0.00     0.164 HD
BRANCH  14  17
ATOM     17  C   UNL     1       3.422   3.657  -7.967  1.00  0.00     0.207 C 
BRANCH  17  18
ATOM     18  C   UNL     1       3.016   2.274  -7.446  1.00  0.00     0.077 C 
BRANCH  18  19
ATOM     19  C   UNL     1       3.541   2.023  -6.050  1.00  0.00    -0.043 A 
ATOM     20  C   UNL     1       3.184   1.262  -3.775  1.00  0.00     0.083 A 
ATOM     21  C   UNL     1       2.712   1.446  -5.075  1.00  0.00     0.028 A 
ATOM     22  C   UNL     1       4.482   1.651  -3.441  1.00  0.00     0.134 A 
ATOM     23  C   UNL     1       5.313   2.223  -4.397  1.00  0.00     0.048 A 
ATOM     24  C   UNL     1       4.843   2.411  -5.699  1.00  0.00     0.008 A 
ATOM     25  Cl  UNL     1       2.151   0.552  -2.590  1.00  0.00    -0.080 Cl
BRANCH  22  26
ATOM     26  O   UNL     1       4.985   1.500  -2.177  1.00  0.00    -0.506 OA
ATOM     27  H   UNL     1       5.217   0.558  -2.079  1.00  0.00     0.293 HD
ENDBRANCH  22  26
ENDBRANCH  18  19
ENDBRANCH  17  18
BRANCH  17  28
ATOM     28  O   UNL     1       2.245   4.383  -8.356  1.00  0.00    -0.383 OA
ATOM     29  H   UNL     1       2.165   4.269  -9.330  1.00  0.00     0.211 HD
ENDBRANCH  17  28
ENDBRANCH  14  17
ENDBRANCH  12  13
BRANCH  12  30
ATOM     30  C   UNL     1       5.660   0.527 -10.846  1.00  0.00     0.018 C 
ATOM     31  C   UNL     1       4.259   0.061 -10.421  1.00  0.00     0.010 C 
BRANCH  30  32
ATOM     32  C   UNL     1       6.697  -0.592 -10.581  1.00  0.00     0.002 C 
ATOM     33  C   UNL     1       6.763  -1.683 -11.642  1.00  0.00     0.004 C 
ENDBRANCH  30  32
ENDBRANCH  12  30
ENDBRANCH  10  12
ENDBRANCH   1  10
BRANCH   5  34
ATOM     34  C   UNL     1       8.589   4.928  -9.917  1.00  0.00     0.242 C 
ATOM     35  O   UNL     1       7.659   5.036 -10.717  1.00  0.00    -0.273 OA
ATOM     36  N   UNL     1       9.151   6.015  -9.286  1.00  0.00    -0.354 N 
ATOM     37  H   UNL     1       9.995   5.877  -8.729  1.00  0.00     0.163 HD
BRANCH  36  38
ATOM     38  C   UNL     1       8.532   7.324  -9.302  1.00  0.00     0.116 C 
BRANCH  38  39
ATOM     39  C   UNL     1       9.606   8.406  -9.215  1.00  0.00     0.023 C 
BRANCH  39  40
ATOM     40  C   UNL     1       9.726   9.213 -10.503  1.00  0.00     0.026 C 
BRANCH  40  41
ATOM     41  C   UNL     1      10.098   8.307 -11.677  1.00  0.00     0.146 C 
BRANCH  41  42
ATOM     42  N   UNL     1       9.011   8.288 -12.648  1.00  0.00    -0.254 NA
ATOM     43  C   UNL     1       8.772   7.218 -13.310  1.00  0.00     0.185 C 
ATOM     44  N   UNL     1       9.385   6.021 -13.270  1.00  0.00    -0.370 N 
ATOM     45  N   UNL     1       7.769   7.223 -14.203  1.00  0.00    -0.370 N 
ATOM     46  H   UNL     1       9.255   5.354 -14.011  1.00  0.00     0.159 HD
ATOM     47  H   UNL     1      10.158   5.839 -12.638  1.00  0.00     0.159 HD
ATOM     48  H   UNL     1       7.249   8.086 -14.289  1.00  0.00     0.159 HD
ATOM     49  H   UNL     1       7.372   6.380 -14.579  1.00  0.00     0.159 HD
ENDBRANCH  41  42
ENDBRANCH  40  41
ENDBRANCH  39  40
ENDBRANCH  38  39
ENDBRANCH  36  38
ENDBRANCH   5  34
BRANCH   8  50
ATOM     50  O   UNL     1       9.068   3.464 -14.409  1.00  0.00    -0.245 OA
BRANCH  50  51
ATOM     51  S   UNL     1       9.499   3.899 -15.915  1.00  0.00     0.397 S 
ATOM     52  O   UNL     1       9.202   2.796 -16.801  1.00  0.00    -0.169 OA
ATOM     53  O   UNL     1      10.808   4.519 -15.887  1.00  0.00    -0.169 OA
BRANCH  51  54
ATOM     54  O   UNL     1       8.418   5.039 -16.258  1.00  0.00    -0.264 OA
ATOM     55  H   UNL     1       8.844   5.683 -16.859  1.00  0.00     0.236 HD
ENDBRANCH  51  54
ENDBRANCH  50  51
ENDBRANCH   8  50
TORSDOF 19
ENDMDL
MODEL 24
REMARK VINA RESULT:    -5.760      9.602     12.958
REMARK INTER + INTRA:         -15.166
REMARK INTER:                 -11.346
REMARK INTRA:                  -3.820
REMARK UNBOUND:                -3.513
REMARK SMILES CC[C@@H](C)[C@@H](NC(=O)[C@@H](O)Cc1ccc(O)c(Cl)c1)C(=O)N1[C@H](C(=O)NCCCCN=C(N)N)C[C@H]2CC[C@H](OS(=O)(=O)O)C[C@@H]21
REMARK SMILES IDX 22 1 36 2 46 3 35 4 23 5 45 6 37 7 39 8 38 9 20 10 21 11
REMARK SMILES IDX 5 12 6 13 7 14 8 15 9 17 11 18 12 19 17 20 19 21 15 22 14 23
REMARK SMILES IDX 13 24 18 25 16 26 10 28 3 30 4 31 2 32 1 33 24 34 25 35
REMARK SMILES IDX 26 36 27 38 28 39 29 40 30 41 31 42 32 43 33 44 34 45 40 50
REMARK SMILES IDX 41 51 42 52 43 53 44 54
REMARK H PARENT 6 16 16 27 10 29 26 37 33 46 33 47 34 48 34 49 44 55
ROOT
ATOM      1  N   UNL     1      -6.573   6.431  -3.368  1.00  0.00    -0.326 N 
ATOM      2  C   UNL     1      -6.316   4.132  -2.928  1.00  0.00     0.014 C 
ATOM      3  C   UNL     1      -6.659   5.130  -4.038  1.00  0.00     0.091 C 
ATOM      4  C   UNL     1      -6.916   4.786  -1.693  1.00  0.00     0.041 C 
ATOM      5  C   UNL     1      -6.452   6.239  -1.901  1.00  0.00     0.175 C 
ATOM      6  C   UNL     1      -5.737   4.866  -5.227  1.00  0.00     0.059 C 
ATOM      7  C   UNL     1      -6.744   2.729  -3.310  1.00  0.00     0.008 C 
ATOM      8  C   UNL     1      -5.332   3.384  -5.382  1.00  0.00     0.143 C 
ATOM      9  C   UNL     1      -6.383   2.430  -4.780  1.00  0.00     0.034 C 
ENDROOT
BRANCH   1  10
ATOM     10  C   UNL     1      -6.799   7.703  -3.866  1.00  0.00     0.246 C 
ATOM     11  O   UNL     1      -5.927   8.242  -4.556  1.00  0.00    -0.272 OA
BRANCH  10  12
ATOM     12  C   UNL     1      -8.157   8.407  -3.583  1.00  0.00     0.174 C 
BRANCH  12  13
ATOM     13  N   UNL     1      -9.246   7.662  -4.214  1.00  0.00    -0.342 N 
ATOM     14  C   UNL     1     -10.131   6.842  -3.550  1.00  0.00     0.249 C 
ATOM     15  O   UNL     1     -10.120   6.665  -2.339  1.00  0.00    -0.272 OA
ATOM     16  H   UNL     1      -9.284   7.586  -5.227  1.00  0.00     0.164 HD
BRANCH  14  17
ATOM     17  C   UNL     1     -11.156   6.182  -4.497  1.00  0.00     0.207 C 
BRANCH  17  18
ATOM     18  C   UNL     1     -11.837   7.240  -5.371  1.00  0.00     0.077 C 
BRANCH  18  19
ATOM     19  C   UNL     1     -11.852   6.840  -6.829  1.00  0.00    -0.043 A 
ATOM     20  C   UNL     1     -10.932   5.548  -8.664  1.00  0.00     0.083 A 
ATOM     21  C   UNL     1     -10.949   5.878  -7.309  1.00  0.00     0.028 A 
ATOM     22  C   UNL     1     -11.813   6.175  -9.547  1.00  0.00     0.134 A 
ATOM     23  C   UNL     1     -12.711   7.129  -9.086  1.00  0.00     0.048 A 
ATOM     24  C   UNL     1     -12.729   7.464  -7.730  1.00  0.00     0.008 A 
ATOM     25  Cl  UNL     1      -9.816   4.363  -9.235  1.00  0.00    -0.080 Cl
BRANCH  22  26
ATOM     26  O   UNL     1     -11.826   5.891 -10.886  1.00  0.00    -0.506 OA
ATOM     27  H   UNL     1     -11.853   4.920 -10.967  1.00  0.00     0.293 HD
ENDBRANCH  22  26
ENDBRANCH  18  19
ENDBRANCH  17  18
BRANCH  17  28
ATOM     28  O   UNL     1     -12.154   5.461  -3.757  1.00  0.00    -0.383 OA
ATOM     29  H   UNL     1     -11.771   5.305  -2.864  1.00  0.00     0.211 HD
ENDBRANCH  17  28
ENDBRANCH  14  17
ENDBRANCH  12  13
BRANCH  12  30
ATOM     30  C   UNL     1      -8.152   9.906  -3.988  1.00  0.00     0.018 C 
ATOM     31  C   UNL     1      -9.058  10.727  -3.057  1.00  0.00     0.010 C 
BRANCH  30  32
ATOM     32  C   UNL     1      -8.545  10.151  -5.465  1.00  0.00     0.002 C 
ATOM     33  C   UNL     1      -9.503  11.312  -5.699  1.00  0.00     0.004 C 
ENDBRANCH  30  32
ENDBRANCH  12  30
ENDBRANCH  10  12
ENDBRANCH   1  10
BRANCH   5  34
ATOM     34  C   UNL     1      -4.984   6.443  -1.439  1.00  0.00     0.242 C 
ATOM     35  O   UNL     1      -4.052   6.547  -2.236  1.00  0.00    -0.273 OA
ATOM     36  N   UNL     1      -4.795   6.446  -0.075  1.00  0.00    -0.354 N 
ATOM     37  H   UNL     1      -5.588   6.235   0.531  1.00  0.00     0.163 HD
BRANCH  36  38
ATOM     38  C   UNL     1      -3.538   6.835   0.530  1.00  0.00     0.116 C 
BRANCH  38  39
ATOM     39  C   UNL     1      -3.409   6.199   1.912  1.00  0.00     0.023 C 
BRANCH  39  40
ATOM     40  C   UNL     1      -2.483   4.988   1.912  1.00  0.00     0.026 C 
BRANCH  40  41
ATOM     41  C   UNL     1      -1.968   4.699   0.502  1.00  0.00     0.146 C 
BRANCH  41  42
ATOM     42  N   UNL     1      -2.363   3.355   0.100  1.00  0.00    -0.254 NA
ATOM     43  C   UNL     1      -2.574   3.101  -1.137  1.00  0.00     0.185 C 
ATOM     44  N   UNL     1      -2.490   3.906  -2.213  1.00  0.00    -0.370 N 
ATOM     45  N   UNL     1      -2.941   1.857  -1.487  1.00  0.00    -0.370 N 
ATOM     46  H   UNL     1      -2.916   3.642  -3.085  1.00  0.00     0.159 HD
ATOM     47  H   UNL     1      -2.211   4.878  -2.130  1.00  0.00     0.159 HD
ATOM     48  H   UNL     1      -3.020   1.185  -0.736  1.00  0.00     0.159 HD
ATOM     49  H   UNL     1      -2.893   1.522  -2.433  1.00  0.00     0.159 HD
ENDBRANCH  41  42
ENDBRANCH  40  41
ENDBRANCH  39  40
ENDBRANCH  38  39
ENDBRANCH  36  38
ENDBRANCH   5  34
BRANCH   8  50
ATOM     50  O   UNL     1      -4.081   3.147  -4.736  1.00  0.00    -0.245 OA
BRANCH  50  51
ATOM     51  S   UNL     1      -2.974   2.196  -5.452  1.00  0.00     0.397 S 
ATOM     52  O   UNL     1      -2.327   1.411  -4.425  1.00  0.00    -0.169 OA
ATOM     53  O   UNL     1      -2.212   2.972  -6.408  1.00  0.00    -0.169 OA
BRANCH  51  54
ATOM     54  O   UNL     1      -3.897   1.166  -6.273  1.00  0.00    -0.264 OA
ATOM     55  H   UNL     1      -3.748   0.272  -5.904  1.00  0.00     0.236 HD
ENDBRANCH  51  54
ENDBRANCH  50  51
ENDBRANCH   8  50
TORSDOF 19
ENDMDL
MODEL 25
REMARK VINA RESULT:    -5.757      7.149     10.776
REMARK INTER + INTRA:         -15.161
REMARK INTER:                 -11.404
REMARK INTRA:                  -3.757
REMARK UNBOUND:                -3.513
REMARK SMILES CC[C@@H](C)[C@@H](NC(=O)[C@@H](O)Cc1ccc(O)c(Cl)c1)C(=O)N1[C@H](C(=O)NCCCCN=C(N)N)C[C@H]2CC[C@H](OS(=O)(=O)O)C[C@@H]21
REMARK SMILES IDX 22 1 36 2 46 3 35 4 23 5 45 6 37 7 39 8 38 9 20 10 21 11
REMARK SMILES IDX 5 12 6 13 7 14 8 15 9 17 11 18 12 19 17 20 19 21 15 22 14 23
REMARK SMILES IDX 13 24 18 25 16 26 10 28 3 30 4 31 2 32 1 33 24 34 25 35
REMARK SMILES IDX 26 36 27 38 28 39 29 40 30 41 31 42 32 43 33 44 34 45 40 50
REMARK SMILES IDX 41 51 42 52 43 53 44 54
REMARK H PARENT 6 16 16 27 10 29 26 37 33 46 33 47 34 48 34 49 44 55
ROOT
ATOM      1  N   UNL     1      -3.364   6.526   0.042  1.00  0.00    -0.326 N 
ATOM      2  C   UNL     1      -1.037   6.822   0.243  1.00  0.00     0.014 C 
ATOM      3  C   UNL     1      -2.383   7.415   0.671  1.00  0.00     0.091 C 
ATOM      4  C   UNL     1      -1.329   6.306  -1.157  1.00  0.00     0.041 C 
ATOM      5  C   UNL     1      -2.686   5.619  -0.917  1.00  0.00     0.175 C 
ATOM      6  C   UNL     1      -2.392   7.543   2.193  1.00  0.00     0.059 C 
ATOM      7  C   UNL     1       0.085   7.821   0.448  1.00  0.00     0.008 C 
ATOM      8  C   UNL     1      -1.001   7.823   2.802  1.00  0.00     0.143 C 
ATOM      9  C   UNL     1      -0.067   8.538   1.806  1.00  0.00     0.034 C 
ENDROOT
BRANCH   1  10
ATOM     10  C   UNL     1      -4.748   6.577   0.060  1.00  0.00     0.246 C 
ATOM     11  O   UNL     1      -5.329   6.742   1.138  1.00  0.00    -0.272 OA
BRANCH  10  12
ATOM     12  C   UNL     1      -5.537   6.467  -1.276  1.00  0.00     0.174 C 
BRANCH  12  13
ATOM     13  N   UNL     1      -5.506   5.088  -1.762  1.00  0.00    -0.342 N 
ATOM     14  C   UNL     1      -6.584   4.232  -1.781  1.00  0.00     0.249 C 
ATOM     15  O   UNL     1      -7.709   4.544  -1.413  1.00  0.00    -0.272 OA
ATOM     16  H   UNL     1      -4.612   4.641  -1.952  1.00  0.00     0.164 HD
BRANCH  14  17
ATOM     17  C   UNL     1      -6.227   2.837  -2.337  1.00  0.00     0.207 C 
BRANCH  17  18
ATOM     18  C   UNL     1      -6.909   2.609  -3.689  1.00  0.00     0.077 C 
BRANCH  18  19
ATOM     19  C   UNL     1      -6.243   3.398  -4.794  1.00  0.00    -0.043 A 
ATOM     20  C   UNL     1      -4.246   4.028  -6.019  1.00  0.00     0.083 A 
ATOM     21  C   UNL     1      -4.866   3.261  -5.031  1.00  0.00     0.028 A 
ATOM     22  C   UNL     1      -4.993   4.933  -6.773  1.00  0.00     0.134 A 
ATOM     23  C   UNL     1      -6.357   5.078  -6.549  1.00  0.00     0.048 A 
ATOM     24  C   UNL     1      -6.981   4.314  -5.560  1.00  0.00     0.008 A 
ATOM     25  Cl  UNL     1      -2.553   3.846  -6.295  1.00  0.00    -0.080 Cl
BRANCH  22  26
ATOM     26  O   UNL     1      -4.427   5.713  -7.744  1.00  0.00    -0.506 OA
ATOM     27  H   UNL     1      -3.569   5.306  -7.966  1.00  0.00     0.293 HD
ENDBRANCH  22  26
ENDBRANCH  18  19
ENDBRANCH  17  18
BRANCH  17  28
ATOM     28  O   UNL     1      -6.621   1.800  -1.424  1.00  0.00    -0.383 OA
ATOM     29  H   UNL     1      -7.181   1.179  -1.943  1.00  0.00     0.211 HD
ENDBRANCH  17  28
ENDBRANCH  14  17
ENDBRANCH  12  13
BRANCH  12  30
ATOM     30  C   UNL     1      -5.052   7.483  -2.345  1.00  0.00     0.018 C 
ATOM     31  C   UNL     1      -6.085   8.603  -2.543  1.00  0.00     0.010 C 
BRANCH  30  32
ATOM     32  C   UNL     1      -4.703   6.834  -3.706  1.00  0.00     0.002 C 
ATOM     33  C   UNL     1      -3.353   7.231  -4.290  1.00  0.00     0.004 C 
ENDBRANCH  30  32
ENDBRANCH  12  30
ENDBRANCH  10  12
ENDBRANCH   1  10
BRANCH   5  34
ATOM     34  C   UNL     1      -2.511   4.204  -0.305  1.00  0.00     0.242 C 
ATOM     35  O   UNL     1      -2.487   4.011   0.910  1.00  0.00    -0.273 OA
ATOM     36  N   UNL     1      -2.330   3.189  -1.218  1.00  0.00    -0.354 N 
ATOM     37  H   UNL     1      -2.239   3.428  -2.206  1.00  0.00     0.163 HD
BRANCH  36  38
ATOM     38  C   UNL     1      -2.366   1.792  -0.839  1.00  0.00     0.116 C 
BRANCH  38  39
ATOM     39  C   UNL     1      -1.836   0.930  -1.983  1.00  0.00     0.023 C 
BRANCH  39  40
ATOM     40  C   UNL     1      -1.914   1.639  -3.331  1.00  0.00     0.026 C 
BRANCH  40  41
ATOM     41  C   UNL     1      -0.517   1.853  -3.913  1.00  0.00     0.146 C 
BRANCH  41  42
ATOM     42  N   UNL     1       0.103   3.015  -3.289  1.00  0.00    -0.254 NA
ATOM     43  C   UNL     1       1.239   2.892  -2.711  1.00  0.00     0.185 C 
ATOM     44  N   UNL     1       2.022   1.808  -2.563  1.00  0.00    -0.370 N 
ATOM     45  N   UNL     1       1.792   3.974  -2.138  1.00  0.00    -0.370 N 
ATOM     46  H   UNL     1       2.762   1.799  -1.882  1.00  0.00     0.159 HD
ATOM     47  H   UNL     1       1.761   0.906  -2.948  1.00  0.00     0.159 HD
ATOM     48  H   UNL     1       1.269   4.837  -2.212  1.00  0.00     0.159 HD
ATOM     49  H   UNL     1       2.762   4.018  -1.881  1.00  0.00     0.159 HD
ENDBRANCH  41  42
ENDBRANCH  40  41
ENDBRANCH  39  40
ENDBRANCH  38  39
ENDBRANCH  36  38
ENDBRANCH   5  34
BRANCH   8  50
ATOM     50  O   UNL     1      -0.385   6.598   3.201  1.00  0.00    -0.245 OA
BRANCH  50  51
ATOM     51  S   UNL     1      -0.348   6.194   4.776  1.00  0.00     0.397 S 
ATOM     52  O   UNL     1       1.011   5.836   5.113  1.00  0.00    -0.169 OA
ATOM     53  O   UNL     1      -1.462   5.320   5.081  1.00  0.00    -0.169 OA
BRANCH  51  54
ATOM     54  O   UNL     1      -0.619   7.609   5.492  1.00  0.00    -0.264 OA
ATOM     55  H   UNL     1       0.250   7.998   5.721  1.00  0.00     0.236 HD
ENDBRANCH  51  54
ENDBRANCH  50  51
ENDBRANCH   8  50
TORSDOF 19
ENDMDL
MODEL 26
REMARK VINA RESULT:    -5.695     13.913     18.077
REMARK INTER + INTRA:         -15.035
REMARK INTER:                 -11.105
REMARK INTRA:                  -3.929
REMARK UNBOUND:                -3.513
REMARK SMILES CC[C@@H](C)[C@@H](NC(=O)[C@@H](O)Cc1ccc(O)c(Cl)c1)C(=O)N1[C@H](C(=O)NCCCCN=C(N)N)C[C@H]2CC[C@H](OS(=O)(=O)O)C[C@@H]21
REMARK SMILES IDX 22 1 36 2 46 3 35 4 23 5 45 6 37 7 39 8 38 9 20 10 21 11
REMARK SMILES IDX 5 12 6 13 7 14 8 15 9 17 11 18 12 19 17 20 19 21 15 22 14 23
REMARK SMILES IDX 13 24 18 25 16 26 10 28 3 30 4 31 2 32 1 33 24 34 25 35
REMARK SMILES IDX 26 36 27 38 28 39 29 40 30 41 31 42 32 43 33 44 34 45 40 50
REMARK SMILES IDX 41 51 42 52 43 53 44 54
REMARK H PARENT 6 16 16 27 10 29 26 37 33 46 33 47 34 48 34 49 44 55
ROOT
ATOM      1  N   UNL     1     -13.584   7.725  -7.194  1.00  0.00    -0.326 N 
ATOM      2  C   UNL     1     -13.893   5.882  -5.763  1.00  0.00     0.014 C 
ATOM      3  C   UNL     1     -12.967   6.442  -6.847  1.00  0.00     0.091 C 
ATOM      4  C   UNL     1     -15.263   6.370  -6.208  1.00  0.00     0.041 C 
ATOM      5  C   UNL     1     -14.928   7.828  -6.572  1.00  0.00     0.175 C 
ATOM      6  C   UNL     1     -11.539   6.448  -6.306  1.00  0.00     0.059 C 
ATOM      7  C   UNL     1     -13.660   4.396  -5.567  1.00  0.00     0.008 C 
ATOM      8  C   UNL     1     -11.245   5.302  -5.313  1.00  0.00     0.143 C 
ATOM      9  C   UNL     1     -12.150   4.078  -5.558  1.00  0.00     0.034 C 
ENDROOT
BRANCH   1  10
ATOM     10  C   UNL     1     -13.201   8.671  -8.130  1.00  0.00     0.246 C 
ATOM     11  O   UNL     1     -12.613   9.689  -7.750  1.00  0.00    -0.272 OA
BRANCH  10  12
ATOM     12  C   UNL     1     -13.477   8.411  -9.639  1.00  0.00     0.174 C 
BRANCH  12  13
ATOM     13  N   UNL     1     -12.223   8.121 -10.334  1.00  0.00    -0.342 N 
ATOM     14  C   UNL     1     -11.711   6.861 -10.546  1.00  0.00     0.249 C 
ATOM     15  O   UNL     1     -12.271   5.829 -10.196  1.00  0.00    -0.272 OA
ATOM     16  H   UNL     1     -11.575   8.877 -10.541  1.00  0.00     0.164 HD
BRANCH  14  17
ATOM     17  C   UNL     1     -10.361   6.884 -11.293  1.00  0.00     0.207 C 
BRANCH  17  18
ATOM     18  C   UNL     1      -9.376   7.823 -10.590  1.00  0.00     0.077 C 
BRANCH  18  19
ATOM     19  C   UNL     1      -8.870   7.236  -9.291  1.00  0.00    -0.043 A 
ATOM     20  C   UNL     1      -8.129   7.528  -7.000  1.00  0.00     0.083 A 
ATOM     21  C   UNL     1      -8.642   8.065  -8.181  1.00  0.00     0.028 A 
ATOM     22  C   UNL     1      -7.840   6.165  -6.920  1.00  0.00     0.134 A 
ATOM     23  C   UNL     1      -8.061   5.333  -8.011  1.00  0.00     0.048 A 
ATOM     24  C   UNL     1      -8.573   5.868  -9.196  1.00  0.00     0.008 A 
ATOM     25  Cl  UNL     1      -7.855   8.561  -5.647  1.00  0.00    -0.080 Cl
BRANCH  22  26
ATOM     26  O   UNL     1      -7.325   5.595  -5.787  1.00  0.00    -0.506 OA
ATOM     27  H   UNL     1      -8.062   5.519  -5.152  1.00  0.00     0.293 HD
ENDBRANCH  22  26
ENDBRANCH  18  19
ENDBRANCH  17  18
BRANCH  17  28
ATOM     28  O   UNL     1     -10.531   7.307 -12.656  1.00  0.00    -0.383 OA
ATOM     29  H   UNL     1      -9.664   7.680 -12.935  1.00  0.00     0.211 HD
ENDBRANCH  17  28
ENDBRANCH  14  17
ENDBRANCH  12  13
BRANCH  12  30
ATOM     30  C   UNL     1     -14.272   9.564 -10.310  1.00  0.00     0.018 C 
ATOM     31  C   UNL     1     -15.019   9.060 -11.555  1.00  0.00     0.010 C 
BRANCH  30  32
ATOM     32  C   UNL     1     -13.401  10.791 -10.673  1.00  0.00     0.002 C 
ATOM     33  C   UNL     1     -13.836  11.553 -11.918  1.00  0.00     0.004 C 
ENDBRANCH  30  32
ENDBRANCH  12  30
ENDBRANCH  10  12
ENDBRANCH   1  10
BRANCH   5  34
ATOM     34  C   UNL     1     -14.883   8.736  -5.314  1.00  0.00     0.242 C 
ATOM     35  O   UNL     1     -15.238   9.914  -5.340  1.00  0.00    -0.273 OA
ATOM     36  N   UNL     1     -14.369   8.144  -4.182  1.00  0.00    -0.354 N 
ATOM     37  H   UNL     1     -13.981   7.203  -4.253  1.00  0.00     0.163 HD
BRANCH  36  38
ATOM     38  C   UNL     1     -14.452   8.768  -2.877  1.00  0.00     0.116 C 
BRANCH  38  39
ATOM     39  C   UNL     1     -14.483   7.695  -1.791  1.00  0.00     0.023 C 
BRANCH  39  40
ATOM     40  C   UNL     1     -14.502   6.283  -2.367  1.00  0.00     0.026 C 
BRANCH  40  41
ATOM     41  C   UNL     1     -14.397   5.242  -1.253  1.00  0.00     0.146 C 
BRANCH  41  42
ATOM     42  N   UNL     1     -13.043   5.233  -0.714  1.00  0.00    -0.254 NA
ATOM     43  C   UNL     1     -12.779   4.531   0.324  1.00  0.00     0.185 C 
ATOM     44  N   UNL     1     -13.581   3.742   1.061  1.00  0.00    -0.370 N 
ATOM     45  N   UNL     1     -11.526   4.540   0.808  1.00  0.00    -0.370 N 
ATOM     46  H   UNL     1     -13.305   3.447   1.982  1.00  0.00     0.159 HD
ATOM     47  H   UNL     1     -14.560   3.609   0.827  1.00  0.00     0.159 HD
ATOM     48  H   UNL     1     -10.855   5.104   0.304  1.00  0.00     0.159 HD
ATOM     49  H   UNL     1     -11.188   3.850   1.455  1.00  0.00     0.159 HD
ENDBRANCH  41  42
ENDBRANCH  40  41
ENDBRANCH  39  40
ENDBRANCH  38  39
ENDBRANCH  36  38
ENDBRANCH   5  34
BRANCH   8  50
ATOM     50  O   UNL     1     -11.442   5.752  -3.973  1.00  0.00    -0.245 OA
BRANCH  50  51
ATOM     51  S   UNL     1     -10.306   6.672  -3.259  1.00  0.00     0.397 S 
ATOM     52  O   UNL     1     -10.595   8.055  -3.566  1.00  0.00    -0.169 OA
ATOM     53  O   UNL     1      -8.998   6.098  -3.494  1.00  0.00    -0.169 OA
BRANCH  51  54
ATOM     54  O   UNL     1     -10.656   6.487  -1.700  1.00  0.00    -0.264 OA
ATOM     55  H   UNL     1     -11.465   5.940  -1.639  1.00  0.00     0.236 HD
ENDBRANCH  51  54
ENDBRANCH  50  51
ENDBRANCH   8  50
TORSDOF 19
ENDMDL
MODEL 27
REMARK VINA RESULT:    -5.689      3.586      8.483
REMARK INTER + INTRA:         -15.022
REMARK INTER:                 -11.571
REMARK INTRA:                  -3.451
REMARK UNBOUND:                -3.513
REMARK SMILES CC[C@@H](C)[C@@H](NC(=O)[C@@H](O)Cc1ccc(O)c(Cl)c1)C(=O)N1[C@H](C(=O)NCCCCN=C(N)N)C[C@H]2CC[C@H](OS(=O)(=O)O)C[C@@H]21
REMARK SMILES IDX 22 1 36 2 46 3 35 4 23 5 45 6 37 7 39 8 38 9 20 10 21 11
REMARK SMILES IDX 5 12 6 13 7 14 8 15 9 17 11 18 12 19 17 20 19 21 15 22 14 23
REMARK SMILES IDX 13 24 18 25 16 26 10 28 3 30 4 31 2 32 1 33 24 34 25 35
REMARK SMILES IDX 26 36 27 38 28 39 29 40 30 41 31 42 32 43 33 44 34 45 40 50
REMARK SMILES IDX 41 51 42 52 43 53 44 54
REMARK H PARENT 6 16 16 27 10 29 26 37 33 46 33 47 34 48 34 49 44 55
ROOT
ATOM      1  N   UNL     1       2.600   3.035  -7.411  1.00  0.00    -0.326 N 
ATOM      2  C   UNL     1       0.902   1.467  -6.960  1.00  0.00     0.014 C 
ATOM      3  C   UNL     1       2.383   1.765  -6.712  1.00  0.00     0.091 C 
ATOM      4  C   UNL     1       0.682   2.013  -8.363  1.00  0.00     0.041 C 
ATOM      5  C   UNL     1       1.419   3.360  -8.250  1.00  0.00     0.175 C 
ATOM      6  C   UNL     1       2.640   1.714  -5.207  1.00  0.00     0.059 C 
ATOM      7  C   UNL     1       0.585   0.013  -6.671  1.00  0.00     0.008 C 
ATOM      8  C   UNL     1       1.741   0.708  -4.456  1.00  0.00     0.143 C 
ATOM      9  C   UNL     1       1.275  -0.445  -5.368  1.00  0.00     0.034 C 
ENDROOT
BRANCH   1  10
ATOM     10  C   UNL     1       3.754   3.786  -7.551  1.00  0.00     0.246 C 
ATOM     11  O   UNL     1       4.136   4.483  -6.606  1.00  0.00    -0.272 OA
BRANCH  10  12
ATOM     12  C   UNL     1       4.568   3.702  -8.876  1.00  0.00     0.174 C 
BRANCH  12  13
ATOM     13  N   UNL     1       4.989   2.323  -9.116  1.00  0.00    -0.342 N 
ATOM     14  C   UNL     1       4.629   1.566 -10.209  1.00  0.00     0.249 C 
ATOM     15  O   UNL     1       3.929   1.980 -11.125  1.00  0.00    -0.272 OA
ATOM     16  H   UNL     1       5.439   1.796  -8.372  1.00  0.00     0.164 HD
BRANCH  14  17
ATOM     17  C   UNL     1       5.220   0.140 -10.167  1.00  0.00     0.207 C 
BRANCH  17  18
ATOM     18  C   UNL     1       6.746   0.197 -10.051  1.00  0.00     0.077 C 
BRANCH  18  19
ATOM     19  C   UNL     1       7.388   0.703 -11.324  1.00  0.00    -0.043 A 
ATOM     20  C   UNL     1       8.098   2.547 -12.731  1.00  0.00     0.083 A 
ATOM     21  C   UNL     1       7.551   2.082 -11.534  1.00  0.00     0.028 A 
ATOM     22  C   UNL     1       8.483   1.644 -13.721  1.00  0.00     0.134 A 
ATOM     23  C   UNL     1       8.327   0.276 -13.525  1.00  0.00     0.048 A 
ATOM     24  C   UNL     1       7.778  -0.193 -12.330  1.00  0.00     0.008 A 
ATOM     25  Cl  UNL     1       8.289   4.244 -12.971  1.00  0.00    -0.080 Cl
BRANCH  22  26
ATOM     26  O   UNL     1       9.014   2.053 -14.914  1.00  0.00    -0.506 OA
ATOM     27  H   UNL     1       9.007   3.029 -14.903  1.00  0.00     0.293 HD
ENDBRANCH  22  26
ENDBRANCH  18  19
ENDBRANCH  17  18
BRANCH  17  28
ATOM     28  O   UNL     1       4.858  -0.605 -11.341  1.00  0.00    -0.383 OA
ATOM     29  H   UNL     1       5.237  -0.111 -12.103  1.00  0.00     0.211 HD
ENDBRANCH  17  28
ENDBRANCH  14  17
ENDBRANCH  12  13
BRANCH  12  30
ATOM     30  C   UNL     1       5.757   4.700  -8.913  1.00  0.00     0.018 C 
ATOM     31  C   UNL     1       5.918   5.305 -10.316  1.00  0.00     0.010 C 
BRANCH  30  32
ATOM     32  C   UNL     1       7.097   4.086  -8.441  1.00  0.00     0.002 C 
ATOM     33  C   UNL     1       8.349   4.741  -9.009  1.00  0.00     0.004 C 
ENDBRANCH  30  32
ENDBRANCH  12  30
ENDBRANCH  10  12
ENDBRANCH   1  10
BRANCH   5  34
ATOM     34  C   UNL     1       0.539   4.439  -7.565  1.00  0.00     0.242 C 
ATOM     35  O   UNL     1      -0.599   4.703  -7.954  1.00  0.00    -0.273 OA
ATOM     36  N   UNL     1       1.142   5.116  -6.529  1.00  0.00    -0.354 N 
ATOM     37  H   UNL     1       2.127   4.936  -6.331  1.00  0.00     0.163 HD
BRANCH  36  38
ATOM     38  C   UNL     1       0.403   5.995  -5.646  1.00  0.00     0.116 C 
BRANCH  38  39
ATOM     39  C   UNL     1       0.970   7.410  -5.731  1.00  0.00     0.023 C 
BRANCH  39  40
ATOM     40  C   UNL     1       2.302   7.549  -5.001  1.00  0.00     0.026 C 
BRANCH  40  41
ATOM     41  C   UNL     1       2.233   6.900  -3.618  1.00  0.00     0.146 C 
BRANCH  41  42
ATOM     42  N   UNL     1       3.056   5.699  -3.596  1.00  0.00    -0.254 NA
ATOM     43  C   UNL     1       3.026   4.929  -2.574  1.00  0.00     0.185 C 
ATOM     44  N   UNL     1       2.321   5.034  -1.432  1.00  0.00    -0.370 N 
ATOM     45  N   UNL     1       3.796   3.829  -2.571  1.00  0.00    -0.370 N 
ATOM     46  H   UNL     1       2.575   4.497  -0.621  1.00  0.00     0.159 HD
ATOM     47  H   UNL     1       1.676   5.802  -1.273  1.00  0.00     0.159 HD
ATOM     48  H   UNL     1       4.353   3.670  -3.399  1.00  0.00     0.159 HD
ATOM     49  H   UNL     1       3.655   3.068  -1.930  1.00  0.00     0.159 HD
ENDBRANCH  41  42
ENDBRANCH  40  41
ENDBRANCH  39  40
ENDBRANCH  38  39
ENDBRANCH  36  38
ENDBRANCH   5  34
BRANCH   8  50
ATOM     50  O   UNL     1       0.587   1.372  -3.941  1.00  0.00    -0.245 OA
BRANCH  50  51
ATOM     51  S   UNL     1       0.379   1.487  -2.332  1.00  0.00     0.397 S 
ATOM     52  O   UNL     1      -0.660   0.558  -1.948  1.00  0.00    -0.169 OA
ATOM     53  O   UNL     1       0.329   2.883  -1.946  1.00  0.00    -0.169 OA
BRANCH  51  54
ATOM     54  O   UNL     1       1.752   0.867  -1.770  1.00  0.00    -0.264 OA
ATOM     55  H   UNL     1       2.430   0.961  -2.470  1.00  0.00     0.236 HD
ENDBRANCH  51  54
ENDBRANCH  50  51
ENDBRANCH   8  50
TORSDOF 19
ENDMDL
MODEL 28
REMARK VINA RESULT:    -5.688      4.687      7.640
REMARK INTER + INTRA:         -15.020
REMARK INTER:                 -10.618
REMARK INTRA:                  -4.402
REMARK UNBOUND:                -3.513
REMARK SMILES CC[C@@H](C)[C@@H](NC(=O)[C@@H](O)Cc1ccc(O)c(Cl)c1)C(=O)N1[C@H](C(=O)NCCCCN=C(N)N)C[C@H]2CC[C@H](OS(=O)(=O)O)C[C@@H]21
REMARK SMILES IDX 22 1 36 2 46 3 35 4 23 5 45 6 37 7 39 8 38 9 20 10 21 11
REMARK SMILES IDX 5 12 6 13 7 14 8 15 9 17 11 18 12 19 17 20 19 21 15 22 14 23
REMARK SMILES IDX 13 24 18 25 16 26 10 28 3 30 4 31 2 32 1 33 24 34 25 35
REMARK SMILES IDX 26 36 27 38 28 39 29 40 30 41 31 42 32 43 33 44 34 45 40 50
REMARK SMILES IDX 41 51 42 52 43 53 44 54
REMARK H PARENT 6 16 16 27 10 29 26 37 33 46 33 47 34 48 34 49 44 55
ROOT
ATOM      1  N   UNL     1       1.319   2.398  -5.488  1.00  0.00    -0.326 N 
ATOM      2  C   UNL     1       2.301   3.755  -7.142  1.00  0.00     0.014 C 
ATOM      3  C   UNL     1       2.316   2.339  -6.561  1.00  0.00     0.091 C 
ATOM      4  C   UNL     1       2.038   4.617  -5.917  1.00  0.00     0.041 C 
ATOM      5  C   UNL     1       0.914   3.805  -5.248  1.00  0.00     0.175 C 
ATOM      6  C   UNL     1       2.096   1.346  -7.701  1.00  0.00     0.059 C 
ATOM      7  C   UNL     1       3.538   4.011  -7.980  1.00  0.00     0.008 C 
ATOM      8  C   UNL     1       2.670   1.817  -9.054  1.00  0.00     0.143 C 
ATOM      9  C   UNL     1       3.851   2.793  -8.875  1.00  0.00     0.034 C 
ENDROOT
BRANCH   1  10
ATOM     10  C   UNL     1       0.912   1.418  -4.599  1.00  0.00     0.246 C 
ATOM     11  O   UNL     1       0.010   0.642  -4.930  1.00  0.00    -0.272 OA
BRANCH  10  12
ATOM     12  C   UNL     1       1.628   1.287  -3.223  1.00  0.00     0.174 C 
BRANCH  12  13
ATOM     13  N   UNL     1       1.452   2.517  -2.451  1.00  0.00    -0.342 N 
ATOM     14  C   UNL     1       0.288   2.896  -1.822  1.00  0.00     0.249 C 
ATOM     15  O   UNL     1      -0.735   2.222  -1.816  1.00  0.00    -0.272 OA
ATOM     16  H   UNL     1       2.160   3.245  -2.497  1.00  0.00     0.164 HD
BRANCH  14  17
ATOM     17  C   UNL     1       0.415   4.256  -1.103  1.00  0.00     0.207 C 
BRANCH  17  18
ATOM     18  C   UNL     1      -0.612   5.250  -1.654  1.00  0.00     0.077 C 
BRANCH  18  19
ATOM     19  C   UNL     1      -1.700   5.550  -0.647  1.00  0.00    -0.043 A 
ATOM     20  C   UNL     1      -2.674   5.238   1.552  1.00  0.00     0.083 A 
ATOM     21  C   UNL     1      -1.643   5.000   0.643  1.00  0.00     0.028 A 
ATOM     22  C   UNL     1      -3.766   6.023   1.181  1.00  0.00     0.134 A 
ATOM     23  C   UNL     1      -3.835   6.574  -0.094  1.00  0.00     0.048 A 
ATOM     24  C   UNL     1      -2.806   6.336  -1.007  1.00  0.00     0.008 A 
ATOM     25  Cl  UNL     1      -2.585   4.553   3.133  1.00  0.00    -0.080 Cl
BRANCH  22  26
ATOM     26  O   UNL     1      -4.805   6.275   2.035  1.00  0.00    -0.506 OA
ATOM     27  H   UNL     1      -5.593   5.848   1.651  1.00  0.00     0.293 HD
ENDBRANCH  22  26
ENDBRANCH  18  19
ENDBRANCH  17  18
BRANCH  17  28
ATOM     28  O   UNL     1       1.735   4.800  -1.256  1.00  0.00    -0.383 OA
ATOM     29  H   UNL     1       1.760   5.207  -2.152  1.00  0.00     0.211 HD
ENDBRANCH  17  28
ENDBRANCH  14  17
ENDBRANCH  12  13
BRANCH  12  30
ATOM     30  C   UNL     1       3.120   0.880  -3.358  1.00  0.00     0.018 C 
ATOM     31  C   UNL     1       3.491  -0.190  -2.320  1.00  0.00     0.010 C 
BRANCH  30  32
ATOM     32  C   UNL     1       4.100   2.074  -3.265  1.00  0.00     0.002 C 
ATOM     33  C   UNL     1       5.173   2.122  -4.345  1.00  0.00     0.004 C 
ENDBRANCH  30  32
ENDBRANCH  12  30
ENDBRANCH  10  12
ENDBRANCH   1  10
BRANCH   5  34
ATOM     34  C   UNL     1      -0.466   4.098  -5.895  1.00  0.00     0.242 C 
ATOM     35  O   UNL     1      -0.944   3.387  -6.778  1.00  0.00    -0.273 OA
ATOM     36  N   UNL     1      -1.091   5.241  -5.447  1.00  0.00    -0.354 N 
ATOM     37  H   UNL     1      -0.592   5.854  -4.802  1.00  0.00     0.163 HD
BRANCH  36  38
ATOM     38  C   UNL     1      -2.467   5.550  -5.779  1.00  0.00     0.116 C 
BRANCH  38  39
ATOM     39  C   UNL     1      -3.324   5.521  -4.515  1.00  0.00     0.023 C 
BRANCH  39  40
ATOM     40  C   UNL     1      -4.717   4.957  -4.769  1.00  0.00     0.026 C 
BRANCH  40  41
ATOM     41  C   UNL     1      -4.793   3.489  -4.348  1.00  0.00     0.146 C 
BRANCH  41  42
ATOM     42  N   UNL     1      -4.257   2.645  -5.408  1.00  0.00    -0.254 NA
ATOM     43  C   UNL     1      -3.350   1.784  -5.134  1.00  0.00     0.185 C 
ATOM     44  N   UNL     1      -2.757   1.495  -3.961  1.00  0.00    -0.370 N 
ATOM     45  N   UNL     1      -2.866   1.019  -6.126  1.00  0.00    -0.370 N 
ATOM     46  H   UNL     1      -1.896   0.975  -3.936  1.00  0.00     0.159 HD
ATOM     47  H   UNL     1      -3.014   1.972  -3.103  1.00  0.00     0.159 HD
ATOM     48  H   UNL     1      -3.266   1.167  -7.043  1.00  0.00     0.159 HD
ATOM     49  H   UNL     1      -2.341   0.179  -5.958  1.00  0.00     0.159 HD
ENDBRANCH  41  42
ENDBRANCH  40  41
ENDBRANCH  39  40
ENDBRANCH  38  39
ENDBRANCH  36  38
ENDBRANCH   5  34
BRANCH   8  50
ATOM     50  O   UNL     1       1.655   2.469  -9.818  1.00  0.00    -0.245 OA
BRANCH  50  51
ATOM     51  S   UNL     1       1.888   2.732 -11.406  1.00  0.00     0.397 S 
ATOM     52  O   UNL     1       2.733   1.674 -11.914  1.00  0.00    -0.169 OA
ATOM     53  O   UNL     1       2.203   4.128 -11.627  1.00  0.00    -0.169 OA
BRANCH  51  54
ATOM     54  O   UNL     1       0.425   2.452 -12.010  1.00  0.00    -0.264 OA
ATOM     55  H   UNL     1       0.487   2.514 -12.985  1.00  0.00     0.236 HD
ENDBRANCH  51  54
ENDBRANCH  50  51
ENDBRANCH   8  50
TORSDOF 19
ENDMDL
MODEL 29
REMARK VINA RESULT:    -5.684     12.733     16.207
REMARK INTER + INTRA:         -15.011
REMARK INTER:                 -11.909
REMARK INTRA:                  -3.103
REMARK UNBOUND:                -3.513
REMARK SMILES CC[C@@H](C)[C@@H](NC(=O)[C@@H](O)Cc1ccc(O)c(Cl)c1)C(=O)N1[C@H](C(=O)NCCCCN=C(N)N)C[C@H]2CC[C@H](OS(=O)(=O)O)C[C@@H]21
REMARK SMILES IDX 22 1 36 2 46 3 35 4 23 5 45 6 37 7 39 8 38 9 20 10 21 11
REMARK SMILES IDX 5 12 6 13 7 14 8 15 9 17 11 18 12 19 17 20 19 21 15 22 14 23
REMARK SMILES IDX 13 24 18 25 16 26 10 28 3 30 4 31 2 32 1 33 24 34 25 35
REMARK SMILES IDX 26 36 27 38 28 39 29 40 30 41 31 42 32 43 33 44 34 45 40 50
REMARK SMILES IDX 41 51 42 52 43 53 44 54
REMARK H PARENT 6 16 16 27 10 29 26 37 33 46 33 47 34 48 34 49 44 55
ROOT
ATOM      1  N   UNL     1     -11.585   6.864  -4.070  1.00  0.00    -0.326 N 
ATOM      2  C   UNL     1     -12.823   8.412  -2.799  1.00  0.00     0.014 C 
ATOM      3  C   UNL     1     -12.733   6.927  -3.161  1.00  0.00     0.091 C 
ATOM      4  C   UNL     1     -12.388   9.097  -4.086  1.00  0.00     0.041 C 
ATOM      5  C   UNL     1     -11.166   8.235  -4.453  1.00  0.00     0.175 C 
ATOM      6  C   UNL     1     -12.676   6.117  -1.866  1.00  0.00     0.059 C 
ATOM      7  C   UNL     1     -14.176   8.743  -2.201  1.00  0.00     0.008 C 
ATOM      8  C   UNL     1     -13.454   6.758  -0.697  1.00  0.00     0.143 C 
ATOM      9  C   UNL     1     -14.606   7.657  -1.192  1.00  0.00     0.034 C 
ENDROOT
BRANCH   1  10
ATOM     10  C   UNL     1     -11.038   5.781  -4.736  1.00  0.00     0.246 C 
ATOM     11  O   UNL     1      -9.864   5.468  -4.510  1.00  0.00    -0.272 OA
BRANCH  10  12
ATOM     12  C   UNL     1     -11.921   4.956  -5.716  1.00  0.00     0.174 C 
BRANCH  12  13
ATOM     13  N   UNL     1     -11.690   5.402  -7.090  1.00  0.00    -0.342 N 
ATOM     14  C   UNL     1     -10.730   4.894  -7.935  1.00  0.00     0.249 C 
ATOM     15  O   UNL     1      -9.971   3.981  -7.634  1.00  0.00    -0.272 OA
ATOM     16  H   UNL     1     -12.135   6.254  -7.424  1.00  0.00     0.164 HD
BRANCH  14  17
ATOM     17  C   UNL     1     -10.725   5.585  -9.315  1.00  0.00     0.207 C 
BRANCH  17  18
ATOM     18  C   UNL     1      -9.365   6.240  -9.582  1.00  0.00     0.077 C 
BRANCH  18  19
ATOM     19  C   UNL     1      -8.850   5.921 -10.967  1.00  0.00    -0.043 A 
ATOM     20  C   UNL     1      -7.395   4.641 -12.427  1.00  0.00     0.083 A 
ATOM     21  C   UNL     1      -7.906   4.899 -11.154  1.00  0.00     0.028 A 
ATOM     22  C   UNL     1      -7.822   5.399 -13.517  1.00  0.00     0.134 A 
ATOM     23  C   UNL     1      -8.757   6.414 -13.347  1.00  0.00     0.048 A 
ATOM     24  C   UNL     1      -9.268   6.676 -12.074  1.00  0.00     0.008 A 
ATOM     25  Cl  UNL     1      -6.236   3.382 -12.636  1.00  0.00    -0.080 Cl
BRANCH  22  26
ATOM     26  O   UNL     1      -7.343   5.190 -14.782  1.00  0.00    -0.506 OA
ATOM     27  H   UNL     1      -6.740   4.425 -14.730  1.00  0.00     0.293 HD
ENDBRANCH  22  26
ENDBRANCH  18  19
ENDBRANCH  17  18
BRANCH  17  28
ATOM     28  O   UNL     1     -11.757   6.581  -9.399  1.00  0.00    -0.383 OA
ATOM     29  H   UNL     1     -11.464   7.219 -10.088  1.00  0.00     0.211 HD
ENDBRANCH  17  28
ENDBRANCH  14  17
ENDBRANCH  12  13
BRANCH  12  30
ATOM     30  C   UNL     1     -13.425   4.977  -5.331  1.00  0.00     0.018 C 
ATOM     31  C   UNL     1     -13.948   3.551  -5.097  1.00  0.00     0.010 C 
BRANCH  30  32
ATOM     32  C   UNL     1     -14.320   5.710  -6.360  1.00  0.00     0.002 C 
ATOM     33  C   UNL     1     -15.159   6.849  -5.798  1.00  0.00     0.004 C 
ENDBRANCH  30  32
ENDBRANCH  12  30
ENDBRANCH  10  12
ENDBRANCH   1  10
BRANCH   5  34
ATOM     34  C   UNL     1      -9.903   8.666  -3.661  1.00  0.00     0.242 C 
ATOM     35  O   UNL     1      -9.960   9.429  -2.697  1.00  0.00    -0.273 OA
ATOM     36  N   UNL     1      -8.712   8.176  -4.146  1.00  0.00    -0.354 N 
ATOM     37  H   UNL     1      -8.717   7.647  -5.019  1.00  0.00     0.163 HD
BRANCH  36  38
ATOM     38  C   UNL     1      -7.469   8.298  -3.412  1.00  0.00     0.116 C 
BRANCH  38  39
ATOM     39  C   UNL     1      -7.157   6.984  -2.700  1.00  0.00     0.023 C 
BRANCH  39  40
ATOM     40  C   UNL     1      -5.708   6.547  -2.892  1.00  0.00     0.026 C 
BRANCH  40  41
ATOM     41  C   UNL     1      -5.636   5.236  -3.675  1.00  0.00     0.146 C 
BRANCH  41  42
ATOM     42  N   UNL     1      -6.127   5.445  -5.031  1.00  0.00    -0.254 NA
ATOM     43  C   UNL     1      -6.974   4.626  -5.531  1.00  0.00     0.185 C 
ATOM     44  N   UNL     1      -7.536   3.527  -4.994  1.00  0.00    -0.370 N 
ATOM     45  N   UNL     1      -7.411   4.833  -6.784  1.00  0.00    -0.370 N 
ATOM     46  H   UNL     1      -7.991   2.846  -5.578  1.00  0.00     0.159 HD
ATOM     47  H   UNL     1      -7.327   3.230  -4.046  1.00  0.00     0.159 HD
ATOM     48  H   UNL     1      -7.043   5.647  -7.258  1.00  0.00     0.159 HD
ATOM     49  H   UNL     1      -8.233   4.389  -7.154  1.00  0.00     0.159 HD
ENDBRANCH  41  42
ENDBRANCH  40  41
ENDBRANCH  39  40
ENDBRANCH  38  39
ENDBRANCH  36  38
ENDBRANCH   5  34
BRANCH   8  50
ATOM     50  O   UNL     1     -12.574   7.548   0.103  1.00  0.00    -0.245 OA
BRANCH  50  51
ATOM     51  S   UNL     1     -12.458   7.254   1.698  1.00  0.00     0.397 S 
ATOM     52  O   UNL     1     -11.712   6.028   1.873  1.00  0.00    -0.169 OA
ATOM     53  O   UNL     1     -13.748   7.454   2.325  1.00  0.00    -0.169 OA
BRANCH  51  54
ATOM     54  O   UNL     1     -11.481   8.435   2.187  1.00  0.00    -0.264 OA
ATOM     55  H   UNL     1     -11.150   8.897   1.390  1.00  0.00     0.236 HD
ENDBRANCH  51  54
ENDBRANCH  50  51
ENDBRANCH   8  50
TORSDOF 19
ENDMDL
MODEL 30
REMARK VINA RESULT:    -5.674     12.482     16.080
REMARK INTER + INTRA:         -14.991
REMARK INTER:                  -9.952
REMARK INTRA:                  -5.039
REMARK UNBOUND:                -3.513
REMARK SMILES CC[C@@H](C)[C@@H](NC(=O)[C@@H](O)Cc1ccc(O)c(Cl)c1)C(=O)N1[C@H](C(=O)NCCCCN=C(N)N)C[C@H]2CC[C@H](OS(=O)(=O)O)C[C@@H]21
REMARK SMILES IDX 22 1 36 2 46 3 35 4 23 5 45 6 37 7 39 8 38 9 20 10 21 11
REMARK SMILES IDX 5 12 6 13 7 14 8 15 9 17 11 18 12 19 17 20 19 21 15 22 14 23
REMARK SMILES IDX 13 24 18 25 16 26 10 28 3 30 4 31 2 32 1 33 24 34 25 35
REMARK SMILES IDX 26 36 27 38 28 39 29 40 30 41 31 42 32 43 33 44 34 45 40 50
REMARK SMILES IDX 41 51 42 52 43 53 44 54
REMARK H PARENT 6 16 16 27 10 29 26 37 33 46 33 47 34 48 34 49 44 55
ROOT
ATOM      1  N   UNL     1     -11.750   5.451  -6.211  1.00  0.00    -0.326 N 
ATOM      2  C   UNL     1     -13.862   6.335  -5.665  1.00  0.00     0.014 C 
ATOM      3  C   UNL     1     -12.759   5.407  -5.149  1.00  0.00     0.091 C 
ATOM      4  C   UNL     1     -13.821   6.101  -7.167  1.00  0.00     0.041 C 
ATOM      5  C   UNL     1     -12.301   6.135  -7.407  1.00  0.00     0.175 C 
ATOM      6  C   UNL     1     -12.357   5.867  -3.749  1.00  0.00     0.059 C 
ATOM      7  C   UNL     1     -15.158   6.108  -4.912  1.00  0.00     0.008 C 
ATOM      8  C   UNL     1     -13.516   6.495  -2.944  1.00  0.00     0.143 C 
ATOM      9  C   UNL     1     -14.890   5.964  -3.399  1.00  0.00     0.034 C 
ENDROOT
BRANCH   1  10
ATOM     10  C   UNL     1     -10.536   4.793  -6.310  1.00  0.00     0.246 C 
ATOM     11  O   UNL     1     -10.395   3.916  -7.168  1.00  0.00    -0.272 OA
BRANCH  10  12
ATOM     12  C   UNL     1      -9.364   5.201  -5.369  1.00  0.00     0.174 C 
BRANCH  12  13
ATOM     13  N   UNL     1      -9.267   6.658  -5.296  1.00  0.00    -0.342 N 
ATOM     14  C   UNL     1      -9.139   7.384  -4.133  1.00  0.00     0.249 C 
ATOM     15  O   UNL     1      -9.064   6.880  -3.020  1.00  0.00    -0.272 OA
ATOM     16  H   UNL     1      -9.471   7.218  -6.120  1.00  0.00     0.164 HD
BRANCH  14  17
ATOM     17  C   UNL     1      -9.079   8.906  -4.385  1.00  0.00     0.207 C 
BRANCH  17  18
ATOM     18  C   UNL     1      -7.871   9.519  -3.671  1.00  0.00     0.077 C 
BRANCH  18  19
ATOM     19  C   UNL     1      -6.588   9.290  -4.439  1.00  0.00    -0.043 A 
ATOM     20  C   UNL     1      -4.596   7.972  -4.860  1.00  0.00     0.083 A 
ATOM     21  C   UNL     1      -5.803   8.155  -4.185  1.00  0.00     0.028 A 
ATOM     22  C   UNL     1      -4.166   8.920  -5.790  1.00  0.00     0.134 A 
ATOM     23  C   UNL     1      -4.933  10.048  -6.052  1.00  0.00     0.048 A 
ATOM     24  C   UNL     1      -6.141  10.235  -5.376  1.00  0.00     0.008 A 
ATOM     25  Cl  UNL     1      -3.645   6.572  -4.533  1.00  0.00    -0.080 Cl
BRANCH  22  26
ATOM     26  O   UNL     1      -2.984   8.789  -6.469  1.00  0.00    -0.506 OA
ATOM     27  H   UNL     1      -2.273   8.824  -5.803  1.00  0.00     0.293 HD
ENDBRANCH  22  26
ENDBRANCH  18  19
ENDBRANCH  17  18
BRANCH  17  28
ATOM     28  O   UNL     1     -10.279   9.553  -3.932  1.00  0.00    -0.383 OA
ATOM     29  H   UNL     1     -11.015   9.155  -4.450  1.00  0.00     0.211 HD
ENDBRANCH  17  28
ENDBRANCH  14  17
ENDBRANCH  12  13
BRANCH  12  30
ATOM     30  C   UNL     1      -8.018   4.536  -5.766  1.00  0.00     0.018 C 
ATOM     31  C   UNL     1      -7.311   3.957  -4.531  1.00  0.00     0.010 C 
BRANCH  30  32
ATOM     32  C   UNL     1      -7.061   5.481  -6.533  1.00  0.00     0.002 C 
ATOM     33  C   UNL     1      -7.343   5.623  -8.023  1.00  0.00     0.004 C 
ENDBRANCH  30  32
ENDBRANCH  12  30
ENDBRANCH  10  12
ENDBRANCH   1  10
BRANCH   5  34
ATOM     34  C   UNL     1     -11.769   7.590  -7.502  1.00  0.00     0.242 C 
ATOM     35  O   UNL     1     -11.579   8.288  -6.506  1.00  0.00    -0.273 OA
ATOM     36  N   UNL     1     -11.579   8.061  -8.782  1.00  0.00    -0.354 N 
ATOM     37  H   UNL     1     -11.868   7.479  -9.568  1.00  0.00     0.163 HD
BRANCH  36  38
ATOM     38  C   UNL     1     -10.890   9.307  -9.053  1.00  0.00     0.116 C 
BRANCH  38  39
ATOM     39  C   UNL     1      -9.417   9.032  -9.343  1.00  0.00     0.023 C 
BRANCH  39  40
ATOM     40  C   UNL     1      -8.487   9.758  -8.376  1.00  0.00     0.026 C 
BRANCH  40  41
ATOM     41  C   UNL     1      -8.905  11.220  -8.217  1.00  0.00     0.146 C 
BRANCH  41  42
ATOM     42  N   UNL     1      -9.120  11.520  -6.807  1.00  0.00    -0.254 NA
ATOM     43  C   UNL     1     -10.204  12.094  -6.441  1.00  0.00     0.185 C 
ATOM     44  N   UNL     1     -11.258  12.501  -7.171  1.00  0.00    -0.370 N 
ATOM     45  N   UNL     1     -10.381  12.366  -5.137  1.00  0.00    -0.370 N 
ATOM     46  H   UNL     1     -11.925  13.152  -6.792  1.00  0.00     0.159 HD
ATOM     47  H   UNL     1     -11.296  12.361  -8.176  1.00  0.00     0.159 HD
ATOM     48  H   UNL     1      -9.636  12.084  -4.515  1.00  0.00     0.159 HD
ATOM     49  H   UNL     1     -11.279  12.590  -4.745  1.00  0.00     0.159 HD
ENDBRANCH  41  42
ENDBRANCH  40  41
ENDBRANCH  39  40
ENDBRANCH  38  39
ENDBRANCH  36  38
ENDBRANCH   5  34
BRANCH   8  50
ATOM     50  O   UNL     1     -13.505   7.914  -3.095  1.00  0.00    -0.245 OA
BRANCH  50  51
ATOM     51  S   UNL     1     -13.208   8.857  -1.803  1.00  0.00     0.397 S 
ATOM     52  O   UNL     1     -14.108   9.987  -1.858  1.00  0.00    -0.169 OA
ATOM     53  O   UNL     1     -11.779   9.031  -1.646  1.00  0.00    -0.169 OA
BRANCH  51  54
ATOM     54  O   UNL     1     -13.731   7.939  -0.590  1.00  0.00    -0.264 OA
ATOM     55  H   UNL     1     -13.242   8.202   0.216  1.00  0.00     0.236 HD
ENDBRANCH  51  54
ENDBRANCH  50  51
ENDBRANCH   8  50
TORSDOF 19
ENDMDL
MODEL 31
REMARK VINA RESULT:    -5.665      2.711      4.232
REMARK INTER + INTRA:         -14.974
REMARK INTER:                 -11.784
REMARK INTRA:                  -3.191
REMARK UNBOUND:                -3.513
REMARK SMILES CC[C@@H](C)[C@@H](NC(=O)[C@@H](O)Cc1ccc(O)c(Cl)c1)C(=O)N1[C@H](C(=O)NCCCCN=C(N)N)C[C@H]2CC[C@H](OS(=O)(=O)O)C[C@@H]21
REMARK SMILES IDX 22 1 36 2 46 3 35 4 23 5 45 6 37 7 39 8 38 9 20 10 21 11
REMARK SMILES IDX 5 12 6 13 7 14 8 15 9 17 11 18 12 19 17 20 19 21 15 22 14 23
REMARK SMILES IDX 13 24 18 25 16 26 10 28 3 30 4 31 2 32 1 33 24 34 25 35
REMARK SMILES IDX 26 36 27 38 28 39 29 40 30 41 31 42 32 43 33 44 34 45 40 50
REMARK SMILES IDX 41 51 42 52 43 53 44 54
REMARK H PARENT 6 16 16 27 10 29 26 37 33 46 33 47 34 48 34 49 44 55
ROOT
ATOM      1  N   UNL     1       4.199   4.920  -7.495  1.00  0.00    -0.326 N 
ATOM      2  C   UNL     1       5.294   5.133  -9.568  1.00  0.00     0.014 C 
ATOM      3  C   UNL     1       5.255   5.700  -8.147  1.00  0.00     0.091 C 
ATOM      4  C   UNL     1       3.835   4.800  -9.836  1.00  0.00     0.041 C 
ATOM      5  C   UNL     1       3.461   4.122  -8.505  1.00  0.00     0.175 C 
ATOM      6  C   UNL     1       6.666   5.639  -7.563  1.00  0.00     0.059 C 
ATOM      7  C   UNL     1       6.027   6.071 -10.507  1.00  0.00     0.008 C 
ATOM      8  C   UNL     1       7.782   5.808  -8.617  1.00  0.00     0.143 C 
ATOM      9  C   UNL     1       7.307   6.619  -9.839  1.00  0.00     0.034 C 
ENDROOT
BRANCH   1  10
ATOM     10  C   UNL     1       3.703   5.001  -6.205  1.00  0.00     0.246 C 
ATOM     11  O   UNL     1       2.566   5.449  -6.026  1.00  0.00    -0.272 OA
BRANCH  10  12
ATOM     12  C   UNL     1       4.568   4.488  -5.017  1.00  0.00     0.174 C 
BRANCH  12  13
ATOM     13  N   UNL     1       3.946   3.305  -4.422  1.00  0.00    -0.342 N 
ATOM     14  C   UNL     1       4.606   2.137  -4.114  1.00  0.00     0.249 C 
ATOM     15  O   UNL     1       5.807   1.967  -4.281  1.00  0.00    -0.272 OA
ATOM     16  H   UNL     1       2.933   3.240  -4.372  1.00  0.00     0.164 HD
BRANCH  14  17
ATOM     17  C   UNL     1       3.671   1.066  -3.513  1.00  0.00     0.207 C 
BRANCH  17  18
ATOM     18  C   UNL     1       2.223   1.565  -3.501  1.00  0.00     0.077 C 
BRANCH  18  19
ATOM     19  C   UNL     1       1.388   0.896  -4.569  1.00  0.00    -0.043 A 
ATOM     20  C   UNL     1      -0.772   0.460  -5.585  1.00  0.00     0.083 A 
ATOM     21  C   UNL     1       0.003   1.118  -4.629  1.00  0.00     0.028 A 
ATOM     22  C   UNL     1      -0.171  -0.422  -6.484  1.00  0.00     0.134 A 
ATOM     23  C   UNL     1       1.199  -0.651  -6.436  1.00  0.00     0.048 A 
ATOM     24  C   UNL     1       1.977   0.004  -5.479  1.00  0.00     0.008 A 
ATOM     25  Cl  UNL     1      -2.471   0.745  -5.642  1.00  0.00    -0.080 Cl
BRANCH  22  26
ATOM     26  O   UNL     1      -0.891  -1.098  -7.432  1.00  0.00    -0.506 OA
ATOM     27  H   UNL     1      -1.627  -1.535  -6.965  1.00  0.00     0.293 HD
ENDBRANCH  22  26
ENDBRANCH  18  19
ENDBRANCH  17  18
BRANCH  17  28
ATOM     28  O   UNL     1       4.068   0.723  -2.176  1.00  0.00    -0.383 OA
ATOM     29  H   UNL     1       4.582   1.492  -1.839  1.00  0.00     0.211 HD
ENDBRANCH  17  28
ENDBRANCH  14  17
ENDBRANCH  12  13
BRANCH  12  30
ATOM     30  C   UNL     1       4.862   5.594  -3.968  1.00  0.00     0.018 C 
ATOM     31  C   UNL     1       6.136   6.371  -4.336  1.00  0.00     0.010 C 
BRANCH  30  32
ATOM     32  C   UNL     1       4.964   5.063  -2.518  1.00  0.00     0.002 C 
ATOM     33  C   UNL     1       6.121   5.621  -1.699  1.00  0.00     0.004 C 
ENDBRANCH  30  32
ENDBRANCH  12  30
ENDBRANCH  10  12
ENDBRANCH   1  10
BRANCH   5  34
ATOM     34  C   UNL     1       3.914   2.638  -8.472  1.00  0.00     0.242 C 
ATOM     35  O   UNL     1       4.225   2.068  -7.427  1.00  0.00    -0.273 OA
ATOM     36  N   UNL     1       3.996   2.023  -9.702  1.00  0.00    -0.354 N 
ATOM     37  H   UNL     1       3.842   2.582 -10.542  1.00  0.00     0.163 HD
BRANCH  36  38
ATOM     38  C   UNL     1       4.190   0.595  -9.840  1.00  0.00     0.116 C 
BRANCH  38  39
ATOM     39  C   UNL     1       5.497   0.319 -10.580  1.00  0.00     0.023 C 
BRANCH  39  40
ATOM     40  C   UNL     1       6.722   0.523  -9.695  1.00  0.00     0.026 C 
BRANCH  40  41
ATOM     41  C   UNL     1       7.879   1.116 -10.499  1.00  0.00     0.146 C 
BRANCH  41  42
ATOM     42  N   UNL     1       7.730   0.768 -11.906  1.00  0.00    -0.254 NA
ATOM     43  C   UNL     1       8.579   1.205 -12.759  1.00  0.00     0.185 C 
ATOM     44  N   UNL     1       9.663   1.983 -12.582  1.00  0.00    -0.370 N 
ATOM     45  N   UNL     1       8.422   0.877 -14.052  1.00  0.00    -0.370 N 
ATOM     46  H   UNL     1      10.094   2.447 -13.363  1.00  0.00     0.159 HD
ATOM     47  H   UNL     1       9.937   2.312 -11.662  1.00  0.00     0.159 HD
ATOM     48  H   UNL     1       7.633   0.284 -14.272  1.00  0.00     0.159 HD
ATOM     49  H   UNL     1       9.155   0.975 -14.732  1.00  0.00     0.159 HD
ENDBRANCH  41  42
ENDBRANCH  40  41
ENDBRANCH  39  40
ENDBRANCH  38  39
ENDBRANCH  36  38
ENDBRANCH   5  34
BRANCH   8  50
ATOM     50  O   UNL     1       8.229   4.529  -9.067  1.00  0.00    -0.245 OA
BRANCH  50  51
ATOM     51  S   UNL     1       9.755   4.354  -9.603  1.00  0.00     0.397 S 
ATOM     52  O   UNL     1       9.755   4.584 -11.030  1.00  0.00    -0.169 OA
ATOM     53  O   UNL     1      10.339   3.162  -9.025  1.00  0.00    -0.169 OA
BRANCH  51  54
ATOM     54  O   UNL     1      10.487   5.630  -8.953  1.00  0.00    -0.264 OA
ATOM     55  H   UNL     1       9.813   6.141  -8.460  1.00  0.00     0.236 HD
ENDBRANCH  51  54
ENDBRANCH  50  51
ENDBRANCH   8  50
TORSDOF 19
ENDMDL
MODEL 32
REMARK VINA RESULT:    -5.665      4.542      7.895
REMARK INTER + INTRA:         -14.973
REMARK INTER:                 -11.243
REMARK INTRA:                  -3.729
REMARK UNBOUND:                -3.513
REMARK SMILES CC[C@@H](C)[C@@H](NC(=O)[C@@H](O)Cc1ccc(O)c(Cl)c1)C(=O)N1[C@H](C(=O)NCCCCN=C(N)N)C[C@H]2CC[C@H](OS(=O)(=O)O)C[C@@H]21
REMARK SMILES IDX 22 1 36 2 46 3 35 4 23 5 45 6 37 7 39 8 38 9 20 10 21 11
REMARK SMILES IDX 5 12 6 13 7 14 8 15 9 17 11 18 12 19 17 20 19 21 15 22 14 23
REMARK SMILES IDX 13 24 18 25 16 26 10 28 3 30 4 31 2 32 1 33 24 34 25 35
REMARK SMILES IDX 26 36 27 38 28 39 29 40 30 41 31 42 32 43 33 44 34 45 40 50
REMARK SMILES IDX 41 51 42 52 43 53 44 54
REMARK H PARENT 6 16 16 27 10 29 26 37 33 46 33 47 34 48 34 49 44 55
ROOT
ATOM      1  N   UNL     1       2.212   3.162  -5.929  1.00  0.00    -0.326 N 
ATOM      2  C   UNL     1       2.102   1.368  -7.449  1.00  0.00     0.014 C 
ATOM      3  C   UNL     1       1.998   1.712  -5.961  1.00  0.00     0.091 C 
ATOM      4  C   UNL     1       3.156   2.345  -7.947  1.00  0.00     0.041 C 
ATOM      5  C   UNL     1       2.678   3.636  -7.256  1.00  0.00     0.175 C 
ATOM      6  C   UNL     1       0.675   1.164  -5.429  1.00  0.00     0.059 C 
ATOM      7  C   UNL     1       2.315  -0.120  -7.648  1.00  0.00     0.008 C 
ATOM      8  C   UNL     1       0.211  -0.130  -6.133  1.00  0.00     0.143 C 
ATOM      9  C   UNL     1       1.395  -0.931  -6.711  1.00  0.00     0.034 C 
ENDROOT
BRANCH   1  10
ATOM     10  C   UNL     1       2.249   4.031  -4.852  1.00  0.00     0.246 C 
ATOM     11  O   UNL     1       2.087   5.240  -5.048  1.00  0.00    -0.272 OA
BRANCH  10  12
ATOM     12  C   UNL     1       2.449   3.464  -3.416  1.00  0.00     0.174 C 
BRANCH  12  13
ATOM     13  N   UNL     1       1.482   4.069  -2.501  1.00  0.00    -0.342 N 
ATOM     14  C   UNL     1       0.384   3.428  -1.975  1.00  0.00     0.249 C 
ATOM     15  O   UNL     1       0.108   2.255  -2.196  1.00  0.00    -0.272 OA
ATOM     16  H   UNL     1       1.492   5.075  -2.352  1.00  0.00     0.164 HD
BRANCH  14  17
ATOM     17  C   UNL     1      -0.455   4.341  -1.055  1.00  0.00     0.207 C 
BRANCH  17  18
ATOM     18  C   UNL     1       0.457   5.158  -0.135  1.00  0.00     0.077 C 
BRANCH  18  19
ATOM     19  C   UNL     1      -0.336   6.026   0.816  1.00  0.00    -0.043 A 
ATOM     20  C   UNL     1      -0.967   6.635   3.078  1.00  0.00     0.083 A 
ATOM     21  C   UNL     1      -0.197   5.866   2.204  1.00  0.00     0.028 A 
ATOM     22  C   UNL     1      -1.878   7.564   2.573  1.00  0.00     0.134 A 
ATOM     23  C   UNL     1      -2.025   7.732   1.201  1.00  0.00     0.048 A 
ATOM     24  C   UNL     1      -1.257   6.963   0.324  1.00  0.00     0.008 A 
ATOM     25  Cl  UNL     1      -0.783   6.424   4.779  1.00  0.00    -0.080 Cl
BRANCH  22  26
ATOM     26  O   UNL     1      -2.662   8.332   3.391  1.00  0.00    -0.506 OA
ATOM     27  H   UNL     1      -3.356   8.722   2.828  1.00  0.00     0.293 HD
ENDBRANCH  22  26
ENDBRANCH  18  19
ENDBRANCH  17  18
BRANCH  17  28
ATOM     28  O   UNL     1      -1.370   3.572  -0.258  1.00  0.00    -0.383 OA
ATOM     29  H   UNL     1      -1.582   2.769  -0.786  1.00  0.00     0.211 HD
ENDBRANCH  17  28
ENDBRANCH  14  17
ENDBRANCH  12  13
BRANCH  12  30
ATOM     30  C   UNL     1       3.911   3.608  -2.913  1.00  0.00     0.018 C 
ATOM     31  C   UNL     1       4.108   4.944  -2.181  1.00  0.00     0.010 C 
BRANCH  30  32
ATOM     32  C   UNL     1       4.971   3.453  -4.031  1.00  0.00     0.002 C 
ATOM     33  C   UNL     1       5.336   2.017  -4.388  1.00  0.00     0.004 C 
ENDBRANCH  30  32
ENDBRANCH  12  30
ENDBRANCH  10  12
ENDBRANCH   1  10
BRANCH   5  34
ATOM     34  C   UNL     1       1.518   4.308  -8.038  1.00  0.00     0.242 C 
ATOM     35  O   UNL     1       1.637   4.668  -9.209  1.00  0.00    -0.273 OA
ATOM     36  N   UNL     1       0.367   4.519  -7.313  1.00  0.00    -0.354 N 
ATOM     37  H   UNL     1       0.370   4.309  -6.314  1.00  0.00     0.163 HD
BRANCH  36  38
ATOM     38  C   UNL     1      -0.874   4.933  -7.934  1.00  0.00     0.116 C 
BRANCH  38  39
ATOM     39  C   UNL     1      -1.733   5.689  -6.923  1.00  0.00     0.023 C 
BRANCH  39  40
ATOM     40  C   UNL     1      -2.959   4.892  -6.489  1.00  0.00     0.026 C 
BRANCH  40  41
ATOM     41  C   UNL     1      -2.547   3.544  -5.898  1.00  0.00     0.146 C 
BRANCH  41  42
ATOM     42  N   UNL     1      -2.826   3.527  -4.468  1.00  0.00    -0.254 NA
ATOM     43  C   UNL     1      -2.883   2.409  -3.847  1.00  0.00     0.185 C 
ATOM     44  N   UNL     1      -2.718   1.155  -4.306  1.00  0.00    -0.370 N 
ATOM     45  N   UNL     1      -3.146   2.415  -2.530  1.00  0.00    -0.370 N 
ATOM     46  H   UNL     1      -3.029   0.366  -3.765  1.00  0.00     0.159 HD
ATOM     47  H   UNL     1      -2.499   0.968  -5.279  1.00  0.00     0.159 HD
ATOM     48  H   UNL     1      -3.275   3.322  -2.102  1.00  0.00     0.159 HD
ATOM     49  H   UNL     1      -2.974   1.622  -1.937  1.00  0.00     0.159 HD
ENDBRANCH  41  42
ENDBRANCH  40  41
ENDBRANCH  39  40
ENDBRANCH  38  39
ENDBRANCH  36  38
ENDBRANCH   5  34
BRANCH   8  50
ATOM     50  O   UNL     1      -0.686   0.187  -7.198  1.00  0.00    -0.245 OA
BRANCH  50  51
ATOM     51  S   UNL     1      -2.043  -0.688  -7.392  1.00  0.00     0.397 S 
ATOM     52  O   UNL     1      -3.165   0.138  -7.008  1.00  0.00    -0.169 OA
ATOM     53  O   UNL     1      -1.851  -2.013  -6.838  1.00  0.00    -0.169 OA
BRANCH  51  54
ATOM     54  O   UNL     1      -2.127  -0.827  -8.991  1.00  0.00    -0.264 OA
ATOM     55  H   UNL     1      -2.632  -0.060  -9.331  1.00  0.00     0.236 HD
ENDBRANCH  51  54
ENDBRANCH  50  51
ENDBRANCH   8  50
TORSDOF 19
ENDMDL
MODEL 33
REMARK VINA RESULT:    -5.664      3.767      8.605
REMARK INTER + INTRA:         -14.971
REMARK INTER:                 -12.911
REMARK INTRA:                  -2.060
REMARK UNBOUND:                -3.513
REMARK SMILES CC[C@@H](C)[C@@H](NC(=O)[C@@H](O)Cc1ccc(O)c(Cl)c1)C(=O)N1[C@H](C(=O)NCCCCN=C(N)N)C[C@H]2CC[C@H](OS(=O)(=O)O)C[C@@H]21
REMARK SMILES IDX 22 1 36 2 46 3 35 4 23 5 45 6 37 7 39 8 38 9 20 10 21 11
REMARK SMILES IDX 5 12 6 13 7 14 8 15 9 17 11 18 12 19 17 20 19 21 15 22 14 23
REMARK SMILES IDX 13 24 18 25 16 26 10 28 3 30 4 31 2 32 1 33 24 34 25 35
REMARK SMILES IDX 26 36 27 38 28 39 29 40 30 41 31 42 32 43 33 44 34 45 40 50
REMARK SMILES IDX 41 51 42 52 43 53 44 54
REMARK H PARENT 6 16 16 27 10 29 26 37 33 46 33 47 34 48 34 49 44 55
ROOT
ATOM      1  N   UNL     1       3.422   2.158  -9.867  1.00  0.00    -0.326 N 
ATOM      2  C   UNL     1       2.239   4.129 -10.376  1.00  0.00     0.014 C 
ATOM      3  C   UNL     1       3.021   2.977 -11.014  1.00  0.00     0.091 C 
ATOM      4  C   UNL     1       2.973   4.344  -9.062  1.00  0.00     0.041 C 
ATOM      5  C   UNL     1       3.144   2.884  -8.603  1.00  0.00     0.175 C 
ATOM      6  C   UNL     1       2.145   2.337 -12.090  1.00  0.00     0.059 C 
ATOM      7  C   UNL     1       2.092   5.286 -11.344  1.00  0.00     0.008 C 
ATOM      8  C   UNL     1       1.191   3.330 -12.787  1.00  0.00     0.143 C 
ATOM      9  C   UNL     1       1.733   4.774 -12.755  1.00  0.00     0.034 C 
ENDROOT
BRANCH   1  10
ATOM     10  C   UNL     1       4.169   0.993  -9.826  1.00  0.00     0.246 C 
ATOM     11  O   UNL     1       3.584  -0.094  -9.762  1.00  0.00    -0.272 OA
BRANCH  10  12
ATOM     12  C   UNL     1       5.721   1.074  -9.904  1.00  0.00     0.174 C 
BRANCH  12  13
ATOM     13  N   UNL     1       6.151   2.471  -9.861  1.00  0.00    -0.342 N 
ATOM     14  C   UNL     1       6.776   3.073  -8.792  1.00  0.00     0.249 C 
ATOM     15  O   UNL     1       7.069   2.489  -7.756  1.00  0.00    -0.272 OA
ATOM     16  H   UNL     1       5.837   3.117 -10.581  1.00  0.00     0.164 HD
BRANCH  14  17
ATOM     17  C   UNL     1       7.087   4.563  -9.046  1.00  0.00     0.207 C 
BRANCH  17  18
ATOM     18  C   UNL     1       6.125   5.454  -8.254  1.00  0.00     0.077 C 
BRANCH  18  19
ATOM     19  C   UNL     1       6.820   6.145  -7.102  1.00  0.00    -0.043 A 
ATOM     20  C   UNL     1       6.821   6.902  -4.797  1.00  0.00     0.083 A 
ATOM     21  C   UNL     1       6.200   6.221  -5.845  1.00  0.00     0.028 A 
ATOM     22  C   UNL     1       8.060   7.511  -4.998  1.00  0.00     0.134 A 
ATOM     23  C   UNL     1       8.685   7.444  -6.238  1.00  0.00     0.048 A 
ATOM     24  C   UNL     1       8.065   6.764  -7.289  1.00  0.00     0.008 A 
ATOM     25  Cl  UNL     1       6.044   6.985  -3.260  1.00  0.00    -0.080 Cl
BRANCH  22  26
ATOM     26  O   UNL     1       8.703   8.199  -4.004  1.00  0.00    -0.506 OA
ATOM     27  H   UNL     1       9.420   8.704  -4.432  1.00  0.00     0.293 HD
ENDBRANCH  22  26
ENDBRANCH  18  19
ENDBRANCH  17  18
BRANCH  17  28
ATOM     28  O   UNL     1       6.990   4.881 -10.444  1.00  0.00    -0.383 OA
ATOM     29  H   UNL     1       7.330   4.093 -10.926  1.00  0.00     0.211 HD
ENDBRANCH  17  28
ENDBRANCH  14  17
ENDBRANCH  12  13
BRANCH  12  30
ATOM     30  C   UNL     1       6.301   0.313 -11.127  1.00  0.00     0.018 C 
ATOM     31  C   UNL     1       6.494  -1.177 -10.802  1.00  0.00     0.010 C 
BRANCH  30  32
ATOM     32  C   UNL     1       7.621   0.916 -11.665  1.00  0.00     0.002 C 
ATOM     33  C   UNL     1       8.045   0.429 -13.044  1.00  0.00     0.004 C 
ENDBRANCH  30  32
ENDBRANCH  12  30
ENDBRANCH  10  12
ENDBRANCH   1  10
BRANCH   5  34
ATOM     34  C   UNL     1       1.856   2.342  -7.928  1.00  0.00     0.242 C 
ATOM     35  O   UNL     1       1.078   1.586  -8.509  1.00  0.00    -0.273 OA
ATOM     36  N   UNL     1       1.620   2.810  -6.655  1.00  0.00    -0.354 N 
ATOM     37  H   UNL     1       2.237   3.527  -6.273  1.00  0.00     0.163 HD
BRANCH  36  38
ATOM     38  C   UNL     1       0.592   2.249  -5.803  1.00  0.00     0.116 C 
BRANCH  38  39
ATOM     39  C   UNL     1       1.212   1.246  -4.834  1.00  0.00     0.023 C 
BRANCH  39  40
ATOM     40  C   UNL     1       0.221   0.765  -3.780  1.00  0.00     0.026 C 
BRANCH  40  41
ATOM     41  C   UNL     1       0.162   1.741  -2.605  1.00  0.00     0.146 C 
BRANCH  41  42
ATOM     42  N   UNL     1      -1.161   2.347  -2.534  1.00  0.00    -0.254 NA
ATOM     43  C   UNL     1      -2.103   1.741  -1.913  1.00  0.00     0.185 C 
ATOM     44  N   UNL     1      -2.093   0.560  -1.267  1.00  0.00    -0.370 N 
ATOM     45  N   UNL     1      -3.316   2.314  -1.863  1.00  0.00    -0.370 N 
ATOM     46  H   UNL     1      -2.955   0.094  -1.039  1.00  0.00     0.159 HD
ATOM     47  H   UNL     1      -1.251  -0.002  -1.196  1.00  0.00     0.159 HD
ATOM     48  H   UNL     1      -3.407   3.211  -2.319  1.00  0.00     0.159 HD
ATOM     49  H   UNL     1      -4.026   2.029  -1.211  1.00  0.00     0.159 HD
ENDBRANCH  41  42
ENDBRANCH  40  41
ENDBRANCH  39  40
ENDBRANCH  38  39
ENDBRANCH  36  38
ENDBRANCH   5  34
BRANCH   8  50
ATOM     50  O   UNL     1      -0.087   3.311 -12.151  1.00  0.00    -0.245 OA
BRANCH  50  51
ATOM     51  S   UNL     1      -1.386   3.888 -12.941  1.00  0.00     0.397 S 
ATOM     52  O   UNL     1      -1.093   3.868 -14.357  1.00  0.00    -0.169 OA
ATOM     53  O   UNL     1      -1.865   5.085 -12.281  1.00  0.00    -0.169 OA
BRANCH  51  54
ATOM     54  O   UNL     1      -2.469   2.723 -12.702  1.00  0.00    -0.264 OA
ATOM     55  H   UNL     1      -2.555   2.589 -11.736  1.00  0.00     0.236 HD
ENDBRANCH  51  54
ENDBRANCH  50  51
ENDBRANCH   8  50
TORSDOF 19
ENDMDL
MODEL 34
REMARK VINA RESULT:    -5.639     10.474     13.940
REMARK INTER + INTRA:         -14.921
REMARK INTER:                  -9.437
REMARK INTRA:                  -5.483
REMARK UNBOUND:                -3.513
REMARK SMILES CC[C@@H](C)[C@@H](NC(=O)[C@@H](O)Cc1ccc(O)c(Cl)c1)C(=O)N1[C@H](C(=O)NCCCCN=C(N)N)C[C@H]2CC[C@H](OS(=O)(=O)O)C[C@@H]21
REMARK SMILES IDX 22 1 36 2 46 3 35 4 23 5 45 6 37 7 39 8 38 9 20 10 21 11
REMARK SMILES IDX 5 12 6 13 7 14 8 15 9 17 11 18 12 19 17 20 19 21 15 22 14 23
REMARK SMILES IDX 13 24 18 25 16 26 10 28 3 30 4 31 2 32 1 33 24 34 25 35
REMARK SMILES IDX 26 36 27 38 28 39 29 40 30 41 31 42 32 43 33 44 34 45 40 50
REMARK SMILES IDX 41 51 42 52 43 53 44 54
REMARK H PARENT 6 16 16 27 10 29 26 37 33 46 33 47 34 48 34 49 44 55
ROOT
ATOM      1  N   UNL     1      -9.334   8.235  -4.137  1.00  0.00    -0.326 N 
ATOM      2  C   UNL     1      -7.141   7.991  -3.315  1.00  0.00     0.014 C 
ATOM      3  C   UNL     1      -8.545   7.384  -3.241  1.00  0.00     0.091 C 
ATOM      4  C   UNL     1      -7.426   9.477  -3.468  1.00  0.00     0.041 C 
ATOM      5  C   UNL     1      -8.546   9.432  -4.523  1.00  0.00     0.175 C 
ATOM      6  C   UNL     1      -8.445   5.894  -3.560  1.00  0.00     0.059 C 
ATOM      7  C   UNL     1      -6.283   7.514  -2.160  1.00  0.00     0.008 C 
ATOM      8  C   UNL     1      -7.114   5.251  -3.113  1.00  0.00     0.143 C 
ATOM      9  C   UNL     1      -6.479   6.001  -1.925  1.00  0.00     0.034 C 
ENDROOT
BRANCH   1  10
ATOM     10  C   UNL     1     -10.680   8.181  -4.457  1.00  0.00     0.246 C 
ATOM     11  O   UNL     1     -11.418   9.107  -4.107  1.00  0.00    -0.272 OA
BRANCH  10  12
ATOM     12  C   UNL     1     -11.224   6.980  -5.283  1.00  0.00     0.174 C 
BRANCH  12  13
ATOM     13  N   UNL     1     -10.366   6.744  -6.444  1.00  0.00    -0.342 N 
ATOM     14  C   UNL     1      -9.927   5.509  -6.865  1.00  0.00     0.249 C 
ATOM     15  O   UNL     1     -10.235   4.455  -6.322  1.00  0.00    -0.272 OA
ATOM     16  H   UNL     1      -9.905   7.529  -6.898  1.00  0.00     0.164 HD
BRANCH  14  17
ATOM     17  C   UNL     1      -9.021   5.592  -8.112  1.00  0.00     0.207 C 
BRANCH  17  18
ATOM     18  C   UNL     1      -9.476   4.585  -9.173  1.00  0.00     0.077 C 
BRANCH  18  19
ATOM     19  C   UNL     1      -8.938   4.931 -10.543  1.00  0.00    -0.043 A 
ATOM     20  C   UNL     1      -7.370   4.528 -12.350  1.00  0.00     0.083 A 
ATOM     21  C   UNL     1      -7.898   4.176 -11.107  1.00  0.00     0.028 A 
ATOM     22  C   UNL     1      -7.876   5.633 -13.035  1.00  0.00     0.134 A 
ATOM     23  C   UNL     1      -8.907   6.389 -12.489  1.00  0.00     0.048 A 
ATOM     24  C   UNL     1      -9.436   6.040 -11.244  1.00  0.00     0.008 A 
ATOM     25  Cl  UNL     1      -6.091   3.589 -13.026  1.00  0.00    -0.080 Cl
BRANCH  22  26
ATOM     26  O   UNL     1      -7.385   6.023 -14.251  1.00  0.00    -0.506 OA
ATOM     27  H   UNL     1      -6.436   6.212 -14.123  1.00  0.00     0.293 HD
ENDBRANCH  22  26
ENDBRANCH  18  19
ENDBRANCH  17  18
BRANCH  17  28
ATOM     28  O   UNL     1      -7.649   5.337  -7.771  1.00  0.00    -0.383 OA
ATOM     29  H   UNL     1      -7.541   4.359  -7.786  1.00  0.00     0.211 HD
ENDBRANCH  17  28
ENDBRANCH  14  17
ENDBRANCH  12  13
BRANCH  12  30
ATOM     30  C   UNL     1     -12.717   7.148  -5.675  1.00  0.00     0.018 C 
ATOM     31  C   UNL     1     -13.568   6.016  -5.079  1.00  0.00     0.010 C 
BRANCH  30  32
ATOM     32  C   UNL     1     -12.952   7.244  -7.202  1.00  0.00     0.002 C 
ATOM     33  C   UNL     1     -13.813   6.138  -7.798  1.00  0.00     0.004 C 
ENDBRANCH  30  32
ENDBRANCH  12  30
ENDBRANCH  10  12
ENDBRANCH   1  10
BRANCH   5  34
ATOM     34  C   UNL     1      -7.975   9.275  -5.958  1.00  0.00     0.242 C 
ATOM     35  O   UNL     1      -7.728   8.175  -6.451  1.00  0.00    -0.273 OA
ATOM     36  N   UNL     1      -7.714  10.456  -6.617  1.00  0.00    -0.354 N 
ATOM     37  H   UNL     1      -7.826  11.336  -6.111  1.00  0.00     0.163 HD
BRANCH  36  38
ATOM     38  C   UNL     1      -7.385  10.499  -8.026  1.00  0.00     0.116 C 
BRANCH  38  39
ATOM     39  C   UNL     1      -5.894  10.777  -8.203  1.00  0.00     0.023 C 
BRANCH  39  40
ATOM     40  C   UNL     1      -5.264   9.911  -9.289  1.00  0.00     0.026 C 
BRANCH  40  41
ATOM     41  C   UNL     1      -4.004   9.221  -8.767  1.00  0.00     0.146 C 
BRANCH  41  42
ATOM     42  N   UNL     1      -4.215   8.783  -7.394  1.00  0.00    -0.254 NA
ATOM     43  C   UNL     1      -4.558   7.572  -7.162  1.00  0.00     0.185 C 
ATOM     44  N   UNL     1      -4.776   6.555  -8.015  1.00  0.00    -0.370 N 
ATOM     45  N   UNL     1      -4.752   7.189  -5.889  1.00  0.00    -0.370 N 
ATOM     46  H   UNL     1      -5.274   5.733  -7.718  1.00  0.00     0.159 HD
ATOM     47  H   UNL     1      -4.661   6.667  -9.018  1.00  0.00     0.159 HD
ATOM     48  H   UNL     1      -4.600   7.894  -5.180  1.00  0.00     0.159 HD
ATOM     49  H   UNL     1      -4.787   6.224  -5.610  1.00  0.00     0.159 HD
ENDBRANCH  41  42
ENDBRANCH  40  41
ENDBRANCH  39  40
ENDBRANCH  38  39
ENDBRANCH  36  38
ENDBRANCH   5  34
BRANCH   8  50
ATOM     50  O   UNL     1      -6.183   5.246  -4.197  1.00  0.00    -0.245 OA
BRANCH  50  51
ATOM     51  S   UNL     1      -5.925   3.872  -5.027  1.00  0.00     0.397 S 
ATOM     52  O   UNL     1      -5.497   2.858  -4.090  1.00  0.00    -0.169 OA
ATOM     53  O   UNL     1      -5.169   4.165  -6.228  1.00  0.00    -0.169 OA
BRANCH  51  54
ATOM     54  O   UNL     1      -7.415   3.460  -5.467  1.00  0.00    -0.264 OA
ATOM     55  H   UNL     1      -8.014   3.661  -4.719  1.00  0.00     0.236 HD
ENDBRANCH  51  54
ENDBRANCH  50  51
ENDBRANCH   8  50
TORSDOF 19
ENDMDL
MODEL 35
REMARK VINA RESULT:    -5.632      3.592      6.941
REMARK INTER + INTRA:         -14.907
REMARK INTER:                 -11.885
REMARK INTRA:                  -3.023
REMARK UNBOUND:                -3.513
REMARK SMILES CC[C@@H](C)[C@@H](NC(=O)[C@@H](O)Cc1ccc(O)c(Cl)c1)C(=O)N1[C@H](C(=O)NCCCCN=C(N)N)C[C@H]2CC[C@H](OS(=O)(=O)O)C[C@@H]21
REMARK SMILES IDX 22 1 36 2 46 3 35 4 23 5 45 6 37 7 39 8 38 9 20 10 21 11
REMARK SMILES IDX 5 12 6 13 7 14 8 15 9 17 11 18 12 19 17 20 19 21 15 22 14 23
REMARK SMILES IDX 13 24 18 25 16 26 10 28 3 30 4 31 2 32 1 33 24 34 25 35
REMARK SMILES IDX 26 36 27 38 28 39 29 40 30 41 31 42 32 43 33 44 34 45 40 50
REMARK SMILES IDX 41 51 42 52 43 53 44 54
REMARK H PARENT 6 16 16 27 10 29 26 37 33 46 33 47 34 48 34 49 44 55
ROOT
ATOM      1  N   UNL     1       4.663   3.894  -6.591  1.00  0.00    -0.326 N 
ATOM      2  C   UNL     1       4.722   2.976  -4.425  1.00  0.00     0.014 C 
ATOM      3  C   UNL     1       4.752   4.304  -5.187  1.00  0.00     0.091 C 
ATOM      4  C   UNL     1       5.473   2.038  -5.357  1.00  0.00     0.041 C 
ATOM      5  C   UNL     1       4.836   2.425  -6.704  1.00  0.00     0.175 C 
ATOM      6  C   UNL     1       3.657   5.208  -4.625  1.00  0.00     0.059 C 
ATOM      7  C   UNL     1       5.211   3.157  -3.001  1.00  0.00     0.008 C 
ATOM      8  C   UNL     1       3.380   4.988  -3.122  1.00  0.00     0.143 C 
ATOM      9  C   UNL     1       4.614   4.438  -2.380  1.00  0.00     0.034 C 
ENDROOT
BRANCH   1  10
ATOM     10  C   UNL     1       4.665   4.664  -7.742  1.00  0.00     0.246 C 
ATOM     11  O   UNL     1       3.586   4.985  -8.252  1.00  0.00    -0.272 OA
BRANCH  10  12
ATOM     12  C   UNL     1       6.018   5.144  -8.342  1.00  0.00     0.174 C 
BRANCH  12  13
ATOM     13  N   UNL     1       6.804   3.992  -8.783  1.00  0.00    -0.342 N 
ATOM     14  C   UNL     1       6.660   3.354  -9.994  1.00  0.00     0.249 C 
ATOM     15  O   UNL     1       5.866   3.703 -10.859  1.00  0.00    -0.272 OA
ATOM     16  H   UNL     1       7.389   3.496  -8.115  1.00  0.00     0.164 HD
BRANCH  14  17
ATOM     17  C   UNL     1       7.625   2.160 -10.157  1.00  0.00     0.207 C 
BRANCH  17  18
ATOM     18  C   UNL     1       7.360   1.434 -11.480  1.00  0.00     0.077 C 
BRANCH  18  19
ATOM     19  C   UNL     1       6.541   0.179 -11.277  1.00  0.00    -0.043 A 
ATOM     20  C   UNL     1       6.306  -2.229 -11.450  1.00  0.00     0.083 A 
ATOM     21  C   UNL     1       7.081  -1.078 -11.590  1.00  0.00     0.028 A 
ATOM     22  C   UNL     1       4.989  -2.133 -10.998  1.00  0.00     0.134 A 
ATOM     23  C   UNL     1       4.441  -0.895 -10.685  1.00  0.00     0.048 A 
ATOM     24  C   UNL     1       5.214   0.260 -10.826  1.00  0.00     0.008 A 
ATOM     25  Cl  UNL     1       6.987  -3.765 -11.839  1.00  0.00    -0.080 Cl
BRANCH  22  26
ATOM     26  O   UNL     1       4.186  -3.233 -10.854  1.00  0.00    -0.506 OA
ATOM     27  H   UNL     1       3.416  -3.095 -11.436  1.00  0.00     0.293 HD
ENDBRANCH  22  26
ENDBRANCH  18  19
ENDBRANCH  17  18
BRANCH  17  28
ATOM     28  O   UNL     1       7.488   1.232  -9.068  1.00  0.00    -0.383 OA
ATOM     29  H   UNL     1       7.294   0.359  -9.478  1.00  0.00     0.211 HD
ENDBRANCH  17  28
ENDBRANCH  14  17
ENDBRANCH  12  13
BRANCH  12  30
ATOM     30  C   UNL     1       6.809   6.066  -7.376  1.00  0.00     0.018 C 
ATOM     31  C   UNL     1       6.006   7.336  -7.053  1.00  0.00     0.010 C 
BRANCH  30  32
ATOM     32  C   UNL     1       8.218   6.446  -7.894  1.00  0.00     0.002 C 
ATOM     33  C   UNL     1       8.979   7.449  -7.036  1.00  0.00     0.004 C 
ENDBRANCH  30  32
ENDBRANCH  12  30
ENDBRANCH  10  12
ENDBRANCH   1  10
BRANCH   5  34
ATOM     34  C   UNL     1       3.467   1.724  -6.912  1.00  0.00     0.242 C 
ATOM     35  O   UNL     1       3.263   0.940  -7.839  1.00  0.00    -0.273 OA
ATOM     36  N   UNL     1       2.483   2.084  -6.019  1.00  0.00    -0.354 N 
ATOM     37  H   UNL     1       2.677   2.828  -5.347  1.00  0.00     0.163 HD
BRANCH  36  38
ATOM     38  C   UNL     1       1.222   1.377  -5.931  1.00  0.00     0.116 C 
BRANCH  38  39
ATOM     39  C   UNL     1       0.095   2.260  -6.460  1.00  0.00     0.023 C 
BRANCH  39  40
ATOM     40  C   UNL     1      -0.510   1.722  -7.752  1.00  0.00     0.026 C 
BRANCH  40  41
ATOM     41  C   UNL     1      -0.246   2.679  -8.914  1.00  0.00     0.146 C 
BRANCH  41  42
ATOM     42  N   UNL     1       1.024   2.349  -9.546  1.00  0.00    -0.254 NA
ATOM     43  C   UNL     1       1.691   3.264 -10.143  1.00  0.00     0.185 C 
ATOM     44  N   UNL     1       1.413   4.571 -10.306  1.00  0.00    -0.370 N 
ATOM     45  N   UNL     1       2.858   2.939 -10.723  1.00  0.00    -0.370 N 
ATOM     46  H   UNL     1       1.897   5.115 -11.000  1.00  0.00     0.159 HD
ATOM     47  H   UNL     1       0.573   4.990  -9.918  1.00  0.00     0.159 HD
ATOM     48  H   UNL     1       3.146   1.973 -10.639  1.00  0.00     0.159 HD
ATOM     49  H   UNL     1       3.539   3.624 -10.996  1.00  0.00     0.159 HD
ENDBRANCH  41  42
ENDBRANCH  40  41
ENDBRANCH  39  40
ENDBRANCH  38  39
ENDBRANCH  36  38
ENDBRANCH   5  34
BRANCH   8  50
ATOM     50  O   UNL     1       2.301   4.068  -2.951  1.00  0.00    -0.245 OA
BRANCH  50  51
ATOM     51  S   UNL     1       0.904   4.582  -2.295  1.00  0.00     0.397 S 
ATOM     52  O   UNL     1      -0.181   3.911  -2.974  1.00  0.00    -0.169 OA
ATOM     53  O   UNL     1       0.935   6.023  -2.151  1.00  0.00    -0.169 OA
BRANCH  51  54
ATOM     54  O   UNL     1       0.967   3.936  -0.824  1.00  0.00    -0.264 OA
ATOM     55  H   UNL     1       1.891   4.003  -0.508  1.00  0.00     0.236 HD
ENDBRANCH  51  54
ENDBRANCH  50  51
ENDBRANCH   8  50
TORSDOF 19
ENDMDL
MODEL 36
REMARK VINA RESULT:    -5.624      4.677      9.640
REMARK INTER + INTRA:         -14.892
REMARK INTER:                 -12.187
REMARK INTRA:                  -2.704
REMARK UNBOUND:                -3.513
REMARK SMILES CC[C@@H](C)[C@@H](NC(=O)[C@@H](O)Cc1ccc(O)c(Cl)c1)C(=O)N1[C@H](C(=O)NCCCCN=C(N)N)C[C@H]2CC[C@H](OS(=O)(=O)O)C[C@@H]21
REMARK SMILES IDX 22 1 36 2 46 3 35 4 23 5 45 6 37 7 39 8 38 9 20 10 21 11
REMARK SMILES IDX 5 12 6 13 7 14 8 15 9 17 11 18 12 19 17 20 19 21 15 22 14 23
REMARK SMILES IDX 13 24 18 25 16 26 10 28 3 30 4 31 2 32 1 33 24 34 25 35
REMARK SMILES IDX 26 36 27 38 28 39 29 40 30 41 31 42 32 43 33 44 34 45 40 50
REMARK SMILES IDX 41 51 42 52 43 53 44 54
REMARK H PARENT 6 16 16 27 10 29 26 37 33 46 33 47 34 48 34 49 44 55
ROOT
ATOM      1  N   UNL     1       2.311   1.794  -7.136  1.00  0.00    -0.326 N 
ATOM      2  C   UNL     1       1.807   0.755  -5.085  1.00  0.00     0.014 C 
ATOM      3  C   UNL     1       2.774   1.741  -5.746  1.00  0.00     0.091 C 
ATOM      4  C   UNL     1       1.528  -0.240  -6.200  1.00  0.00     0.041 C 
ATOM      5  C   UNL     1       1.311   0.726  -7.379  1.00  0.00     0.175 C 
ATOM      6  C   UNL     1       2.776   3.035  -4.934  1.00  0.00     0.059 C 
ATOM      7  C   UNL     1       2.360   0.257  -3.764  1.00  0.00     0.008 C 
ATOM      8  C   UNL     1       2.532   2.821  -3.424  1.00  0.00     0.143 C 
ATOM      9  C   UNL     1       2.977   1.420  -2.959  1.00  0.00     0.034 C 
ENDROOT
BRANCH   1  10
ATOM     10  C   UNL     1       2.813   2.506  -8.212  1.00  0.00     0.246 C 
ATOM     11  O   UNL     1       3.046   3.712  -8.079  1.00  0.00    -0.272 OA
BRANCH  10  12
ATOM     12  C   UNL     1       3.113   1.767  -9.549  1.00  0.00     0.174 C 
BRANCH  12  13
ATOM     13  N   UNL     1       4.558   1.690  -9.763  1.00  0.00    -0.342 N 
ATOM     14  C   UNL     1       5.216   0.628 -10.341  1.00  0.00     0.249 C 
ATOM     15  O   UNL     1       4.652  -0.371 -10.771  1.00  0.00    -0.272 OA
ATOM     16  H   UNL     1       5.169   2.371  -9.319  1.00  0.00     0.164 HD
BRANCH  14  17
ATOM     17  C   UNL     1       6.743   0.840 -10.410  1.00  0.00     0.207 C 
BRANCH  17  18
ATOM     18  C   UNL     1       7.344   0.031 -11.564  1.00  0.00     0.077 C 
BRANCH  18  19
ATOM     19  C   UNL     1       7.967   0.925 -12.613  1.00  0.00    -0.043 A 
ATOM     20  C   UNL     1       9.397   1.213 -14.550  1.00  0.00     0.083 A 
ATOM     21  C   UNL     1       8.785   0.379 -13.614  1.00  0.00     0.028 A 
ATOM     22  C   UNL     1       9.199   2.593 -14.492  1.00  0.00     0.134 A 
ATOM     23  C   UNL     1       8.391   3.147 -13.506  1.00  0.00     0.048 A 
ATOM     24  C   UNL     1       7.778   2.315 -12.566  1.00  0.00     0.008 A 
ATOM     25  Cl  UNL     1      10.399   0.523 -15.773  1.00  0.00    -0.080 Cl
BRANCH  22  26
ATOM     26  O   UNL     1       9.787   3.451 -15.382  1.00  0.00    -0.506 OA
ATOM     27  H   UNL     1       9.716   4.345 -14.998  1.00  0.00     0.293 HD
ENDBRANCH  22  26
ENDBRANCH  18  19
ENDBRANCH  17  18
BRANCH  17  28
ATOM     28  O   UNL     1       7.375   0.455  -9.179  1.00  0.00    -0.383 OA
ATOM     29  H   UNL     1       6.665   0.066  -8.619  1.00  0.00     0.211 HD
ENDBRANCH  17  28
ENDBRANCH  14  17
ENDBRANCH  12  13
BRANCH  12  30
ATOM     30  C   UNL     1       2.367   2.389 -10.759  1.00  0.00     0.018 C 
ATOM     31  C   UNL     1       3.189   3.528 -11.381  1.00  0.00     0.010 C 
BRANCH  30  32
ATOM     32  C   UNL     1       0.940   2.886 -10.421  1.00  0.00     0.002 C 
ATOM     33  C   UNL     1       0.678   4.358 -10.711  1.00  0.00     0.004 C 
ENDBRANCH  30  32
ENDBRANCH  12  30
ENDBRANCH  10  12
ENDBRANCH   1  10
BRANCH   5  34
ATOM     34  C   UNL     1      -0.128   1.309  -7.383  1.00  0.00     0.242 C 
ATOM     35  O   UNL     1      -1.090   0.684  -7.828  1.00  0.00    -0.273 OA
ATOM     36  N   UNL     1      -0.239   2.595  -6.903  1.00  0.00    -0.354 N 
ATOM     37  H   UNL     1       0.611   3.104  -6.660  1.00  0.00     0.163 HD
BRANCH  36  38
ATOM     38  C   UNL     1      -1.522   3.211  -6.634  1.00  0.00     0.116 C 
BRANCH  38  39
ATOM     39  C   UNL     1      -2.107   2.648  -5.341  1.00  0.00     0.023 C 
BRANCH  39  40
ATOM     40  C   UNL     1      -3.600   2.360  -5.454  1.00  0.00     0.026 C 
BRANCH  40  41
ATOM     41  C   UNL     1      -4.345   2.865  -4.218  1.00  0.00     0.146 C 
BRANCH  41  42
ATOM     42  N   UNL     1      -3.401   3.082  -3.129  1.00  0.00    -0.254 NA
ATOM     43  C   UNL     1      -3.765   3.751  -2.100  1.00  0.00     0.185 C 
ATOM     44  N   UNL     1      -4.945   4.332  -1.819  1.00  0.00    -0.370 N 
ATOM     45  N   UNL     1      -2.879   3.943  -1.109  1.00  0.00    -0.370 N 
ATOM     46  H   UNL     1      -5.015   5.027  -1.095  1.00  0.00     0.159 HD
ATOM     47  H   UNL     1      -5.734   4.273  -2.456  1.00  0.00     0.159 HD
ATOM     48  H   UNL     1      -1.966   3.529  -1.238  1.00  0.00     0.159 HD
ATOM     49  H   UNL     1      -3.149   4.241  -0.189  1.00  0.00     0.159 HD
ENDBRANCH  41  42
ENDBRANCH  40  41
ENDBRANCH  39  40
ENDBRANCH  38  39
ENDBRANCH  36  38
ENDBRANCH   5  34
BRANCH   8  50
ATOM     50  O   UNL     1       1.145   2.980  -3.124  1.00  0.00    -0.245 OA
BRANCH  50  51
ATOM     51  S   UNL     1       0.663   4.219  -2.187  1.00  0.00     0.397 S 
ATOM     52  O   UNL     1       1.668   5.254  -2.264  1.00  0.00    -0.169 OA
ATOM     53  O   UNL     1       0.190   3.711  -0.916  1.00  0.00    -0.169 OA
BRANCH  51  54
ATOM     54  O   UNL     1      -0.606   4.780  -2.999  1.00  0.00    -0.264 OA
ATOM     55  H   UNL     1      -1.072   4.013  -3.392  1.00  0.00     0.236 HD
ENDBRANCH  51  54
ENDBRANCH  50  51
ENDBRANCH   8  50
TORSDOF 19
ENDMDL
MODEL 37
REMARK VINA RESULT:    -5.612      8.030     11.214
REMARK INTER + INTRA:         -14.866
REMARK INTER:                 -11.685
REMARK INTRA:                  -3.182
REMARK UNBOUND:                -3.513
REMARK SMILES CC[C@@H](C)[C@@H](NC(=O)[C@@H](O)Cc1ccc(O)c(Cl)c1)C(=O)N1[C@H](C(=O)NCCCCN=C(N)N)C[C@H]2CC[C@H](OS(=O)(=O)O)C[C@@H]21
REMARK SMILES IDX 22 1 36 2 46 3 35 4 23 5 45 6 37 7 39 8 38 9 20 10 21 11
REMARK SMILES IDX 5 12 6 13 7 14 8 15 9 17 11 18 12 19 17 20 19 21 15 22 14 23
REMARK SMILES IDX 13 24 18 25 16 26 10 28 3 30 4 31 2 32 1 33 24 34 25 35
REMARK SMILES IDX 26 36 27 38 28 39 29 40 30 41 31 42 32 43 33 44 34 45 40 50
REMARK SMILES IDX 41 51 42 52 43 53 44 54
REMARK H PARENT 6 16 16 27 10 29 26 37 33 46 33 47 34 48 34 49 44 55
ROOT
ATOM      1  N   UNL     1      -1.796   7.317   1.025  1.00  0.00    -0.326 N 
ATOM      2  C   UNL     1      -1.054   5.987   2.820  1.00  0.00     0.014 C 
ATOM      3  C   UNL     1      -1.709   7.331   2.488  1.00  0.00     0.091 C 
ATOM      4  C   UNL     1      -0.100   5.782   1.654  1.00  0.00     0.041 C 
ATOM      5  C   UNL     1      -1.014   6.179   0.481  1.00  0.00     0.175 C 
ATOM      6  C   UNL     1      -3.005   7.448   3.289  1.00  0.00     0.059 C 
ATOM      7  C   UNL     1      -0.510   5.984   4.236  1.00  0.00     0.008 C 
ATOM      8  C   UNL     1      -2.956   6.735   4.658  1.00  0.00     0.143 C 
ATOM      9  C   UNL     1      -1.519   6.634   5.207  1.00  0.00     0.034 C 
ENDROOT
BRANCH   1  10
ATOM     10  C   UNL     1      -2.283   8.278   0.156  1.00  0.00     0.246 C 
ATOM     11  O   UNL     1      -1.515   8.792  -0.664  1.00  0.00    -0.272 OA
BRANCH  10  12
ATOM     12  C   UNL     1      -3.792   8.658   0.200  1.00  0.00     0.174 C 
BRANCH  12  13
ATOM     13  N   UNL     1      -4.561   7.747  -0.648  1.00  0.00    -0.342 N 
ATOM     14  C   UNL     1      -5.640   7.000  -0.231  1.00  0.00     0.249 C 
ATOM     15  O   UNL     1      -6.097   7.038   0.905  1.00  0.00    -0.272 OA
ATOM     16  H   UNL     1      -4.206   7.494  -1.566  1.00  0.00     0.164 HD
BRANCH  14  17
ATOM     17  C   UNL     1      -6.227   6.122  -1.356  1.00  0.00     0.207 C 
BRANCH  17  18
ATOM     18  C   UNL     1      -6.429   6.949  -2.630  1.00  0.00     0.077 C 
BRANCH  18  19
ATOM     19  C   UNL     1      -5.673   6.367  -3.803  1.00  0.00    -0.043 A 
ATOM     20  C   UNL     1      -4.692   4.459  -4.935  1.00  0.00     0.083 A 
ATOM     21  C   UNL     1      -5.433   4.986  -3.877  1.00  0.00     0.028 A 
ATOM     22  C   UNL     1      -4.187   5.305  -5.923  1.00  0.00     0.134 A 
ATOM     23  C   UNL     1      -4.418   6.674  -5.863  1.00  0.00     0.048 A 
ATOM     24  C   UNL     1      -5.157   7.205  -4.803  1.00  0.00     0.008 A 
ATOM     25  Cl  UNL     1      -4.407   2.760  -5.008  1.00  0.00    -0.080 Cl
BRANCH  22  26
ATOM     26  O   UNL     1      -3.447   4.836  -6.974  1.00  0.00    -0.506 OA
ATOM     27  H   UNL     1      -3.208   3.915  -6.760  1.00  0.00     0.293 HD
ENDBRANCH  22  26
ENDBRANCH  18  19
ENDBRANCH  17  18
BRANCH  17  28
ATOM     28  O   UNL     1      -7.480   5.543  -0.959  1.00  0.00    -0.383 OA
ATOM     29  H   UNL     1      -7.523   4.662  -1.395  1.00  0.00     0.211 HD
ENDBRANCH  17  28
ENDBRANCH  14  17
ENDBRANCH  12  13
BRANCH  12  30
ATOM     30  C   UNL     1      -4.046  10.149  -0.150  1.00  0.00     0.018 C 
ATOM     31  C   UNL     1      -5.092  10.761   0.795  1.00  0.00     0.010 C 
BRANCH  30  32
ATOM     32  C   UNL     1      -4.460  10.380  -1.623  1.00  0.00     0.002 C 
ATOM     33  C   UNL     1      -5.900  10.832  -1.832  1.00  0.00     0.004 C 
ENDBRANCH  30  32
ENDBRANCH  12  30
ENDBRANCH  10  12
ENDBRANCH   1  10
BRANCH   5  34
ATOM     34  C   UNL     1      -1.953   5.014   0.068  1.00  0.00     0.242 C 
ATOM     35  O   UNL     1      -3.151   5.003   0.351  1.00  0.00    -0.273 OA
ATOM     36  N   UNL     1      -1.339   3.972  -0.589  1.00  0.00    -0.354 N 
ATOM     37  H   UNL     1      -0.323   3.984  -0.689  1.00  0.00     0.163 HD
BRANCH  36  38
ATOM     38  C   UNL     1      -2.090   2.913  -1.232  1.00  0.00     0.116 C 
BRANCH  38  39
ATOM     39  C   UNL     1      -1.422   2.530  -2.550  1.00  0.00     0.023 C 
BRANCH  39  40
ATOM     40  C   UNL     1      -0.649   1.220  -2.453  1.00  0.00     0.026 C 
BRANCH  40  41
ATOM     41  C   UNL     1       0.488   1.184  -3.474  1.00  0.00     0.146 C 
BRANCH  41  42
ATOM     42  N   UNL     1       1.421   0.117  -3.136  1.00  0.00    -0.254 NA
ATOM     43  C   UNL     1       2.605   0.410  -2.748  1.00  0.00     0.185 C 
ATOM     44  N   UNL     1       3.189   1.610  -2.582  1.00  0.00    -0.370 N 
ATOM     45  N   UNL     1       3.450  -0.589  -2.445  1.00  0.00    -0.370 N 
ATOM     46  H   UNL     1       4.189   1.688  -2.510  1.00  0.00     0.159 HD
ATOM     47  H   UNL     1       2.687   2.476  -2.754  1.00  0.00     0.159 HD
ATOM     48  H   UNL     1       3.086  -1.528  -2.535  1.00  0.00     0.159 HD
ATOM     49  H   UNL     1       4.294  -0.447  -1.918  1.00  0.00     0.159 HD
ENDBRANCH  41  42
ENDBRANCH  40  41
ENDBRANCH  39  40
ENDBRANCH  38  39
ENDBRANCH  36  38
ENDBRANCH   5  34
BRANCH   8  50
ATOM     50  O   UNL     1      -3.491   5.416   4.542  1.00  0.00    -0.245 OA
BRANCH  50  51
ATOM     51  S   UNL     1      -4.880   5.044   5.302  1.00  0.00     0.397 S 
ATOM     52  O   UNL     1      -4.936   5.804   6.529  1.00  0.00    -0.169 OA
ATOM     53  O   UNL     1      -5.072   3.608   5.288  1.00  0.00    -0.169 OA
BRANCH  51  54
ATOM     54  O   UNL     1      -5.980   5.700   4.329  1.00  0.00    -0.264 OA
ATOM     55  H   UNL     1      -6.862   5.527   4.717  1.00  0.00     0.236 HD
ENDBRANCH  51  54
ENDBRANCH  50  51
ENDBRANCH   8  50
TORSDOF 19
ENDMDL
MODEL 38
REMARK VINA RESULT:    -5.590      2.600      3.865
REMARK INTER + INTRA:         -14.822
REMARK INTER:                 -12.090
REMARK INTRA:                  -2.732
REMARK UNBOUND:                -3.513
REMARK SMILES CC[C@@H](C)[C@@H](NC(=O)[C@@H](O)Cc1ccc(O)c(Cl)c1)C(=O)N1[C@H](C(=O)NCCCCN=C(N)N)C[C@H]2CC[C@H](OS(=O)(=O)O)C[C@@H]21
REMARK SMILES IDX 22 1 36 2 46 3 35 4 23 5 45 6 37 7 39 8 38 9 20 10 21 11
REMARK SMILES IDX 5 12 6 13 7 14 8 15 9 17 11 18 12 19 17 20 19 21 15 22 14 23
REMARK SMILES IDX 13 24 18 25 16 26 10 28 3 30 4 31 2 32 1 33 24 34 25 35
REMARK SMILES IDX 26 36 27 38 28 39 29 40 30 41 31 42 32 43 33 44 34 45 40 50
REMARK SMILES IDX 41 51 42 52 43 53 44 54
REMARK H PARENT 6 16 16 27 10 29 26 37 33 46 33 47 34 48 34 49 44 55
ROOT
ATOM      1  N   UNL     1       4.026   5.174  -6.639  1.00  0.00    -0.326 N 
ATOM      2  C   UNL     1       4.956   5.558  -8.767  1.00  0.00     0.014 C 
ATOM      3  C   UNL     1       5.042   5.996  -7.302  1.00  0.00     0.091 C 
ATOM      4  C   UNL     1       3.473   5.270  -8.944  1.00  0.00     0.041 C 
ATOM      5  C   UNL     1       3.194   4.480  -7.652  1.00  0.00     0.175 C 
ATOM      6  C   UNL     1       6.493   5.864  -6.843  1.00  0.00     0.059 C 
ATOM      7  C   UNL     1       5.631   6.567  -9.675  1.00  0.00     0.008 C 
ATOM      8  C   UNL     1       7.525   6.112  -7.964  1.00  0.00     0.143 C 
ATOM      9  C   UNL     1       6.970   7.036  -9.067  1.00  0.00     0.034 C 
ENDROOT
BRANCH   1  10
ATOM     10  C   UNL     1       3.636   5.145  -5.310  1.00  0.00     0.246 C 
ATOM     11  O   UNL     1       2.591   5.714  -4.978  1.00  0.00    -0.272 OA
BRANCH  10  12
ATOM     12  C   UNL     1       4.496   4.362  -4.276  1.00  0.00     0.174 C 
BRANCH  12  13
ATOM     13  N   UNL     1       3.809   3.131  -3.886  1.00  0.00    -0.342 N 
ATOM     14  C   UNL     1       4.423   2.017  -3.359  1.00  0.00     0.249 C 
ATOM     15  O   UNL     1       5.624   1.944  -3.131  1.00  0.00    -0.272 OA
ATOM     16  H   UNL     1       2.841   2.986  -4.161  1.00  0.00     0.164 HD
BRANCH  14  17
ATOM     17  C   UNL     1       3.430   0.872  -3.067  1.00  0.00     0.207 C 
BRANCH  17  18
ATOM     18  C   UNL     1       1.988   1.388  -3.116  1.00  0.00     0.077 C 
BRANCH  18  19
ATOM     19  C   UNL     1       1.206   0.764  -4.250  1.00  0.00    -0.043 A 
ATOM     20  C   UNL     1       1.148  -0.512  -6.312  1.00  0.00     0.083 A 
ATOM     21  C   UNL     1       1.866   0.021  -5.241  1.00  0.00     0.028 A 
ATOM     22  C   UNL     1      -0.229  -0.306  -6.401  1.00  0.00     0.134 A 
ATOM     23  C   UNL     1      -0.895   0.427  -5.426  1.00  0.00     0.048 A 
ATOM     24  C   UNL     1      -0.179   0.964  -4.354  1.00  0.00     0.008 A 
ATOM     25  Cl  UNL     1       1.977  -1.422  -7.520  1.00  0.00    -0.080 Cl
BRANCH  22  26
ATOM     26  O   UNL     1      -0.973  -0.800  -7.438  1.00  0.00    -0.506 OA
ATOM     27  H   UNL     1      -0.532  -0.516  -8.260  1.00  0.00     0.293 HD
ENDBRANCH  22  26
ENDBRANCH  18  19
ENDBRANCH  17  18
BRANCH  17  28
ATOM     28  O   UNL     1       3.682   0.284  -1.781  1.00  0.00    -0.383 OA
ATOM     29  H   UNL     1       4.156   0.969  -1.257  1.00  0.00     0.211 HD
ENDBRANCH  17  28
ENDBRANCH  14  17
ENDBRANCH  12  13
BRANCH  12  30
ATOM     30  C   UNL     1       4.897   5.229  -3.052  1.00  0.00     0.018 C 
ATOM     31  C   UNL     1       3.708   5.410  -2.096  1.00  0.00     0.010 C 
BRANCH  30  32
ATOM     32  C   UNL     1       5.487   6.609  -3.434  1.00  0.00     0.002 C 
ATOM     33  C   UNL     1       6.884   6.891  -2.897  1.00  0.00     0.004 C 
ENDBRANCH  30  32
ENDBRANCH  12  30
ENDBRANCH  10  12
ENDBRANCH   1  10
BRANCH   5  34
ATOM     34  C   UNL     1       3.618   2.993  -7.788  1.00  0.00     0.242 C 
ATOM     35  O   UNL     1       3.866   2.288  -6.810  1.00  0.00    -0.273 OA
ATOM     36  N   UNL     1       3.748   2.537  -9.080  1.00  0.00    -0.354 N 
ATOM     37  H   UNL     1       3.646   3.201  -9.848  1.00  0.00     0.163 HD
BRANCH  36  38
ATOM     38  C   UNL     1       3.923   1.133  -9.391  1.00  0.00     0.116 C 
BRANCH  38  39
ATOM     39  C   UNL     1       4.839   0.981 -10.603  1.00  0.00     0.023 C 
BRANCH  39  40
ATOM     40  C   UNL     1       6.312   0.909 -10.215  1.00  0.00     0.026 C 
BRANCH  40  41
ATOM     41  C   UNL     1       6.840  -0.520 -10.353  1.00  0.00     0.146 C 
BRANCH  41  42
ATOM     42  N   UNL     1       6.496  -1.047 -11.667  1.00  0.00    -0.254 NA
ATOM     43  C   UNL     1       6.146  -2.272 -11.786  1.00  0.00     0.185 C 
ATOM     44  N   UNL     1       6.029  -3.233 -10.851  1.00  0.00    -0.370 N 
ATOM     45  N   UNL     1       5.837  -2.740 -13.006  1.00  0.00    -0.370 N 
ATOM     46  H   UNL     1       5.984  -4.203 -11.115  1.00  0.00     0.159 HD
ATOM     47  H   UNL     1       6.212  -3.047  -9.870  1.00  0.00     0.159 HD
ATOM     48  H   UNL     1       5.892  -2.077 -13.767  1.00  0.00     0.159 HD
ATOM     49  H   UNL     1       5.336  -3.599 -13.149  1.00  0.00     0.159 HD
ENDBRANCH  41  42
ENDBRANCH  40  41
ENDBRANCH  39  40
ENDBRANCH  38  39
ENDBRANCH  36  38
ENDBRANCH   5  34
BRANCH   8  50
ATOM     50  O   UNL     1       7.909   4.873  -8.561  1.00  0.00    -0.245 OA
BRANCH  50  51
ATOM     51  S   UNL     1       9.385   4.726  -9.228  1.00  0.00     0.397 S 
ATOM     52  O   UNL     1       9.717   3.320  -9.271  1.00  0.00    -0.169 OA
ATOM     53  O   UNL     1      10.282   5.701  -8.644  1.00  0.00    -0.169 OA
BRANCH  51  54
ATOM     54  O   UNL     1       9.108   5.157 -10.752  1.00  0.00    -0.264 OA
ATOM     55  H   UNL     1       8.427   4.554 -11.114  1.00  0.00     0.236 HD
ENDBRANCH  51  54
ENDBRANCH  50  51
ENDBRANCH   8  50
TORSDOF 19
ENDMDL
MODEL 39
REMARK VINA RESULT:    -5.540     11.967     16.105
REMARK INTER + INTRA:         -14.721
REMARK INTER:                 -11.571
REMARK INTRA:                  -3.150
REMARK UNBOUND:                -3.513
REMARK SMILES CC[C@@H](C)[C@@H](NC(=O)[C@@H](O)Cc1ccc(O)c(Cl)c1)C(=O)N1[C@H](C(=O)NCCCCN=C(N)N)C[C@H]2CC[C@H](OS(=O)(=O)O)C[C@@H]21
REMARK SMILES IDX 22 1 36 2 46 3 35 4 23 5 45 6 37 7 39 8 38 9 20 10 21 11
REMARK SMILES IDX 5 12 6 13 7 14 8 15 9 17 11 18 12 19 17 20 19 21 15 22 14 23
REMARK SMILES IDX 13 24 18 25 16 26 10 28 3 30 4 31 2 32 1 33 24 34 25 35
REMARK SMILES IDX 26 36 27 38 28 39 29 40 30 41 31 42 32 43 33 44 34 45 40 50
REMARK SMILES IDX 41 51 42 52 43 53 44 54
REMARK H PARENT 6 16 16 27 10 29 26 37 33 46 33 47 34 48 34 49 44 55
ROOT
ATOM      1  N   UNL     1      -9.966   7.201  -6.380  1.00  0.00    -0.326 N 
ATOM      2  C   UNL     1      -9.162   5.057  -5.832  1.00  0.00     0.014 C 
ATOM      3  C   UNL     1      -8.710   6.491  -6.121  1.00  0.00     0.091 C 
ATOM      4  C   UNL     1     -10.360   4.892  -6.754  1.00  0.00     0.041 C 
ATOM      5  C   UNL     1     -11.081   6.231  -6.507  1.00  0.00     0.175 C 
ATOM      6  C   UNL     1      -7.836   6.965  -4.961  1.00  0.00     0.059 C 
ATOM      7  C   UNL     1      -8.001   4.089  -5.942  1.00  0.00     0.008 C 
ATOM      8  C   UNL     1      -7.023   5.835  -4.293  1.00  0.00     0.143 C 
ATOM      9  C   UNL     1      -6.741   4.672  -5.266  1.00  0.00     0.034 C 
ENDROOT
BRANCH   1  10
ATOM     10  C   UNL     1     -10.183   8.526  -6.717  1.00  0.00     0.246 C 
ATOM     11  O   UNL     1     -10.747   9.268  -5.905  1.00  0.00    -0.272 OA
BRANCH  10  12
ATOM     12  C   UNL     1      -9.676   9.063  -8.087  1.00  0.00     0.174 C 
BRANCH  12  13
ATOM     13  N   UNL     1      -9.902   8.062  -9.129  1.00  0.00    -0.342 N 
ATOM     14  C   UNL     1     -11.070   7.916  -9.844  1.00  0.00     0.249 C 
ATOM     15  O   UNL     1     -12.051   8.636  -9.703  1.00  0.00    -0.272 OA
ATOM     16  H   UNL     1      -9.240   7.300  -9.247  1.00  0.00     0.164 HD
BRANCH  14  17
ATOM     17  C   UNL     1     -11.004   6.757 -10.861  1.00  0.00     0.207 C 
BRANCH  17  18
ATOM     18  C   UNL     1     -10.065   7.113 -12.018  1.00  0.00     0.077 C 
BRANCH  18  19
ATOM     19  C   UNL     1      -8.971   6.083 -12.192  1.00  0.00    -0.043 A 
ATOM     20  C   UNL     1      -7.425   4.878 -13.621  1.00  0.00     0.083 A 
ATOM     21  C   UNL     1      -8.399   5.863 -13.455  1.00  0.00     0.028 A 
ATOM     22  C   UNL     1      -7.019   4.107 -12.531  1.00  0.00     0.134 A 
ATOM     23  C   UNL     1      -7.577   4.314 -11.275  1.00  0.00     0.048 A 
ATOM     24  C   UNL     1      -8.553   5.299 -11.106  1.00  0.00     0.008 A 
ATOM     25  Cl  UNL     1      -6.734   4.622 -15.180  1.00  0.00    -0.080 Cl
BRANCH  22  26
ATOM     26  O   UNL     1      -6.075   3.123 -12.647  1.00  0.00    -0.506 OA
ATOM     27  H   UNL     1      -5.822   2.869 -11.740  1.00  0.00     0.293 HD
ENDBRANCH  22  26
ENDBRANCH  18  19
ENDBRANCH  17  18
BRANCH  17  28
ATOM     28  O   UNL     1     -12.307   6.451 -11.382  1.00  0.00    -0.383 OA
ATOM     29  H   UNL     1     -12.928   6.528 -10.623  1.00  0.00     0.211 HD
ENDBRANCH  17  28
ENDBRANCH  14  17
ENDBRANCH  12  13
BRANCH  12  30
ATOM     30  C   UNL     1      -8.200   9.541  -8.035  1.00  0.00     0.018 C 
ATOM     31  C   UNL     1      -8.120  11.075  -8.097  1.00  0.00     0.010 C 
BRANCH  30  32
ATOM     32  C   UNL     1      -7.306   8.917  -9.134  1.00  0.00     0.002 C 
ATOM     33  C   UNL     1      -6.401   7.783  -8.671  1.00  0.00     0.004 C 
ENDBRANCH  30  32
ENDBRANCH  12  30
ENDBRANCH  10  12
ENDBRANCH   1  10
BRANCH   5  34
ATOM     34  C   UNL     1     -11.928   6.193  -5.208  1.00  0.00     0.242 C 
ATOM     35  O   UNL     1     -12.012   5.186  -4.506  1.00  0.00    -0.273 OA
ATOM     36  N   UNL     1     -12.622   7.349  -4.927  1.00  0.00    -0.354 N 
ATOM     37  H   UNL     1     -12.607   8.109  -5.610  1.00  0.00     0.163 HD
BRANCH  36  38
ATOM     38  C   UNL     1     -13.284   7.565  -3.658  1.00  0.00     0.116 C 
BRANCH  38  39
ATOM     39  C   UNL     1     -12.329   8.254  -2.685  1.00  0.00     0.023 C 
BRANCH  39  40
ATOM     40  C   UNL     1     -12.280   7.561  -1.328  1.00  0.00     0.026 C 
BRANCH  40  41
ATOM     41  C   UNL     1     -13.586   6.816  -1.052  1.00  0.00     0.146 C 
BRANCH  41  42
ATOM     42  N   UNL     1     -13.503   6.136   0.234  1.00  0.00    -0.254 NA
ATOM     43  C   UNL     1     -13.417   4.860   0.271  1.00  0.00     0.185 C 
ATOM     44  N   UNL     1     -13.387   3.965  -0.734  1.00  0.00    -0.370 N 
ATOM     45  N   UNL     1     -13.346   4.252   1.466  1.00  0.00    -0.370 N 
ATOM     46  H   UNL     1     -13.564   2.991  -0.559  1.00  0.00     0.159 HD
ATOM     47  H   UNL     1     -13.418   4.255  -1.706  1.00  0.00     0.159 HD
ATOM     48  H   UNL     1     -13.355   4.855   2.277  1.00  0.00     0.159 HD
ATOM     49  H   UNL     1     -13.043   3.300   1.576  1.00  0.00     0.159 HD
ENDBRANCH  41  42
ENDBRANCH  40  41
ENDBRANCH  39  40
ENDBRANCH  38  39
ENDBRANCH  36  38
ENDBRANCH   5  34
BRANCH   8  50
ATOM     50  O   UNL     1      -7.732   5.321  -3.165  1.00  0.00    -0.245 OA
BRANCH  50  51
ATOM     51  S   UNL     1      -6.928   5.008  -1.786  1.00  0.00     0.397 S 
ATOM     52  O   UNL     1      -6.876   6.227  -1.012  1.00  0.00    -0.169 OA
ATOM     53  O   UNL     1      -5.733   4.245  -2.083  1.00  0.00    -0.169 OA
BRANCH  51  54
ATOM     54  O   UNL     1      -7.953   4.041  -1.013  1.00  0.00    -0.264 OA
ATOM     55  H   UNL     1      -8.654   3.782  -1.645  1.00  0.00     0.236 HD
ENDBRANCH  51  54
ENDBRANCH  50  51
ENDBRANCH   8  50
TORSDOF 19
ENDMDL
MODEL 40
REMARK VINA RESULT:    -5.530      3.467      8.736
REMARK INTER + INTRA:         -14.700
REMARK INTER:                 -11.579
REMARK INTRA:                  -3.121
REMARK UNBOUND:                -3.513
REMARK SMILES CC[C@@H](C)[C@@H](NC(=O)[C@@H](O)Cc1ccc(O)c(Cl)c1)C(=O)N1[C@H](C(=O)NCCCCN=C(N)N)C[C@H]2CC[C@H](OS(=O)(=O)O)C[C@@H]21
REMARK SMILES IDX 22 1 36 2 46 3 35 4 23 5 45 6 37 7 39 8 38 9 20 10 21 11
REMARK SMILES IDX 5 12 6 13 7 14 8 15 9 17 11 18 12 19 17 20 19 21 15 22 14 23
REMARK SMILES IDX 13 24 18 25 16 26 10 28 3 30 4 31 2 32 1 33 24 34 25 35
REMARK SMILES IDX 26 36 27 38 28 39 29 40 30 41 31 42 32 43 33 44 34 45 40 50
REMARK SMILES IDX 41 51 42 52 43 53 44 54
REMARK H PARENT 6 16 16 27 10 29 26 37 33 46 33 47 34 48 34 49 44 55
ROOT
ATOM      1  N   UNL     1       2.088   2.222  -8.141  1.00  0.00    -0.326 N 
ATOM      2  C   UNL     1      -0.020   1.914  -7.138  1.00  0.00     0.014 C 
ATOM      3  C   UNL     1       1.276   1.183  -7.502  1.00  0.00     0.091 C 
ATOM      4  C   UNL     1      -0.181   2.899  -8.286  1.00  0.00     0.041 C 
ATOM      5  C   UNL     1       1.261   3.428  -8.395  1.00  0.00     0.175 C 
ATOM      6  C   UNL     1       1.820   0.510  -6.243  1.00  0.00     0.059 C 
ATOM      7  C   UNL     1      -1.134   0.928  -6.843  1.00  0.00     0.008 C 
ATOM      8  C   UNL     1       0.722   0.052  -5.258  1.00  0.00     0.143 C 
ATOM      9  C   UNL     1      -0.613  -0.236  -5.974  1.00  0.00     0.034 C 
ENDROOT
BRANCH   1  10
ATOM     10  C   UNL     1       3.355   2.145  -8.692  1.00  0.00     0.246 C 
ATOM     11  O   UNL     1       4.339   2.300  -7.961  1.00  0.00    -0.272 OA
BRANCH  10  12
ATOM     12  C   UNL     1       3.515   1.822 -10.206  1.00  0.00     0.174 C 
BRANCH  12  13
ATOM     13  N   UNL     1       4.903   1.467 -10.497  1.00  0.00    -0.342 N 
ATOM     14  C   UNL     1       5.364   0.186 -10.704  1.00  0.00     0.249 C 
ATOM     15  O   UNL     1       4.647  -0.807 -10.694  1.00  0.00    -0.272 OA
ATOM     16  H   UNL     1       5.636   2.163 -10.382  1.00  0.00     0.164 HD
BRANCH  14  17
ATOM     17  C   UNL     1       6.883   0.136 -10.971  1.00  0.00     0.207 C 
BRANCH  17  18
ATOM     18  C   UNL     1       7.318   1.336 -11.818  1.00  0.00     0.077 C 
BRANCH  18  19
ATOM     19  C   UNL     1       8.172   2.302 -11.027  1.00  0.00    -0.043 A 
ATOM     20  C   UNL     1       8.374   4.049  -9.356  1.00  0.00     0.083 A 
ATOM     21  C   UNL     1       7.591   3.124 -10.049  1.00  0.00     0.028 A 
ATOM     22  C   UNL     1       9.736   4.158  -9.635  1.00  0.00     0.134 A 
ATOM     23  C   UNL     1      10.325   3.350 -10.600  1.00  0.00     0.048 A 
ATOM     24  C   UNL     1       9.544   2.425 -11.297  1.00  0.00     0.008 A 
ATOM     25  Cl  UNL     1       7.641   5.051  -8.159  1.00  0.00    -0.080 Cl
BRANCH  22  26
ATOM     26  O   UNL     1      10.541   5.057  -8.989  1.00  0.00    -0.506 OA
ATOM     27  H   UNL     1      10.590   5.848  -9.557  1.00  0.00     0.293 HD
ENDBRANCH  22  26
ENDBRANCH  18  19
ENDBRANCH  17  18
BRANCH  17  28
ATOM     28  O   UNL     1       7.250  -1.080 -11.644  1.00  0.00    -0.383 OA
ATOM     29  H   UNL     1       6.583  -1.751 -11.375  1.00  0.00     0.211 HD
ENDBRANCH  17  28
ENDBRANCH  14  17
ENDBRANCH  12  13
BRANCH  12  30
ATOM     30  C   UNL     1       2.991   2.963 -11.121  1.00  0.00     0.018 C 
ATOM     31  C   UNL     1       1.992   2.419 -12.154  1.00  0.00     0.010 C 
BRANCH  30  32
ATOM     32  C   UNL     1       4.115   3.753 -11.833  1.00  0.00     0.002 C 
ATOM     33  C   UNL     1       4.398   5.138 -11.265  1.00  0.00     0.004 C 
ENDBRANCH  30  32
ENDBRANCH  12  30
ENDBRANCH  10  12
ENDBRANCH   1  10
BRANCH   5  34
ATOM     34  C   UNL     1       1.549   4.527  -7.338  1.00  0.00     0.242 C 
ATOM     35  O   UNL     1       0.894   5.567  -7.275  1.00  0.00    -0.273 OA
ATOM     36  N   UNL     1       2.623   4.278  -6.513  1.00  0.00    -0.354 N 
ATOM     37  H   UNL     1       3.200   3.455  -6.692  1.00  0.00     0.163 HD
BRANCH  36  38
ATOM     38  C   UNL     1       2.901   5.083  -5.342  1.00  0.00     0.116 C 
BRANCH  38  39
ATOM     39  C   UNL     1       4.141   5.940  -5.584  1.00  0.00     0.023 C 
BRANCH  39  40
ATOM     40  C   UNL     1       5.366   5.415  -4.842  1.00  0.00     0.026 C 
BRANCH  40  41
ATOM     41  C   UNL     1       4.952   4.648  -3.587  1.00  0.00     0.146 C 
BRANCH  41  42
ATOM     42  N   UNL     1       4.951   5.545  -2.439  1.00  0.00    -0.254 NA
ATOM     43  C   UNL     1       3.926   5.593  -1.673  1.00  0.00     0.185 C 
ATOM     44  N   UNL     1       2.765   4.916  -1.738  1.00  0.00    -0.370 N 
ATOM     45  N   UNL     1       3.943   6.430  -0.623  1.00  0.00    -0.370 N 
ATOM     46  H   UNL     1       1.961   5.227  -1.222  1.00  0.00     0.159 HD
ATOM     47  H   UNL     1       2.589   4.229  -2.465  1.00  0.00     0.159 HD
ATOM     48  H   UNL     1       4.787   6.973  -0.496  1.00  0.00     0.159 HD
ATOM     49  H   UNL     1       3.297   6.356   0.142  1.00  0.00     0.159 HD
ENDBRANCH  41  42
ENDBRANCH  40  41
ENDBRANCH  39  40
ENDBRANCH  38  39
ENDBRANCH  36  38
ENDBRANCH   5  34
BRANCH   8  50
ATOM     50  O   UNL     1       0.499   1.058  -4.270  1.00  0.00    -0.245 OA
BRANCH  50  51
ATOM     51  S   UNL     1       1.464   1.128  -2.963  1.00  0.00     0.397 S 
ATOM     52  O   UNL     1       0.630   1.023  -1.786  1.00  0.00    -0.169 OA
ATOM     53  O   UNL     1       2.421   2.203  -3.122  1.00  0.00    -0.169 OA
BRANCH  51  54
ATOM     54  O   UNL     1       2.262  -0.265  -3.060  1.00  0.00    -0.264 OA
ATOM     55  H   UNL     1       1.740  -0.941  -2.581  1.00  0.00     0.236 HD
ENDBRANCH  51  54
ENDBRANCH  50  51
ENDBRANCH   8  50
TORSDOF 19
ENDMDL
MODEL 41
REMARK VINA RESULT:    -5.529      3.654      7.719
REMARK INTER + INTRA:         -14.698
REMARK INTER:                 -11.794
REMARK INTRA:                  -2.904
REMARK UNBOUND:                -3.513
REMARK SMILES CC[C@@H](C)[C@@H](NC(=O)[C@@H](O)Cc1ccc(O)c(Cl)c1)C(=O)N1[C@H](C(=O)NCCCCN=C(N)N)C[C@H]2CC[C@H](OS(=O)(=O)O)C[C@@H]21
REMARK SMILES IDX 22 1 36 2 46 3 35 4 23 5 45 6 37 7 39 8 38 9 20 10 21 11
REMARK SMILES IDX 5 12 6 13 7 14 8 15 9 17 11 18 12 19 17 20 19 21 15 22 14 23
REMARK SMILES IDX 13 24 18 25 16 26 10 28 3 30 4 31 2 32 1 33 24 34 25 35
REMARK SMILES IDX 26 36 27 38 28 39 29 40 30 41 31 42 32 43 33 44 34 45 40 50
REMARK SMILES IDX 41 51 42 52 43 53 44 54
REMARK H PARENT 6 16 16 27 10 29 26 37 33 46 33 47 34 48 34 49 44 55
ROOT
ATOM      1  N   UNL     1       4.894   3.942  -6.794  1.00  0.00    -0.326 N 
ATOM      2  C   UNL     1       4.770   2.706  -4.794  1.00  0.00     0.014 C 
ATOM      3  C   UNL     1       4.988   4.119  -5.342  1.00  0.00     0.091 C 
ATOM      4  C   UNL     1       5.428   1.832  -5.850  1.00  0.00     0.041 C 
ATOM      5  C   UNL     1       4.887   2.497  -7.129  1.00  0.00     0.175 C 
ATOM      6  C   UNL     1       3.996   5.060  -4.661  1.00  0.00     0.059 C 
ATOM      7  C   UNL     1       5.231   2.606  -3.353  1.00  0.00     0.008 C 
ATOM      8  C   UNL     1       3.646   4.653  -3.213  1.00  0.00     0.143 C 
ATOM      9  C   UNL     1       4.778   3.844  -2.550  1.00  0.00     0.034 C 
ENDROOT
BRANCH   1  10
ATOM     10  C   UNL     1       5.028   4.870  -7.812  1.00  0.00     0.246 C 
ATOM     11  O   UNL     1       4.022   5.454  -8.229  1.00  0.00    -0.272 OA
BRANCH  10  12
ATOM     12  C   UNL     1       6.442   5.189  -8.378  1.00  0.00     0.174 C 
BRANCH  12  13
ATOM     13  N   UNL     1       7.109   3.951  -8.780  1.00  0.00    -0.342 N 
ATOM     14  C   UNL     1       7.174   3.472 -10.069  1.00  0.00     0.249 C 
ATOM     15  O   UNL     1       6.697   4.051 -11.037  1.00  0.00    -0.272 OA
ATOM     16  H   UNL     1       7.413   3.289  -8.071  1.00  0.00     0.164 HD
BRANCH  14  17
ATOM     17  C   UNL     1       7.933   2.131 -10.168  1.00  0.00     0.207 C 
BRANCH  17  18
ATOM     18  C   UNL     1       7.623   1.438 -11.499  1.00  0.00     0.077 C 
BRANCH  18  19
ATOM     19  C   UNL     1       6.725   0.235 -11.311  1.00  0.00    -0.043 A 
ATOM     20  C   UNL     1       6.354  -2.157 -11.466  1.00  0.00     0.083 A 
ATOM     21  C   UNL     1       7.200  -1.055 -11.594  1.00  0.00     0.028 A 
ATOM     22  C   UNL     1       5.031  -1.978 -11.058  1.00  0.00     0.134 A 
ATOM     23  C   UNL     1       4.548  -0.706 -10.774  1.00  0.00     0.048 A 
ATOM     24  C   UNL     1       5.392   0.399 -10.903  1.00  0.00     0.008 A 
ATOM     25  Cl  UNL     1       6.955  -3.734 -11.819  1.00  0.00    -0.080 Cl
BRANCH  22  26
ATOM     26  O   UNL     1       4.161  -3.027 -10.929  1.00  0.00    -0.506 OA
ATOM     27  H   UNL     1       3.419  -2.851 -11.536  1.00  0.00     0.293 HD
ENDBRANCH  22  26
ENDBRANCH  18  19
ENDBRANCH  17  18
BRANCH  17  28
ATOM     28  O   UNL     1       7.583   1.257  -9.083  1.00  0.00    -0.383 OA
ATOM     29  H   UNL     1       6.660   0.962  -9.258  1.00  0.00     0.211 HD
ENDBRANCH  17  28
ENDBRANCH  14  17
ENDBRANCH  12  13
BRANCH  12  30
ATOM     30  C   UNL     1       7.303   6.035  -7.401  1.00  0.00     0.018 C 
ATOM     31  C   UNL     1       6.579   7.337  -7.022  1.00  0.00     0.010 C 
BRANCH  30  32
ATOM     32  C   UNL     1       8.721   6.352  -7.936  1.00  0.00     0.002 C 
ATOM     33  C   UNL     1       8.764   7.159  -9.227  1.00  0.00     0.004 C 
ENDBRANCH  30  32
ENDBRANCH  12  30
ENDBRANCH  10  12
ENDBRANCH   1  10
BRANCH   5  34
ATOM     34  C   UNL     1       3.449   2.015  -7.460  1.00  0.00     0.242 C 
ATOM     35  O   UNL     1       3.228   0.947  -8.030  1.00  0.00    -0.273 OA
ATOM     36  N   UNL     1       2.445   2.893  -7.119  1.00  0.00    -0.354 N 
ATOM     37  H   UNL     1       2.699   3.814  -6.759  1.00  0.00     0.163 HD
BRANCH  36  38
ATOM     38  C   UNL     1       1.046   2.520  -7.156  1.00  0.00     0.116 C 
BRANCH  38  39
ATOM     39  C   UNL     1       0.697   1.693  -5.921  1.00  0.00     0.023 C 
BRANCH  39  40
ATOM     40  C   UNL     1      -0.542   0.830  -6.129  1.00  0.00     0.026 C 
BRANCH  40  41
ATOM     41  C   UNL     1      -1.358   0.733  -4.840  1.00  0.00     0.146 C 
BRANCH  41  42
ATOM     42  N   UNL     1      -1.747   2.067  -4.402  1.00  0.00    -0.254 NA
ATOM     43  C   UNL     1      -2.129   2.251  -3.195  1.00  0.00     0.185 C 
ATOM     44  N   UNL     1      -2.245   1.374  -2.181  1.00  0.00    -0.370 N 
ATOM     45  N   UNL     1      -2.488   3.487  -2.812  1.00  0.00    -0.370 N 
ATOM     46  H   UNL     1      -2.785   1.603  -1.364  1.00  0.00     0.159 HD
ATOM     47  H   UNL     1      -2.001   0.394  -2.293  1.00  0.00     0.159 HD
ATOM     48  H   UNL     1      -2.422   4.211  -3.515  1.00  0.00     0.159 HD
ATOM     49  H   UNL     1      -2.567   3.757  -1.848  1.00  0.00     0.159 HD
ENDBRANCH  41  42
ENDBRANCH  40  41
ENDBRANCH  39  40
ENDBRANCH  38  39
ENDBRANCH  36  38
ENDBRANCH   5  34
BRANCH   8  50
ATOM     50  O   UNL     1       2.457   3.863  -3.200  1.00  0.00    -0.245 OA
BRANCH  50  51
ATOM     51  S   UNL     1       1.223   4.285  -2.228  1.00  0.00     0.397 S 
ATOM     52  O   UNL     1       1.693   5.320  -1.335  1.00  0.00    -0.169 OA
ATOM     53  O   UNL     1       0.565   3.094  -1.732  1.00  0.00    -0.169 OA
BRANCH  51  54
ATOM     54  O   UNL     1       0.221   5.014  -3.254  1.00  0.00    -0.264 OA
ATOM     55  H   UNL     1      -0.081   5.845  -2.836  1.00  0.00     0.236 HD
ENDBRANCH  51  54
ENDBRANCH  50  51
ENDBRANCH   8  50
TORSDOF 19
ENDMDL
MODEL 42
REMARK VINA RESULT:    -5.504      5.796      9.188
REMARK INTER + INTRA:         -14.648
REMARK INTER:                 -11.225
REMARK INTRA:                  -3.423
REMARK UNBOUND:                -3.513
REMARK SMILES CC[C@@H](C)[C@@H](NC(=O)[C@@H](O)Cc1ccc(O)c(Cl)c1)C(=O)N1[C@H](C(=O)NCCCCN=C(N)N)C[C@H]2CC[C@H](OS(=O)(=O)O)C[C@@H]21
REMARK SMILES IDX 22 1 36 2 46 3 35 4 23 5 45 6 37 7 39 8 38 9 20 10 21 11
REMARK SMILES IDX 5 12 6 13 7 14 8 15 9 17 11 18 12 19 17 20 19 21 15 22 14 23
REMARK SMILES IDX 13 24 18 25 16 26 10 28 3 30 4 31 2 32 1 33 24 34 25 35
REMARK SMILES IDX 26 36 27 38 28 39 29 40 30 41 31 42 32 43 33 44 34 45 40 50
REMARK SMILES IDX 41 51 42 52 43 53 44 54
REMARK H PARENT 6 16 16 27 10 29 26 37 33 46 33 47 34 48 34 49 44 55
ROOT
ATOM      1  N   UNL     1      -2.456   6.607  -1.777  1.00  0.00    -0.326 N 
ATOM      2  C   UNL     1      -1.909   7.718   0.225  1.00  0.00     0.014 C 
ATOM      3  C   UNL     1      -3.087   7.145  -0.568  1.00  0.00     0.091 C 
ATOM      4  C   UNL     1      -0.987   8.234  -0.870  1.00  0.00     0.041 C 
ATOM      5  C   UNL     1      -1.042   7.050  -1.852  1.00  0.00     0.175 C 
ATOM      6  C   UNL     1      -3.856   6.184   0.336  1.00  0.00     0.059 C 
ATOM      7  C   UNL     1      -2.391   8.671   1.301  1.00  0.00     0.008 C 
ATOM      8  C   UNL     1      -3.825   6.577   1.829  1.00  0.00     0.143 C 
ATOM      9  C   UNL     1      -3.625   8.093   2.025  1.00  0.00     0.034 C 
ENDROOT
BRANCH   1  10
ATOM     10  C   UNL     1      -3.027   5.983  -2.874  1.00  0.00     0.246 C 
ATOM     11  O   UNL     1      -2.894   6.492  -3.992  1.00  0.00    -0.272 OA
BRANCH  10  12
ATOM     12  C   UNL     1      -3.784   4.637  -2.682  1.00  0.00     0.174 C 
BRANCH  12  13
ATOM     13  N   UNL     1      -2.849   3.519  -2.795  1.00  0.00    -0.342 N 
ATOM     14  C   UNL     1      -2.377   2.773  -1.738  1.00  0.00     0.249 C 
ATOM     15  O   UNL     1      -2.714   2.950  -0.574  1.00  0.00    -0.272 OA
ATOM     16  H   UNL     1      -2.363   3.355  -3.673  1.00  0.00     0.164 HD
BRANCH  14  17
ATOM     17  C   UNL     1      -1.389   1.672  -2.180  1.00  0.00     0.207 C 
BRANCH  17  18
ATOM     18  C   UNL     1      -1.740   1.171  -3.585  1.00  0.00     0.077 C 
BRANCH  18  19
ATOM     19  C   UNL     1      -0.594   1.363  -4.552  1.00  0.00    -0.043 A 
ATOM     20  C   UNL     1       1.032   0.438  -6.096  1.00  0.00     0.083 A 
ATOM     21  C   UNL     1      -0.057   0.265  -5.242  1.00  0.00     0.028 A 
ATOM     22  C   UNL     1       1.592   1.705  -6.266  1.00  0.00     0.134 A 
ATOM     23  C   UNL     1       1.069   2.802  -5.590  1.00  0.00     0.048 A 
ATOM     24  C   UNL     1      -0.020   2.631  -4.733  1.00  0.00     0.008 A 
ATOM     25  Cl  UNL     1       1.679  -0.924  -6.934  1.00  0.00    -0.080 Cl
BRANCH  22  26
ATOM     26  O   UNL     1       2.667   1.922  -7.085  1.00  0.00    -0.506 OA
ATOM     27  H   UNL     1       3.145   1.075  -7.151  1.00  0.00     0.293 HD
ENDBRANCH  22  26
ENDBRANCH  18  19
ENDBRANCH  17  18
BRANCH  17  28
ATOM     28  O   UNL     1      -1.402   0.567  -1.262  1.00  0.00    -0.383 OA
ATOM     29  H   UNL     1      -1.338  -0.245  -1.814  1.00  0.00     0.211 HD
ENDBRANCH  17  28
ENDBRANCH  14  17
ENDBRANCH  12  13
BRANCH  12  30
ATOM     30  C   UNL     1      -5.001   4.492  -3.636  1.00  0.00     0.018 C 
ATOM     31  C   UNL     1      -6.112   5.483  -3.258  1.00  0.00     0.010 C 
BRANCH  30  32
ATOM     32  C   UNL     1      -5.570   3.054  -3.702  1.00  0.00     0.002 C 
ATOM     33  C   UNL     1      -6.291   2.698  -4.996  1.00  0.00     0.004 C 
ENDBRANCH  30  32
ENDBRANCH  12  30
ENDBRANCH  10  12
ENDBRANCH   1  10
BRANCH   5  34
ATOM     34  C   UNL     1      -0.084   5.906  -1.424  1.00  0.00     0.242 C 
ATOM     35  O   UNL     1      -0.274   5.234  -0.410  1.00  0.00    -0.273 OA
ATOM     36  N   UNL     1       1.019   5.733  -2.230  1.00  0.00    -0.354 N 
ATOM     37  H   UNL     1       1.184   6.398  -2.986  1.00  0.00     0.163 HD
BRANCH  36  38
ATOM     38  C   UNL     1       1.895   4.587  -2.106  1.00  0.00     0.116 C 
BRANCH  38  39
ATOM     39  C   UNL     1       3.131   4.782  -2.981  1.00  0.00     0.023 C 
BRANCH  39  40
ATOM     40  C   UNL     1       4.206   3.734  -2.713  1.00  0.00     0.026 C 
BRANCH  40  41
ATOM     41  C   UNL     1       4.135   2.608  -3.744  1.00  0.00     0.146 C 
BRANCH  41  42
ATOM     42  N   UNL     1       4.488   1.342  -3.115  1.00  0.00    -0.254 NA
ATOM     43  C   UNL     1       3.574   0.625  -2.578  1.00  0.00     0.185 C 
ATOM     44  N   UNL     1       2.249   0.841  -2.481  1.00  0.00    -0.370 N 
ATOM     45  N   UNL     1       3.921  -0.537  -1.999  1.00  0.00    -0.370 N 
ATOM     46  H   UNL     1       1.691   0.321  -1.826  1.00  0.00     0.159 HD
ATOM     47  H   UNL     1       1.814   1.668  -2.878  1.00  0.00     0.159 HD
ATOM     48  H   UNL     1       4.901  -0.780  -2.036  1.00  0.00     0.159 HD
ATOM     49  H   UNL     1       3.253  -1.253  -1.774  1.00  0.00     0.159 HD
ENDBRANCH  41  42
ENDBRANCH  40  41
ENDBRANCH  39  40
ENDBRANCH  38  39
ENDBRANCH  36  38
ENDBRANCH   5  34
BRANCH   8  50
ATOM     50  O   UNL     1      -2.765   5.890   2.495  1.00  0.00    -0.245 OA
BRANCH  50  51
ATOM     51  S   UNL     1      -3.117   4.753   3.604  1.00  0.00     0.397 S 
ATOM     52  O   UNL     1      -2.407   5.081   4.819  1.00  0.00    -0.169 OA
ATOM     53  O   UNL     1      -3.024   3.440   3.000  1.00  0.00    -0.169 OA
BRANCH  51  54
ATOM     54  O   UNL     1      -4.667   5.050   3.908  1.00  0.00    -0.264 OA
ATOM     55  H   UNL     1      -5.097   5.293   3.063  1.00  0.00     0.236 HD
ENDBRANCH  51  54
ENDBRANCH  50  51
ENDBRANCH   8  50
TORSDOF 19
ENDMDL
MODEL 43
REMARK VINA RESULT:    -5.460     12.258     15.974
REMARK INTER + INTRA:         -14.558
REMARK INTER:                 -10.046
REMARK INTRA:                  -4.512
REMARK UNBOUND:                -3.513
REMARK SMILES CC[C@@H](C)[C@@H](NC(=O)[C@@H](O)Cc1ccc(O)c(Cl)c1)C(=O)N1[C@H](C(=O)NCCCCN=C(N)N)C[C@H]2CC[C@H](OS(=O)(=O)O)C[C@@H]21
REMARK SMILES IDX 22 1 36 2 46 3 35 4 23 5 45 6 37 7 39 8 38 9 20 10 21 11
REMARK SMILES IDX 5 12 6 13 7 14 8 15 9 17 11 18 12 19 17 20 19 21 15 22 14 23
REMARK SMILES IDX 13 24 18 25 16 26 10 28 3 30 4 31 2 32 1 33 24 34 25 35
REMARK SMILES IDX 26 36 27 38 28 39 29 40 30 41 31 42 32 43 33 44 34 45 40 50
REMARK SMILES IDX 41 51 42 52 43 53 44 54
REMARK H PARENT 6 16 16 27 10 29 26 37 33 46 33 47 34 48 34 49 44 55
ROOT
ATOM      1  N   UNL     1     -11.604   6.782  -7.144  1.00  0.00    -0.326 N 
ATOM      2  C   UNL     1     -13.696   5.798  -6.696  1.00  0.00     0.014 C 
ATOM      3  C   UNL     1     -12.191   5.612  -6.484  1.00  0.00     0.091 C 
ATOM      4  C   UNL     1     -13.763   6.447  -8.070  1.00  0.00     0.041 C 
ATOM      5  C   UNL     1     -12.641   7.493  -7.933  1.00  0.00     0.175 C 
ATOM      6  C   UNL     1     -11.933   5.418  -4.991  1.00  0.00     0.059 C 
ATOM      7  C   UNL     1     -14.443   4.503  -6.448  1.00  0.00     0.008 C 
ATOM      8  C   UNL     1     -13.086   4.708  -4.248  1.00  0.00     0.143 C 
ATOM      9  C   UNL     1     -13.904   3.797  -5.185  1.00  0.00     0.034 C 
ENDROOT
BRANCH   1  10
ATOM     10  C   UNL     1     -10.277   7.144  -7.294  1.00  0.00     0.246 C 
ATOM     11  O   UNL     1     -10.004   8.288  -7.672  1.00  0.00    -0.272 OA
BRANCH  10  12
ATOM     12  C   UNL     1      -9.158   6.120  -6.944  1.00  0.00     0.174 C 
BRANCH  12  13
ATOM     13  N   UNL     1      -8.364   6.614  -5.820  1.00  0.00    -0.342 N 
ATOM     14  C   UNL     1      -8.174   5.944  -4.632  1.00  0.00     0.249 C 
ATOM     15  O   UNL     1      -8.633   4.833  -4.394  1.00  0.00    -0.272 OA
ATOM     16  H   UNL     1      -8.054   7.582  -5.809  1.00  0.00     0.164 HD
BRANCH  14  17
ATOM     17  C   UNL     1      -7.300   6.735  -3.635  1.00  0.00     0.207 C 
BRANCH  17  18
ATOM     18  C   UNL     1      -6.128   5.876  -3.152  1.00  0.00     0.077 C 
BRANCH  18  19
ATOM     19  C   UNL     1      -5.172   5.545  -4.276  1.00  0.00    -0.043 A 
ATOM     20  C   UNL     1      -3.944   3.908  -5.579  1.00  0.00     0.083 A 
ATOM     21  C   UNL     1      -4.864   4.208  -4.574  1.00  0.00     0.028 A 
ATOM     22  C   UNL     1      -3.327   4.938  -6.291  1.00  0.00     0.134 A 
ATOM     23  C   UNL     1      -3.623   6.266  -6.007  1.00  0.00     0.048 A 
ATOM     24  C   UNL     1      -4.542   6.569  -4.999  1.00  0.00     0.008 A 
ATOM     25  Cl  UNL     1      -3.579   2.260  -5.930  1.00  0.00    -0.080 Cl
BRANCH  22  26
ATOM     26  O   UNL     1      -2.411   4.693  -7.278  1.00  0.00    -0.506 OA
ATOM     27  H   UNL     1      -1.782   4.039  -6.920  1.00  0.00     0.293 HD
ENDBRANCH  22  26
ENDBRANCH  18  19
ENDBRANCH  17  18
BRANCH  17  28
ATOM     28  O   UNL     1      -8.071   7.170  -2.503  1.00  0.00    -0.383 OA
ATOM     29  H   UNL     1      -8.655   6.414  -2.265  1.00  0.00     0.211 HD
ENDBRANCH  17  28
ENDBRANCH  14  17
ENDBRANCH  12  13
BRANCH  12  30
ATOM     30  C   UNL     1      -8.281   5.746  -8.170  1.00  0.00     0.018 C 
ATOM     31  C   UNL     1      -7.108   6.727  -8.321  1.00  0.00     0.010 C 
BRANCH  30  32
ATOM     32  C   UNL     1      -9.074   5.657  -9.496  1.00  0.00     0.002 C 
ATOM     33  C   UNL     1      -9.927   4.406  -9.662  1.00  0.00     0.004 C 
ENDBRANCH  30  32
ENDBRANCH  12  30
ENDBRANCH  10  12
ENDBRANCH   1  10
BRANCH   5  34
ATOM     34  C   UNL     1     -13.130   8.760  -7.182  1.00  0.00     0.242 C 
ATOM     35  O   UNL     1     -13.961   9.530  -7.663  1.00  0.00    -0.273 OA
ATOM     36  N   UNL     1     -12.527   8.990  -5.966  1.00  0.00    -0.354 N 
ATOM     37  H   UNL     1     -11.759   8.383  -5.675  1.00  0.00     0.163 HD
BRANCH  36  38
ATOM     38  C   UNL     1     -13.009   9.995  -5.041  1.00  0.00     0.116 C 
BRANCH  38  39
ATOM     39  C   UNL     1     -13.022   9.430  -3.623  1.00  0.00     0.023 C 
BRANCH  39  40
ATOM     40  C   UNL     1     -11.786   8.591  -3.318  1.00  0.00     0.026 C 
BRANCH  40  41
ATOM     41  C   UNL     1     -10.567   9.484  -3.091  1.00  0.00     0.146 C 
BRANCH  41  42
ATOM     42  N   UNL     1      -9.643   9.350  -4.210  1.00  0.00    -0.254 NA
ATOM     43  C   UNL     1      -9.364  10.374  -4.926  1.00  0.00     0.185 C 
ATOM     44  N   UNL     1      -9.797  11.644  -4.827  1.00  0.00    -0.370 N 
ATOM     45  N   UNL     1      -8.513  10.228  -5.956  1.00  0.00    -0.370 N 
ATOM     46  H   UNL     1      -9.690  12.283  -5.596  1.00  0.00     0.159 HD
ATOM     47  H   UNL     1     -10.437  11.933  -4.094  1.00  0.00     0.159 HD
ATOM     48  H   UNL     1      -8.132   9.302  -6.095  1.00  0.00     0.159 HD
ATOM     49  H   UNL     1      -8.067  11.007  -6.406  1.00  0.00     0.159 HD
ENDBRANCH  41  42
ENDBRANCH  40  41
ENDBRANCH  39  40
ENDBRANCH  38  39
ENDBRANCH  36  38
ENDBRANCH   5  34
BRANCH   8  50
ATOM     50  O   UNL     1     -13.967   5.674  -3.673  1.00  0.00    -0.245 OA
BRANCH  50  51
ATOM     51  S   UNL     1     -14.255   5.645  -2.072  1.00  0.00     0.397 S 
ATOM     52  O   UNL     1     -12.981   5.650  -1.389  1.00  0.00    -0.169 OA
ATOM     53  O   UNL     1     -15.270   4.654  -1.779  1.00  0.00    -0.169 OA
BRANCH  51  54
ATOM     54  O   UNL     1     -14.893   7.098  -1.819  1.00  0.00    -0.264 OA
ATOM     55  H   UNL     1     -14.512   7.711  -2.481  1.00  0.00     0.236 HD
ENDBRANCH  51  54
ENDBRANCH  50  51
ENDBRANCH   8  50
TORSDOF 19
ENDMDL
MODEL 44
REMARK VINA RESULT:    -5.436      7.859     11.011
REMARK INTER + INTRA:         -14.510
REMARK INTER:                 -11.680
REMARK INTRA:                  -2.831
REMARK UNBOUND:                -3.513
REMARK SMILES CC[C@@H](C)[C@@H](NC(=O)[C@@H](O)Cc1ccc(O)c(Cl)c1)C(=O)N1[C@H](C(=O)NCCCCN=C(N)N)C[C@H]2CC[C@H](OS(=O)(=O)O)C[C@@H]21
REMARK SMILES IDX 22 1 36 2 46 3 35 4 23 5 45 6 37 7 39 8 38 9 20 10 21 11
REMARK SMILES IDX 5 12 6 13 7 14 8 15 9 17 11 18 12 19 17 20 19 21 15 22 14 23
REMARK SMILES IDX 13 24 18 25 16 26 10 28 3 30 4 31 2 32 1 33 24 34 25 35
REMARK SMILES IDX 26 36 27 38 28 39 29 40 30 41 31 42 32 43 33 44 34 45 40 50
REMARK SMILES IDX 41 51 42 52 43 53 44 54
REMARK H PARENT 6 16 16 27 10 29 26 37 33 46 33 47 34 48 34 49 44 55
ROOT
ATOM      1  N   UNL     1      -1.279   7.988   0.980  1.00  0.00    -0.326 N 
ATOM      2  C   UNL     1      -0.320   6.375   2.402  1.00  0.00     0.014 C 
ATOM      3  C   UNL     1      -1.112   7.686   2.404  1.00  0.00     0.091 C 
ATOM      4  C   UNL     1       0.581   6.531   1.187  1.00  0.00     0.041 C 
ATOM      5  C   UNL     1      -0.430   7.084   0.166  1.00  0.00     0.175 C 
ATOM      6  C   UNL     1      -2.365   7.492   3.256  1.00  0.00     0.059 C 
ATOM      7  C   UNL     1       0.300   6.114   3.760  1.00  0.00     0.008 C 
ATOM      8  C   UNL     1      -2.175   6.501   4.425  1.00  0.00     0.143 C 
ATOM      9  C   UNL     1      -0.706   6.426   4.887  1.00  0.00     0.034 C 
ENDROOT
BRANCH   1  10
ATOM     10  C   UNL     1      -1.900   9.064   0.368  1.00  0.00     0.246 C 
ATOM     11  O   UNL     1      -1.232   9.813  -0.353  1.00  0.00    -0.272 OA
BRANCH  10  12
ATOM     12  C   UNL     1      -3.428   9.281   0.565  1.00  0.00     0.174 C 
BRANCH  12  13
ATOM     13  N   UNL     1      -4.147   8.893  -0.648  1.00  0.00    -0.342 N 
ATOM     14  C   UNL     1      -5.185   7.989  -0.696  1.00  0.00     0.249 C 
ATOM     15  O   UNL     1      -5.643   7.424   0.289  1.00  0.00    -0.272 OA
ATOM     16  H   UNL     1      -3.780   9.158  -1.558  1.00  0.00     0.164 HD
BRANCH  14  17
ATOM     17  C   UNL     1      -5.725   7.778  -2.126  1.00  0.00     0.207 C 
BRANCH  17  18
ATOM     18  C   UNL     1      -4.787   6.866  -2.924  1.00  0.00     0.077 C 
BRANCH  18  19
ATOM     19  C   UNL     1      -5.434   5.538  -3.246  1.00  0.00    -0.043 A 
ATOM     20  C   UNL     1      -7.135   4.254  -4.403  1.00  0.00     0.083 A 
ATOM     21  C   UNL     1      -6.509   5.473  -4.147  1.00  0.00     0.028 A 
ATOM     22  C   UNL     1      -6.696   3.094  -3.764  1.00  0.00     0.134 A 
ATOM     23  C   UNL     1      -5.633   3.144  -2.869  1.00  0.00     0.048 A 
ATOM     24  C   UNL     1      -5.005   4.364  -2.609  1.00  0.00     0.008 A 
ATOM     25  Cl  UNL     1      -8.454   4.194  -5.513  1.00  0.00    -0.080 Cl
BRANCH  22  26
ATOM     26  O   UNL     1      -7.286   1.877  -3.975  1.00  0.00    -0.506 OA
ATOM     27  H   UNL     1      -7.258   1.401  -3.125  1.00  0.00     0.293 HD
ENDBRANCH  22  26
ENDBRANCH  18  19
ENDBRANCH  17  18
BRANCH  17  28
ATOM     28  O   UNL     1      -5.871   9.031  -2.814  1.00  0.00    -0.383 OA
ATOM     29  H   UNL     1      -6.426   8.844  -3.605  1.00  0.00     0.211 HD
ENDBRANCH  17  28
ENDBRANCH  14  17
ENDBRANCH  12  13
BRANCH  12  30
ATOM     30  C   UNL     1      -3.774  10.724   1.023  1.00  0.00     0.018 C 
ATOM     31  C   UNL     1      -2.979  11.103   2.281  1.00  0.00     0.010 C 
BRANCH  30  32
ATOM     32  C   UNL     1      -5.287  10.954   1.260  1.00  0.00     0.002 C 
ATOM     33  C   UNL     1      -5.836  10.382   2.560  1.00  0.00     0.004 C 
ENDBRANCH  30  32
ENDBRANCH  12  30
ENDBRANCH  10  12
ENDBRANCH   1  10
BRANCH   5  34
ATOM     34  C   UNL     1      -1.282   5.951  -0.467  1.00  0.00     0.242 C 
ATOM     35  O   UNL     1      -2.512   5.989  -0.493  1.00  0.00    -0.273 OA
ATOM     36  N   UNL     1      -0.565   4.878  -0.947  1.00  0.00    -0.354 N 
ATOM     37  H   UNL     1       0.443   4.850  -0.789  1.00  0.00     0.163 HD
BRANCH  36  38
ATOM     38  C   UNL     1      -1.173   3.841  -1.755  1.00  0.00     0.116 C 
BRANCH  38  39
ATOM     39  C   UNL     1      -0.182   2.699  -1.964  1.00  0.00     0.023 C 
BRANCH  39  40
ATOM     40  C   UNL     1      -0.710   1.638  -2.924  1.00  0.00     0.026 C 
BRANCH  40  41
ATOM     41  C   UNL     1       0.443   0.904  -3.609  1.00  0.00     0.146 C 
BRANCH  41  42
ATOM     42  N   UNL     1       1.393   0.436  -2.607  1.00  0.00    -0.254 NA
ATOM     43  C   UNL     1       2.648   0.591  -2.804  1.00  0.00     0.185 C 
ATOM     44  N   UNL     1       3.299   1.148  -3.841  1.00  0.00    -0.370 N 
ATOM     45  N   UNL     1       3.507   0.148  -1.871  1.00  0.00    -0.370 N 
ATOM     46  H   UNL     1       4.282   0.983  -3.978  1.00  0.00     0.159 HD
ATOM     47  H   UNL     1       2.801   1.547  -4.631  1.00  0.00     0.159 HD
ATOM     48  H   UNL     1       3.097  -0.278  -1.051  1.00  0.00     0.159 HD
ATOM     49  H   UNL     1       4.468   0.437  -1.836  1.00  0.00     0.159 HD
ENDBRANCH  41  42
ENDBRANCH  40  41
ENDBRANCH  39  40
ENDBRANCH  38  39
ENDBRANCH  36  38
ENDBRANCH   5  34
BRANCH   8  50
ATOM     50  O   UNL     1      -2.594   5.194   4.033  1.00  0.00    -0.245 OA
BRANCH  50  51
ATOM     51  S   UNL     1      -4.070   4.662   4.463  1.00  0.00     0.397 S 
ATOM     52  O   UNL     1      -4.100   3.229   4.274  1.00  0.00    -0.169 OA
ATOM     53  O   UNL     1      -5.083   5.525   3.892  1.00  0.00    -0.169 OA
BRANCH  51  54
ATOM     54  O   UNL     1      -4.061   4.894   6.054  1.00  0.00    -0.264 OA
ATOM     55  H   UNL     1      -4.598   5.690   6.242  1.00  0.00     0.236 HD
ENDBRANCH  51  54
ENDBRANCH  50  51
ENDBRANCH   8  50
TORSDOF 19
ENDMDL
MODEL 45
REMARK VINA RESULT:    -5.389      4.834      8.788
REMARK INTER + INTRA:         -14.414
REMARK INTER:                 -10.703
REMARK INTRA:                  -3.711
REMARK UNBOUND:                -3.513
REMARK SMILES CC[C@@H](C)[C@@H](NC(=O)[C@@H](O)Cc1ccc(O)c(Cl)c1)C(=O)N1[C@H](C(=O)NCCCCN=C(N)N)C[C@H]2CC[C@H](OS(=O)(=O)O)C[C@@H]21
REMARK SMILES IDX 22 1 36 2 46 3 35 4 23 5 45 6 37 7 39 8 38 9 20 10 21 11
REMARK SMILES IDX 5 12 6 13 7 14 8 15 9 17 11 18 12 19 17 20 19 21 15 22 14 23
REMARK SMILES IDX 13 24 18 25 16 26 10 28 3 30 4 31 2 32 1 33 24 34 25 35
REMARK SMILES IDX 26 36 27 38 28 39 29 40 30 41 31 42 32 43 33 44 34 45 40 50
REMARK SMILES IDX 41 51 42 52 43 53 44 54
REMARK H PARENT 6 16 16 27 10 29 26 37 33 46 33 47 34 48 34 49 44 55
ROOT
ATOM      1  N   UNL     1       8.731   3.476 -11.149  1.00  0.00    -0.326 N 
ATOM      2  C   UNL     1      11.064   3.438 -10.837  1.00  0.00     0.014 C 
ATOM      3  C   UNL     1       9.961   3.057 -11.828  1.00  0.00     0.091 C 
ATOM      4  C   UNL     1      10.403   3.195  -9.489  1.00  0.00     0.041 C 
ATOM      5  C   UNL     1       9.027   3.839  -9.741  1.00  0.00     0.175 C 
ATOM      6  C   UNL     1      10.290   3.684 -13.181  1.00  0.00     0.059 C 
ATOM      7  C   UNL     1      12.360   2.725 -11.168  1.00  0.00     0.008 C 
ATOM      8  C   UNL     1      11.805   3.809 -13.457  1.00  0.00     0.143 C 
ATOM      9  C   UNL     1      12.622   2.750 -12.689  1.00  0.00     0.034 C 
ENDROOT
BRANCH   1  10
ATOM     10  C   UNL     1       7.412   3.368 -11.555  1.00  0.00     0.246 C 
ATOM     11  O   UNL     1       6.851   4.355 -12.044  1.00  0.00    -0.272 OA
BRANCH  10  12
ATOM     12  C   UNL     1       6.680   2.001 -11.428  1.00  0.00     0.174 C 
BRANCH  12  13
ATOM     13  N   UNL     1       5.879   1.976 -10.204  1.00  0.00    -0.342 N 
ATOM     14  C   UNL     1       4.507   2.079 -10.155  1.00  0.00     0.249 C 
ATOM     15  O   UNL     1       3.795   2.175 -11.146  1.00  0.00    -0.272 OA
ATOM     16  H   UNL     1       6.339   2.058  -9.300  1.00  0.00     0.164 HD
BRANCH  14  17
ATOM     17  C   UNL     1       3.958   2.037  -8.713  1.00  0.00     0.207 C 
BRANCH  17  18
ATOM     18  C   UNL     1       5.109   2.002  -7.702  1.00  0.00     0.077 C 
BRANCH  18  19
ATOM     19  C   UNL     1       4.661   2.435  -6.324  1.00  0.00    -0.043 A 
ATOM     20  C   UNL     1       3.146   3.687  -4.903  1.00  0.00     0.083 A 
ATOM     21  C   UNL     1       3.528   3.250  -6.171  1.00  0.00     0.028 A 
ATOM     22  C   UNL     1       3.890   3.317  -3.782  1.00  0.00     0.134 A 
ATOM     23  C   UNL     1       5.014   2.510  -3.919  1.00  0.00     0.048 A 
ATOM     24  C   UNL     1       5.400   2.072  -5.188  1.00  0.00     0.008 A 
ATOM     25  Cl  UNL     1       1.751   4.688  -4.735  1.00  0.00    -0.080 Cl
BRANCH  22  26
ATOM     26  O   UNL     1       3.560   3.730  -2.520  1.00  0.00    -0.506 OA
ATOM     27  H   UNL     1       2.725   4.226  -2.597  1.00  0.00     0.293 HD
ENDBRANCH  22  26
ENDBRANCH  18  19
ENDBRANCH  17  18
BRANCH  17  28
ATOM     28  O   UNL     1       3.114   0.892  -8.513  1.00  0.00    -0.383 OA
ATOM     29  H   UNL     1       3.519   0.381  -7.775  1.00  0.00     0.211 HD
ENDBRANCH  17  28
ENDBRANCH  14  17
ENDBRANCH  12  13
BRANCH  12  30
ATOM     30  C   UNL     1       7.647   0.791 -11.528  1.00  0.00     0.018 C 
ATOM     31  C   UNL     1       7.932   0.439 -12.997  1.00  0.00     0.010 C 
BRANCH  30  32
ATOM     32  C   UNL     1       7.153  -0.464 -10.767  1.00  0.00     0.002 C 
ATOM     33  C   UNL     1       6.523  -1.545 -11.634  1.00  0.00     0.004 C 
ENDBRANCH  30  32
ENDBRANCH  12  30
ENDBRANCH  10  12
ENDBRANCH   1  10
BRANCH   5  34
ATOM     34  C   UNL     1       9.077   5.380  -9.568  1.00  0.00     0.242 C 
ATOM     35  O   UNL     1       9.188   5.916  -8.466  1.00  0.00    -0.273 OA
ATOM     36  N   UNL     1       8.934   6.105 -10.731  1.00  0.00    -0.354 N 
ATOM     37  H   UNL     1       8.726   5.607 -11.597  1.00  0.00     0.163 HD
BRANCH  36  38
ATOM     38  C   UNL     1       9.170   7.532 -10.786  1.00  0.00     0.116 C 
BRANCH  38  39
ATOM     39  C   UNL     1       7.856   8.266 -11.042  1.00  0.00     0.023 C 
BRANCH  39  40
ATOM     40  C   UNL     1       7.335   8.978  -9.798  1.00  0.00     0.026 C 
BRANCH  40  41
ATOM     41  C   UNL     1       6.346   8.092  -9.040  1.00  0.00     0.146 C 
BRANCH  41  42
ATOM     42  N   UNL     1       5.425   7.466  -9.980  1.00  0.00    -0.254 NA
ATOM     43  C   UNL     1       5.179   6.213  -9.885  1.00  0.00     0.185 C 
ATOM     44  N   UNL     1       5.649   5.302  -9.013  1.00  0.00    -0.370 N 
ATOM     45  N   UNL     1       4.331   5.654 -10.764  1.00  0.00    -0.370 N 
ATOM     46  H   UNL     1       5.564   4.319  -9.204  1.00  0.00     0.159 HD
ATOM     47  H   UNL     1       6.293   5.558  -8.271  1.00  0.00     0.159 HD
ATOM     48  H   UNL     1       3.924   6.274 -11.451  1.00  0.00     0.159 HD
ATOM     49  H   UNL     1       3.909   4.754 -10.616  1.00  0.00     0.159 HD
ENDBRANCH  41  42
ENDBRANCH  40  41
ENDBRANCH  39  40
ENDBRANCH  38  39
ENDBRANCH  36  38
ENDBRANCH   5  34
BRANCH   8  50
ATOM     50  O   UNL     1      12.267   5.104 -13.074  1.00  0.00    -0.245 OA
BRANCH  50  51
ATOM     51  S   UNL     1      12.867   6.109 -14.204  1.00  0.00     0.397 S 
ATOM     52  O   UNL     1      12.706   7.464 -13.727  1.00  0.00    -0.169 OA
ATOM     53  O   UNL     1      12.398   5.703 -15.513  1.00  0.00    -0.169 OA
BRANCH  51  54
ATOM     54  O   UNL     1      14.443   5.801 -14.124  1.00  0.00    -0.264 OA
ATOM     55  H   UNL     1      14.657   5.578 -13.195  1.00  0.00     0.236 HD
ENDBRANCH  51  54
ENDBRANCH  50  51
ENDBRANCH   8  50
TORSDOF 19
ENDMDL
MODEL 46
REMARK VINA RESULT:    -5.387      3.838      8.252
REMARK INTER + INTRA:         -14.411
REMARK INTER:                 -12.316
REMARK INTRA:                  -2.095
REMARK UNBOUND:                -3.513
REMARK SMILES CC[C@@H](C)[C@@H](NC(=O)[C@@H](O)Cc1ccc(O)c(Cl)c1)C(=O)N1[C@H](C(=O)NCCCCN=C(N)N)C[C@H]2CC[C@H](OS(=O)(=O)O)C[C@@H]21
REMARK SMILES IDX 22 1 36 2 46 3 35 4 23 5 45 6 37 7 39 8 38 9 20 10 21 11
REMARK SMILES IDX 5 12 6 13 7 14 8 15 9 17 11 18 12 19 17 20 19 21 15 22 14 23
REMARK SMILES IDX 13 24 18 25 16 26 10 28 3 30 4 31 2 32 1 33 24 34 25 35
REMARK SMILES IDX 26 36 27 38 28 39 29 40 30 41 31 42 32 43 33 44 34 45 40 50
REMARK SMILES IDX 41 51 42 52 43 53 44 54
REMARK H PARENT 6 16 16 27 10 29 26 37 33 46 33 47 34 48 34 49 44 55
ROOT
ATOM      1  N   UNL     1       3.078   1.536  -4.574  1.00  0.00    -0.326 N 
ATOM      2  C   UNL     1       4.756   2.662  -5.781  1.00  0.00     0.014 C 
ATOM      3  C   UNL     1       3.525   1.767  -5.950  1.00  0.00     0.091 C 
ATOM      4  C   UNL     1       5.368   2.149  -4.487  1.00  0.00     0.041 C 
ATOM      5  C   UNL     1       4.102   2.024  -3.618  1.00  0.00     0.175 C 
ATOM      6  C   UNL     1       2.562   2.448  -6.921  1.00  0.00     0.059 C 
ATOM      7  C   UNL     1       5.594   2.677  -7.045  1.00  0.00     0.008 C 
ATOM      8  C   UNL     1       3.266   3.300  -8.000  1.00  0.00     0.143 C 
ATOM      9  C   UNL     1       4.694   2.798  -8.293  1.00  0.00     0.034 C 
ENDROOT
BRANCH   1  10
ATOM     10  C   UNL     1       2.017   0.783  -4.100  1.00  0.00     0.246 C 
ATOM     11  O   UNL     1       2.197   0.032  -3.135  1.00  0.00    -0.272 OA
BRANCH  10  12
ATOM     12  C   UNL     1       0.617   0.928  -4.762  1.00  0.00     0.174 C 
BRANCH  12  13
ATOM     13  N   UNL     1      -0.376   1.296  -3.753  1.00  0.00    -0.342 N 
ATOM     14  C   UNL     1      -1.052   2.495  -3.710  1.00  0.00     0.249 C 
ATOM     15  O   UNL     1      -0.913   3.386  -4.539  1.00  0.00    -0.272 OA
ATOM     16  H   UNL     1      -0.481   0.725  -2.918  1.00  0.00     0.164 HD
BRANCH  14  17
ATOM     17  C   UNL     1      -2.022   2.589  -2.513  1.00  0.00     0.207 C 
BRANCH  17  18
ATOM     18  C   UNL     1      -2.339   4.054  -2.195  1.00  0.00     0.077 C 
BRANCH  18  19
ATOM     19  C   UNL     1      -1.490   4.579  -1.059  1.00  0.00    -0.043 A 
ATOM     20  C   UNL     1      -1.272   5.284   1.252  1.00  0.00     0.083 A 
ATOM     21  C   UNL     1      -2.045   4.753   0.219  1.00  0.00     0.028 A 
ATOM     22  C   UNL     1       0.055   5.644   1.018  1.00  0.00     0.134 A 
ATOM     23  C   UNL     1       0.618   5.476  -0.242  1.00  0.00     0.048 A 
ATOM     24  C   UNL     1      -0.154   4.947  -1.279  1.00  0.00     0.008 A 
ATOM     25  Cl  UNL     1      -1.973   5.491   2.814  1.00  0.00    -0.080 Cl
BRANCH  22  26
ATOM     26  O   UNL     1       0.848   6.178   1.997  1.00  0.00    -0.506 OA
ATOM     27  H   UNL     1       0.619   5.718   2.825  1.00  0.00     0.293 HD
ENDBRANCH  22  26
ENDBRANCH  18  19
ENDBRANCH  17  18
BRANCH  17  28
ATOM     28  O   UNL     1      -1.468   1.957  -1.348  1.00  0.00    -0.383 OA
ATOM     29  H   UNL     1      -1.381   2.665  -0.670  1.00  0.00     0.211 HD
ENDBRANCH  17  28
ENDBRANCH  14  17
ENDBRANCH  12  13
BRANCH  12  30
ATOM     30  C   UNL     1       0.202  -0.331  -5.570  1.00  0.00     0.018 C 
ATOM     31  C   UNL     1       1.284  -0.703  -6.596  1.00  0.00     0.010 C 
BRANCH  30  32
ATOM     32  C   UNL     1      -1.172  -0.195  -6.271  1.00  0.00     0.002 C 
ATOM     33  C   UNL     1      -1.631  -1.423  -7.047  1.00  0.00     0.004 C 
ENDBRANCH  30  32
ENDBRANCH  12  30
ENDBRANCH  10  12
ENDBRANCH   1  10
BRANCH   5  34
ATOM     34  C   UNL     1       3.685   3.392  -3.015  1.00  0.00     0.242 C 
ATOM     35  O   UNL     1       2.513   3.766  -2.980  1.00  0.00    -0.273 OA
ATOM     36  N   UNL     1       4.725   4.179  -2.573  1.00  0.00    -0.354 N 
ATOM     37  H   UNL     1       5.682   3.867  -2.738  1.00  0.00     0.163 HD
BRANCH  36  38
ATOM     38  C   UNL     1       4.508   5.380  -1.793  1.00  0.00     0.116 C 
BRANCH  38  39
ATOM     39  C   UNL     1       5.550   6.433  -2.163  1.00  0.00     0.023 C 
BRANCH  39  40
ATOM     40  C   UNL     1       6.397   6.859  -0.968  1.00  0.00     0.026 C 
BRANCH  40  41
ATOM     41  C   UNL     1       5.754   6.405   0.342  1.00  0.00     0.146 C 
BRANCH  41  42
ATOM     42  N   UNL     1       6.332   7.144   1.457  1.00  0.00    -0.254 NA
ATOM     43  C   UNL     1       5.891   6.950   2.642  1.00  0.00     0.185 C 
ATOM     44  N   UNL     1       4.921   6.127   3.080  1.00  0.00    -0.370 N 
ATOM     45  N   UNL     1       6.434   7.644   3.655  1.00  0.00    -0.370 N 
ATOM     46  H   UNL     1       4.513   6.253   3.991  1.00  0.00     0.159 HD
ATOM     47  H   UNL     1       4.413   5.517   2.447  1.00  0.00     0.159 HD
ATOM     48  H   UNL     1       7.180   8.282   3.412  1.00  0.00     0.159 HD
ATOM     49  H   UNL     1       6.316   7.384   4.618  1.00  0.00     0.159 HD
ENDBRANCH  41  42
ENDBRANCH  40  41
ENDBRANCH  39  40
ENDBRANCH  38  39
ENDBRANCH  36  38
ENDBRANCH   5  34
BRANCH   8  50
ATOM     50  O   UNL     1       3.341   4.662  -7.578  1.00  0.00    -0.245 OA
BRANCH  50  51
ATOM     51  S   UNL     1       2.887   5.845  -8.597  1.00  0.00     0.397 S 
ATOM     52  O   UNL     1       1.746   6.519  -8.020  1.00  0.00    -0.169 OA
ATOM     53  O   UNL     1       2.862   5.335  -9.953  1.00  0.00    -0.169 OA
BRANCH  51  54
ATOM     54  O   UNL     1       4.113   6.879  -8.479  1.00  0.00    -0.264 OA
ATOM     55  H   UNL     1       4.900   6.376  -8.187  1.00  0.00     0.236 HD
ENDBRANCH  51  54
ENDBRANCH  50  51
ENDBRANCH   8  50
TORSDOF 19
ENDMDL
MODEL 47
REMARK VINA RESULT:    -5.373     10.770     14.042
REMARK INTER + INTRA:         -14.383
REMARK INTER:                 -10.780
REMARK INTRA:                  -3.603
REMARK UNBOUND:                -3.513
REMARK SMILES CC[C@@H](C)[C@@H](NC(=O)[C@@H](O)Cc1ccc(O)c(Cl)c1)C(=O)N1[C@H](C(=O)NCCCCN=C(N)N)C[C@H]2CC[C@H](OS(=O)(=O)O)C[C@@H]21
REMARK SMILES IDX 22 1 36 2 46 3 35 4 23 5 45 6 37 7 39 8 38 9 20 10 21 11
REMARK SMILES IDX 5 12 6 13 7 14 8 15 9 17 11 18 12 19 17 20 19 21 15 22 14 23
REMARK SMILES IDX 13 24 18 25 16 26 10 28 3 30 4 31 2 32 1 33 24 34 25 35
REMARK SMILES IDX 26 36 27 38 28 39 29 40 30 41 31 42 32 43 33 44 34 45 40 50
REMARK SMILES IDX 41 51 42 52 43 53 44 54
REMARK H PARENT 6 16 16 27 10 29 26 37 33 46 33 47 34 48 34 49 44 55
ROOT
ATOM      1  N   UNL     1      -2.637   6.608   4.616  1.00  0.00    -0.326 N 
ATOM      2  C   UNL     1      -4.213   4.883   4.323  1.00  0.00     0.014 C 
ATOM      3  C   UNL     1      -3.794   6.002   5.282  1.00  0.00     0.091 C 
ATOM      4  C   UNL     1      -2.882   4.409   3.760  1.00  0.00     0.041 C 
ATOM      5  C   UNL     1      -2.209   5.764   3.474  1.00  0.00     0.175 C 
ATOM      6  C   UNL     1      -5.013   6.880   5.560  1.00  0.00     0.059 C 
ATOM      7  C   UNL     1      -5.124   3.889   5.015  1.00  0.00     0.008 C 
ATOM      8  C   UNL     1      -6.352   6.113   5.532  1.00  0.00     0.143 C 
ATOM      9  C   UNL     1      -6.172   4.621   5.880  1.00  0.00     0.034 C 
ENDROOT
BRANCH   1  10
ATOM     10  C   UNL     1      -1.828   7.656   5.022  1.00  0.00     0.246 C 
ATOM     11  O   UNL     1      -0.627   7.445   5.222  1.00  0.00    -0.272 OA
BRANCH  10  12
ATOM     12  C   UNL     1      -2.437   9.080   5.175  1.00  0.00     0.174 C 
BRANCH  12  13
ATOM     13  N   UNL     1      -3.405   9.326   4.107  1.00  0.00    -0.342 N 
ATOM     14  C   UNL     1      -4.600   9.992   4.261  1.00  0.00     0.249 C 
ATOM     15  O   UNL     1      -4.976  10.482   5.319  1.00  0.00    -0.272 OA
ATOM     16  H   UNL     1      -3.304   8.847   3.216  1.00  0.00     0.164 HD
BRANCH  14  17
ATOM     17  C   UNL     1      -5.409  10.075   2.950  1.00  0.00     0.207 C 
BRANCH  17  18
ATOM     18  C   UNL     1      -5.078  11.367   2.196  1.00  0.00     0.077 C 
BRANCH  18  19
ATOM     19  C   UNL     1      -4.470  11.087   0.840  1.00  0.00    -0.043 A 
ATOM     20  C   UNL     1      -2.529  10.625  -0.539  1.00  0.00     0.083 A 
ATOM     21  C   UNL     1      -3.095  10.834   0.720  1.00  0.00     0.028 A 
ATOM     22  C   UNL     1      -3.329  10.669  -1.681  1.00  0.00     0.134 A 
ATOM     23  C   UNL     1      -4.692  10.918  -1.575  1.00  0.00     0.048 A 
ATOM     24  C   UNL     1      -5.262  11.130  -0.318  1.00  0.00     0.008 A 
ATOM     25  Cl  UNL     1      -0.837  10.316  -0.667  1.00  0.00    -0.080 Cl
BRANCH  22  26
ATOM     26  O   UNL     1      -2.817  10.480  -2.936  1.00  0.00    -0.506 OA
ATOM     27  H   UNL     1      -1.938  10.074  -2.822  1.00  0.00     0.293 HD
ENDBRANCH  22  26
ENDBRANCH  18  19
ENDBRANCH  17  18
BRANCH  17  28
ATOM     28  O   UNL     1      -6.821  10.023   3.209  1.00  0.00    -0.383 OA
ATOM     29  H   UNL     1      -7.258   9.971   2.329  1.00  0.00     0.211 HD
ENDBRANCH  17  28
ENDBRANCH  14  17
ENDBRANCH  12  13
BRANCH  12  30
ATOM     30  C   UNL     1      -1.354  10.189   5.261  1.00  0.00     0.018 C 
ATOM     31  C   UNL     1      -1.701  11.207   6.358  1.00  0.00     0.010 C 
BRANCH  30  32
ATOM     32  C   UNL     1      -1.103  10.918   3.919  1.00  0.00     0.002 C 
ATOM     33  C   UNL     1      -1.458  12.399   3.906  1.00  0.00     0.004 C 
ENDBRANCH  30  32
ENDBRANCH  12  30
ENDBRANCH  10  12
ENDBRANCH   1  10
BRANCH   5  34
ATOM     34  C   UNL     1      -2.694   6.370   2.130  1.00  0.00     0.242 C 
ATOM     35  O   UNL     1      -2.864   7.580   1.977  1.00  0.00    -0.273 OA
ATOM     36  N   UNL     1      -2.970   5.454   1.140  1.00  0.00    -0.354 N 
ATOM     37  H   UNL     1      -2.925   4.459   1.364  1.00  0.00     0.163 HD
BRANCH  36  38
ATOM     38  C   UNL     1      -3.223   5.849  -0.231  1.00  0.00     0.116 C 
BRANCH  38  39
ATOM     39  C   UNL     1      -4.716   6.091  -0.434  1.00  0.00     0.023 C 
BRANCH  39  40
ATOM     40  C   UNL     1      -5.205   5.609  -1.795  1.00  0.00     0.026 C 
BRANCH  40  41
ATOM     41  C   UNL     1      -4.736   4.179  -2.064  1.00  0.00     0.146 C 
BRANCH  41  42
ATOM     42  N   UNL     1      -5.463   3.627  -3.199  1.00  0.00    -0.254 NA
ATOM     43  C   UNL     1      -6.341   2.716  -3.006  1.00  0.00     0.185 C 
ATOM     44  N   UNL     1      -6.746   2.133  -1.863  1.00  0.00    -0.370 N 
ATOM     45  N   UNL     1      -6.998   2.217  -4.066  1.00  0.00    -0.370 N 
ATOM     46  H   UNL     1      -7.261   1.269  -1.883  1.00  0.00     0.159 HD
ATOM     47  H   UNL     1      -6.362   2.401  -0.963  1.00  0.00     0.159 HD
ATOM     48  H   UNL     1      -6.759   2.609  -4.967  1.00  0.00     0.159 HD
ATOM     49  H   UNL     1      -7.848   1.688  -3.980  1.00  0.00     0.159 HD
ENDBRANCH  41  42
ENDBRANCH  40  41
ENDBRANCH  39  40
ENDBRANCH  38  39
ENDBRANCH  36  38
ENDBRANCH   5  34
BRANCH   8  50
ATOM     50  O   UNL     1      -6.945   6.208   4.237  1.00  0.00    -0.245 OA
BRANCH  50  51
ATOM     51  S   UNL     1      -8.423   6.868   4.077  1.00  0.00     0.397 S 
ATOM     52  O   UNL     1      -8.922   6.533   2.762  1.00  0.00    -0.169 OA
ATOM     53  O   UNL     1      -8.400   8.234   4.556  1.00  0.00    -0.169 OA
BRANCH  51  54
ATOM     54  O   UNL     1      -9.293   5.995   5.111  1.00  0.00    -0.264 OA
ATOM     55  H   UNL     1      -9.922   6.600   5.556  1.00  0.00     0.236 HD
ENDBRANCH  51  54
ENDBRANCH  50  51
ENDBRANCH   8  50
TORSDOF 19
ENDMDL
MODEL 48
REMARK VINA RESULT:    -5.368     11.111     13.950
REMARK INTER + INTRA:         -14.373
REMARK INTER:                  -9.430
REMARK INTRA:                  -4.943
REMARK UNBOUND:                -3.513
REMARK SMILES CC[C@@H](C)[C@@H](NC(=O)[C@@H](O)Cc1ccc(O)c(Cl)c1)C(=O)N1[C@H](C(=O)NCCCCN=C(N)N)C[C@H]2CC[C@H](OS(=O)(=O)O)C[C@@H]21
REMARK SMILES IDX 22 1 36 2 46 3 35 4 23 5 45 6 37 7 39 8 38 9 20 10 21 11
REMARK SMILES IDX 5 12 6 13 7 14 8 15 9 17 11 18 12 19 17 20 19 21 15 22 14 23
REMARK SMILES IDX 13 24 18 25 16 26 10 28 3 30 4 31 2 32 1 33 24 34 25 35
REMARK SMILES IDX 26 36 27 38 28 39 29 40 30 41 31 42 32 43 33 44 34 45 40 50
REMARK SMILES IDX 41 51 42 52 43 53 44 54
REMARK H PARENT 6 16 16 27 10 29 26 37 33 46 33 47 34 48 34 49 44 55
ROOT
ATOM      1  N   UNL     1      -8.146   9.758  -5.152  1.00  0.00    -0.326 N 
ATOM      2  C   UNL     1      -5.873   9.389  -4.663  1.00  0.00     0.014 C 
ATOM      3  C   UNL     1      -7.237   9.627  -4.010  1.00  0.00     0.091 C 
ATOM      4  C   UNL     1      -5.954  10.234  -5.925  1.00  0.00     0.041 C 
ATOM      5  C   UNL     1      -7.367   9.863  -6.411  1.00  0.00     0.175 C 
ATOM      6  C   UNL     1      -7.494   8.504  -3.005  1.00  0.00     0.059 C 
ATOM      7  C   UNL     1      -4.749   9.634  -3.676  1.00  0.00     0.008 C 
ATOM      8  C   UNL     1      -6.211   7.960  -2.341  1.00  0.00     0.143 C 
ATOM      9  C   UNL     1      -5.086   9.014  -2.303  1.00  0.00     0.034 C 
ENDROOT
BRANCH   1  10
ATOM     10  C   UNL     1      -9.508  10.002  -5.179  1.00  0.00     0.246 C 
ATOM     11  O   UNL     1      -9.925  11.023  -5.738  1.00  0.00    -0.272 OA
BRANCH  10  12
ATOM     12  C   UNL     1     -10.486   8.970  -4.546  1.00  0.00     0.174 C 
BRANCH  12  13
ATOM     13  N   UNL     1     -10.419   7.706  -5.279  1.00  0.00    -0.342 N 
ATOM     14  C   UNL     1     -10.289   6.463  -4.701  1.00  0.00     0.249 C 
ATOM     15  O   UNL     1     -10.242   6.275  -3.492  1.00  0.00    -0.272 OA
ATOM     16  H   UNL     1     -10.289   7.715  -6.288  1.00  0.00     0.164 HD
BRANCH  14  17
ATOM     17  C   UNL     1     -10.230   5.325  -5.742  1.00  0.00     0.207 C 
BRANCH  17  18
ATOM     18  C   UNL     1     -11.583   4.612  -5.833  1.00  0.00     0.077 C 
BRANCH  18  19
ATOM     19  C   UNL     1     -12.516   5.296  -6.806  1.00  0.00    -0.043 A 
ATOM     20  C   UNL     1     -12.865   6.583  -8.833  1.00  0.00     0.083 A 
ATOM     21  C   UNL     1     -12.007   5.910  -7.962  1.00  0.00     0.028 A 
ATOM     22  C   UNL     1     -14.230   6.649  -8.556  1.00  0.00     0.134 A 
ATOM     23  C   UNL     1     -14.747   6.046  -7.415  1.00  0.00     0.048 A 
ATOM     24  C   UNL     1     -13.891   5.373  -6.540  1.00  0.00     0.008 A 
ATOM     25  Cl  UNL     1     -12.221   7.331 -10.247  1.00  0.00    -0.080 Cl
BRANCH  22  26
ATOM     26  O   UNL     1     -15.108   7.307  -9.374  1.00  0.00    -0.506 OA
ATOM     27  H   UNL     1     -15.937   7.412  -8.870  1.00  0.00     0.293 HD
ENDBRANCH  22  26
ENDBRANCH  18  19
ENDBRANCH  17  18
BRANCH  17  28
ATOM     28  O   UNL     1      -9.209   4.371  -5.409  1.00  0.00    -0.383 OA
ATOM     29  H   UNL     1      -8.904   4.605  -4.503  1.00  0.00     0.211 HD
ENDBRANCH  17  28
ENDBRANCH  14  17
ENDBRANCH  12  13
BRANCH  12  30
ATOM     30  C   UNL     1     -11.936   9.511  -4.428  1.00  0.00     0.018 C 
ATOM     31  C   UNL     1     -12.478   9.314  -3.004  1.00  0.00     0.010 C 
BRANCH  30  32
ATOM     32  C   UNL     1     -12.914   8.898  -5.460  1.00  0.00     0.002 C 
ATOM     33  C   UNL     1     -13.114   9.711  -6.732  1.00  0.00     0.004 C 
ENDBRANCH  30  32
ENDBRANCH  12  30
ENDBRANCH  10  12
ENDBRANCH   1  10
BRANCH   5  34
ATOM     34  C   UNL     1      -7.373   8.512  -7.175  1.00  0.00     0.242 C 
ATOM     35  O   UNL     1      -8.408   7.884  -7.394  1.00  0.00    -0.273 OA
ATOM     36  N   UNL     1      -6.132   8.042  -7.543  1.00  0.00    -0.354 N 
ATOM     37  H   UNL     1      -5.302   8.547  -7.228  1.00  0.00     0.163 HD
BRANCH  36  38
ATOM     38  C   UNL     1      -5.965   6.919  -8.442  1.00  0.00     0.116 C 
BRANCH  38  39
ATOM     39  C   UNL     1      -5.433   5.713  -7.671  1.00  0.00     0.023 C 
BRANCH  39  40
ATOM     40  C   UNL     1      -4.137   6.021  -6.929  1.00  0.00     0.026 C 
BRANCH  40  41
ATOM     41  C   UNL     1      -4.006   5.149  -5.680  1.00  0.00     0.146 C 
BRANCH  41  42
ATOM     42  N   UNL     1      -3.512   3.830  -6.050  1.00  0.00    -0.254 NA
ATOM     43  C   UNL     1      -4.129   2.785  -5.641  1.00  0.00     0.185 C 
ATOM     44  N   UNL     1      -5.231   2.674  -4.877  1.00  0.00    -0.370 N 
ATOM     45  N   UNL     1      -3.654   1.578  -5.989  1.00  0.00    -0.370 N 
ATOM     46  H   UNL     1      -5.461   1.802  -4.433  1.00  0.00     0.159 HD
ATOM     47  H   UNL     1      -5.727   3.492  -4.536  1.00  0.00     0.159 HD
ATOM     48  H   UNL     1      -2.829   1.571  -6.573  1.00  0.00     0.159 HD
ATOM     49  H   UNL     1      -4.199   0.737  -5.914  1.00  0.00     0.159 HD
ENDBRANCH  41  42
ENDBRANCH  40  41
ENDBRANCH  39  40
ENDBRANCH  38  39
ENDBRANCH  36  38
ENDBRANCH   5  34
BRANCH   8  50
ATOM     50  O   UNL     1      -5.737   6.817  -3.053  1.00  0.00    -0.245 OA
BRANCH  50  51
ATOM     51  S   UNL     1      -6.037   5.328  -2.472  1.00  0.00     0.397 S 
ATOM     52  O   UNL     1      -6.827   5.468  -1.270  1.00  0.00    -0.169 OA
ATOM     53  O   UNL     1      -4.820   4.543  -2.494  1.00  0.00    -0.169 OA
BRANCH  51  54
ATOM     54  O   UNL     1      -7.033   4.729  -3.583  1.00  0.00    -0.264 OA
ATOM     55  H   UNL     1      -7.920   5.112  -3.426  1.00  0.00     0.236 HD
ENDBRANCH  51  54
ENDBRANCH  50  51
ENDBRANCH   8  50
TORSDOF 19
ENDMDL
MODEL 49
REMARK VINA RESULT:    -5.338      4.136      6.947
REMARK INTER + INTRA:         -14.312
REMARK INTER:                 -11.649
REMARK INTRA:                  -2.662
REMARK UNBOUND:                -3.513
REMARK SMILES CC[C@@H](C)[C@@H](NC(=O)[C@@H](O)Cc1ccc(O)c(Cl)c1)C(=O)N1[C@H](C(=O)NCCCCN=C(N)N)C[C@H]2CC[C@H](OS(=O)(=O)O)C[C@@H]21
REMARK SMILES IDX 22 1 36 2 46 3 35 4 23 5 45 6 37 7 39 8 38 9 20 10 21 11
REMARK SMILES IDX 5 12 6 13 7 14 8 15 9 17 11 18 12 19 17 20 19 21 15 22 14 23
REMARK SMILES IDX 13 24 18 25 16 26 10 28 3 30 4 31 2 32 1 33 24 34 25 35
REMARK SMILES IDX 26 36 27 38 28 39 29 40 30 41 31 42 32 43 33 44 34 45 40 50
REMARK SMILES IDX 41 51 42 52 43 53 44 54
REMARK H PARENT 6 16 16 27 10 29 26 37 33 46 33 47 34 48 34 49 44 55
ROOT
ATOM      1  N   UNL     1       3.839   3.645  -3.760  1.00  0.00    -0.326 N 
ATOM      2  C   UNL     1       3.075   1.437  -3.470  1.00  0.00     0.014 C 
ATOM      3  C   UNL     1       2.616   2.898  -3.451  1.00  0.00     0.091 C 
ATOM      4  C   UNL     1       4.491   1.524  -2.923  1.00  0.00     0.041 C 
ATOM      5  C   UNL     1       5.014   2.740  -3.709  1.00  0.00     0.175 C 
ATOM      6  C   UNL     1       1.422   3.041  -4.393  1.00  0.00     0.059 C 
ATOM      7  C   UNL     1       2.065   0.542  -2.780  1.00  0.00     0.008 C 
ATOM      8  C   UNL     1       0.541   1.776  -4.476  1.00  0.00     0.143 C 
ATOM      9  C   UNL     1       0.628   0.924  -3.193  1.00  0.00     0.034 C 
ENDROOT
BRANCH   1  10
ATOM     10  C   UNL     1       4.043   5.011  -3.862  1.00  0.00     0.246 C 
ATOM     11  O   UNL     1       3.133   5.724  -4.297  1.00  0.00    -0.272 OA
BRANCH  10  12
ATOM     12  C   UNL     1       5.393   5.622  -3.387  1.00  0.00     0.174 C 
BRANCH  12  13
ATOM     13  N   UNL     1       5.248   6.161  -2.035  1.00  0.00    -0.342 N 
ATOM     14  C   UNL     1       6.057   5.846  -0.967  1.00  0.00     0.249 C 
ATOM     15  O   UNL     1       7.018   5.089  -1.040  1.00  0.00    -0.272 OA
ATOM     16  H   UNL     1       4.407   6.677  -1.786  1.00  0.00     0.164 HD
BRANCH  14  17
ATOM     17  C   UNL     1       5.637   6.566   0.332  1.00  0.00     0.207 C 
BRANCH  17  18
ATOM     18  C   UNL     1       4.979   7.911   0.010  1.00  0.00     0.077 C 
BRANCH  18  19
ATOM     19  C   UNL     1       3.829   8.212   0.944  1.00  0.00    -0.043 A 
ATOM     20  C   UNL     1       2.433   7.592   2.828  1.00  0.00     0.083 A 
ATOM     21  C   UNL     1       3.525   7.337   1.998  1.00  0.00     0.028 A 
ATOM     22  C   UNL     1       1.638   8.718   2.611  1.00  0.00     0.134 A 
ATOM     23  C   UNL     1       1.928   9.593   1.570  1.00  0.00     0.048 A 
ATOM     24  C   UNL     1       3.020   9.340   0.737  1.00  0.00     0.008 A 
ATOM     25  Cl  UNL     1       2.075   6.504   4.118  1.00  0.00    -0.080 Cl
BRANCH  22  26
ATOM     26  O   UNL     1       0.551   9.004   3.391  1.00  0.00    -0.506 OA
ATOM     27  H   UNL     1      -0.207   9.112   2.787  1.00  0.00     0.293 HD
ENDBRANCH  22  26
ENDBRANCH  18  19
ENDBRANCH  17  18
BRANCH  17  28
ATOM     28  O   UNL     1       6.767   6.782   1.193  1.00  0.00    -0.383 OA
ATOM     29  H   UNL     1       6.783   6.021   1.817  1.00  0.00     0.211 HD
ENDBRANCH  17  28
ENDBRANCH  14  17
ENDBRANCH  12  13
BRANCH  12  30
ATOM     30  C   UNL     1       5.962   6.667  -4.384  1.00  0.00     0.018 C 
ATOM     31  C   UNL     1       6.145   6.048  -5.778  1.00  0.00     0.010 C 
BRANCH  30  32
ATOM     32  C   UNL     1       7.285   7.319  -3.913  1.00  0.00     0.002 C 
ATOM     33  C   UNL     1       8.336   7.515  -4.998  1.00  0.00     0.004 C 
ENDBRANCH  30  32
ENDBRANCH  12  30
ENDBRANCH  10  12
ENDBRANCH   1  10
BRANCH   5  34
ATOM     34  C   UNL     1       5.467   2.345  -5.140  1.00  0.00     0.242 C 
ATOM     35  O   UNL     1       6.442   1.623  -5.345  1.00  0.00    -0.273 OA
ATOM     36  N   UNL     1       4.732   2.904  -6.162  1.00  0.00    -0.354 N 
ATOM     37  H   UNL     1       4.012   3.589  -5.932  1.00  0.00     0.163 HD
BRANCH  36  38
ATOM     38  C   UNL     1       4.876   2.479  -7.539  1.00  0.00     0.116 C 
BRANCH  38  39
ATOM     39  C   UNL     1       3.684   1.614  -7.942  1.00  0.00     0.023 C 
BRANCH  39  40
ATOM     40  C   UNL     1       3.835   1.029  -9.342  1.00  0.00     0.026 C 
BRANCH  40  41
ATOM     41  C   UNL     1       3.442   2.056 -10.404  1.00  0.00     0.146 C 
BRANCH  41  42
ATOM     42  N   UNL     1       2.129   2.606 -10.094  1.00  0.00    -0.254 NA
ATOM     43  C   UNL     1       1.252   2.714 -11.022  1.00  0.00     0.185 C 
ATOM     44  N   UNL     1       1.327   2.386 -12.325  1.00  0.00    -0.370 N 
ATOM     45  N   UNL     1       0.050   3.228 -10.717  1.00  0.00    -0.370 N 
ATOM     46  H   UNL     1       0.658   2.748 -12.983  1.00  0.00     0.159 HD
ATOM     47  H   UNL     1       2.163   1.971 -12.723  1.00  0.00     0.159 HD
ATOM     48  H   UNL     1      -0.093   3.493  -9.751  1.00  0.00     0.159 HD
ATOM     49  H   UNL     1      -0.752   3.126 -11.313  1.00  0.00     0.159 HD
ENDBRANCH  41  42
ENDBRANCH  40  41
ENDBRANCH  39  40
ENDBRANCH  38  39
ENDBRANCH  36  38
ENDBRANCH   5  34
BRANCH   8  50
ATOM     50  O   UNL     1       0.944   0.970  -5.584  1.00  0.00    -0.245 OA
BRANCH  50  51
ATOM     51  S   UNL     1      -0.157   0.527  -6.696  1.00  0.00     0.397 S 
ATOM     52  O   UNL     1      -1.457   0.957  -6.234  1.00  0.00    -0.169 OA
ATOM     53  O   UNL     1       0.090  -0.840  -7.106  1.00  0.00    -0.169 OA
BRANCH  51  54
ATOM     54  O   UNL     1       0.209   1.489  -7.932  1.00  0.00    -0.264 OA
ATOM     55  H   UNL     1       0.255   0.935  -8.738  1.00  0.00     0.236 HD
ENDBRANCH  51  54
ENDBRANCH  50  51
ENDBRANCH   8  50
TORSDOF 19
ENDMDL
MODEL 50
REMARK VINA RESULT:    -5.314      4.126      7.504
REMARK INTER + INTRA:         -14.263
REMARK INTER:                 -10.376
REMARK INTRA:                  -3.887
REMARK UNBOUND:                -3.513
REMARK SMILES CC[C@@H](C)[C@@H](NC(=O)[C@@H](O)Cc1ccc(O)c(Cl)c1)C(=O)N1[C@H](C(=O)NCCCCN=C(N)N)C[C@H]2CC[C@H](OS(=O)(=O)O)C[C@@H]21
REMARK SMILES IDX 22 1 36 2 46 3 35 4 23 5 45 6 37 7 39 8 38 9 20 10 21 11
REMARK SMILES IDX 5 12 6 13 7 14 8 15 9 17 11 18 12 19 17 20 19 21 15 22 14 23
REMARK SMILES IDX 13 24 18 25 16 26 10 28 3 30 4 31 2 32 1 33 24 34 25 35
REMARK SMILES IDX 26 36 27 38 28 39 29 40 30 41 31 42 32 43 33 44 34 45 40 50
REMARK SMILES IDX 41 51 42 52 43 53 44 54
REMARK H PARENT 6 16 16 27 10 29 26 37 33 46 33 47 34 48 34 49 44 55
ROOT
ATOM      1  N   UNL     1       4.576   4.254  -6.885  1.00  0.00    -0.326 N 
ATOM      2  C   UNL     1       4.907   2.423  -5.443  1.00  0.00     0.014 C 
ATOM      3  C   UNL     1       4.606   3.925  -5.457  1.00  0.00     0.091 C 
ATOM      4  C   UNL     1       5.829   2.255  -6.640  1.00  0.00     0.041 C 
ATOM      5  C   UNL     1       5.082   3.110  -7.681  1.00  0.00     0.175 C 
ATOM      6  C   UNL     1       3.346   4.173  -4.629  1.00  0.00     0.059 C 
ATOM      7  C   UNL     1       5.379   1.978  -4.073  1.00  0.00     0.008 C 
ATOM      8  C   UNL     1       3.170   3.186  -3.455  1.00  0.00     0.143 C 
ATOM      9  C   UNL     1       4.519   2.622  -2.965  1.00  0.00     0.034 C 
ENDROOT
BRANCH   1  10
ATOM     10  C   UNL     1       4.366   5.472  -7.511  1.00  0.00     0.246 C 
ATOM     11  O   UNL     1       3.219   5.787  -7.844  1.00  0.00    -0.272 OA
BRANCH  10  12
ATOM     12  C   UNL     1       5.569   6.432  -7.742  1.00  0.00     0.174 C 
BRANCH  12  13
ATOM     13  N   UNL     1       6.525   5.821  -8.664  1.00  0.00    -0.342 N 
ATOM     14  C   UNL     1       6.587   6.068 -10.017  1.00  0.00     0.249 C 
ATOM     15  O   UNL     1       5.856   6.859 -10.600  1.00  0.00    -0.272 OA
ATOM     16  H   UNL     1       7.088   5.032  -8.356  1.00  0.00     0.164 HD
BRANCH  14  17
ATOM     17  C   UNL     1       7.694   5.256 -10.721  1.00  0.00     0.207 C 
BRANCH  17  18
ATOM     18  C   UNL     1       7.152   4.607 -11.999  1.00  0.00     0.077 C 
BRANCH  18  19
ATOM     19  C   UNL     1       7.248   3.099 -11.948  1.00  0.00    -0.043 A 
ATOM     20  C   UNL     1       8.278   1.031 -12.688  1.00  0.00     0.083 A 
ATOM     21  C   UNL     1       8.224   2.425 -12.699  1.00  0.00     0.028 A 
ATOM     22  C   UNL     1       7.359   0.303 -11.931  1.00  0.00     0.134 A 
ATOM     23  C   UNL     1       6.387   0.957 -11.183  1.00  0.00     0.048 A 
ATOM     24  C   UNL     1       6.330   2.353 -11.194  1.00  0.00     0.008 A 
ATOM     25  Cl  UNL     1       9.484   0.221 -13.617  1.00  0.00    -0.080 Cl
BRANCH  22  26
ATOM     26  O   UNL     1       7.366  -1.065 -11.898  1.00  0.00    -0.506 OA
ATOM     27  H   UNL     1       6.495  -1.358 -12.225  1.00  0.00     0.293 HD
ENDBRANCH  22  26
ENDBRANCH  18  19
ENDBRANCH  17  18
BRANCH  17  28
ATOM     28  O   UNL     1       8.218   4.236  -9.855  1.00  0.00    -0.383 OA
ATOM     29  H   UNL     1       8.801   3.676 -10.416  1.00  0.00     0.211 HD
ENDBRANCH  17  28
ENDBRANCH  14  17
ENDBRANCH  12  13
BRANCH  12  30
ATOM     30  C   UNL     1       6.234   6.890  -6.416  1.00  0.00     0.018 C 
ATOM     31  C   UNL     1       5.217   7.606  -5.513  1.00  0.00     0.010 C 
BRANCH  30  32
ATOM     32  C   UNL     1       7.482   7.783  -6.623  1.00  0.00     0.002 C 
ATOM     33  C   UNL     1       8.733   7.336  -5.877  1.00  0.00     0.004 C 
ENDBRANCH  30  32
ENDBRANCH  12  30
ENDBRANCH  10  12
ENDBRANCH   1  10
BRANCH   5  34
ATOM     34  C   UNL     1       3.909   2.327  -8.328  1.00  0.00     0.242 C 
ATOM     35  O   UNL     1       3.999   1.137  -8.630  1.00  0.00    -0.273 OA
ATOM     36  N   UNL     1       2.781   3.072  -8.589  1.00  0.00    -0.354 N 
ATOM     37  H   UNL     1       2.809   4.080  -8.427  1.00  0.00     0.163 HD
BRANCH  36  38
ATOM     38  C   UNL     1       1.527   2.465  -8.986  1.00  0.00     0.116 C 
BRANCH  38  39
ATOM     39  C   UNL     1       1.175   2.888 -10.410  1.00  0.00     0.023 C 
BRANCH  39  40
ATOM     40  C   UNL     1       2.225   2.448 -11.425  1.00  0.00     0.026 C 
BRANCH  40  41
ATOM     41  C   UNL     1       2.780   3.652 -12.187  1.00  0.00     0.146 C 
BRANCH  41  42
ATOM     42  N   UNL     1       3.070   4.734 -11.254  1.00  0.00    -0.254 NA
ATOM     43  C   UNL     1       2.648   5.916 -11.505  1.00  0.00     0.185 C 
ATOM     44  N   UNL     1       1.932   6.376 -12.547  1.00  0.00    -0.370 N 
ATOM     45  N   UNL     1       2.930   6.900 -10.635  1.00  0.00    -0.370 N 
ATOM     46  H   UNL     1       1.881   7.362 -12.738  1.00  0.00     0.159 HD
ATOM     47  H   UNL     1       1.621   5.762 -13.293  1.00  0.00     0.159 HD
ATOM     48  H   UNL     1       3.460   6.635  -9.816  1.00  0.00     0.159 HD
ATOM     49  H   UNL     1       2.446   7.780 -10.634  1.00  0.00     0.159 HD
ENDBRANCH  41  42
ENDBRANCH  40  41
ENDBRANCH  39  40
ENDBRANCH  38  39
ENDBRANCH  36  38
ENDBRANCH   5  34
BRANCH   8  50
ATOM     50  O   UNL     1       2.340   2.094  -3.853  1.00  0.00    -0.245 OA
BRANCH  50  51
ATOM     51  S   UNL     1       1.076   1.666  -2.922  1.00  0.00     0.397 S 
ATOM     52  O   UNL     1       0.243   0.765  -3.688  1.00  0.00    -0.169 OA
ATOM     53  O   UNL     1       0.529   2.840  -2.274  1.00  0.00    -0.169 OA
BRANCH  51  54
ATOM     54  O   UNL     1       1.781   0.760  -1.796  1.00  0.00    -0.264 OA
ATOM     55  H   UNL     1       1.358   0.970  -0.938  1.00  0.00     0.236 HD
ENDBRANCH  51  54
ENDBRANCH  50  51
ENDBRANCH   8  50
TORSDOF 19
ENDMDL
