MODEL 1
REMARK VINA RESULT:    -7.772      0.000      0.000
REMARK INTER + INTRA:         -29.734
REMARK INTER:                 -23.220
REMARK INTRA:                  -6.514
REMARK UNBOUND:                -6.514
REMARK SMILES C=C1C(=O)N[C@H](C)C(=O)N[C@@H](CC(C)C)C(=O)N[C@@H](C(=O)O)[C@H](C)C(=O)N[C@@H](CCCN=C(N)N)C(=O)N[C@@H](/C=C/C(C)=C/[C@H](C)[C@H](Cc2ccccc2)OC)[C@H](C)C(=O)N[C@@H](C(=O)O)CCC(=O)N1C
REMARK SMILES IDX 39 1 38 2 37 3 36 4 28 6 27 7 25 8 26 9 23 11 24 12 19 13
REMARK SMILES IDX 18 14 16 15 17 16 11 18 10 19 8 20 9 21 12 24 13 25 14 26
REMARK SMILES IDX 15 27 20 28 21 29 22 30 29 32 30 33 31 34 32 35 33 36 34 37
REMARK SMILES IDX 35 38 57 43 58 44 59 45 60 46 61 47 62 49 66 50 67 51 68 52
REMARK SMILES IDX 69 53 70 54 71 55 2 56 1 57 3 58 4 59 5 60 6 62 7 63 63 65
REMARK SMILES IDX 64 66 65 67 40 69 41 70 42 71 44 72 43 73 45 74 46 75 47 76
REMARK SMILES IDX 55 77 56 78 48 79 49 80 50 81 54 82 51 83 53 84 52 85
REMARK H PARENT 38 5 27 10 18 17 10 22 22 31 34 39 34 40 35 41 35 42 61 48
REMARK H PARENT 5 61 65 68
REMARK Flexibility Score:  369.900
ROOT
ATOM      1  C   UNL     1      -0.694   2.054  -6.278  1.00  0.00     0.117 C 
ENDROOT
BRANCH   1   2
ATOM      2  N   UNL     1       0.445   2.343  -7.149  1.00  0.00    -0.347 N 
ATOM      3  O   UNL     1       0.414   0.393  -8.360  1.00  0.00    -0.273 OA
ATOM      4  C   UNL     1       0.852   1.525  -8.186  1.00  0.00     0.243 C 
ATOM      5  H   UNL     1       0.947   3.210  -7.035  1.00  0.00     0.164 HD
BRANCH   4   6
ATOM      6  C   UNL     1       2.031   2.104  -9.009  1.00  0.00     0.171 C 
BRANCH   6   7
ATOM      7  N   UNL     1       3.308   1.534  -8.551  1.00  0.00    -0.344 N 
ATOM      8  C   UNL     1       4.490   2.215  -8.742  1.00  0.00     0.226 C 
ATOM      9  O   UNL     1       4.544   3.298  -9.312  1.00  0.00    -0.275 OA
ATOM     10  H   UNL     1       3.312   0.610  -8.136  1.00  0.00     0.164 HD
BRANCH   8  11
ATOM     11  C   UNL     1       5.712   1.521  -8.165  1.00  0.00     0.109 C 
ATOM     12  C   UNL     1       5.312   0.184  -7.541  1.00  0.00     0.021 C 
BRANCH  11  13
ATOM     13  C   UNL     1       6.816   1.431  -9.238  1.00  0.00     0.204 C 
BRANCH  13  14
ATOM     14  N   UNL     1       6.263   1.365 -10.594  1.00  0.00    -0.340 N 
ATOM     15  C   UNL     1       6.694   0.454 -11.534  1.00  0.00     0.243 C 
ATOM     16  O   UNL     1       7.532  -0.410 -11.281  1.00  0.00    -0.273 OA
ATOM     17  H   UNL     1       5.680   2.144 -10.913  1.00  0.00     0.164 HD
BRANCH  15  18
ATOM     18  C   UNL     1       6.119   0.708 -12.950  1.00  0.00     0.171 C 
BRANCH  18  19
ATOM     19  N   UNL     1       6.289  -0.536 -13.699  1.00  0.00    -0.343 N 
ATOM     20  C   UNL     1       6.884  -0.560 -14.946  1.00  0.00     0.242 CG0
ATOM     21  O   UNL     1       7.176   0.476 -15.539  1.00  0.00    -0.273 OA
ATOM     22  H   UNL     1       5.958  -1.406 -13.299  1.00  0.00     0.164 HD
ATOM     23  G   UNL     1       7.047  -1.971 -15.546  1.00  0.00     0.000 G0
ENDBRANCH  18  19
BRANCH  18  24
ATOM     24  C   UNL     1       4.644   1.118 -12.870  1.00  0.00     0.038 C 
BRANCH  24  25
ATOM     25  C   UNL     1       4.232   2.237 -13.850  1.00  0.00    -0.015 C 
ATOM     26  C   UNL     1       3.854   1.696 -15.229  1.00  0.00     0.007 C 
ATOM     27  C   UNL     1       5.375   3.246 -13.989  1.00  0.00     0.007 C 
ENDBRANCH  24  25
ENDBRANCH  18  24
ENDBRANCH  15  18
ENDBRANCH  13  14
BRANCH  13  28
ATOM     28  C   UNL     1       7.790   2.613  -9.201  1.00  0.00     0.327 C 
ATOM     29  O   UNL     1       8.232   3.215 -10.168  1.00  0.00    -0.250 OA
BRANCH  28  30
ATOM     30  O   UNL     1       8.240   2.889  -7.961  1.00  0.00    -0.480 OA
ATOM     31  H   UNL     1       7.840   3.757  -7.746  1.00  0.00     0.296 HD
ENDBRANCH  28  30
ENDBRANCH  13  28
ENDBRANCH  11  13
ENDBRANCH   8  11
ENDBRANCH   6   7
BRANCH   6  32
ATOM     32  C   UNL     1       1.800   1.806 -10.495  1.00  0.00     0.037 C 
BRANCH  32  33
ATOM     33  C   UNL     1       1.808   3.081 -11.350  1.00  0.00     0.026 C 
BRANCH  33  34
ATOM     34  C   UNL     1       0.494   3.858 -11.253  1.00  0.00     0.146 C 
BRANCH  34  35
ATOM     35  N   UNL     1       0.776   5.197 -10.755  1.00  0.00    -0.254 NA
ATOM     36  C   UNL     1      -0.195   6.022 -10.629  1.00  0.00     0.185 C 
ATOM     37  N   UNL     1       0.052   7.258 -10.167  1.00  0.00    -0.370 N 
ATOM     38  N   UNL     1      -1.500   5.840 -10.901  1.00  0.00    -0.370 N 
ATOM     39  H   UNL     1       1.013   7.470  -9.929  1.00  0.00     0.159 HD
ATOM     40  H   UNL     1      -0.667   7.898  -9.877  1.00  0.00     0.159 HD
ATOM     41  H   UNL     1      -2.146   6.612 -10.892  1.00  0.00     0.159 HD
ATOM     42  H   UNL     1      -1.828   4.962 -11.272  1.00  0.00     0.159 HD
ENDBRANCH  34  35
ENDBRANCH  33  34
ENDBRANCH  32  33
ENDBRANCH   6  32
ENDBRANCH   4   6
ENDBRANCH   1   2
BRANCH   1  43
ATOM     43  C   UNL     1      -1.533   3.354  -6.111  1.00  0.00     0.102 C 
ATOM     44  C   UNL     1      -2.387   3.373  -4.832  1.00  0.00     0.020 C 
BRANCH  43  45
ATOM     45  C   UNL     1      -2.319   3.669  -7.388  1.00  0.00     0.225 C 
ATOM     46  O   UNL     1      -1.785   3.841  -8.479  1.00  0.00    -0.275 OA
ATOM     47  N   UNL     1      -3.674   3.843  -7.221  1.00  0.00    -0.342 N 
ATOM     48  H   UNL     1      -4.113   3.552  -6.359  1.00  0.00     0.164 HD
BRANCH  47  49
ATOM     49  C   UNL     1      -4.557   4.113  -8.359  1.00  0.00     0.192 C 
BRANCH  49  50
ATOM     50  C   UNL     1      -5.138   5.524  -8.236  1.00  0.00     0.047 C 
BRANCH  50  51
ATOM     51  C   UNL     1      -4.708   6.434  -9.395  1.00  0.00     0.103 C 
BRANCH  51  52
ATOM     52  C   UNL     1      -3.656   7.453  -8.965  1.00  0.00     0.226 C 
ATOM     53  O   UNL     1      -2.718   7.097  -8.249  1.00  0.00    -0.275 OA
BRANCH  52  54
ATOM     54  N   UNL     1      -3.790   8.752  -9.489  1.00  0.00    -0.311 N 
ATOM     55  C   UNL     1      -3.236   9.097 -10.806  1.00  0.00     0.153 C 
BRANCH  54  56
ATOM     56  C   UNL     1      -4.460   9.763  -8.780  1.00  0.00     0.102 C 
ATOM     57  C   UNL     1      -4.899  10.915  -9.314  1.00  0.00     0.043 C 
BRANCH  56  58
ATOM     58  C   UNL     1      -4.786   9.596  -7.315  1.00  0.00     0.268 C 
ATOM     59  O   UNL     1      -4.024   9.930  -6.417  1.00  0.00    -0.268 OA
ATOM     60  N   UNL     1      -6.046   9.093  -7.096  1.00  0.00    -0.339 N 
ATOM     61  H   UNL     1      -6.612   8.831  -7.894  1.00  0.00     0.164 HD
BRANCH  60  62
ATOM     62  C   UNL     1      -6.589   8.911  -5.750  1.00  0.00     0.168 CG0
ATOM     63  C   UNL     1      -7.410   7.630  -5.661  1.00  0.00     0.041 C 
ATOM     64  G   UNL     1      -7.445  10.136  -5.367  1.00  0.00     0.000 G0
ENDBRANCH  60  62
ENDBRANCH  56  58
ENDBRANCH  54  56
ENDBRANCH  52  54
ENDBRANCH  51  52
ENDBRANCH  50  51
ENDBRANCH  49  50
BRANCH  49  65
ATOM     65  C   UNL     1      -5.706   3.096  -8.439  1.00  0.00     0.326 C 
ATOM     66  O   UNL     1      -6.825   3.320  -8.878  1.00  0.00    -0.250 OA
BRANCH  65  67
ATOM     67  O   UNL     1      -5.421   1.882  -7.918  1.00  0.00    -0.480 OA
ATOM     68  H   UNL     1      -6.267   1.391  -7.999  1.00  0.00     0.296 HD
ENDBRANCH  65  67
ENDBRANCH  49  65
ENDBRANCH  47  49
ENDBRANCH  43  45
ENDBRANCH   1  43
BRANCH   1  69
ATOM     69  C   UNL     1      -0.123   1.387  -5.040  1.00  0.00    -0.001 C 
ATOM     70  C   UNL     1      -0.714   0.461  -4.264  1.00  0.00     0.001 C 
BRANCH  70  71
ATOM     71  C   UNL     1      -0.144  -0.192  -3.084  1.00  0.00    -0.055 C 
ATOM     72  C   UNL     1      -0.216   0.465  -1.907  1.00  0.00    -0.018 C 
ATOM     73  C   UNL     1       0.475  -1.553  -3.265  1.00  0.00     0.044 C 
BRANCH  72  74
ATOM     74  C   UNL     1       0.281   0.037  -0.534  1.00  0.00     0.038 C 
ATOM     75  C   UNL     1      -0.827  -0.806   0.107  1.00  0.00     0.015 C 
BRANCH  74  76
ATOM     76  C   UNL     1       0.682   1.308   0.272  1.00  0.00     0.128 C 
BRANCH  76  77
ATOM     77  O   UNL     1       1.147   0.934   1.580  1.00  0.00    -0.381 OA
ATOM     78  C   UNL     1       0.910   1.922   2.574  1.00  0.00     0.195 C 
ENDBRANCH  76  77
BRANCH  76  79
ATOM     79  C   UNL     1       1.673   2.239  -0.473  1.00  0.00     0.068 C 
BRANCH  79  80
ATOM     80  C   UNL     1       3.150   2.020  -0.253  1.00  0.00    -0.045 A 
ATOM     81  C   UNL     1       3.724   0.752  -0.416  1.00  0.00     0.004 A 
ATOM     82  C   UNL     1       3.971   3.085   0.147  1.00  0.00     0.004 A 
ATOM     83  C   UNL     1       5.089   0.555  -0.197  1.00  0.00     0.000 A 
ATOM     84  C   UNL     1       5.336   2.886   0.366  1.00  0.00     0.000 A 
ATOM     85  C   UNL     1       5.895   1.622   0.193  1.00  0.00     0.000 A 
ENDBRANCH  79  80
ENDBRANCH  76  79
ENDBRANCH  74  76
ENDBRANCH  72  74
ENDBRANCH  70  71
ENDBRANCH   1  69
TORSDOF 17
ENDMDL
MODEL 2
REMARK VINA RESULT:    -7.390      1.727      2.387
REMARK INTER + INTRA:         -28.592
REMARK INTER:                 -21.788
REMARK INTRA:                  -6.804
REMARK UNBOUND:                -6.514
REMARK SMILES C=C1C(=O)N[C@H](C)C(=O)N[C@@H](CC(C)C)C(=O)N[C@@H](C(=O)O)[C@H](C)C(=O)N[C@@H](CCCN=C(N)N)C(=O)N[C@@H](/C=C/C(C)=C/[C@H](C)[C@H](Cc2ccccc2)OC)[C@H](C)C(=O)N[C@@H](C(=O)O)CCC(=O)N1C
REMARK SMILES IDX 39 1 38 2 37 3 36 4 28 6 27 7 25 8 26 9 23 11 24 12 19 13
REMARK SMILES IDX 18 14 16 15 17 16 11 18 10 19 8 20 9 21 12 24 13 25 14 26
REMARK SMILES IDX 15 27 20 28 21 29 22 30 29 32 30 33 31 34 32 35 33 36 34 37
REMARK SMILES IDX 35 38 57 43 58 44 59 45 60 46 61 47 62 49 66 50 67 51 68 52
REMARK SMILES IDX 69 53 70 54 71 55 2 56 1 57 3 58 4 59 5 60 6 62 7 63 63 65
REMARK SMILES IDX 64 66 65 67 40 69 41 70 42 71 44 72 43 73 45 74 46 75 47 76
REMARK SMILES IDX 55 77 56 78 48 79 49 80 50 81 54 82 51 83 53 84 52 85
REMARK H PARENT 38 5 27 10 18 17 10 22 22 31 34 39 34 40 35 41 35 42 61 48
REMARK H PARENT 5 61 65 68
REMARK Flexibility Score:  369.900
ROOT
ATOM      1  C   UNL     1      -0.934   2.073  -6.265  1.00  0.00     0.117 C 
ENDROOT
BRANCH   1   2
ATOM      2  N   UNL     1       0.136   2.339  -7.228  1.00  0.00    -0.347 N 
ATOM      3  O   UNL     1       0.235   0.248  -8.171  1.00  0.00    -0.273 OA
ATOM      4  C   UNL     1       0.573   1.427  -8.169  1.00  0.00     0.243 C 
ATOM      5  H   UNL     1       0.560   3.253  -7.255  1.00  0.00     0.164 HD
BRANCH   4   6
ATOM      6  C   UNL     1       1.657   1.988  -9.124  1.00  0.00     0.171 C 
BRANCH   6   7
ATOM      7  N   UNL     1       2.654   0.952  -9.436  1.00  0.00    -0.344 N 
ATOM      8  C   UNL     1       4.001   1.241  -9.404  1.00  0.00     0.226 C 
ATOM      9  O   UNL     1       4.431   2.358  -9.142  1.00  0.00    -0.275 OA
ATOM     10  H   UNL     1       2.336   0.035  -9.723  1.00  0.00     0.164 HD
BRANCH   8  11
ATOM     11  C   UNL     1       4.903   0.054  -9.696  1.00  0.00     0.109 C 
ATOM     12  C   UNL     1       4.166  -0.964 -10.566  1.00  0.00     0.021 C 
BRANCH  11  13
ATOM     13  C   UNL     1       6.245   0.548 -10.272  1.00  0.00     0.204 C 
BRANCH  13  14
ATOM     14  N   UNL     1       6.058   1.466 -11.399  1.00  0.00    -0.340 N 
ATOM     15  C   UNL     1       6.417   1.148 -12.691  1.00  0.00     0.243 C 
ATOM     16  O   UNL     1       6.865   0.045 -12.999  1.00  0.00    -0.273 OA
ATOM     17  H   UNL     1       5.835   2.443 -11.191  1.00  0.00     0.164 HD
BRANCH  15  18
ATOM     18  C   UNL     1       6.320   2.342 -13.672  1.00  0.00     0.171 C 
BRANCH  18  19
ATOM     19  N   UNL     1       6.533   1.800 -15.013  1.00  0.00    -0.343 N 
ATOM     20  C   UNL     1       7.572   2.229 -15.816  1.00  0.00     0.242 CG0
ATOM     21  O   UNL     1       8.283   3.178 -15.495  1.00  0.00    -0.273 OA
ATOM     22  H   UNL     1       5.899   1.094 -15.370  1.00  0.00     0.164 HD
ATOM     23  G   UNL     1       7.683   1.487 -17.164  1.00  0.00     0.000 G0
ENDBRANCH  18  19
BRANCH  18  24
ATOM     24  C   UNL     1       4.955   3.030 -13.554  1.00  0.00     0.038 C 
BRANCH  24  25
ATOM     25  C   UNL     1       5.016   4.568 -13.438  1.00  0.00    -0.015 C 
ATOM     26  C   UNL     1       5.307   5.245 -14.777  1.00  0.00     0.007 C 
ATOM     27  C   UNL     1       6.086   4.964 -12.417  1.00  0.00     0.007 C 
ENDBRANCH  24  25
ENDBRANCH  18  24
ENDBRANCH  15  18
ENDBRANCH  13  14
BRANCH  13  28
ATOM     28  C   UNL     1       7.116   1.270  -9.238  1.00  0.00     0.327 C 
ATOM     29  O   UNL     1       7.634   0.768  -8.253  1.00  0.00    -0.250 OA
BRANCH  28  30
ATOM     30  O   UNL     1       7.184   2.601  -9.442  1.00  0.00    -0.480 OA
ATOM     31  H   UNL     1       8.031   2.865  -9.028  1.00  0.00     0.296 HD
ENDBRANCH  28  30
ENDBRANCH  13  28
ENDBRANCH  11  13
ENDBRANCH   8  11
ENDBRANCH   6   7
BRANCH   6  32
ATOM     32  C   UNL     1       0.985   2.503 -10.402  1.00  0.00     0.037 C 
BRANCH  32  33
ATOM     33  C   UNL     1       1.983   3.186 -11.347  1.00  0.00     0.026 C 
BRANCH  33  34
ATOM     34  C   UNL     1       1.922   4.711 -11.261  1.00  0.00     0.146 C 
BRANCH  34  35
ATOM     35  N   UNL     1       0.753   5.176 -11.995  1.00  0.00    -0.254 NA
ATOM     36  C   UNL     1      -0.033   6.015 -11.430  1.00  0.00     0.185 C 
ATOM     37  N   UNL     1      -1.111   6.455 -12.099  1.00  0.00    -0.370 N 
ATOM     38  N   UNL     1       0.052   6.560 -10.203  1.00  0.00    -0.370 N 
ATOM     39  H   UNL     1      -1.239   6.098 -13.037  1.00  0.00     0.159 HD
ATOM     40  H   UNL     1      -1.672   7.233 -11.799  1.00  0.00     0.159 HD
ATOM     41  H   UNL     1      -0.705   7.102  -9.820  1.00  0.00     0.159 HD
ATOM     42  H   UNL     1       0.805   6.308  -9.582  1.00  0.00     0.159 HD
ENDBRANCH  34  35
ENDBRANCH  33  34
ENDBRANCH  32  33
ENDBRANCH   6  32
ENDBRANCH   4   6
ENDBRANCH   1   2
BRANCH   1  43
ATOM     43  C   UNL     1      -1.794   3.360  -6.113  1.00  0.00     0.102 C 
ATOM     44  C   UNL     1      -2.573   3.423  -4.788  1.00  0.00     0.020 C 
BRANCH  43  45
ATOM     45  C   UNL     1      -2.660   3.593  -7.355  1.00  0.00     0.225 C 
ATOM     46  O   UNL     1      -2.192   3.846  -8.461  1.00  0.00    -0.275 OA
ATOM     47  N   UNL     1      -4.019   3.595  -7.137  1.00  0.00    -0.342 N 
ATOM     48  H   UNL     1      -4.387   3.238  -6.266  1.00  0.00     0.164 HD
BRANCH  47  49
ATOM     49  C   UNL     1      -4.971   3.769  -8.238  1.00  0.00     0.192 C 
BRANCH  49  50
ATOM     50  C   UNL     1      -5.685   5.115  -8.093  1.00  0.00     0.047 C 
BRANCH  50  51
ATOM     51  C   UNL     1      -5.462   6.027  -9.307  1.00  0.00     0.103 C 
BRANCH  51  52
ATOM     52  C   UNL     1      -4.051   6.613  -9.332  1.00  0.00     0.226 C 
ATOM     53  O   UNL     1      -3.292   6.336 -10.263  1.00  0.00    -0.275 OA
BRANCH  52  54
ATOM     54  N   UNL     1      -3.729   7.516  -8.301  1.00  0.00    -0.311 N 
ATOM     55  C   UNL     1      -2.881   7.105  -7.174  1.00  0.00     0.153 C 
BRANCH  54  56
ATOM     56  C   UNL     1      -4.199   8.840  -8.314  1.00  0.00     0.102 C 
ATOM     57  C   UNL     1      -4.124   9.672  -9.365  1.00  0.00     0.043 C 
BRANCH  56  58
ATOM     58  C   UNL     1      -4.891   9.427  -7.106  1.00  0.00     0.268 C 
ATOM     59  O   UNL     1      -4.396  10.306  -6.413  1.00  0.00    -0.268 OA
ATOM     60  N   UNL     1      -6.154   8.923  -6.909  1.00  0.00    -0.339 N 
ATOM     61  H   UNL     1      -6.487   8.189  -7.523  1.00  0.00     0.164 HD
BRANCH  60  62
ATOM     62  C   UNL     1      -7.024   9.399  -5.834  1.00  0.00     0.168 CG0
ATOM     63  C   UNL     1      -7.594   8.234  -5.035  1.00  0.00     0.041 C 
ATOM     64  G   UNL     1      -8.158  10.260  -6.429  1.00  0.00     0.000 G0
ENDBRANCH  60  62
ENDBRANCH  56  58
ENDBRANCH  54  56
ENDBRANCH  52  54
ENDBRANCH  51  52
ENDBRANCH  50  51
ENDBRANCH  49  50
BRANCH  49  65
ATOM     65  C   UNL     1      -6.014   2.641  -8.270  1.00  0.00     0.326 C 
ATOM     66  O   UNL     1      -6.089   1.767  -9.122  1.00  0.00    -0.250 OA
BRANCH  65  67
ATOM     67  O   UNL     1      -6.935   2.696  -7.283  1.00  0.00    -0.480 OA
ATOM     68  H   UNL     1      -7.312   1.790  -7.268  1.00  0.00     0.296 HD
ENDBRANCH  65  67
ENDBRANCH  49  65
ENDBRANCH  47  49
ENDBRANCH  43  45
ENDBRANCH   1  43
BRANCH   1  69
ATOM     69  C   UNL     1      -0.262   1.490  -5.035  1.00  0.00    -0.001 C 
ATOM     70  C   UNL     1      -0.671   0.439  -4.302  1.00  0.00     0.001 C 
BRANCH  70  71
ATOM     71  C   UNL     1      -0.003  -0.128  -3.129  1.00  0.00    -0.055 C 
ATOM     72  C   UNL     1      -0.631  -0.026  -1.938  1.00  0.00    -0.018 C 
ATOM     73  C   UNL     1       1.334  -0.792  -3.334  1.00  0.00     0.044 C 
BRANCH  72  74
ATOM     74  C   UNL     1      -0.185  -0.518  -0.569  1.00  0.00     0.038 C 
ATOM     75  C   UNL     1      -1.118  -1.670  -0.176  1.00  0.00     0.015 C 
BRANCH  74  76
ATOM     76  C   UNL     1      -0.181   0.686   0.419  1.00  0.00     0.128 C 
BRANCH  76  77
ATOM     77  O   UNL     1       0.163   0.235   1.740  1.00  0.00    -0.381 OA
ATOM     78  C   UNL     1      -0.434   1.001   2.778  1.00  0.00     0.195 C 
ENDBRANCH  76  77
BRANCH  76  79
ATOM     79  C   UNL     1       0.683   1.883  -0.050  1.00  0.00     0.068 C 
BRANCH  79  80
ATOM     80  C   UNL     1      -0.029   3.133  -0.508  1.00  0.00    -0.045 A 
ATOM     81  C   UNL     1      -1.415   3.141  -0.711  1.00  0.00     0.004 A 
ATOM     82  C   UNL     1       0.697   4.306  -0.766  1.00  0.00     0.004 A 
ATOM     83  C   UNL     1      -2.064   4.297  -1.148  1.00  0.00     0.000 A 
ATOM     84  C   UNL     1       0.047   5.461  -1.204  1.00  0.00     0.000 A 
ATOM     85  C   UNL     1      -1.333   5.457  -1.394  1.00  0.00     0.000 A 
ENDBRANCH  79  80
ENDBRANCH  76  79
ENDBRANCH  74  76
ENDBRANCH  72  74
ENDBRANCH  70  71
ENDBRANCH   1  69
TORSDOF 17
ENDMDL
MODEL 3
REMARK VINA RESULT:    -7.376      5.047     11.528
REMARK INTER + INTRA:         -28.552
REMARK INTER:                 -22.396
REMARK INTRA:                  -6.155
REMARK UNBOUND:                -6.514
REMARK SMILES C=C1C(=O)N[C@H](C)C(=O)N[C@@H](CC(C)C)C(=O)N[C@@H](C(=O)O)[C@H](C)C(=O)N[C@@H](CCCN=C(N)N)C(=O)N[C@@H](/C=C/C(C)=C/[C@H](C)[C@H](Cc2ccccc2)OC)[C@H](C)C(=O)N[C@@H](C(=O)O)CCC(=O)N1C
REMARK SMILES IDX 39 1 38 2 37 3 36 4 28 6 27 7 25 8 26 9 23 11 24 12 19 13
REMARK SMILES IDX 18 14 16 15 17 16 11 18 10 19 8 20 9 21 12 24 13 25 14 26
REMARK SMILES IDX 15 27 20 28 21 29 22 30 29 32 30 33 31 34 32 35 33 36 34 37
REMARK SMILES IDX 35 38 57 43 58 44 59 45 60 46 61 47 62 49 66 50 67 51 68 52
REMARK SMILES IDX 69 53 70 54 71 55 2 56 1 57 3 58 4 59 5 60 6 62 7 63 63 65
REMARK SMILES IDX 64 66 65 67 40 69 41 70 42 71 44 72 43 73 45 74 46 75 47 76
REMARK SMILES IDX 55 77 56 78 48 79 49 80 50 81 54 82 51 83 53 84 52 85
REMARK H PARENT 38 5 27 10 18 17 10 22 22 31 34 39 34 40 35 41 35 42 61 48
REMARK H PARENT 5 61 65 68
REMARK Flexibility Score:  369.900
ROOT
ATOM      1  C   UNL     1      -1.769   1.524  -5.138  1.00  0.00     0.117 C 
ENDROOT
BRANCH   1   2
ATOM      2  N   UNL     1      -2.832   0.555  -5.407  1.00  0.00    -0.347 N 
ATOM      3  O   UNL     1      -3.056  -0.265  -3.274  1.00  0.00    -0.273 OA
ATOM      4  C   UNL     1      -3.456  -0.199  -4.432  1.00  0.00     0.243 C 
ATOM      5  H   UNL     1      -3.180   0.451  -6.348  1.00  0.00     0.164 HD
BRANCH   4   6
ATOM      6  C   UNL     1      -4.608  -1.085  -4.971  1.00  0.00     0.171 C 
BRANCH   6   7
ATOM      7  N   UNL     1      -5.537  -0.282  -5.782  1.00  0.00    -0.344 N 
ATOM      8  C   UNL     1      -6.829  -0.059  -5.357  1.00  0.00     0.226 C 
ATOM      9  O   UNL     1      -7.270  -0.526  -4.314  1.00  0.00    -0.275 OA
ATOM     10  H   UNL     1      -5.229   0.064  -6.682  1.00  0.00     0.164 HD
BRANCH   8  11
ATOM     11  C   UNL     1      -7.645   0.832  -6.277  1.00  0.00     0.109 C 
ATOM     12  C   UNL     1      -9.138   0.584  -6.061  1.00  0.00     0.021 C 
BRANCH  11  13
ATOM     13  C   UNL     1      -7.201   2.299  -6.110  1.00  0.00     0.204 C 
BRANCH  13  14
ATOM     14  N   UNL     1      -6.941   2.946  -7.400  1.00  0.00    -0.340 N 
ATOM     15  C   UNL     1      -5.707   2.925  -8.013  1.00  0.00     0.243 C 
ATOM     16  O   UNL     1      -4.750   2.308  -7.549  1.00  0.00    -0.273 OA
ATOM     17  H   UNL     1      -7.643   3.598  -7.761  1.00  0.00     0.164 HD
BRANCH  15  18
ATOM     18  C   UNL     1      -5.617   3.846  -9.255  1.00  0.00     0.171 C 
BRANCH  18  19
ATOM     19  N   UNL     1      -6.902   3.747  -9.944  1.00  0.00    -0.343 N 
ATOM     20  C   UNL     1      -7.141   2.784 -10.905  1.00  0.00     0.242 CG0
ATOM     21  O   UNL     1      -6.245   2.053 -11.321  1.00  0.00    -0.273 OA
ATOM     22  H   UNL     1      -7.640   4.404  -9.717  1.00  0.00     0.164 HD
ATOM     23  G   UNL     1      -8.579   2.785 -11.464  1.00  0.00     0.000 G0
ENDBRANCH  18  19
BRANCH  18  24
ATOM     24  C   UNL     1      -5.313   5.290  -8.837  1.00  0.00     0.038 C 
BRANCH  24  25
ATOM     25  C   UNL     1      -4.027   5.882  -9.452  1.00  0.00    -0.015 C 
ATOM     26  C   UNL     1      -2.850   5.864  -8.477  1.00  0.00     0.007 C 
ATOM     27  C   UNL     1      -4.292   7.317  -9.915  1.00  0.00     0.007 C 
ENDBRANCH  24  25
ENDBRANCH  18  24
ENDBRANCH  15  18
ENDBRANCH  13  14
BRANCH  13  28
ATOM     28  C   UNL     1      -8.228   3.160  -5.369  1.00  0.00     0.327 C 
ATOM     29  O   UNL     1      -8.492   3.104  -4.178  1.00  0.00    -0.250 OA
BRANCH  28  30
ATOM     30  O   UNL     1      -8.942   3.956  -6.190  1.00  0.00    -0.480 OA
ATOM     31  H   UNL     1      -8.480   4.819  -6.153  1.00  0.00     0.296 HD
ENDBRANCH  28  30
ENDBRANCH  13  28
ENDBRANCH  11  13
ENDBRANCH   8  11
ENDBRANCH   6   7
BRANCH   6  32
ATOM     32  C   UNL     1      -4.017  -2.235  -5.793  1.00  0.00     0.037 C 
BRANCH  32  33
ATOM     33  C   UNL     1      -5.043  -3.346  -6.056  1.00  0.00     0.026 C 
BRANCH  33  34
ATOM     34  C   UNL     1      -5.411  -4.115  -4.786  1.00  0.00     0.146 C 
BRANCH  34  35
ATOM     35  N   UNL     1      -5.176  -5.534  -5.012  1.00  0.00    -0.254 NA
ATOM     36  C   UNL     1      -4.027  -6.021  -4.718  1.00  0.00     0.185 C 
ATOM     37  N   UNL     1      -3.801  -7.329  -4.917  1.00  0.00    -0.370 N 
ATOM     38  N   UNL     1      -2.949  -5.396  -4.213  1.00  0.00    -0.370 N 
ATOM     39  H   UNL     1      -4.571  -7.872  -5.287  1.00  0.00     0.159 HD
ATOM     40  H   UNL     1      -2.999  -7.816  -4.556  1.00  0.00     0.159 HD
ATOM     41  H   UNL     1      -2.057  -5.860  -4.156  1.00  0.00     0.159 HD
ATOM     42  H   UNL     1      -2.971  -4.405  -4.028  1.00  0.00     0.159 HD
ENDBRANCH  34  35
ENDBRANCH  33  34
ENDBRANCH  32  33
ENDBRANCH   6  32
ENDBRANCH   4   6
ENDBRANCH   1   2
BRANCH   1  43
ATOM     43  C   UNL     1      -2.422   2.899  -4.816  1.00  0.00     0.102 C 
ATOM     44  C   UNL     1      -2.013   4.014  -5.794  1.00  0.00     0.020 C 
BRANCH  43  45
ATOM     45  C   UNL     1      -2.232   3.265  -3.341  1.00  0.00     0.225 C 
ATOM     46  O   UNL     1      -3.060   3.002  -2.473  1.00  0.00    -0.275 OA
ATOM     47  N   UNL     1      -1.106   4.002  -3.053  1.00  0.00    -0.342 N 
ATOM     48  H   UNL     1      -0.369   4.078  -3.740  1.00  0.00     0.164 HD
BRANCH  47  49
ATOM     49  C   UNL     1      -0.777   4.394  -1.680  1.00  0.00     0.192 C 
BRANCH  49  50
ATOM     50  C   UNL     1      -0.410   5.880  -1.642  1.00  0.00     0.047 C 
BRANCH  50  51
ATOM     51  C   UNL     1      -0.657   6.506  -0.263  1.00  0.00     0.103 C 
BRANCH  51  52
ATOM     52  C   UNL     1       0.595   7.184   0.291  1.00  0.00     0.226 C 
ATOM     53  O   UNL     1       1.160   8.056  -0.372  1.00  0.00    -0.275 OA
BRANCH  52  54
ATOM     54  N   UNL     1       0.987   6.812   1.590  1.00  0.00    -0.311 N 
ATOM     55  C   UNL     1       0.001   6.343   2.572  1.00  0.00     0.153 C 
BRANCH  54  56
ATOM     56  C   UNL     1       2.331   6.868   1.994  1.00  0.00     0.102 C 
ATOM     57  C   UNL     1       3.271   5.966   1.665  1.00  0.00     0.043 C 
BRANCH  56  58
ATOM     58  C   UNL     1       2.843   8.021   2.824  1.00  0.00     0.268 C 
ATOM     59  O   UNL     1       3.132   9.112   2.350  1.00  0.00    -0.268 OA
ATOM     60  N   UNL     1       2.889   7.740   4.169  1.00  0.00    -0.339 N 
ATOM     61  H   UNL     1       2.643   6.808   4.480  1.00  0.00     0.164 HD
BRANCH  60  62
ATOM     62  C   UNL     1       3.295   8.736   5.159  1.00  0.00     0.168 CG0
ATOM     63  C   UNL     1       2.111   9.593   5.591  1.00  0.00     0.041 C 
ATOM     64  G   UNL     1       4.421   9.615   4.577  1.00  0.00     0.000 G0
ENDBRANCH  60  62
ENDBRANCH  56  58
ENDBRANCH  54  56
ENDBRANCH  52  54
ENDBRANCH  51  52
ENDBRANCH  50  51
ENDBRANCH  49  50
BRANCH  49  65
ATOM     65  C   UNL     1       0.390   3.567  -1.119  1.00  0.00     0.326 C 
ATOM     66  O   UNL     1       1.556   3.930  -1.062  1.00  0.00    -0.250 OA
BRANCH  65  67
ATOM     67  O   UNL     1       0.057   2.320  -0.718  1.00  0.00    -0.480 OA
ATOM     68  H   UNL     1       0.205   2.341   0.252  1.00  0.00     0.296 HD
ENDBRANCH  65  67
ENDBRANCH  49  65
ENDBRANCH  47  49
ENDBRANCH  43  45
ENDBRANCH   1  43
BRANCH   1  69
ATOM     69  C   UNL     1      -0.802   1.426  -6.304  1.00  0.00    -0.001 C 
ATOM     70  C   UNL     1       0.351   0.734  -6.353  1.00  0.00     0.001 C 
BRANCH  70  71
ATOM     71  C   UNL     1       1.266   0.630  -7.492  1.00  0.00    -0.055 C 
ATOM     72  C   UNL     1       2.445   1.282  -7.411  1.00  0.00    -0.018 C 
ATOM     73  C   UNL     1       0.830  -0.204  -8.669  1.00  0.00     0.044 C 
BRANCH  72  74
ATOM     74  C   UNL     1       3.578   1.352  -8.425  1.00  0.00     0.038 C 
ATOM     75  C   UNL     1       4.892   1.227  -7.644  1.00  0.00     0.015 C 
BRANCH  74  76
ATOM     76  C   UNL     1       3.432   2.663  -9.252  1.00  0.00     0.128 C 
BRANCH  76  77
ATOM     77  O   UNL     1       4.714   3.295  -9.401  1.00  0.00    -0.381 OA
ATOM     78  C   UNL     1       5.185   3.322 -10.742  1.00  0.00     0.195 C 
ENDBRANCH  76  77
BRANCH  76  79
ATOM     79  C   UNL     1       2.694   2.477 -10.601  1.00  0.00     0.068 C 
BRANCH  79  80
ATOM     80  C   UNL     1       1.479   3.332 -10.867  1.00  0.00    -0.045 A 
ATOM     81  C   UNL     1       1.608   4.638 -11.359  1.00  0.00     0.004 A 
ATOM     82  C   UNL     1       0.193   2.838 -10.596  1.00  0.00     0.004 A 
ATOM     83  C   UNL     1       0.479   5.427 -11.588  1.00  0.00     0.000 A 
ATOM     84  C   UNL     1      -0.935   3.629 -10.825  1.00  0.00     0.000 A 
ATOM     85  C   UNL     1      -0.792   4.922 -11.323  1.00  0.00     0.000 A 
ENDBRANCH  79  80
ENDBRANCH  76  79
ENDBRANCH  74  76
ENDBRANCH  72  74
ENDBRANCH  70  71
ENDBRANCH   1  69
TORSDOF 17
ENDMDL
MODEL 4
REMARK VINA RESULT:    -7.236      3.626     11.702
REMARK INTER + INTRA:         -28.132
REMARK INTER:                 -22.114
REMARK INTRA:                  -6.018
REMARK UNBOUND:                -6.514
REMARK SMILES C=C1C(=O)N[C@H](C)C(=O)N[C@@H](CC(C)C)C(=O)N[C@@H](C(=O)O)[C@H](C)C(=O)N[C@@H](CCCN=C(N)N)C(=O)N[C@@H](/C=C/C(C)=C/[C@H](C)[C@H](Cc2ccccc2)OC)[C@H](C)C(=O)N[C@@H](C(=O)O)CCC(=O)N1C
REMARK SMILES IDX 39 1 38 2 37 3 36 4 28 6 27 7 25 8 26 9 23 11 24 12 19 13
REMARK SMILES IDX 18 14 16 15 17 16 11 18 10 19 8 20 9 21 12 24 13 25 14 26
REMARK SMILES IDX 15 27 20 28 21 29 22 30 29 32 30 33 31 34 32 35 33 36 34 37
REMARK SMILES IDX 35 38 57 43 58 44 59 45 60 46 61 47 62 49 66 50 67 51 68 52
REMARK SMILES IDX 69 53 70 54 71 55 2 56 1 57 3 58 4 59 5 60 6 62 7 63 63 65
REMARK SMILES IDX 64 66 65 67 40 69 41 70 42 71 44 72 43 73 45 74 46 75 47 76
REMARK SMILES IDX 55 77 56 78 48 79 49 80 50 81 54 82 51 83 53 84 52 85
REMARK H PARENT 38 5 27 10 18 17 10 22 22 31 34 39 34 40 35 41 35 42 61 48
REMARK H PARENT 5 61 65 68
REMARK Flexibility Score:  369.900
ROOT
ATOM      1  C   UNL     1       1.412   1.718  -8.128  1.00  0.00     0.117 C 
ENDROOT
BRANCH   1   2
ATOM      2  N   UNL     1       0.497   2.659  -8.775  1.00  0.00    -0.347 N 
ATOM      3  O   UNL     1       0.537   1.740 -10.878  1.00  0.00    -0.273 OA
ATOM      4  C   UNL     1       0.060   2.540 -10.080  1.00  0.00     0.243 C 
ATOM      5  H   UNL     1       0.111   3.421  -8.238  1.00  0.00     0.164 HD
BRANCH   4   6
ATOM      6  C   UNL     1      -0.972   3.620 -10.492  1.00  0.00     0.171 C 
BRANCH   6   7
ATOM      7  N   UNL     1      -1.465   4.340  -9.307  1.00  0.00    -0.344 N 
ATOM      8  C   UNL     1      -2.816   4.432  -9.051  1.00  0.00     0.226 C 
ATOM      9  O   UNL     1      -3.662   3.948  -9.793  1.00  0.00    -0.275 OA
ATOM     10  H   UNL     1      -0.799   4.810  -8.706  1.00  0.00     0.164 HD
BRANCH   8  11
ATOM     11  C   UNL     1      -3.161   5.158  -7.763  1.00  0.00     0.109 C 
ATOM     12  C   UNL     1      -3.989   6.406  -8.068  1.00  0.00     0.021 C 
BRANCH  11  13
ATOM     13  C   UNL     1      -3.811   4.176  -6.768  1.00  0.00     0.204 C 
BRANCH  13  14
ATOM     14  N   UNL     1      -4.844   3.351  -7.403  1.00  0.00    -0.340 N 
ATOM     15  C   UNL     1      -6.191   3.526  -7.168  1.00  0.00     0.243 C 
ATOM     16  O   UNL     1      -6.625   4.428  -6.454  1.00  0.00    -0.273 OA
ATOM     17  H   UNL     1      -4.549   2.496  -7.882  1.00  0.00     0.164 HD
BRANCH  15  18
ATOM     18  C   UNL     1      -7.075   2.412  -7.781  1.00  0.00     0.171 C 
BRANCH  18  19
ATOM     19  N   UNL     1      -8.449   2.696  -7.370  1.00  0.00    -0.343 N 
ATOM     20  C   UNL     1      -9.252   1.730  -6.796  1.00  0.00     0.242 CG0
ATOM     21  O   UNL     1      -8.896   0.556  -6.726  1.00  0.00    -0.273 OA
ATOM     22  H   UNL     1      -8.829   3.624  -7.514  1.00  0.00     0.164 HD
ATOM     23  G   UNL     1     -10.642   2.235  -6.357  1.00  0.00     0.000 G0
ENDBRANCH  18  19
BRANCH  18  24
ATOM     24  C   UNL     1      -6.938   2.390  -9.308  1.00  0.00     0.038 C 
BRANCH  24  25
ATOM     25  C   UNL     1      -7.843   3.396 -10.051  1.00  0.00    -0.015 C 
ATOM     26  C   UNL     1      -8.462   2.802 -11.316  1.00  0.00     0.007 C 
ATOM     27  C   UNL     1      -7.036   4.647 -10.410  1.00  0.00     0.007 C 
ENDBRANCH  24  25
ENDBRANCH  18  24
ENDBRANCH  15  18
ENDBRANCH  13  14
BRANCH  13  28
ATOM     28  C   UNL     1      -2.805   3.222  -6.117  1.00  0.00     0.327 C 
ATOM     29  O   UNL     1      -2.972   2.591  -5.084  1.00  0.00    -0.250 OA
BRANCH  28  30
ATOM     30  O   UNL     1      -1.609   3.210  -6.739  1.00  0.00    -0.480 OA
ATOM     31  H   UNL     1      -1.801   3.550  -7.637  1.00  0.00     0.296 HD
ENDBRANCH  28  30
ENDBRANCH  13  28
ENDBRANCH  11  13
ENDBRANCH   8  11
ENDBRANCH   6   7
BRANCH   6  32
ATOM     32  C   UNL     1      -0.320   4.586 -11.487  1.00  0.00     0.037 C 
BRANCH  32  33
ATOM     33  C   UNL     1      -0.378   6.042 -11.004  1.00  0.00     0.026 C 
BRANCH  33  34
ATOM     34  C   UNL     1      -1.067   6.966 -12.010  1.00  0.00     0.146 C 
BRANCH  34  35
ATOM     35  N   UNL     1      -2.486   7.035 -11.689  1.00  0.00    -0.254 NA
ATOM     36  C   UNL     1      -2.946   8.112 -11.169  1.00  0.00     0.185 C 
ATOM     37  N   UNL     1      -4.253   8.189 -10.874  1.00  0.00    -0.370 N 
ATOM     38  N   UNL     1      -2.292   9.244 -10.853  1.00  0.00    -0.370 N 
ATOM     39  H   UNL     1      -4.816   7.377 -11.092  1.00  0.00     0.159 HD
ATOM     40  H   UNL     1      -4.718   9.046 -10.630  1.00  0.00     0.159 HD
ATOM     41  H   UNL     1      -2.739   9.972 -10.319  1.00  0.00     0.159 HD
ATOM     42  H   UNL     1      -1.299   9.322 -11.006  1.00  0.00     0.159 HD
ENDBRANCH  34  35
ENDBRANCH  33  34
ENDBRANCH  32  33
ENDBRANCH   6  32
ENDBRANCH   4   6
ENDBRANCH   1   2
BRANCH   1  43
ATOM     43  C   UNL     1       2.412   1.187  -9.196  1.00  0.00     0.102 C 
ATOM     44  C   UNL     1       2.737  -0.308  -9.040  1.00  0.00     0.020 C 
BRANCH  43  45
ATOM     45  C   UNL     1       3.649   2.086  -9.286  1.00  0.00     0.225 C 
ATOM     46  O   UNL     1       3.604   3.305  -9.151  1.00  0.00    -0.275 OA
ATOM     47  N   UNL     1       4.821   1.448  -9.624  1.00  0.00    -0.342 N 
ATOM     48  H   UNL     1       4.872   0.440  -9.581  1.00  0.00     0.164 HD
BRANCH  47  49
ATOM     49  C   UNL     1       6.091   2.175  -9.712  1.00  0.00     0.192 C 
BRANCH  49  50
ATOM     50  C   UNL     1       6.594   2.159 -11.157  1.00  0.00     0.047 C 
BRANCH  50  51
ATOM     51  C   UNL     1       6.506   0.763 -11.789  1.00  0.00     0.103 C 
BRANCH  51  52
ATOM     52  C   UNL     1       7.886   0.170 -12.063  1.00  0.00     0.226 C 
ATOM     53  O   UNL     1       8.354  -0.669 -11.291  1.00  0.00    -0.275 OA
BRANCH  52  54
ATOM     54  N   UNL     1       8.518   0.576 -13.253  1.00  0.00    -0.311 N 
ATOM     55  C   UNL     1       8.365  -0.197 -14.493  1.00  0.00     0.153 C 
BRANCH  54  56
ATOM     56  C   UNL     1       9.311   1.735 -13.303  1.00  0.00     0.102 C 
ATOM     57  C   UNL     1       9.250   2.667 -14.267  1.00  0.00     0.043 C 
BRANCH  56  58
ATOM     58  C   UNL     1      10.298   2.046 -12.202  1.00  0.00     0.268 C 
ATOM     59  O   UNL     1      11.229   1.308 -11.909  1.00  0.00    -0.268 OA
ATOM     60  N   UNL     1      10.082   3.268 -11.612  1.00  0.00    -0.339 N 
ATOM     61  H   UNL     1       9.281   3.816 -11.906  1.00  0.00     0.164 HD
BRANCH  60  62
ATOM     62  C   UNL     1      10.958   3.795 -10.567  1.00  0.00     0.168 CG0
ATOM     63  C   UNL     1      11.769   4.979 -11.078  1.00  0.00     0.041 C 
ATOM     64  G   UNL     1      11.888   2.674 -10.059  1.00  0.00     0.000 G0
ENDBRANCH  60  62
ENDBRANCH  56  58
ENDBRANCH  54  56
ENDBRANCH  52  54
ENDBRANCH  51  52
ENDBRANCH  50  51
ENDBRANCH  49  50
BRANCH  49  65
ATOM     65  C   UNL     1       7.160   1.562  -8.794  1.00  0.00     0.326 C 
ATOM     66  O   UNL     1       6.944   0.984  -7.739  1.00  0.00    -0.250 OA
BRANCH  65  67
ATOM     67  O   UNL     1       8.433   1.751  -9.206  1.00  0.00    -0.480 OA
ATOM     68  H   UNL     1       8.357   2.471  -9.869  1.00  0.00     0.296 HD
ENDBRANCH  65  67
ENDBRANCH  49  65
ENDBRANCH  47  49
ENDBRANCH  43  45
ENDBRANCH   1  43
BRANCH   1  69
ATOM     69  C   UNL     1       0.541   0.724  -7.382  1.00  0.00    -0.001 C 
ATOM     70  C   UNL     1       0.243   0.723  -6.071  1.00  0.00     0.001 C 
BRANCH  70  71
ATOM     71  C   UNL     1      -0.617  -0.229  -5.365  1.00  0.00    -0.055 C 
ATOM     72  C   UNL     1      -1.682  -0.725  -6.030  1.00  0.00    -0.018 C 
ATOM     73  C   UNL     1      -0.249  -0.594  -3.951  1.00  0.00     0.044 C 
BRANCH  72  74
ATOM     74  C   UNL     1      -2.734  -1.720  -5.559  1.00  0.00     0.038 C 
ATOM     75  C   UNL     1      -3.338  -2.367  -6.811  1.00  0.00     0.015 C 
BRANCH  74  76
ATOM     76  C   UNL     1      -3.756  -0.975  -4.651  1.00  0.00     0.128 C 
BRANCH  76  77
ATOM     77  O   UNL     1      -4.838  -0.463  -5.448  1.00  0.00    -0.381 OA
ATOM     78  C   UNL     1      -5.702   0.417  -4.740  1.00  0.00     0.195 C 
ENDBRANCH  76  77
BRANCH  76  79
ATOM     79  C   UNL     1      -4.246  -1.808  -3.440  1.00  0.00     0.068 C 
BRANCH  79  80
ATOM     80  C   UNL     1      -4.802  -3.185  -3.707  1.00  0.00    -0.045 A 
ATOM     81  C   UNL     1      -6.099  -3.355  -4.209  1.00  0.00     0.004 A 
ATOM     82  C   UNL     1      -4.032  -4.325  -3.428  1.00  0.00     0.004 A 
ATOM     83  C   UNL     1      -6.611  -4.634  -4.440  1.00  0.00     0.000 A 
ATOM     84  C   UNL     1      -4.546  -5.603  -3.659  1.00  0.00     0.000 A 
ATOM     85  C   UNL     1      -5.834  -5.757  -4.167  1.00  0.00     0.000 A 
ENDBRANCH  79  80
ENDBRANCH  76  79
ENDBRANCH  74  76
ENDBRANCH  72  74
ENDBRANCH  70  71
ENDBRANCH   1  69
TORSDOF 17
ENDMDL
MODEL 5
REMARK VINA RESULT:    -7.142      4.081      7.775
REMARK INTER + INTRA:         -27.850
REMARK INTER:                 -21.553
REMARK INTRA:                  -6.298
REMARK UNBOUND:                -6.514
REMARK SMILES C=C1C(=O)N[C@H](C)C(=O)N[C@@H](CC(C)C)C(=O)N[C@@H](C(=O)O)[C@H](C)C(=O)N[C@@H](CCCN=C(N)N)C(=O)N[C@@H](/C=C/C(C)=C/[C@H](C)[C@H](Cc2ccccc2)OC)[C@H](C)C(=O)N[C@@H](C(=O)O)CCC(=O)N1C
REMARK SMILES IDX 39 1 38 2 37 3 36 4 28 6 27 7 25 8 26 9 23 11 24 12 19 13
REMARK SMILES IDX 18 14 16 15 17 16 11 18 10 19 8 20 9 21 12 24 13 25 14 26
REMARK SMILES IDX 15 27 20 28 21 29 22 30 29 32 30 33 31 34 32 35 33 36 34 37
REMARK SMILES IDX 35 38 57 43 58 44 59 45 60 46 61 47 62 49 66 50 67 51 68 52
REMARK SMILES IDX 69 53 70 54 71 55 2 56 1 57 3 58 4 59 5 60 6 62 7 63 63 65
REMARK SMILES IDX 64 66 65 67 40 69 41 70 42 71 44 72 43 73 45 74 46 75 47 76
REMARK SMILES IDX 55 77 56 78 48 79 49 80 50 81 54 82 51 83 53 84 52 85
REMARK H PARENT 38 5 27 10 18 17 10 22 22 31 34 39 34 40 35 41 35 42 61 48
REMARK H PARENT 5 61 65 68
REMARK Flexibility Score:  369.900
ROOT
ATOM      1  C   UNL     1      -1.325   1.588  -4.976  1.00  0.00     0.117 C 
ENDROOT
BRANCH   1   2
ATOM      2  N   UNL     1      -0.270   1.814  -5.964  1.00  0.00    -0.347 N 
ATOM      3  O   UNL     1      -0.456  -0.183  -7.082  1.00  0.00    -0.273 OA
ATOM      4  C   UNL     1       0.019   0.945  -6.999  1.00  0.00     0.243 C 
ATOM      5  H   UNL     1       0.258   2.673  -5.937  1.00  0.00     0.164 HD
BRANCH   4   6
ATOM      6  C   UNL     1       1.124   1.461  -7.956  1.00  0.00     0.171 C 
BRANCH   6   7
ATOM      7  N   UNL     1       0.596   2.526  -8.823  1.00  0.00    -0.344 N 
ATOM      8  C   UNL     1       0.104   2.234 -10.077  1.00  0.00     0.226 C 
ATOM      9  O   UNL     1       0.101   1.098 -10.536  1.00  0.00    -0.275 OA
ATOM     10  H   UNL     1       0.645   3.486  -8.506  1.00  0.00     0.164 HD
BRANCH   8  11
ATOM     11  C   UNL     1      -0.453   3.432 -10.826  1.00  0.00     0.109 C 
ATOM     12  C   UNL     1      -1.724   3.935 -10.141  1.00  0.00     0.021 C 
BRANCH  11  13
ATOM     13  C   UNL     1       0.651   4.493 -11.006  1.00  0.00     0.204 C 
BRANCH  13  14
ATOM     14  N   UNL     1       1.575   4.149 -12.091  1.00  0.00    -0.340 N 
ATOM     15  C   UNL     1       2.807   3.572 -11.870  1.00  0.00     0.243 C 
ATOM     16  O   UNL     1       3.192   3.248 -10.748  1.00  0.00    -0.273 OA
ATOM     17  H   UNL     1       1.384   4.527 -13.023  1.00  0.00     0.164 HD
BRANCH  15  18
ATOM     18  C   UNL     1       3.689   3.493 -13.140  1.00  0.00     0.171 C 
BRANCH  18  19
ATOM     19  N   UNL     1       2.778   3.403 -14.278  1.00  0.00    -0.343 N 
ATOM     20  C   UNL     1       2.922   2.434 -15.253  1.00  0.00     0.242 CG0
ATOM     21  O   UNL     1       3.898   1.688 -15.279  1.00  0.00    -0.273 OA
ATOM     22  H   UNL     1       2.020   4.071 -14.363  1.00  0.00     0.164 HD
ATOM     23  G   UNL     1       1.820   2.447 -16.332  1.00  0.00     0.000 G0
ENDBRANCH  18  19
BRANCH  18  24
ATOM     24  C   UNL     1       4.599   4.723 -13.244  1.00  0.00     0.038 C 
BRANCH  24  25
ATOM     25  C   UNL     1       6.105   4.426 -13.079  1.00  0.00    -0.015 C 
ATOM     26  C   UNL     1       6.534   3.153 -13.808  1.00  0.00     0.007 C 
ATOM     27  C   UNL     1       6.447   4.309 -11.592  1.00  0.00     0.007 C 
ENDBRANCH  24  25
ENDBRANCH  18  24
ENDBRANCH  15  18
ENDBRANCH  13  14
BRANCH  13  28
ATOM     28  C   UNL     1       0.100   5.891 -11.304  1.00  0.00     0.327 C 
ATOM     29  O   UNL     1      -0.359   6.275 -12.369  1.00  0.00    -0.250 OA
BRANCH  28  30
ATOM     30  O   UNL     1       0.270   6.755 -10.283  1.00  0.00    -0.480 OA
ATOM     31  H   UNL     1      -0.312   6.409  -9.575  1.00  0.00     0.296 HD
ENDBRANCH  28  30
ENDBRANCH  13  28
ENDBRANCH  11  13
ENDBRANCH   8  11
ENDBRANCH   6   7
BRANCH   6  32
ATOM     32  C   UNL     1       2.311   1.965  -7.129  1.00  0.00     0.037 C 
BRANCH  32  33
ATOM     33  C   UNL     1       3.641   1.352  -7.590  1.00  0.00     0.026 C 
BRANCH  33  34
ATOM     34  C   UNL     1       4.736   2.403  -7.775  1.00  0.00     0.146 C 
BRANCH  34  35
ATOM     35  N   UNL     1       5.815   1.822  -8.563  1.00  0.00    -0.254 NA
ATOM     36  C   UNL     1       6.973   1.707  -8.028  1.00  0.00     0.185 C 
ATOM     37  N   UNL     1       7.973   1.169  -8.742  1.00  0.00    -0.370 N 
ATOM     38  N   UNL     1       7.372   2.059  -6.792  1.00  0.00    -0.370 N 
ATOM     39  H   UNL     1       7.749   0.868  -9.682  1.00  0.00     0.159 HD
ATOM     40  H   UNL     1       8.853   0.887  -8.344  1.00  0.00     0.159 HD
ATOM     41  H   UNL     1       8.345   2.046  -6.535  1.00  0.00     0.159 HD
ATOM     42  H   UNL     1       6.727   2.492  -6.149  1.00  0.00     0.159 HD
ENDBRANCH  34  35
ENDBRANCH  33  34
ENDBRANCH  32  33
ENDBRANCH   6  32
ENDBRANCH   4   6
ENDBRANCH   1   2
BRANCH   1  43
ATOM     43  C   UNL     1      -2.702   1.659  -5.697  1.00  0.00     0.102 C 
ATOM     44  C   UNL     1      -3.137   3.092  -6.048  1.00  0.00     0.020 C 
BRANCH  43  45
ATOM     45  C   UNL     1      -3.763   0.857  -4.937  1.00  0.00     0.225 C 
ATOM     46  O   UNL     1      -4.884   1.291  -4.692  1.00  0.00    -0.275 OA
ATOM     47  N   UNL     1      -3.349  -0.364  -4.454  1.00  0.00    -0.342 N 
ATOM     48  H   UNL     1      -2.486  -0.768  -4.790  1.00  0.00     0.164 HD
BRANCH  47  49
ATOM     49  C   UNL     1      -4.267  -1.256  -3.739  1.00  0.00     0.192 C 
BRANCH  49  50
ATOM     50  C   UNL     1      -3.555  -1.860  -2.525  1.00  0.00     0.047 C 
BRANCH  50  51
ATOM     51  C   UNL     1      -2.328  -1.040  -2.103  1.00  0.00     0.103 C 
BRANCH  51  52
ATOM     52  C   UNL     1      -2.472  -0.478  -0.690  1.00  0.00     0.226 C 
ATOM     53  O   UNL     1      -3.469   0.185  -0.396  1.00  0.00    -0.275 OA
BRANCH  52  54
ATOM     54  N   UNL     1      -1.466  -0.828   0.229  1.00  0.00    -0.311 N 
ATOM     55  C   UNL     1      -0.650  -2.034   0.035  1.00  0.00     0.153 C 
BRANCH  54  56
ATOM     56  C   UNL     1      -1.199  -0.037   1.360  1.00  0.00     0.102 C 
ATOM     57  C   UNL     1      -0.589   1.159   1.334  1.00  0.00     0.043 C 
BRANCH  56  58
ATOM     58  C   UNL     1      -1.641  -0.478   2.735  1.00  0.00     0.268 C 
ATOM     59  O   UNL     1      -2.805  -0.434   3.111  1.00  0.00    -0.268 OA
ATOM     60  N   UNL     1      -0.616  -0.992   3.493  1.00  0.00    -0.339 N 
ATOM     61  H   UNL     1       0.323  -0.983   3.113  1.00  0.00     0.164 HD
BRANCH  60  62
ATOM     62  C   UNL     1      -0.834  -1.534   4.833  1.00  0.00     0.168 CG0
ATOM     63  C   UNL     1      -0.387  -0.546   5.903  1.00  0.00     0.041 C 
ATOM     64  G   UNL     1      -0.081  -2.873   4.978  1.00  0.00     0.000 G0
ENDBRANCH  60  62
ENDBRANCH  56  58
ENDBRANCH  54  56
ENDBRANCH  52  54
ENDBRANCH  51  52
ENDBRANCH  50  51
ENDBRANCH  49  50
BRANCH  49  65
ATOM     65  C   UNL     1      -4.778  -2.388  -4.644  1.00  0.00     0.326 C 
ATOM     66  O   UNL     1      -4.427  -2.589  -5.797  1.00  0.00    -0.250 OA
BRANCH  65  67
ATOM     67  O   UNL     1      -5.735  -3.164  -4.090  1.00  0.00    -0.480 OA
ATOM     68  H   UNL     1      -5.535  -4.061  -4.436  1.00  0.00     0.296 HD
ENDBRANCH  65  67
ENDBRANCH  49  65
ENDBRANCH  47  49
ENDBRANCH  43  45
ENDBRANCH   1  43
BRANCH   1  69
ATOM     69  C   UNL     1      -1.046   2.546  -3.832  1.00  0.00    -0.001 C 
ATOM     70  C   UNL     1      -1.702   2.634  -2.662  1.00  0.00     0.001 C 
BRANCH  70  71
ATOM     71  C   UNL     1      -1.410   3.549  -1.556  1.00  0.00    -0.055 C 
ATOM     72  C   UNL     1      -0.114   3.796  -1.272  1.00  0.00    -0.018 C 
ATOM     73  C   UNL     1      -2.576   4.155  -0.819  1.00  0.00     0.044 C 
BRANCH  72  74
ATOM     74  C   UNL     1       0.482   4.693  -0.197  1.00  0.00     0.038 C 
ATOM     75  C   UNL     1       0.476   6.125  -0.746  1.00  0.00     0.015 C 
BRANCH  74  76
ATOM     76  C   UNL     1       1.889   4.148   0.188  1.00  0.00     0.128 C 
BRANCH  76  77
ATOM     77  O   UNL     1       2.057   4.187   1.615  1.00  0.00    -0.381 OA
ATOM     78  C   UNL     1       2.795   5.312   2.072  1.00  0.00     0.195 C 
ENDBRANCH  76  77
BRANCH  76  79
ATOM     79  C   UNL     1       2.212   2.758  -0.416  1.00  0.00     0.068 C 
BRANCH  79  80
ATOM     80  C   UNL     1       3.627   2.246  -0.296  1.00  0.00    -0.045 A 
ATOM     81  C   UNL     1       3.890   0.877  -0.154  1.00  0.00     0.004 A 
ATOM     82  C   UNL     1       4.706   3.143  -0.297  1.00  0.00     0.004 A 
ATOM     83  C   UNL     1       5.201   0.413  -0.029  1.00  0.00     0.000 A 
ATOM     84  C   UNL     1       6.017   2.678  -0.171  1.00  0.00     0.000 A 
ATOM     85  C   UNL     1       6.264   1.313  -0.039  1.00  0.00     0.000 A 
ENDBRANCH  79  80
ENDBRANCH  76  79
ENDBRANCH  74  76
ENDBRANCH  72  74
ENDBRANCH  70  71
ENDBRANCH   1  69
TORSDOF 17
ENDMDL
MODEL 6
REMARK VINA RESULT:    -7.035      4.586     11.804
REMARK INTER + INTRA:         -27.531
REMARK INTER:                 -20.931
REMARK INTRA:                  -6.599
REMARK UNBOUND:                -6.514
REMARK SMILES C=C1C(=O)N[C@H](C)C(=O)N[C@@H](CC(C)C)C(=O)N[C@@H](C(=O)O)[C@H](C)C(=O)N[C@@H](CCCN=C(N)N)C(=O)N[C@@H](/C=C/C(C)=C/[C@H](C)[C@H](Cc2ccccc2)OC)[C@H](C)C(=O)N[C@@H](C(=O)O)CCC(=O)N1C
REMARK SMILES IDX 39 1 38 2 37 3 36 4 28 6 27 7 25 8 26 9 23 11 24 12 19 13
REMARK SMILES IDX 18 14 16 15 17 16 11 18 10 19 8 20 9 21 12 24 13 25 14 26
REMARK SMILES IDX 15 27 20 28 21 29 22 30 29 32 30 33 31 34 32 35 33 36 34 37
REMARK SMILES IDX 35 38 57 43 58 44 59 45 60 46 61 47 62 49 66 50 67 51 68 52
REMARK SMILES IDX 69 53 70 54 71 55 2 56 1 57 3 58 4 59 5 60 6 62 7 63 63 65
REMARK SMILES IDX 64 66 65 67 40 69 41 70 42 71 44 72 43 73 45 74 46 75 47 76
REMARK SMILES IDX 55 77 56 78 48 79 49 80 50 81 54 82 51 83 53 84 52 85
REMARK H PARENT 38 5 27 10 18 17 10 22 22 31 34 39 34 40 35 41 35 42 61 48
REMARK H PARENT 5 61 65 68
REMARK Flexibility Score:  369.900
ROOT
ATOM      1  C   UNL     1      -1.630   1.135  -5.357  1.00  0.00     0.117 C 
ENDROOT
BRANCH   1   2
ATOM      2  N   UNL     1      -2.781   0.240  -5.481  1.00  0.00    -0.347 N 
ATOM      3  O   UNL     1      -3.214  -0.025  -3.242  1.00  0.00    -0.273 OA
ATOM      4  C   UNL     1      -3.540  -0.196  -4.412  1.00  0.00     0.243 C 
ATOM      5  H   UNL     1      -3.087  -0.048  -6.398  1.00  0.00     0.164 HD
BRANCH   4   6
ATOM      6  C   UNL     1      -4.755  -1.065  -4.823  1.00  0.00     0.171 C 
BRANCH   6   7
ATOM      7  N   UNL     1      -5.630  -0.323  -5.745  1.00  0.00    -0.344 N 
ATOM      8  C   UNL     1      -6.903   0.043  -5.364  1.00  0.00     0.226 C 
ATOM      9  O   UNL     1      -7.372  -0.244  -4.269  1.00  0.00    -0.275 OA
ATOM     10  H   UNL     1      -5.302  -0.127  -6.682  1.00  0.00     0.164 HD
BRANCH   8  11
ATOM     11  C   UNL     1      -7.659   0.850  -6.404  1.00  0.00     0.109 C 
ATOM     12  C   UNL     1      -9.163   0.619  -6.258  1.00  0.00     0.021 C 
BRANCH  11  13
ATOM     13  C   UNL     1      -7.221   2.327  -6.338  1.00  0.00     0.204 C 
BRANCH  13  14
ATOM     14  N   UNL     1      -7.102   2.927  -7.670  1.00  0.00    -0.340 N 
ATOM     15  C   UNL     1      -5.908   2.999  -8.354  1.00  0.00     0.243 C 
ATOM     16  O   UNL     1      -4.867   2.509  -7.919  1.00  0.00    -0.273 OA
ATOM     17  H   UNL     1      -7.888   3.483  -8.019  1.00  0.00     0.164 HD
BRANCH  15  18
ATOM     18  C   UNL     1      -5.983   3.857  -9.641  1.00  0.00     0.171 C 
BRANCH  18  19
ATOM     19  N   UNL     1      -7.399   3.971  -9.986  1.00  0.00    -0.343 N 
ATOM     20  C   UNL     1      -7.979   3.177 -10.957  1.00  0.00     0.242 CG0
ATOM     21  O   UNL     1      -7.305   2.433 -11.667  1.00  0.00    -0.273 OA
ATOM     22  H   UNL     1      -7.974   4.654  -9.507  1.00  0.00     0.164 HD
ATOM     23  G   UNL     1      -9.498   3.386 -11.126  1.00  0.00     0.000 G0
ENDBRANCH  18  19
BRANCH  18  24
ATOM     24  C   UNL     1      -5.347   5.234  -9.413  1.00  0.00     0.038 C 
BRANCH  24  25
ATOM     25  C   UNL     1      -4.019   5.463 -10.165  1.00  0.00    -0.015 C 
ATOM     26  C   UNL     1      -3.674   4.310 -11.108  1.00  0.00     0.007 C 
ATOM     27  C   UNL     1      -2.885   5.663  -9.157  1.00  0.00     0.007 C 
ENDBRANCH  24  25
ENDBRANCH  18  24
ENDBRANCH  15  18
ENDBRANCH  13  14
BRANCH  13  28
ATOM     28  C   UNL     1      -8.180   3.205  -5.528  1.00  0.00     0.327 C 
ATOM     29  O   UNL     1      -8.360   3.157  -4.321  1.00  0.00    -0.250 OA
BRANCH  28  30
ATOM     30  O   UNL     1      -8.941   4.008  -6.300  1.00  0.00    -0.480 OA
ATOM     31  H   UNL     1      -8.344   4.277  -7.029  1.00  0.00     0.296 HD
ENDBRANCH  28  30
ENDBRANCH  13  28
ENDBRANCH  11  13
ENDBRANCH   8  11
ENDBRANCH   6   7
BRANCH   6  32
ATOM     32  C   UNL     1      -4.252  -2.360  -5.471  1.00  0.00     0.037 C 
BRANCH  32  33
ATOM     33  C   UNL     1      -5.257  -3.511  -5.323  1.00  0.00     0.026 C 
BRANCH  33  34
ATOM     34  C   UNL     1      -5.934  -3.523  -3.952  1.00  0.00     0.146 C 
BRANCH  34  35
ATOM     35  N   UNL     1      -5.396  -4.629  -3.172  1.00  0.00    -0.254 NA
ATOM     36  C   UNL     1      -4.523  -4.377  -2.269  1.00  0.00     0.185 C 
ATOM     37  N   UNL     1      -4.024  -5.388  -1.541  1.00  0.00    -0.370 N 
ATOM     38  N   UNL     1      -3.995  -3.193  -1.912  1.00  0.00    -0.370 N 
ATOM     39  H   UNL     1      -4.380  -6.313  -1.744  1.00  0.00     0.159 HD
ATOM     40  H   UNL     1      -3.474  -5.256  -0.709  1.00  0.00     0.159 HD
ATOM     41  H   UNL     1      -3.212  -3.141  -1.281  1.00  0.00     0.159 HD
ATOM     42  H   UNL     1      -4.267  -2.346  -2.387  1.00  0.00     0.159 HD
ENDBRANCH  34  35
ENDBRANCH  33  34
ENDBRANCH  32  33
ENDBRANCH   6  32
ENDBRANCH   4   6
ENDBRANCH   1   2
BRANCH   1  43
ATOM     43  C   UNL     1      -2.145   2.603  -5.331  1.00  0.00     0.102 C 
ATOM     44  C   UNL     1      -1.884   3.367  -6.641  1.00  0.00     0.020 C 
BRANCH  43  45
ATOM     45  C   UNL     1      -1.656   3.335  -4.077  1.00  0.00     0.225 C 
ATOM     46  O   UNL     1      -1.024   4.387  -4.118  1.00  0.00    -0.275 OA
ATOM     47  N   UNL     1      -1.890   2.688  -2.885  1.00  0.00    -0.342 N 
ATOM     48  H   UNL     1      -2.536   1.912  -2.855  1.00  0.00     0.164 HD
BRANCH  47  49
ATOM     49  C   UNL     1      -1.509   3.287  -1.602  1.00  0.00     0.192 C 
BRANCH  49  50
ATOM     50  C   UNL     1      -0.138   2.757  -1.174  1.00  0.00     0.047 C 
BRANCH  50  51
ATOM     51  C   UNL     1       0.754   3.859  -0.586  1.00  0.00     0.103 C 
BRANCH  51  52
ATOM     52  C   UNL     1       1.158   3.561   0.857  1.00  0.00     0.226 C 
ATOM     53  O   UNL     1       0.469   3.990   1.785  1.00  0.00    -0.275 OA
BRANCH  52  54
ATOM     54  N   UNL     1       2.279   2.729   1.034  1.00  0.00    -0.311 N 
ATOM     55  C   UNL     1       2.121   1.309   1.375  1.00  0.00     0.153 C 
BRANCH  54  56
ATOM     56  C   UNL     1       3.587   3.221   0.887  1.00  0.00     0.102 C 
ATOM     57  C   UNL     1       4.463   2.808  -0.042  1.00  0.00     0.043 C 
BRANCH  56  58
ATOM     58  C   UNL     1       4.102   4.329   1.776  1.00  0.00     0.268 C 
ATOM     59  O   UNL     1       4.085   5.509   1.453  1.00  0.00    -0.268 OA
ATOM     60  N   UNL     1       4.528   3.882   3.004  1.00  0.00    -0.339 N 
ATOM     61  H   UNL     1       4.520   2.886   3.190  1.00  0.00     0.164 HD
BRANCH  60  62
ATOM     62  C   UNL     1       5.008   4.795   4.041  1.00  0.00     0.168 CG0
ATOM     63  C   UNL     1       6.528   4.901   4.016  1.00  0.00     0.041 C 
ATOM     64  G   UNL     1       4.518   4.311   5.422  1.00  0.00     0.000 G0
ENDBRANCH  60  62
ENDBRANCH  56  58
ENDBRANCH  54  56
ENDBRANCH  52  54
ENDBRANCH  51  52
ENDBRANCH  50  51
ENDBRANCH  49  50
BRANCH  49  65
ATOM     65  C   UNL     1      -2.540   2.977  -0.505  1.00  0.00     0.326 C 
ATOM     66  O   UNL     1      -3.632   3.513  -0.385  1.00  0.00    -0.250 OA
BRANCH  65  67
ATOM     67  O   UNL     1      -2.134   2.070   0.410  1.00  0.00    -0.480 OA
ATOM     68  H   UNL     1      -2.791   2.160   1.133  1.00  0.00     0.296 HD
ENDBRANCH  65  67
ENDBRANCH  49  65
ENDBRANCH  47  49
ENDBRANCH  43  45
ENDBRANCH   1  43
BRANCH   1  69
ATOM     69  C   UNL     1      -0.652   0.720  -6.441  1.00  0.00    -0.001 C 
ATOM     70  C   UNL     1       0.639   1.076  -6.556  1.00  0.00     0.001 C 
BRANCH  70  71
ATOM     71  C   UNL     1       1.579   0.652  -7.596  1.00  0.00    -0.055 C 
ATOM     72  C   UNL     1       2.842   1.124  -7.530  1.00  0.00    -0.018 C 
ATOM     73  C   UNL     1       1.074  -0.288  -8.659  1.00  0.00     0.044 C 
BRANCH  72  74
ATOM     74  C   UNL     1       4.020   0.856  -8.456  1.00  0.00     0.038 C 
ATOM     75  C   UNL     1       5.254   0.648  -7.571  1.00  0.00     0.015 C 
BRANCH  74  76
ATOM     76  C   UNL     1       4.135   2.030  -9.473  1.00  0.00     0.128 C 
BRANCH  76  77
ATOM     77  O   UNL     1       5.517   2.272  -9.788  1.00  0.00    -0.381 OA
ATOM     78  C   UNL     1       5.819   2.135 -11.170  1.00  0.00     0.195 C 
ENDBRANCH  76  77
BRANCH  76  79
ATOM     79  C   UNL     1       3.253   1.859 -10.735  1.00  0.00     0.068 C 
BRANCH  79  80
ATOM     80  C   UNL     1       2.118   2.833 -10.942  1.00  0.00    -0.045 A 
ATOM     81  C   UNL     1       2.365   4.158 -11.323  1.00  0.00     0.004 A 
ATOM     82  C   UNL     1       0.792   2.429 -10.727  1.00  0.00     0.004 A 
ATOM     83  C   UNL     1       1.311   5.057 -11.499  1.00  0.00     0.000 A 
ATOM     84  C   UNL     1      -0.262   3.329 -10.902  1.00  0.00     0.000 A 
ATOM     85  C   UNL     1      -0.002   4.642 -11.289  1.00  0.00     0.000 A 
ENDBRANCH  79  80
ENDBRANCH  76  79
ENDBRANCH  74  76
ENDBRANCH  72  74
ENDBRANCH  70  71
ENDBRANCH   1  69
TORSDOF 17
ENDMDL
MODEL 7
REMARK VINA RESULT:    -7.015      8.495     14.443
REMARK INTER + INTRA:         -27.473
REMARK INTER:                 -22.247
REMARK INTRA:                  -5.227
REMARK UNBOUND:                -6.514
REMARK SMILES C=C1C(=O)N[C@H](C)C(=O)N[C@@H](CC(C)C)C(=O)N[C@@H](C(=O)O)[C@H](C)C(=O)N[C@@H](CCCN=C(N)N)C(=O)N[C@@H](/C=C/C(C)=C/[C@H](C)[C@H](Cc2ccccc2)OC)[C@H](C)C(=O)N[C@@H](C(=O)O)CCC(=O)N1C
REMARK SMILES IDX 39 1 38 2 37 3 36 4 28 6 27 7 25 8 26 9 23 11 24 12 19 13
REMARK SMILES IDX 18 14 16 15 17 16 11 18 10 19 8 20 9 21 12 24 13 25 14 26
REMARK SMILES IDX 15 27 20 28 21 29 22 30 29 32 30 33 31 34 32 35 33 36 34 37
REMARK SMILES IDX 35 38 57 43 58 44 59 45 60 46 61 47 62 49 66 50 67 51 68 52
REMARK SMILES IDX 69 53 70 54 71 55 2 56 1 57 3 58 4 59 5 60 6 62 7 63 63 65
REMARK SMILES IDX 64 66 65 67 40 69 41 70 42 71 44 72 43 73 45 74 46 75 47 76
REMARK SMILES IDX 55 77 56 78 48 79 49 80 50 81 54 82 51 83 53 84 52 85
REMARK H PARENT 38 5 27 10 18 17 10 22 22 31 34 39 34 40 35 41 35 42 61 48
REMARK H PARENT 5 61 65 68
REMARK Flexibility Score:  369.900
ROOT
ATOM      1  C   UNL     1       5.975   2.041   0.250  1.00  0.00     0.117 C 
ENDROOT
BRANCH   1   2
ATOM      2  N   UNL     1       4.599   2.316  -0.166  1.00  0.00    -0.347 N 
ATOM      3  O   UNL     1       3.820   0.157  -0.122  1.00  0.00    -0.273 OA
ATOM      4  C   UNL     1       3.604   1.360  -0.230  1.00  0.00     0.243 C 
ATOM      5  H   UNL     1       4.326   3.265  -0.376  1.00  0.00     0.164 HD
BRANCH   4   6
ATOM      6  C   UNL     1       2.216   1.929  -0.616  1.00  0.00     0.171 C 
BRANCH   6   7
ATOM      7  N   UNL     1       1.153   0.970  -0.276  1.00  0.00    -0.344 N 
ATOM      8  C   UNL     1       0.179   0.644  -1.195  1.00  0.00     0.226 C 
ATOM      9  O   UNL     1       0.134   1.143  -2.313  1.00  0.00    -0.275 OA
ATOM     10  H   UNL     1       1.119   0.588   0.661  1.00  0.00     0.164 HD
BRANCH   8  11
ATOM     11  C   UNL     1      -0.812  -0.400  -0.712  1.00  0.00     0.109 C 
ATOM     12  C   UNL     1      -0.808  -0.462   0.815  1.00  0.00     0.021 C 
BRANCH  11  13
ATOM     13  C   UNL     1      -2.193  -0.140  -1.347  1.00  0.00     0.204 C 
BRANCH  13  14
ATOM     14  N   UNL     1      -2.954  -1.378  -1.539  1.00  0.00    -0.340 N 
ATOM     15  C   UNL     1      -3.073  -2.001  -2.763  1.00  0.00     0.243 C 
ATOM     16  O   UNL     1      -2.498  -1.593  -3.770  1.00  0.00    -0.273 OA
ATOM     17  H   UNL     1      -3.575  -1.683  -0.785  1.00  0.00     0.164 HD
BRANCH  15  18
ATOM     18  C   UNL     1      -4.089  -3.170  -2.766  1.00  0.00     0.171 C 
BRANCH  18  19
ATOM     19  N   UNL     1      -5.386  -2.596  -3.118  1.00  0.00    -0.343 N 
ATOM     20  C   UNL     1      -6.192  -1.985  -2.176  1.00  0.00     0.242 CG0
ATOM     21  O   UNL     1      -5.918  -2.014  -0.979  1.00  0.00    -0.273 OA
ATOM     22  H   UNL     1      -5.711  -2.650  -4.077  1.00  0.00     0.164 HD
ATOM     23  G   UNL     1      -7.486  -1.370  -2.749  1.00  0.00     0.000 G0
ENDBRANCH  18  19
BRANCH  18  24
ATOM     24  C   UNL     1      -3.665  -4.253  -3.765  1.00  0.00     0.038 C 
BRANCH  24  25
ATOM     25  C   UNL     1      -4.024  -5.694  -3.344  1.00  0.00    -0.015 C 
ATOM     26  C   UNL     1      -5.317  -6.188  -3.994  1.00  0.00     0.007 C 
ATOM     27  C   UNL     1      -4.152  -5.768  -1.820  1.00  0.00     0.007 C 
ENDBRANCH  24  25
ENDBRANCH  18  24
ENDBRANCH  15  18
ENDBRANCH  13  14
BRANCH  13  28
ATOM     28  C   UNL     1      -3.069   0.807  -0.520  1.00  0.00     0.327 C 
ATOM     29  O   UNL     1      -2.847   1.987  -0.298  1.00  0.00    -0.250 OA
BRANCH  28  30
ATOM     30  O   UNL     1      -4.107   0.184   0.074  1.00  0.00    -0.480 OA
ATOM     31  H   UNL     1      -4.275  -0.597  -0.493  1.00  0.00     0.296 HD
ENDBRANCH  28  30
ENDBRANCH  13  28
ENDBRANCH  11  13
ENDBRANCH   8  11
ENDBRANCH   6   7
BRANCH   6  32
ATOM     32  C   UNL     1       2.001   3.264   0.107  1.00  0.00     0.037 C 
BRANCH  32  33
ATOM     33  C   UNL     1       1.135   4.232  -0.711  1.00  0.00     0.026 C 
BRANCH  33  34
ATOM     34  C   UNL     1       0.230   5.095   0.171  1.00  0.00     0.146 C 
BRANCH  34  35
ATOM     35  N   UNL     1       0.768   6.447   0.214  1.00  0.00    -0.254 NA
ATOM     36  C   UNL     1       0.478   7.191   1.216  1.00  0.00     0.185 C 
ATOM     37  N   UNL     1       0.972   8.438   1.269  1.00  0.00    -0.370 N 
ATOM     38  N   UNL     1      -0.285   6.908   2.286  1.00  0.00    -0.370 N 
ATOM     39  H   UNL     1       1.567   8.724   0.502  1.00  0.00     0.159 HD
ATOM     40  H   UNL     1       0.937   9.016   2.091  1.00  0.00     0.159 HD
ATOM     41  H   UNL     1      -0.552   7.625   2.941  1.00  0.00     0.159 HD
ATOM     42  H   UNL     1      -0.735   6.010   2.372  1.00  0.00     0.159 HD
ENDBRANCH  34  35
ENDBRANCH  33  34
ENDBRANCH  32  33
ENDBRANCH   6  32
ENDBRANCH   4   6
ENDBRANCH   1   2
BRANCH   1  43
ATOM     43  C   UNL     1       6.160   2.544   1.711  1.00  0.00     0.102 C 
ATOM     44  C   UNL     1       5.211   1.870   2.716  1.00  0.00     0.020 C 
BRANCH  43  45
ATOM     45  C   UNL     1       6.144   4.074   1.772  1.00  0.00     0.225 C 
ATOM     46  O   UNL     1       6.851   4.781   1.059  1.00  0.00    -0.275 OA
ATOM     47  N   UNL     1       5.348   4.620   2.752  1.00  0.00    -0.342 N 
ATOM     48  H   UNL     1       4.666   4.041   3.222  1.00  0.00     0.164 HD
BRANCH  47  49
ATOM     49  C   UNL     1       5.207   6.071   2.906  1.00  0.00     0.192 C 
BRANCH  49  50
ATOM     50  C   UNL     1       5.426   6.457   4.371  1.00  0.00     0.047 C 
BRANCH  50  51
ATOM     51  C   UNL     1       6.910   6.667   4.702  1.00  0.00     0.103 C 
BRANCH  51  52
ATOM     52  C   UNL     1       7.539   5.425   5.329  1.00  0.00     0.226 C 
ATOM     53  O   UNL     1       8.308   4.729   4.663  1.00  0.00    -0.275 OA
BRANCH  52  54
ATOM     54  N   UNL     1       7.249   5.192   6.686  1.00  0.00    -0.311 N 
ATOM     55  C   UNL     1       6.189   4.256   7.083  1.00  0.00     0.153 C 
BRANCH  54  56
ATOM     56  C   UNL     1       7.963   5.839   7.708  1.00  0.00     0.102 C 
ATOM     57  C   UNL     1       7.543   6.931   8.367  1.00  0.00     0.043 C 
BRANCH  56  58
ATOM     58  C   UNL     1       9.290   5.299   8.188  1.00  0.00     0.268 C 
ATOM     59  O   UNL     1       9.445   4.779   9.285  1.00  0.00    -0.268 OA
ATOM     60  N   UNL     1      10.284   5.392   7.243  1.00  0.00    -0.339 N 
ATOM     61  H   UNL     1      10.078   5.847   6.362  1.00  0.00     0.164 HD
BRANCH  60  62
ATOM     62  C   UNL     1      11.631   4.873   7.476  1.00  0.00     0.168 CG0
ATOM     63  C   UNL     1      11.753   3.432   6.995  1.00  0.00     0.041 C 
ATOM     64  G   UNL     1      11.973   4.978   8.977  1.00  0.00     0.000 G0
ENDBRANCH  60  62
ENDBRANCH  56  58
ENDBRANCH  54  56
ENDBRANCH  52  54
ENDBRANCH  51  52
ENDBRANCH  50  51
ENDBRANCH  49  50
BRANCH  49  65
ATOM     65  C   UNL     1       3.821   6.557   2.453  1.00  0.00     0.326 C 
ATOM     66  O   UNL     1       2.797   6.503   3.118  1.00  0.00    -0.250 OA
BRANCH  65  67
ATOM     67  O   UNL     1       3.773   7.023   1.185  1.00  0.00    -0.480 OA
ATOM     68  H   UNL     1       3.349   7.903   1.278  1.00  0.00     0.296 HD
ENDBRANCH  65  67
ENDBRANCH  49  65
ENDBRANCH  47  49
ENDBRANCH  43  45
ENDBRANCH   1  43
BRANCH   1  69
ATOM     69  C   UNL     1       6.868   2.605  -0.839  1.00  0.00    -0.001 C 
ATOM     70  C   UNL     1       8.181   2.378  -1.018  1.00  0.00     0.001 C 
BRANCH  70  71
ATOM     71  C   UNL     1       9.029   2.911  -2.086  1.00  0.00    -0.055 C 
ATOM     72  C   UNL     1      10.309   3.212  -1.781  1.00  0.00    -0.018 C 
ATOM     73  C   UNL     1       8.416   3.079  -3.452  1.00  0.00     0.044 C 
BRANCH  72  74
ATOM     74  C   UNL     1      11.406   3.771  -2.675  1.00  0.00     0.038 C 
ATOM     75  C   UNL     1      12.748   3.356  -2.058  1.00  0.00     0.015 C 
BRANCH  74  76
ATOM     76  C   UNL     1      11.201   5.308  -2.818  1.00  0.00     0.128 C 
BRANCH  76  77
ATOM     77  O   UNL     1      10.412   5.592  -3.985  1.00  0.00    -0.381 OA
ATOM     78  C   UNL     1      11.010   5.158  -5.199  1.00  0.00     0.195 C 
ENDBRANCH  76  77
BRANCH  76  79
ATOM     79  C   UNL     1      10.651   5.992  -1.541  1.00  0.00     0.068 C 
BRANCH  79  80
ATOM     80  C   UNL     1      10.559   7.498  -1.529  1.00  0.00    -0.045 A 
ATOM     81  C   UNL     1      11.432   8.281  -2.295  1.00  0.00     0.004 A 
ATOM     82  C   UNL     1       9.609   8.142  -0.722  1.00  0.00     0.004 A 
ATOM     83  C   UNL     1      11.350   9.675  -2.267  1.00  0.00     0.000 A 
ATOM     84  C   UNL     1       9.528   9.536  -0.694  1.00  0.00     0.000 A 
ATOM     85  C   UNL     1      10.397  10.302  -1.468  1.00  0.00     0.000 A 
ENDBRANCH  79  80
ENDBRANCH  76  79
ENDBRANCH  74  76
ENDBRANCH  72  74
ENDBRANCH  70  71
ENDBRANCH   1  69
TORSDOF 17
ENDMDL
MODEL 8
REMARK VINA RESULT:    -7.008      3.673     11.905
REMARK INTER + INTRA:         -27.452
REMARK INTER:                 -22.686
REMARK INTRA:                  -4.767
REMARK UNBOUND:                -6.514
REMARK SMILES C=C1C(=O)N[C@H](C)C(=O)N[C@@H](CC(C)C)C(=O)N[C@@H](C(=O)O)[C@H](C)C(=O)N[C@@H](CCCN=C(N)N)C(=O)N[C@@H](/C=C/C(C)=C/[C@H](C)[C@H](Cc2ccccc2)OC)[C@H](C)C(=O)N[C@@H](C(=O)O)CCC(=O)N1C
REMARK SMILES IDX 39 1 38 2 37 3 36 4 28 6 27 7 25 8 26 9 23 11 24 12 19 13
REMARK SMILES IDX 18 14 16 15 17 16 11 18 10 19 8 20 9 21 12 24 13 25 14 26
REMARK SMILES IDX 15 27 20 28 21 29 22 30 29 32 30 33 31 34 32 35 33 36 34 37
REMARK SMILES IDX 35 38 57 43 58 44 59 45 60 46 61 47 62 49 66 50 67 51 68 52
REMARK SMILES IDX 69 53 70 54 71 55 2 56 1 57 3 58 4 59 5 60 6 62 7 63 63 65
REMARK SMILES IDX 64 66 65 67 40 69 41 70 42 71 44 72 43 73 45 74 46 75 47 76
REMARK SMILES IDX 55 77 56 78 48 79 49 80 50 81 54 82 51 83 53 84 52 85
REMARK H PARENT 38 5 27 10 18 17 10 22 22 31 34 39 34 40 35 41 35 42 61 48
REMARK H PARENT 5 61 65 68
REMARK Flexibility Score:  369.900
ROOT
ATOM      1  C   UNL     1       1.004   1.855  -7.847  1.00  0.00     0.117 C 
ENDROOT
BRANCH   1   2
ATOM      2  N   UNL     1      -0.025   2.621  -8.550  1.00  0.00    -0.347 N 
ATOM      3  O   UNL     1       1.221   3.211 -10.385  1.00  0.00    -0.273 OA
ATOM      4  C   UNL     1       0.139   3.163  -9.810  1.00  0.00     0.243 C 
ATOM      5  H   UNL     1      -0.935   2.731  -8.127  1.00  0.00     0.164 HD
BRANCH   4   6
ATOM      6  C   UNL     1      -1.134   3.852 -10.363  1.00  0.00     0.171 C 
BRANCH   6   7
ATOM      7  N   UNL     1      -1.859   4.538  -9.282  1.00  0.00    -0.344 N 
ATOM      8  C   UNL     1      -3.203   4.310  -9.082  1.00  0.00     0.226 C 
ATOM      9  O   UNL     1      -3.858   3.557  -9.793  1.00  0.00    -0.275 OA
ATOM     10  H   UNL     1      -1.367   5.218  -8.716  1.00  0.00     0.164 HD
BRANCH   8  11
ATOM     11  C   UNL     1      -3.793   5.049  -7.894  1.00  0.00     0.109 C 
ATOM     12  C   UNL     1      -2.812   6.110  -7.395  1.00  0.00     0.021 C 
BRANCH  11  13
ATOM     13  C   UNL     1      -5.195   5.581  -8.254  1.00  0.00     0.204 C 
BRANCH  13  14
ATOM     14  N   UNL     1      -6.185   4.505  -8.351  1.00  0.00    -0.340 N 
ATOM     15  C   UNL     1      -7.282   4.569  -9.183  1.00  0.00     0.243 C 
ATOM     16  O   UNL     1      -7.475   5.511  -9.950  1.00  0.00    -0.273 OA
ATOM     17  H   UNL     1      -6.168   3.770  -7.639  1.00  0.00     0.164 HD
BRANCH  15  18
ATOM     18  C   UNL     1      -8.294   3.417  -8.964  1.00  0.00     0.171 C 
BRANCH  18  19
ATOM     19  N   UNL     1      -8.855   3.098 -10.275  1.00  0.00    -0.343 N 
ATOM     20  C   UNL     1     -10.211   3.182 -10.528  1.00  0.00     0.242 CG0
ATOM     21  O   UNL     1     -11.020   3.398  -9.629  1.00  0.00    -0.273 OA
ATOM     22  H   UNL     1      -8.237   2.801 -11.022  1.00  0.00     0.164 HD
ATOM     23  G   UNL     1     -10.606   2.883 -11.989  1.00  0.00     0.000 G0
ENDBRANCH  18  19
BRANCH  18  24
ATOM     24  C   UNL     1      -7.601   2.201  -8.338  1.00  0.00     0.038 C 
BRANCH  24  25
ATOM     25  C   UNL     1      -8.118   1.816  -6.935  1.00  0.00    -0.015 C 
ATOM     26  C   UNL     1      -7.058   1.100  -6.097  1.00  0.00     0.007 C 
ATOM     27  C   UNL     1      -9.357   0.927  -7.069  1.00  0.00     0.007 C 
ENDBRANCH  24  25
ENDBRANCH  18  24
ENDBRANCH  15  18
ENDBRANCH  13  14
BRANCH  13  28
ATOM     28  C   UNL     1      -5.731   6.602  -7.246  1.00  0.00     0.327 C 
ATOM     29  O   UNL     1      -5.854   6.433  -6.042  1.00  0.00    -0.250 OA
BRANCH  28  30
ATOM     30  O   UNL     1      -6.191   7.728  -7.827  1.00  0.00    -0.480 OA
ATOM     31  H   UNL     1      -6.248   8.373  -7.092  1.00  0.00     0.296 HD
ENDBRANCH  28  30
ENDBRANCH  13  28
ENDBRANCH  11  13
ENDBRANCH   8  11
ENDBRANCH   6   7
BRANCH   6  32
ATOM     32  C   UNL     1      -0.734   4.839 -11.466  1.00  0.00     0.037 C 
BRANCH  32  33
ATOM     33  C   UNL     1      -0.343   6.211 -10.900  1.00  0.00     0.026 C 
BRANCH  33  34
ATOM     34  C   UNL     1      -1.144   7.352 -11.528  1.00  0.00     0.146 C 
BRANCH  34  35
ATOM     35  N   UNL     1      -2.564   7.087 -11.344  1.00  0.00    -0.254 NA
ATOM     36  C   UNL     1      -3.273   7.948 -10.713  1.00  0.00     0.185 C 
ATOM     37  N   UNL     1      -4.583   7.715 -10.542  1.00  0.00    -0.370 N 
ATOM     38  N   UNL     1      -2.893   9.115 -10.164  1.00  0.00    -0.370 N 
ATOM     39  H   UNL     1      -4.948   6.859 -10.937  1.00  0.00     0.159 HD
ATOM     40  H   UNL     1      -5.233   8.411 -10.217  1.00  0.00     0.159 HD
ATOM     41  H   UNL     1      -3.517   9.639  -9.572  1.00  0.00     0.159 HD
ATOM     42  H   UNL     1      -1.930   9.411 -10.202  1.00  0.00     0.159 HD
ENDBRANCH  34  35
ENDBRANCH  33  34
ENDBRANCH  32  33
ENDBRANCH   6  32
ENDBRANCH   4   6
ENDBRANCH   1   2
BRANCH   1  43
ATOM     43  C   UNL     1       2.118   1.473  -8.864  1.00  0.00     0.102 C 
ATOM     44  C   UNL     1       2.290  -0.045  -9.042  1.00  0.00     0.020 C 
BRANCH  43  45
ATOM     45  C   UNL     1       3.423   2.214  -8.554  1.00  0.00     0.225 C 
ATOM     46  O   UNL     1       3.470   3.233  -7.871  1.00  0.00    -0.275 OA
ATOM     47  N   UNL     1       4.547   1.717  -9.172  1.00  0.00    -0.342 N 
ATOM     48  H   UNL     1       4.520   0.802  -9.600  1.00  0.00     0.164 HD
BRANCH  47  49
ATOM     49  C   UNL     1       5.871   2.302  -8.941  1.00  0.00     0.192 C 
BRANCH  49  50
ATOM     50  C   UNL     1       6.708   2.203 -10.218  1.00  0.00     0.047 C 
BRANCH  50  51
ATOM     51  C   UNL     1       6.383   0.941 -11.030  1.00  0.00     0.103 C 
BRANCH  51  52
ATOM     52  C   UNL     1       7.639   0.292 -11.609  1.00  0.00     0.226 C 
ATOM     53  O   UNL     1       8.230  -0.576 -10.963  1.00  0.00    -0.275 OA
BRANCH  52  54
ATOM     54  N   UNL     1       8.006   0.686 -12.909  1.00  0.00    -0.311 N 
ATOM     55  C   UNL     1       7.579  -0.087 -14.082  1.00  0.00     0.153 C 
BRANCH  54  56
ATOM     56  C   UNL     1       8.787   1.832 -13.134  1.00  0.00     0.102 C 
ATOM     57  C   UNL     1       8.496   2.799 -14.019  1.00  0.00     0.043 C 
BRANCH  56  58
ATOM     58  C   UNL     1      10.039   2.087 -12.328  1.00  0.00     0.268 C 
ATOM     59  O   UNL     1      10.984   1.310 -12.295  1.00  0.00    -0.268 OA
ATOM     60  N   UNL     1      10.034   3.306 -11.692  1.00  0.00    -0.339 N 
ATOM     61  H   UNL     1       9.207   3.888 -11.761  1.00  0.00     0.164 HD
BRANCH  60  62
ATOM     62  C   UNL     1      11.174   3.781 -10.909  1.00  0.00     0.168 CG0
ATOM     63  C   UNL     1      11.977   4.818 -11.684  1.00  0.00     0.041 C 
ATOM     64  G   UNL     1      12.064   2.585 -10.514  1.00  0.00     0.000 G0
ENDBRANCH  60  62
ENDBRANCH  56  58
ENDBRANCH  54  56
ENDBRANCH  52  54
ENDBRANCH  51  52
ENDBRANCH  50  51
ENDBRANCH  49  50
BRANCH  49  65
ATOM     65  C   UNL     1       6.610   1.597  -7.792  1.00  0.00     0.326 C 
ATOM     66  O   UNL     1       7.543   2.064  -7.155  1.00  0.00    -0.250 OA
BRANCH  65  67
ATOM     67  O   UNL     1       6.190   0.338  -7.541  1.00  0.00    -0.480 OA
ATOM     68  H   UNL     1       6.962  -0.081  -7.104  1.00  0.00     0.296 HD
ENDBRANCH  65  67
ENDBRANCH  49  65
ENDBRANCH  47  49
ENDBRANCH  43  45
ENDBRANCH   1  43
BRANCH   1  69
ATOM     69  C   UNL     1       0.277   0.748  -7.106  1.00  0.00    -0.001 C 
ATOM     70  C   UNL     1      -0.265   0.806  -5.876  1.00  0.00     0.001 C 
BRANCH  70  71
ATOM     71  C   UNL     1      -0.983  -0.263  -5.180  1.00  0.00    -0.055 C 
ATOM     72  C   UNL     1      -2.083  -0.771  -5.775  1.00  0.00    -0.018 C 
ATOM     73  C   UNL     1      -0.440  -0.725  -3.853  1.00  0.00     0.044 C 
BRANCH  72  74
ATOM     74  C   UNL     1      -3.015  -1.874  -5.295  1.00  0.00     0.038 C 
ATOM     75  C   UNL     1      -3.723  -2.438  -6.532  1.00  0.00     0.015 C 
BRANCH  74  76
ATOM     76  C   UNL     1      -3.965  -1.290  -4.208  1.00  0.00     0.128 C 
BRANCH  76  77
ATOM     77  O   UNL     1      -4.148   0.120  -4.422  1.00  0.00    -0.381 OA
ATOM     78  C   UNL     1      -4.247   0.872  -3.220  1.00  0.00     0.195 C 
ENDBRANCH  76  77
BRANCH  76  79
ATOM     79  C   UNL     1      -5.306  -2.053  -4.068  1.00  0.00     0.068 C 
BRANCH  79  80
ATOM     80  C   UNL     1      -5.256  -3.491  -3.609  1.00  0.00    -0.045 A 
ATOM     81  C   UNL     1      -4.463  -3.874  -2.519  1.00  0.00     0.004 A 
ATOM     82  C   UNL     1      -5.987  -4.476  -4.290  1.00  0.00     0.004 A 
ATOM     83  C   UNL     1      -4.412  -5.208  -2.109  1.00  0.00     0.000 A 
ATOM     84  C   UNL     1      -5.934  -5.810  -3.880  1.00  0.00     0.000 A 
ATOM     85  C   UNL     1      -5.148  -6.175  -2.789  1.00  0.00     0.000 A 
ENDBRANCH  79  80
ENDBRANCH  76  79
ENDBRANCH  74  76
ENDBRANCH  72  74
ENDBRANCH  70  71
ENDBRANCH   1  69
TORSDOF 17
ENDMDL
MODEL 9
REMARK VINA RESULT:    -6.998      5.534     13.589
REMARK INTER + INTRA:         -27.422
REMARK INTER:                 -21.173
REMARK INTRA:                  -6.249
REMARK UNBOUND:                -6.514
REMARK SMILES C=C1C(=O)N[C@H](C)C(=O)N[C@@H](CC(C)C)C(=O)N[C@@H](C(=O)O)[C@H](C)C(=O)N[C@@H](CCCN=C(N)N)C(=O)N[C@@H](/C=C/C(C)=C/[C@H](C)[C@H](Cc2ccccc2)OC)[C@H](C)C(=O)N[C@@H](C(=O)O)CCC(=O)N1C
REMARK SMILES IDX 39 1 38 2 37 3 36 4 28 6 27 7 25 8 26 9 23 11 24 12 19 13
REMARK SMILES IDX 18 14 16 15 17 16 11 18 10 19 8 20 9 21 12 24 13 25 14 26
REMARK SMILES IDX 15 27 20 28 21 29 22 30 29 32 30 33 31 34 32 35 33 36 34 37
REMARK SMILES IDX 35 38 57 43 58 44 59 45 60 46 61 47 62 49 66 50 67 51 68 52
REMARK SMILES IDX 69 53 70 54 71 55 2 56 1 57 3 58 4 59 5 60 6 62 7 63 63 65
REMARK SMILES IDX 64 66 65 67 40 69 41 70 42 71 44 72 43 73 45 74 46 75 47 76
REMARK SMILES IDX 55 77 56 78 48 79 49 80 50 81 54 82 51 83 53 84 52 85
REMARK H PARENT 38 5 27 10 18 17 10 22 22 31 34 39 34 40 35 41 35 42 61 48
REMARK H PARENT 5 61 65 68
REMARK Flexibility Score:  369.900
ROOT
ATOM      1  C   UNL     1      -1.318   1.377  -3.857  1.00  0.00     0.117 C 
ENDROOT
BRANCH   1   2
ATOM      2  N   UNL     1      -1.321   2.385  -2.796  1.00  0.00    -0.347 N 
ATOM      3  O   UNL     1       0.180   1.364  -1.391  1.00  0.00    -0.273 OA
ATOM      4  C   UNL     1      -0.499   2.342  -1.686  1.00  0.00     0.243 C 
ATOM      5  H   UNL     1      -1.916   3.194  -2.885  1.00  0.00     0.164 HD
BRANCH   4   6
ATOM      6  C   UNL     1      -0.639   3.576  -0.759  1.00  0.00     0.171 C 
BRANCH   6   7
ATOM      7  N   UNL     1      -1.770   3.398   0.166  1.00  0.00    -0.344 N 
ATOM      8  C   UNL     1      -2.846   4.259   0.135  1.00  0.00     0.226 C 
ATOM      9  O   UNL     1      -2.906   5.212  -0.634  1.00  0.00    -0.275 OA
ATOM     10  H   UNL     1      -1.725   2.663   0.861  1.00  0.00     0.164 HD
BRANCH   8  11
ATOM     11  C   UNL     1      -3.954   3.911   1.112  1.00  0.00     0.109 C 
ATOM     12  C   UNL     1      -5.046   4.981   1.072  1.00  0.00     0.021 C 
BRANCH  11  13
ATOM     13  C   UNL     1      -4.446   2.473   0.853  1.00  0.00     0.204 C 
BRANCH  13  14
ATOM     14  N   UNL     1      -5.548   2.098   1.745  1.00  0.00    -0.340 N 
ATOM     15  C   UNL     1      -5.528   0.959   2.520  1.00  0.00     0.243 C 
ATOM     16  O   UNL     1      -4.557   0.207   2.564  1.00  0.00    -0.273 OA
ATOM     17  H   UNL     1      -6.438   2.592   1.642  1.00  0.00     0.164 HD
BRANCH  15  18
ATOM     18  C   UNL     1      -6.879   0.661   3.216  1.00  0.00     0.171 C 
BRANCH  18  19
ATOM     19  N   UNL     1      -7.874   1.527   2.587  1.00  0.00    -0.343 N 
ATOM     20  C   UNL     1      -8.930   2.063   3.300  1.00  0.00     0.242 CG0
ATOM     21  O   UNL     1      -9.156   1.730   4.461  1.00  0.00    -0.273 OA
ATOM     22  H   UNL     1      -7.795   1.739   1.598  1.00  0.00     0.164 HD
ATOM     23  G   UNL     1      -9.830   3.014   2.485  1.00  0.00     0.000 G0
ENDBRANCH  18  19
BRANCH  18  24
ATOM     24  C   UNL     1      -7.249  -0.820   3.069  1.00  0.00     0.038 C 
BRANCH  24  25
ATOM     25  C   UNL     1      -7.434  -1.573   4.404  1.00  0.00    -0.015 C 
ATOM     26  C   UNL     1      -6.311  -2.575   4.671  1.00  0.00     0.007 C 
ATOM     27  C   UNL     1      -8.783  -2.298   4.403  1.00  0.00     0.007 C 
ENDBRANCH  24  25
ENDBRANCH  18  24
ENDBRANCH  15  18
ENDBRANCH  13  14
BRANCH  13  28
ATOM     28  C   UNL     1      -4.928   2.250  -0.583  1.00  0.00     0.327 C 
ATOM     29  O   UNL     1      -4.247   2.327  -1.594  1.00  0.00    -0.250 OA
BRANCH  28  30
ATOM     30  O   UNL     1      -6.260   2.061  -0.671  1.00  0.00    -0.480 OA
ATOM     31  H   UNL     1      -6.640   2.951  -0.520  1.00  0.00     0.296 HD
ENDBRANCH  28  30
ENDBRANCH  13  28
ENDBRANCH  11  13
ENDBRANCH   8  11
ENDBRANCH   6   7
BRANCH   6  32
ATOM     32  C   UNL     1       0.671   3.779   0.010  1.00  0.00     0.037 C 
BRANCH  32  33
ATOM     33  C   UNL     1       0.473   4.619   1.279  1.00  0.00     0.026 C 
BRANCH  33  34
ATOM     34  C   UNL     1       1.614   5.611   1.508  1.00  0.00     0.146 C 
BRANCH  34  35
ATOM     35  N   UNL     1       1.048   6.918   1.811  1.00  0.00    -0.254 NA
ATOM     36  C   UNL     1       1.741   7.963   1.552  1.00  0.00     0.185 C 
ATOM     37  N   UNL     1       1.227   9.173   1.822  1.00  0.00    -0.370 N 
ATOM     38  N   UNL     1       2.973   8.049   1.020  1.00  0.00    -0.370 N 
ATOM     39  H   UNL     1       0.295   9.192   2.216  1.00  0.00     0.159 HD
ATOM     40  H   UNL     1       1.627  10.034   1.492  1.00  0.00     0.159 HD
ATOM     41  H   UNL     1       3.469   8.925   0.993  1.00  0.00     0.159 HD
ATOM     42  H   UNL     1       3.488   7.216   0.781  1.00  0.00     0.159 HD
ENDBRANCH  34  35
ENDBRANCH  33  34
ENDBRANCH  32  33
ENDBRANCH   6  32
ENDBRANCH   4   6
ENDBRANCH   1   2
BRANCH   1  43
ATOM     43  C   UNL     1      -1.321   2.105  -5.232  1.00  0.00     0.102 C 
ATOM     44  C   UNL     1      -2.731   2.466  -5.730  1.00  0.00     0.020 C 
BRANCH  43  45
ATOM     45  C   UNL     1      -0.475   1.347  -6.259  1.00  0.00     0.225 C 
ATOM     46  O   UNL     1      -0.634   0.156  -6.511  1.00  0.00    -0.275 OA
ATOM     47  N   UNL     1       0.554   2.064  -6.825  1.00  0.00    -0.342 N 
ATOM     48  H   UNL     1       0.577   3.069  -6.725  1.00  0.00     0.164 HD
BRANCH  47  49
ATOM     49  C   UNL     1       1.424   1.478  -7.850  1.00  0.00     0.192 C 
BRANCH  49  50
ATOM     50  C   UNL     1       2.884   1.813  -7.537  1.00  0.00     0.047 C 
BRANCH  50  51
ATOM     51  C   UNL     1       3.757   0.557  -7.419  1.00  0.00     0.103 C 
BRANCH  51  52
ATOM     52  C   UNL     1       5.067   0.693  -8.192  1.00  0.00     0.226 C 
ATOM     53  O   UNL     1       6.121   0.872  -7.579  1.00  0.00    -0.275 OA
BRANCH  52  54
ATOM     54  N   UNL     1       4.992   0.527  -9.587  1.00  0.00    -0.311 N 
ATOM     55  C   UNL     1       4.045  -0.424 -10.186  1.00  0.00     0.153 C 
BRANCH  54  56
ATOM     56  C   UNL     1       5.812   1.264 -10.458  1.00  0.00     0.102 C 
ATOM     57  C   UNL     1       5.809   2.602 -10.568  1.00  0.00     0.043 C 
BRANCH  56  58
ATOM     58  C   UNL     1       6.829   0.573 -11.336  1.00  0.00     0.268 C 
ATOM     59  O   UNL     1       7.701  -0.165 -10.897  1.00  0.00    -0.268 OA
ATOM     60  N   UNL     1       6.632   0.805 -12.676  1.00  0.00    -0.339 N 
ATOM     61  H   UNL     1       5.893   1.437 -12.958  1.00  0.00     0.164 HD
BRANCH  60  62
ATOM     62  C   UNL     1       7.465   0.183 -13.705  1.00  0.00     0.168 CG0
ATOM     63  C   UNL     1       8.614   1.099 -14.107  1.00  0.00     0.041 C 
ATOM     64  G   UNL     1       6.595  -0.171 -14.929  1.00  0.00     0.000 G0
ENDBRANCH  60  62
ENDBRANCH  56  58
ENDBRANCH  54  56
ENDBRANCH  52  54
ENDBRANCH  51  52
ENDBRANCH  50  51
ENDBRANCH  49  50
BRANCH  49  65
ATOM     65  C   UNL     1       1.072   1.994  -9.254  1.00  0.00     0.326 C 
ATOM     66  O   UNL     1       0.098   1.658  -9.911  1.00  0.00    -0.250 OA
BRANCH  65  67
ATOM     67  O   UNL     1       1.977   2.847  -9.784  1.00  0.00    -0.480 OA
ATOM     68  H   UNL     1       1.569   3.729  -9.650  1.00  0.00     0.296 HD
ENDBRANCH  65  67
ENDBRANCH  49  65
ENDBRANCH  47  49
ENDBRANCH  43  45
ENDBRANCH   1  43
BRANCH   1  69
ATOM     69  C   UNL     1      -2.447   0.417  -3.533  1.00  0.00    -0.001 C 
ATOM     70  C   UNL     1      -2.349  -0.800  -2.969  1.00  0.00     0.001 C 
BRANCH  70  71
ATOM     71  C   UNL     1      -3.449  -1.709  -2.641  1.00  0.00    -0.055 C 
ATOM     72  C   UNL     1      -3.393  -2.965  -3.133  1.00  0.00    -0.018 C 
ATOM     73  C   UNL     1      -4.561  -1.181  -1.773  1.00  0.00     0.044 C 
BRANCH  72  74
ATOM     74  C   UNL     1      -4.378  -4.112  -2.958  1.00  0.00     0.038 C 
ATOM     75  C   UNL     1      -3.776  -5.070  -1.922  1.00  0.00     0.015 C 
BRANCH  74  76
ATOM     76  C   UNL     1      -4.658  -4.749  -4.351  1.00  0.00     0.128 C 
BRANCH  76  77
ATOM     77  O   UNL     1      -4.806  -6.173  -4.219  1.00  0.00    -0.381 OA
ATOM     78  C   UNL     1      -4.406  -6.898  -5.374  1.00  0.00     0.195 C 
ENDBRANCH  76  77
BRANCH  76  79
ATOM     79  C   UNL     1      -5.833  -4.092  -5.118  1.00  0.00     0.068 C 
BRANCH  79  80
ATOM     80  C   UNL     1      -5.791  -2.598  -5.332  1.00  0.00    -0.045 A 
ATOM     81  C   UNL     1      -4.889  -2.024  -6.237  1.00  0.00     0.004 A 
ATOM     82  C   UNL     1      -6.642  -1.755  -4.602  1.00  0.00     0.004 A 
ATOM     83  C   UNL     1      -4.846  -0.640  -6.419  1.00  0.00     0.000 A 
ATOM     84  C   UNL     1      -6.598  -0.371  -4.784  1.00  0.00     0.000 A 
ATOM     85  C   UNL     1      -5.702   0.186  -5.693  1.00  0.00     0.000 A 
ENDBRANCH  79  80
ENDBRANCH  76  79
ENDBRANCH  74  76
ENDBRANCH  72  74
ENDBRANCH  70  71
ENDBRANCH   1  69
TORSDOF 17
ENDMDL
MODEL 10
REMARK VINA RESULT:    -6.956      4.068      6.488
REMARK INTER + INTRA:         -27.297
REMARK INTER:                 -19.794
REMARK INTRA:                  -7.503
REMARK UNBOUND:                -6.514
REMARK SMILES C=C1C(=O)N[C@H](C)C(=O)N[C@@H](CC(C)C)C(=O)N[C@@H](C(=O)O)[C@H](C)C(=O)N[C@@H](CCCN=C(N)N)C(=O)N[C@@H](/C=C/C(C)=C/[C@H](C)[C@H](Cc2ccccc2)OC)[C@H](C)C(=O)N[C@@H](C(=O)O)CCC(=O)N1C
REMARK SMILES IDX 39 1 38 2 37 3 36 4 28 6 27 7 25 8 26 9 23 11 24 12 19 13
REMARK SMILES IDX 18 14 16 15 17 16 11 18 10 19 8 20 9 21 12 24 13 25 14 26
REMARK SMILES IDX 15 27 20 28 21 29 22 30 29 32 30 33 31 34 32 35 33 36 34 37
REMARK SMILES IDX 35 38 57 43 58 44 59 45 60 46 61 47 62 49 66 50 67 51 68 52
REMARK SMILES IDX 69 53 70 54 71 55 2 56 1 57 3 58 4 59 5 60 6 62 7 63 63 65
REMARK SMILES IDX 64 66 65 67 40 69 41 70 42 71 44 72 43 73 45 74 46 75 47 76
REMARK SMILES IDX 55 77 56 78 48 79 49 80 50 81 54 82 51 83 53 84 52 85
REMARK H PARENT 38 5 27 10 18 17 10 22 22 31 34 39 34 40 35 41 35 42 61 48
REMARK H PARENT 5 61 65 68
REMARK Flexibility Score:  369.900
ROOT
ATOM      1  C   UNL     1      -1.260   1.784  -5.362  1.00  0.00     0.117 C 
ENDROOT
BRANCH   1   2
ATOM      2  N   UNL     1      -0.410   2.259  -6.454  1.00  0.00    -0.347 N 
ATOM      3  O   UNL     1       0.875   0.372  -6.694  1.00  0.00    -0.273 OA
ATOM      4  C   UNL     1       0.532   1.478  -7.096  1.00  0.00     0.243 C 
ATOM      5  H   UNL     1      -0.537   3.195  -6.809  1.00  0.00     0.164 HD
BRANCH   4   6
ATOM      6  C   UNL     1       1.236   2.195  -8.276  1.00  0.00     0.171 C 
BRANCH   6   7
ATOM      7  N   UNL     1       2.634   1.749  -8.389  1.00  0.00    -0.344 N 
ATOM      8  C   UNL     1       3.667   2.565  -7.986  1.00  0.00     0.226 C 
ATOM      9  O   UNL     1       3.484   3.692  -7.541  1.00  0.00    -0.275 OA
ATOM     10  H   UNL     1       2.829   0.851  -8.814  1.00  0.00     0.164 HD
BRANCH   8  11
ATOM     11  C   UNL     1       5.045   1.940  -8.115  1.00  0.00     0.109 C 
ATOM     12  C   UNL     1       5.039   0.526  -7.534  1.00  0.00     0.021 C 
BRANCH  11  13
ATOM     13  C   UNL     1       5.527   2.038  -9.577  1.00  0.00     0.204 C 
BRANCH  13  14
ATOM     14  N   UNL     1       6.949   2.384  -9.667  1.00  0.00    -0.340 N 
ATOM     15  C   UNL     1       7.437   3.316 -10.557  1.00  0.00     0.243 C 
ATOM     16  O   UNL     1       6.704   3.968 -11.299  1.00  0.00    -0.273 OA
ATOM     17  H   UNL     1       7.622   1.777  -9.192  1.00  0.00     0.164 HD
BRANCH  15  18
ATOM     18  C   UNL     1       8.984   3.363 -10.617  1.00  0.00     0.171 C 
BRANCH  18  19
ATOM     19  N   UNL     1       9.377   2.652 -11.832  1.00  0.00    -0.343 N 
ATOM     20  C   UNL     1       9.525   1.278 -11.856  1.00  0.00     0.242 CG0
ATOM     21  O   UNL     1       9.463   0.606 -10.830  1.00  0.00    -0.273 OA
ATOM     22  H   UNL     1       9.554   3.177 -12.681  1.00  0.00     0.164 HD
ATOM     23  G   UNL     1       9.867   0.700 -13.245  1.00  0.00     0.000 G0
ENDBRANCH  18  19
BRANCH  18  24
ATOM     24  C   UNL     1       9.481   4.814 -10.629  1.00  0.00     0.038 C 
BRANCH  24  25
ATOM     25  C   UNL     1      10.726   5.076  -9.756  1.00  0.00    -0.015 C 
ATOM     26  C   UNL     1      12.026   4.683 -10.459  1.00  0.00     0.007 C 
ATOM     27  C   UNL     1      10.601   4.308  -8.438  1.00  0.00     0.007 C 
ENDBRANCH  24  25
ENDBRANCH  18  24
ENDBRANCH  15  18
ENDBRANCH  13  14
BRANCH  13  28
ATOM     28  C   UNL     1       5.325   0.741 -10.367  1.00  0.00     0.327 C 
ATOM     29  O   UNL     1       6.193  -0.061 -10.673  1.00  0.00    -0.250 OA
BRANCH  28  30
ATOM     30  O   UNL     1       4.065   0.593 -10.825  1.00  0.00    -0.480 OA
ATOM     31  H   UNL     1       3.550   0.329 -10.035  1.00  0.00     0.296 HD
ENDBRANCH  28  30
ENDBRANCH  13  28
ENDBRANCH  11  13
ENDBRANCH   8  11
ENDBRANCH   6   7
BRANCH   6  32
ATOM     32  C   UNL     1       0.464   1.912  -9.570  1.00  0.00     0.037 C 
BRANCH  32  33
ATOM     33  C   UNL     1      -0.160   3.184 -10.162  1.00  0.00     0.026 C 
BRANCH  33  34
ATOM     34  C   UNL     1       0.708   3.806 -11.257  1.00  0.00     0.146 C 
BRANCH  34  35
ATOM     35  N   UNL     1       1.776   4.573 -10.631  1.00  0.00    -0.254 NA
ATOM     36  C   UNL     1       2.984   4.353 -10.993  1.00  0.00     0.185 C 
ATOM     37  N   UNL     1       3.976   5.058 -10.426  1.00  0.00    -0.370 N 
ATOM     38  N   UNL     1       3.447   3.478 -11.903  1.00  0.00    -0.370 N 
ATOM     39  H   UNL     1       3.706   5.747  -9.735  1.00  0.00     0.159 HD
ATOM     40  H   UNL     1       4.919   5.069 -10.774  1.00  0.00     0.159 HD
ATOM     41  H   UNL     1       4.434   3.299 -11.999  1.00  0.00     0.159 HD
ATOM     42  H   UNL     1       2.814   2.869 -12.398  1.00  0.00     0.159 HD
ENDBRANCH  34  35
ENDBRANCH  33  34
ENDBRANCH  32  33
ENDBRANCH   6  32
ENDBRANCH   4   6
ENDBRANCH   1   2
BRANCH   1  43
ATOM     43  C   UNL     1      -2.681   1.498  -5.929  1.00  0.00     0.102 C 
ATOM     44  C   UNL     1      -3.560   2.755  -6.041  1.00  0.00     0.020 C 
BRANCH  43  45
ATOM     45  C   UNL     1      -3.347   0.338  -5.182  1.00  0.00     0.225 C 
ATOM     46  O   UNL     1      -4.531   0.343  -4.855  1.00  0.00    -0.275 OA
ATOM     47  N   UNL     1      -2.508  -0.687  -4.810  1.00  0.00    -0.342 N 
ATOM     48  H   UNL     1      -1.584  -0.748  -5.213  1.00  0.00     0.164 HD
BRANCH  47  49
ATOM     49  C   UNL     1      -3.013  -1.878  -4.121  1.00  0.00     0.192 C 
BRANCH  49  50
ATOM     50  C   UNL     1      -2.136  -2.178  -2.902  1.00  0.00     0.047 C 
BRANCH  50  51
ATOM     51  C   UNL     1      -1.635  -0.899  -2.217  1.00  0.00     0.103 C 
BRANCH  51  52
ATOM     52  C   UNL     1      -2.070  -0.824  -0.755  1.00  0.00     0.226 C 
ATOM     53  O   UNL     1      -1.651  -1.657   0.050  1.00  0.00    -0.275 OA
BRANCH  52  54
ATOM     54  N   UNL     1      -2.885   0.267  -0.399  1.00  0.00    -0.311 N 
ATOM     55  C   UNL     1      -4.030   0.659  -1.232  1.00  0.00     0.153 C 
BRANCH  54  56
ATOM     56  C   UNL     1      -2.640   1.016   0.763  1.00  0.00     0.102 C 
ATOM     57  C   UNL     1      -1.456   1.560   1.091  1.00  0.00     0.043 C 
BRANCH  56  58
ATOM     58  C   UNL     1      -3.750   1.311   1.745  1.00  0.00     0.268 C 
ATOM     59  O   UNL     1      -4.289   0.448   2.424  1.00  0.00    -0.268 OA
ATOM     60  N   UNL     1      -4.043   2.650   1.842  1.00  0.00    -0.339 N 
ATOM     61  H   UNL     1      -3.557   3.301   1.236  1.00  0.00     0.164 HD
BRANCH  60  62
ATOM     62  C   UNL     1      -5.043   3.163   2.778  1.00  0.00     0.168 CG0
ATOM     63  C   UNL     1      -4.463   4.276   3.642  1.00  0.00     0.041 C 
ATOM     64  G   UNL     1      -5.569   2.008   3.655  1.00  0.00     0.000 G0
ENDBRANCH  60  62
ENDBRANCH  56  58
ENDBRANCH  54  56
ENDBRANCH  52  54
ENDBRANCH  51  52
ENDBRANCH  50  51
ENDBRANCH  49  50
BRANCH  49  65
ATOM     65  C   UNL     1      -3.031  -3.104  -5.048  1.00  0.00     0.326 C 
ATOM     66  O   UNL     1      -4.034  -3.680  -5.445  1.00  0.00    -0.250 OA
BRANCH  65  67
ATOM     67  O   UNL     1      -1.810  -3.579  -5.380  1.00  0.00    -0.480 OA
ATOM     68  H   UNL     1      -1.928  -4.553  -5.361  1.00  0.00     0.296 HD
ENDBRANCH  65  67
ENDBRANCH  49  65
ENDBRANCH  47  49
ENDBRANCH  43  45
ENDBRANCH   1  43
BRANCH   1  69
ATOM     69  C   UNL     1      -1.109   2.793  -4.238  1.00  0.00    -0.001 C 
ATOM     70  C   UNL     1      -1.534   2.671  -2.968  1.00  0.00     0.001 C 
BRANCH  70  71
ATOM     71  C   UNL     1      -1.363   3.643  -1.886  1.00  0.00    -0.055 C 
ATOM     72  C   UNL     1      -0.106   3.904  -1.470  1.00  0.00    -0.018 C 
ATOM     73  C   UNL     1      -2.601   4.287  -1.319  1.00  0.00     0.044 C 
BRANCH  72  74
ATOM     74  C   UNL     1       0.370   4.856  -0.383  1.00  0.00     0.038 C 
ATOM     75  C   UNL     1       0.477   6.249  -1.015  1.00  0.00     0.015 C 
BRANCH  74  76
ATOM     76  C   UNL     1       1.699   4.308   0.217  1.00  0.00     0.128 C 
BRANCH  76  77
ATOM     77  O   UNL     1       1.800   4.675   1.603  1.00  0.00    -0.381 OA
ATOM     78  C   UNL     1       1.369   3.656   2.496  1.00  0.00     0.195 C 
ENDBRANCH  76  77
BRANCH  76  79
ATOM     79  C   UNL     1       1.918   2.792  -0.020  1.00  0.00     0.068 C 
BRANCH  79  80
ATOM     80  C   UNL     1       3.338   2.286  -0.094  1.00  0.00    -0.045 A 
ATOM     81  C   UNL     1       3.612   0.915  -0.186  1.00  0.00     0.004 A 
ATOM     82  C   UNL     1       4.413   3.187  -0.043  1.00  0.00     0.004 A 
ATOM     83  C   UNL     1       4.929   0.454  -0.240  1.00  0.00     0.000 A 
ATOM     84  C   UNL     1       5.730   2.724  -0.096  1.00  0.00     0.000 A 
ATOM     85  C   UNL     1       5.988   1.359  -0.196  1.00  0.00     0.000 A 
ENDBRANCH  79  80
ENDBRANCH  76  79
ENDBRANCH  74  76
ENDBRANCH  72  74
ENDBRANCH  70  71
ENDBRANCH   1  69
TORSDOF 17
ENDMDL
MODEL 11
REMARK VINA RESULT:    -6.950      4.272      7.126
REMARK INTER + INTRA:         -27.279
REMARK INTER:                 -22.042
REMARK INTRA:                  -5.236
REMARK UNBOUND:                -6.514
REMARK SMILES C=C1C(=O)N[C@H](C)C(=O)N[C@@H](CC(C)C)C(=O)N[C@@H](C(=O)O)[C@H](C)C(=O)N[C@@H](CCCN=C(N)N)C(=O)N[C@@H](/C=C/C(C)=C/[C@H](C)[C@H](Cc2ccccc2)OC)[C@H](C)C(=O)N[C@@H](C(=O)O)CCC(=O)N1C
REMARK SMILES IDX 39 1 38 2 37 3 36 4 28 6 27 7 25 8 26 9 23 11 24 12 19 13
REMARK SMILES IDX 18 14 16 15 17 16 11 18 10 19 8 20 9 21 12 24 13 25 14 26
REMARK SMILES IDX 15 27 20 28 21 29 22 30 29 32 30 33 31 34 32 35 33 36 34 37
REMARK SMILES IDX 35 38 57 43 58 44 59 45 60 46 61 47 62 49 66 50 67 51 68 52
REMARK SMILES IDX 69 53 70 54 71 55 2 56 1 57 3 58 4 59 5 60 6 62 7 63 63 65
REMARK SMILES IDX 64 66 65 67 40 69 41 70 42 71 44 72 43 73 45 74 46 75 47 76
REMARK SMILES IDX 55 77 56 78 48 79 49 80 50 81 54 82 51 83 53 84 52 85
REMARK H PARENT 38 5 27 10 18 17 10 22 22 31 34 39 34 40 35 41 35 42 61 48
REMARK H PARENT 5 61 65 68
REMARK Flexibility Score:  369.900
ROOT
ATOM      1  C   UNL     1      -1.260   1.803  -5.435  1.00  0.00     0.117 C 
ENDROOT
BRANCH   1   2
ATOM      2  N   UNL     1      -0.366   2.260  -6.499  1.00  0.00    -0.347 N 
ATOM      3  O   UNL     1       0.751   0.284  -6.841  1.00  0.00    -0.273 OA
ATOM      4  C   UNL     1       0.508   1.437  -7.182  1.00  0.00     0.243 C 
ATOM      5  H   UNL     1      -0.409   3.222  -6.802  1.00  0.00     0.164 HD
BRANCH   4   6
ATOM      6  C   UNL     1       1.278   2.153  -8.320  1.00  0.00     0.171 C 
BRANCH   6   7
ATOM      7  N   UNL     1       2.675   1.693  -8.366  1.00  0.00    -0.344 N 
ATOM      8  C   UNL     1       3.715   2.590  -8.251  1.00  0.00     0.226 C 
ATOM      9  O   UNL     1       3.536   3.796  -8.132  1.00  0.00    -0.275 OA
ATOM     10  H   UNL     1       2.863   0.712  -8.531  1.00  0.00     0.164 HD
BRANCH   8  11
ATOM     11  C   UNL     1       5.094   1.953  -8.262  1.00  0.00     0.109 C 
ATOM     12  C   UNL     1       5.044   0.578  -7.595  1.00  0.00     0.021 C 
BRANCH  11  13
ATOM     13  C   UNL     1       5.660   1.958  -9.696  1.00  0.00     0.204 C 
BRANCH  13  14
ATOM     14  N   UNL     1       7.124   2.029  -9.710  1.00  0.00    -0.340 N 
ATOM     15  C   UNL     1       7.824   2.885 -10.534  1.00  0.00     0.243 C 
ATOM     16  O   UNL     1       7.265   3.694 -11.273  1.00  0.00    -0.273 OA
ATOM     17  H   UNL     1       7.646   1.286  -9.238  1.00  0.00     0.164 HD
BRANCH  15  18
ATOM     18  C   UNL     1       9.352   2.637 -10.528  1.00  0.00     0.171 C 
BRANCH  18  19
ATOM     19  N   UNL     1       9.763   2.516 -11.926  1.00  0.00    -0.343 N 
ATOM     20  C   UNL     1      10.796   1.685 -12.312  1.00  0.00     0.242 CG0
ATOM     21  O   UNL     1      11.503   1.111 -11.488  1.00  0.00    -0.273 OA
ATOM     22  H   UNL     1       9.283   3.060 -12.634  1.00  0.00     0.164 HD
ATOM     23  G   UNL     1      11.032   1.629 -13.836  1.00  0.00     0.000 G0
ENDBRANCH  18  19
BRANCH  18  24
ATOM     24  C   UNL     1      10.084   3.787  -9.825  1.00  0.00     0.038 C 
BRANCH  24  25
ATOM     25  C   UNL     1      10.787   4.780 -10.775  1.00  0.00    -0.015 C 
ATOM     26  C   UNL     1      12.306   4.781 -10.600  1.00  0.00     0.007 C 
ATOM     27  C   UNL     1      10.240   6.191 -10.542  1.00  0.00     0.007 C 
ENDBRANCH  24  25
ENDBRANCH  18  24
ENDBRANCH  15  18
ENDBRANCH  13  14
BRANCH  13  28
ATOM     28  C   UNL     1       5.257   0.724 -10.508  1.00  0.00     0.327 C 
ATOM     29  O   UNL     1       5.992  -0.193 -10.843  1.00  0.00    -0.250 OA
BRANCH  28  30
ATOM     30  O   UNL     1       3.985   0.774 -10.951  1.00  0.00    -0.480 OA
ATOM     31  H   UNL     1       3.885   1.686 -11.295  1.00  0.00     0.296 HD
ENDBRANCH  28  30
ENDBRANCH  13  28
ENDBRANCH  11  13
ENDBRANCH   8  11
ENDBRANCH   6   7
BRANCH   6  32
ATOM     32  C   UNL     1       0.570   1.886  -9.653  1.00  0.00     0.037 C 
BRANCH  32  33
ATOM     33  C   UNL     1       1.024   2.854 -10.755  1.00  0.00     0.026 C 
BRANCH  33  34
ATOM     34  C   UNL     1      -0.069   3.851 -11.143  1.00  0.00     0.146 C 
BRANCH  34  35
ATOM     35  N   UNL     1       0.428   5.202 -10.923  1.00  0.00    -0.254 NA
ATOM     36  C   UNL     1      -0.350   6.062 -10.378  1.00  0.00     0.185 C 
ATOM     37  N   UNL     1       0.100   7.308 -10.165  1.00  0.00    -0.370 N 
ATOM     38  N   UNL     1      -1.618   5.907  -9.958  1.00  0.00    -0.370 N 
ATOM     39  H   UNL     1       1.053   7.502 -10.446  1.00  0.00     0.159 HD
ATOM     40  H   UNL     1      -0.379   7.982  -9.593  1.00  0.00     0.159 HD
ATOM     41  H   UNL     1      -2.172   6.697  -9.672  1.00  0.00     0.159 HD
ATOM     42  H   UNL     1      -2.090   5.024 -10.070  1.00  0.00     0.159 HD
ENDBRANCH  34  35
ENDBRANCH  33  34
ENDBRANCH  32  33
ENDBRANCH   6  32
ENDBRANCH   4   6
ENDBRANCH   1   2
BRANCH   1  43
ATOM     43  C   UNL     1      -2.694   1.658  -6.021  1.00  0.00     0.102 C 
ATOM     44  C   UNL     1      -3.485   2.977  -6.036  1.00  0.00     0.020 C 
BRANCH  43  45
ATOM     45  C   UNL     1      -3.442   0.493  -5.366  1.00  0.00     0.225 C 
ATOM     46  O   UNL     1      -4.639   0.531  -5.095  1.00  0.00    -0.275 OA
ATOM     47  N   UNL     1      -2.663  -0.583  -5.006  1.00  0.00    -0.342 N 
ATOM     48  H   UNL     1      -1.723  -0.663  -5.368  1.00  0.00     0.164 HD
BRANCH  47  49
ATOM     49  C   UNL     1      -3.248  -1.784  -4.402  1.00  0.00     0.192 C 
BRANCH  49  50
ATOM     50  C   UNL     1      -2.582  -2.056  -3.050  1.00  0.00     0.047 C 
BRANCH  50  51
ATOM     51  C   UNL     1      -3.565  -2.634  -2.023  1.00  0.00     0.103 C 
BRANCH  51  52
ATOM     52  C   UNL     1      -4.870  -1.841  -1.970  1.00  0.00     0.226 C 
ATOM     53  O   UNL     1      -4.835  -0.616  -1.842  1.00  0.00    -0.275 OA
BRANCH  52  54
ATOM     54  N   UNL     1      -6.057  -2.575  -2.150  1.00  0.00    -0.311 N 
ATOM     55  C   UNL     1      -6.939  -2.878  -1.015  1.00  0.00     0.153 C 
BRANCH  54  56
ATOM     56  C   UNL     1      -6.445  -3.040  -3.418  1.00  0.00     0.102 C 
ATOM     57  C   UNL     1      -6.730  -2.256  -4.470  1.00  0.00     0.043 C 
BRANCH  56  58
ATOM     58  C   UNL     1      -6.529  -4.520  -3.708  1.00  0.00     0.268 C 
ATOM     59  O   UNL     1      -7.571  -5.085  -4.014  1.00  0.00    -0.268 OA
ATOM     60  N   UNL     1      -5.308  -5.150  -3.659  1.00  0.00    -0.339 N 
ATOM     61  H   UNL     1      -4.493  -4.613  -3.388  1.00  0.00     0.164 HD
BRANCH  60  62
ATOM     62  C   UNL     1      -5.152  -6.571  -3.969  1.00  0.00     0.168 CG0
ATOM     63  C   UNL     1      -4.411  -6.765  -5.286  1.00  0.00     0.041 C 
ATOM     64  G   UNL     1      -6.539  -7.245  -4.018  1.00  0.00     0.000 G0
ENDBRANCH  60  62
ENDBRANCH  56  58
ENDBRANCH  54  56
ENDBRANCH  52  54
ENDBRANCH  51  52
ENDBRANCH  50  51
ENDBRANCH  49  50
BRANCH  49  65
ATOM     65  C   UNL     1      -3.080  -3.013  -5.309  1.00  0.00     0.326 C 
ATOM     66  O   UNL     1      -3.960  -3.521  -5.988  1.00  0.00    -0.250 OA
BRANCH  65  67
ATOM     67  O   UNL     1      -1.852  -3.577  -5.273  1.00  0.00    -0.480 OA
ATOM     68  H   UNL     1      -1.697  -3.853  -6.202  1.00  0.00     0.296 HD
ENDBRANCH  65  67
ENDBRANCH  49  65
ENDBRANCH  47  49
ENDBRANCH  43  45
ENDBRANCH   1  43
BRANCH   1  69
ATOM     69  C   UNL     1      -1.039   2.740  -4.262  1.00  0.00    -0.001 C 
ATOM     70  C   UNL     1      -1.166   2.456  -2.954  1.00  0.00     0.001 C 
BRANCH  70  71
ATOM     71  C   UNL     1      -0.928   3.364  -1.830  1.00  0.00    -0.055 C 
ATOM     72  C   UNL     1       0.076   3.061  -0.980  1.00  0.00    -0.018 C 
ATOM     73  C   UNL     1      -1.815   4.575  -1.706  1.00  0.00     0.044 C 
BRANCH  72  74
ATOM     74  C   UNL     1       0.550   3.810   0.257  1.00  0.00     0.038 C 
ATOM     75  C   UNL     1       1.229   5.097  -0.226  1.00  0.00     0.015 C 
BRANCH  74  76
ATOM     76  C   UNL     1       1.460   2.866   1.097  1.00  0.00     0.128 C 
BRANCH  76  77
ATOM     77  O   UNL     1       0.742   2.385   2.245  1.00  0.00    -0.381 OA
ATOM     78  C   UNL     1       0.474   0.990   2.207  1.00  0.00     0.195 C 
ENDBRANCH  76  77
BRANCH  76  79
ATOM     79  C   UNL     1       2.111   1.725   0.275  1.00  0.00     0.068 C 
BRANCH  79  80
ATOM     80  C   UNL     1       3.610   1.749   0.097  1.00  0.00    -0.045 A 
ATOM     81  C   UNL     1       4.302   2.959  -0.045  1.00  0.00     0.004 A 
ATOM     82  C   UNL     1       4.335   0.548   0.042  1.00  0.00     0.004 A 
ATOM     83  C   UNL     1       5.687   2.971  -0.224  1.00  0.00     0.000 A 
ATOM     84  C   UNL     1       5.720   0.562  -0.137  1.00  0.00     0.000 A 
ATOM     85  C   UNL     1       6.395   1.772  -0.268  1.00  0.00     0.000 A 
ENDBRANCH  79  80
ENDBRANCH  76  79
ENDBRANCH  74  76
ENDBRANCH  72  74
ENDBRANCH  70  71
ENDBRANCH   1  69
TORSDOF 17
ENDMDL
MODEL 12
REMARK VINA RESULT:    -6.927      4.657     10.534
REMARK INTER + INTRA:         -27.208
REMARK INTER:                 -20.831
REMARK INTRA:                  -6.377
REMARK UNBOUND:                -6.514
REMARK SMILES C=C1C(=O)N[C@H](C)C(=O)N[C@@H](CC(C)C)C(=O)N[C@@H](C(=O)O)[C@H](C)C(=O)N[C@@H](CCCN=C(N)N)C(=O)N[C@@H](/C=C/C(C)=C/[C@H](C)[C@H](Cc2ccccc2)OC)[C@H](C)C(=O)N[C@@H](C(=O)O)CCC(=O)N1C
REMARK SMILES IDX 39 1 38 2 37 3 36 4 28 6 27 7 25 8 26 9 23 11 24 12 19 13
REMARK SMILES IDX 18 14 16 15 17 16 11 18 10 19 8 20 9 21 12 24 13 25 14 26
REMARK SMILES IDX 15 27 20 28 21 29 22 30 29 32 30 33 31 34 32 35 33 36 34 37
REMARK SMILES IDX 35 38 57 43 58 44 59 45 60 46 61 47 62 49 66 50 67 51 68 52
REMARK SMILES IDX 69 53 70 54 71 55 2 56 1 57 3 58 4 59 5 60 6 62 7 63 63 65
REMARK SMILES IDX 64 66 65 67 40 69 41 70 42 71 44 72 43 73 45 74 46 75 47 76
REMARK SMILES IDX 55 77 56 78 48 79 49 80 50 81 54 82 51 83 53 84 52 85
REMARK H PARENT 38 5 27 10 18 17 10 22 22 31 34 39 34 40 35 41 35 42 61 48
REMARK H PARENT 5 61 65 68
REMARK Flexibility Score:  369.900
ROOT
ATOM      1  C   UNL     1      -1.554   1.075  -4.958  1.00  0.00     0.117 C 
ENDROOT
BRANCH   1   2
ATOM      2  N   UNL     1      -0.822   1.280  -3.708  1.00  0.00    -0.347 N 
ATOM      3  O   UNL     1      -1.983   3.115  -2.963  1.00  0.00    -0.273 OA
ATOM      4  C   UNL     1      -1.156   2.232  -2.763  1.00  0.00     0.243 C 
ATOM      5  H   UNL     1      -0.054   0.668  -3.478  1.00  0.00     0.164 HD
BRANCH   4   6
ATOM      6  C   UNL     1      -0.274   2.182  -1.490  1.00  0.00     0.171 C 
BRANCH   6   7
ATOM      7  N   UNL     1      -0.605   3.300  -0.591  1.00  0.00    -0.344 N 
ATOM      8  C   UNL     1      -0.027   4.538  -0.766  1.00  0.00     0.226 C 
ATOM      9  O   UNL     1       0.794   4.764  -1.647  1.00  0.00    -0.275 OA
ATOM     10  H   UNL     1      -1.228   3.133   0.190  1.00  0.00     0.164 HD
BRANCH   8  11
ATOM     11  C   UNL     1      -0.512   5.598   0.206  1.00  0.00     0.109 C 
ATOM     12  C   UNL     1      -1.671   5.055   1.042  1.00  0.00     0.021 C 
BRANCH  11  13
ATOM     13  C   UNL     1       0.678   6.140   1.023  1.00  0.00     0.204 C 
BRANCH  13  14
ATOM     14  N   UNL     1       1.917   5.407   0.745  1.00  0.00    -0.340 N 
ATOM     15  C   UNL     1       2.523   4.584   1.669  1.00  0.00     0.243 C 
ATOM     16  O   UNL     1       2.032   4.357   2.774  1.00  0.00    -0.273 OA
ATOM     17  H   UNL     1       2.452   5.667  -0.088  1.00  0.00     0.164 HD
BRANCH  15  18
ATOM     18  C   UNL     1       3.921   4.084   1.230  1.00  0.00     0.171 C 
BRANCH  18  19
ATOM     19  N   UNL     1       4.486   3.365   2.370  1.00  0.00    -0.343 N 
ATOM     20  C   UNL     1       5.731   3.674   2.883  1.00  0.00     0.242 CG0
ATOM     21  O   UNL     1       6.476   4.476   2.323  1.00  0.00    -0.273 OA
ATOM     22  H   UNL     1       3.956   2.614   2.796  1.00  0.00     0.164 HD
ATOM     23  G   UNL     1       6.125   2.862   4.134  1.00  0.00     0.000 G0
ENDBRANCH  18  19
BRANCH  18  24
ATOM     24  C   UNL     1       3.811   3.182  -0.005  1.00  0.00     0.038 C 
BRANCH  24  25
ATOM     25  C   UNL     1       4.250   1.720   0.224  1.00  0.00    -0.015 C 
ATOM     26  C   UNL     1       5.644   1.433  -0.335  1.00  0.00     0.007 C 
ATOM     27  C   UNL     1       3.233   0.771  -0.417  1.00  0.00     0.007 C 
ENDBRANCH  24  25
ENDBRANCH  18  24
ENDBRANCH  15  18
ENDBRANCH  13  14
BRANCH  13  28
ATOM     28  C   UNL     1       0.961   7.623   0.768  1.00  0.00     0.327 C 
ATOM     29  O   UNL     1       1.466   8.409   1.555  1.00  0.00    -0.250 OA
BRANCH  28  30
ATOM     30  O   UNL     1       0.483   8.056  -0.417  1.00  0.00    -0.480 OA
ATOM     31  H   UNL     1       0.839   7.417  -1.069  1.00  0.00     0.296 HD
ENDBRANCH  28  30
ENDBRANCH  13  28
ENDBRANCH  11  13
ENDBRANCH   8  11
ENDBRANCH   6   7
BRANCH   6  32
ATOM     32  C   UNL     1      -0.479   0.836  -0.787  1.00  0.00     0.037 C 
BRANCH  32  33
ATOM     33  C   UNL     1      -1.773   0.803   0.038  1.00  0.00     0.026 C 
BRANCH  33  34
ATOM     34  C   UNL     1      -1.545   0.308   1.466  1.00  0.00     0.146 C 
BRANCH  34  35
ATOM     35  N   UNL     1      -0.116   0.325   1.746  1.00  0.00    -0.254 NA
ATOM     36  C   UNL     1       0.356   1.263   2.479  1.00  0.00     0.185 C 
ATOM     37  N   UNL     1       1.671   1.285   2.747  1.00  0.00    -0.370 N 
ATOM     38  N   UNL     1      -0.292   2.290   3.058  1.00  0.00    -0.370 N 
ATOM     39  H   UNL     1       2.227   0.537   2.355  1.00  0.00     0.159 HD
ATOM     40  H   UNL     1       2.086   1.877   3.446  1.00  0.00     0.159 HD
ATOM     41  H   UNL     1       0.212   3.043   3.496  1.00  0.00     0.159 HD
ATOM     42  H   UNL     1      -1.284   2.408   2.928  1.00  0.00     0.159 HD
ENDBRANCH  34  35
ENDBRANCH  33  34
ENDBRANCH  32  33
ENDBRANCH   6  32
ENDBRANCH   4   6
ENDBRANCH   1   2
BRANCH   1  43
ATOM     43  C   UNL     1      -2.813   0.213  -4.659  1.00  0.00     0.102 C 
ATOM     44  C   UNL     1      -2.496  -1.275  -4.432  1.00  0.00     0.020 C 
BRANCH  43  45
ATOM     45  C   UNL     1      -3.910   0.462  -5.699  1.00  0.00     0.225 C 
ATOM     46  O   UNL     1      -4.371  -0.423  -6.413  1.00  0.00    -0.275 OA
ATOM     47  N   UNL     1      -4.291   1.775  -5.854  1.00  0.00    -0.342 N 
ATOM     48  H   UNL     1      -4.018   2.460  -5.163  1.00  0.00     0.164 HD
BRANCH  47  49
ATOM     49  C   UNL     1      -5.355   2.159  -6.787  1.00  0.00     0.192 C 
BRANCH  49  50
ATOM     50  C   UNL     1      -5.193   3.631  -7.175  1.00  0.00     0.047 C 
BRANCH  50  51
ATOM     51  C   UNL     1      -4.401   3.806  -8.477  1.00  0.00     0.103 C 
BRANCH  51  52
ATOM     52  C   UNL     1      -5.169   4.629  -9.510  1.00  0.00     0.226 C 
ATOM     53  O   UNL     1      -4.560   5.414 -10.239  1.00  0.00    -0.275 OA
BRANCH  52  54
ATOM     54  N   UNL     1      -6.549   4.374  -9.614  1.00  0.00    -0.311 N 
ATOM     55  C   UNL     1      -7.532   5.263  -8.981  1.00  0.00     0.153 C 
BRANCH  54  56
ATOM     56  C   UNL     1      -7.037   3.267 -10.328  1.00  0.00     0.102 C 
ATOM     57  C   UNL     1      -6.272   2.333 -10.916  1.00  0.00     0.043 C 
BRANCH  56  58
ATOM     58  C   UNL     1      -8.522   3.017 -10.450  1.00  0.00     0.268 C 
ATOM     59  O   UNL     1      -9.141   2.282  -9.692  1.00  0.00    -0.268 OA
ATOM     60  N   UNL     1      -9.113   3.747 -11.453  1.00  0.00    -0.339 N 
ATOM     61  H   UNL     1      -8.527   4.326 -12.044  1.00  0.00     0.164 HD
BRANCH  60  62
ATOM     62  C   UNL     1     -10.552   3.704 -11.704  1.00  0.00     0.168 CG0
ATOM     63  C   UNL     1     -10.865   2.889 -12.953  1.00  0.00     0.041 C 
ATOM     64  G   UNL     1     -11.097   5.141 -11.839  1.00  0.00     0.000 G0
ENDBRANCH  60  62
ENDBRANCH  56  58
ENDBRANCH  54  56
ENDBRANCH  52  54
ENDBRANCH  51  52
ENDBRANCH  50  51
ENDBRANCH  49  50
BRANCH  49  65
ATOM     65  C   UNL     1      -6.749   1.945  -6.176  1.00  0.00     0.326 C 
ATOM     66  O   UNL     1      -7.016   1.985  -4.984  1.00  0.00    -0.250 OA
BRANCH  65  67
ATOM     67  O   UNL     1      -7.714   1.634  -7.069  1.00  0.00    -0.480 OA
ATOM     68  H   UNL     1      -7.241   1.627  -7.929  1.00  0.00     0.296 HD
ENDBRANCH  65  67
ENDBRANCH  49  65
ENDBRANCH  47  49
ENDBRANCH  43  45
ENDBRANCH   1  43
BRANCH   1  69
ATOM     69  C   UNL     1      -0.538   0.567  -5.965  1.00  0.00    -0.001 C 
ATOM     70  C   UNL     1       0.326   1.295  -6.693  1.00  0.00     0.001 C 
BRANCH  70  71
ATOM     71  C   UNL     1       1.317   0.791  -7.646  1.00  0.00    -0.055 C 
ATOM     72  C   UNL     1       2.546   1.347  -7.627  1.00  0.00    -0.018 C 
ATOM     73  C   UNL     1       0.897  -0.318  -8.575  1.00  0.00     0.044 C 
BRANCH  72  74
ATOM     74  C   UNL     1       3.761   1.029  -8.487  1.00  0.00     0.038 C 
ATOM     75  C   UNL     1       4.968   0.933  -7.546  1.00  0.00     0.015 C 
BRANCH  74  76
ATOM     76  C   UNL     1       3.885   2.111  -9.600  1.00  0.00     0.128 C 
BRANCH  76  77
ATOM     77  O   UNL     1       5.257   2.237 -10.011  1.00  0.00    -0.381 OA
ATOM     78  C   UNL     1       5.619   3.558 -10.393  1.00  0.00     0.195 C 
ENDBRANCH  76  77
BRANCH  76  79
ATOM     79  C   UNL     1       2.919   1.900 -10.793  1.00  0.00     0.068 C 
BRANCH  79  80
ATOM     80  C   UNL     1       1.772   2.869 -10.954  1.00  0.00    -0.045 A 
ATOM     81  C   UNL     1       0.460   2.492 -10.640  1.00  0.00     0.004 A 
ATOM     82  C   UNL     1       2.003   4.161 -11.450  1.00  0.00     0.004 A 
ATOM     83  C   UNL     1      -0.597   3.390 -10.806  1.00  0.00     0.000 A 
ATOM     84  C   UNL     1       0.945   5.058 -11.615  1.00  0.00     0.000 A 
ATOM     85  C   UNL     1      -0.354   4.673 -11.292  1.00  0.00     0.000 A 
ENDBRANCH  79  80
ENDBRANCH  76  79
ENDBRANCH  74  76
ENDBRANCH  72  74
ENDBRANCH  70  71
ENDBRANCH   1  69
TORSDOF 17
ENDMDL
MODEL 13
REMARK VINA RESULT:    -6.880      5.109     12.625
REMARK INTER + INTRA:         -27.068
REMARK INTER:                 -20.429
REMARK INTRA:                  -6.639
REMARK UNBOUND:                -6.514
REMARK SMILES C=C1C(=O)N[C@H](C)C(=O)N[C@@H](CC(C)C)C(=O)N[C@@H](C(=O)O)[C@H](C)C(=O)N[C@@H](CCCN=C(N)N)C(=O)N[C@@H](/C=C/C(C)=C/[C@H](C)[C@H](Cc2ccccc2)OC)[C@H](C)C(=O)N[C@@H](C(=O)O)CCC(=O)N1C
REMARK SMILES IDX 39 1 38 2 37 3 36 4 28 6 27 7 25 8 26 9 23 11 24 12 19 13
REMARK SMILES IDX 18 14 16 15 17 16 11 18 10 19 8 20 9 21 12 24 13 25 14 26
REMARK SMILES IDX 15 27 20 28 21 29 22 30 29 32 30 33 31 34 32 35 33 36 34 37
REMARK SMILES IDX 35 38 57 43 58 44 59 45 60 46 61 47 62 49 66 50 67 51 68 52
REMARK SMILES IDX 69 53 70 54 71 55 2 56 1 57 3 58 4 59 5 60 6 62 7 63 63 65
REMARK SMILES IDX 64 66 65 67 40 69 41 70 42 71 44 72 43 73 45 74 46 75 47 76
REMARK SMILES IDX 55 77 56 78 48 79 49 80 50 81 54 82 51 83 53 84 52 85
REMARK H PARENT 38 5 27 10 18 17 10 22 22 31 34 39 34 40 35 41 35 42 61 48
REMARK H PARENT 5 61 65 68
REMARK Flexibility Score:  369.900
ROOT
ATOM      1  C   UNL     1      -0.775   0.616  -4.837  1.00  0.00     0.117 C 
ENDROOT
BRANCH   1   2
ATOM      2  N   UNL     1      -0.418   1.112  -3.508  1.00  0.00    -0.347 N 
ATOM      3  O   UNL     1       0.506  -0.823  -2.688  1.00  0.00    -0.273 OA
ATOM      4  C   UNL     1       0.279   0.377  -2.569  1.00  0.00     0.243 C 
ATOM      5  H   UNL     1      -0.642   2.064  -3.259  1.00  0.00     0.164 HD
BRANCH   4   6
ATOM      6  C   UNL     1       0.605   1.166  -1.275  1.00  0.00     0.171 C 
BRANCH   6   7
ATOM      7  N   UNL     1      -0.352   2.269  -1.091  1.00  0.00    -0.344 N 
ATOM      8  C   UNL     1       0.081   3.577  -1.065  1.00  0.00     0.226 C 
ATOM      9  O   UNL     1       1.262   3.884  -1.168  1.00  0.00    -0.275 OA
ATOM     10  H   UNL     1      -1.328   2.051  -0.935  1.00  0.00     0.164 HD
BRANCH   8  11
ATOM     11  C   UNL     1      -1.032   4.601  -0.923  1.00  0.00     0.109 C 
ATOM     12  C   UNL     1      -2.139   4.319  -1.938  1.00  0.00     0.021 C 
BRANCH  11  13
ATOM     13  C   UNL     1      -1.499   4.663   0.545  1.00  0.00     0.204 C 
BRANCH  13  14
ATOM     14  N   UNL     1      -1.026   5.873   1.224  1.00  0.00    -0.340 N 
ATOM     15  C   UNL     1       0.146   5.916   1.948  1.00  0.00     0.243 C 
ATOM     16  O   UNL     1       0.910   4.955   2.025  1.00  0.00    -0.273 OA
ATOM     17  H   UNL     1      -1.680   6.653   1.327  1.00  0.00     0.164 HD
BRANCH  15  18
ATOM     18  C   UNL     1       0.334   7.230   2.745  1.00  0.00     0.171 C 
BRANCH  18  19
ATOM     19  N   UNL     1      -0.366   7.054   4.015  1.00  0.00    -0.343 N 
ATOM     20  C   UNL     1      -1.139   8.058   4.567  1.00  0.00     0.242 CG0
ATOM     21  O   UNL     1      -1.165   9.188   4.085  1.00  0.00    -0.273 OA
ATOM     22  H   UNL     1      -0.282   6.174   4.512  1.00  0.00     0.164 HD
ATOM     23  G   UNL     1      -1.863   7.660   5.870  1.00  0.00     0.000 G0
ENDBRANCH  18  19
BRANCH  18  24
ATOM     24  C   UNL     1       1.824   7.524   2.960  1.00  0.00     0.038 C 
BRANCH  24  25
ATOM     25  C   UNL     1       2.158   9.010   3.210  1.00  0.00    -0.015 C 
ATOM     26  C   UNL     1       3.168   9.560   2.203  1.00  0.00     0.007 C 
ATOM     27  C   UNL     1       2.700   9.184   4.631  1.00  0.00     0.007 C 
ENDBRANCH  24  25
ENDBRANCH  18  24
ENDBRANCH  15  18
ENDBRANCH  13  14
BRANCH  13  28
ATOM     28  C   UNL     1      -3.023   4.624   0.696  1.00  0.00     0.327 C 
ATOM     29  O   UNL     1      -3.790   5.560   0.524  1.00  0.00    -0.250 OA
BRANCH  28  30
ATOM     30  O   UNL     1      -3.478   3.446   1.168  1.00  0.00    -0.480 OA
ATOM     31  H   UNL     1      -2.836   2.787   0.830  1.00  0.00     0.296 HD
ENDBRANCH  28  30
ENDBRANCH  13  28
ENDBRANCH  11  13
ENDBRANCH   8  11
ENDBRANCH   6   7
BRANCH   6  32
ATOM     32  C   UNL     1       0.572   0.208  -0.080  1.00  0.00     0.037 C 
BRANCH  32  33
ATOM     33  C   UNL     1      -0.360   0.704   1.035  1.00  0.00     0.026 C 
BRANCH  33  34
ATOM     34  C   UNL     1      -1.513  -0.262   1.307  1.00  0.00     0.146 C 
BRANCH  34  35
ATOM     35  N   UNL     1      -2.772   0.426   1.057  1.00  0.00    -0.254 NA
ATOM     36  C   UNL     1      -3.328   0.294  -0.089  1.00  0.00     0.185 C 
ATOM     37  N   UNL     1      -4.491   0.920  -0.328  1.00  0.00    -0.370 N 
ATOM     38  N   UNL     1      -2.911  -0.414  -1.154  1.00  0.00    -0.370 N 
ATOM     39  H   UNL     1      -4.877   1.467   0.431  1.00  0.00     0.159 HD
ATOM     40  H   UNL     1      -5.071   0.729  -1.127  1.00  0.00     0.159 HD
ATOM     41  H   UNL     1      -3.366  -0.328  -2.048  1.00  0.00     0.159 HD
ATOM     42  H   UNL     1      -2.042  -0.924  -1.122  1.00  0.00     0.159 HD
ENDBRANCH  34  35
ENDBRANCH  33  34
ENDBRANCH  32  33
ENDBRANCH   6  32
ENDBRANCH   4   6
ENDBRANCH   1   2
BRANCH   1  43
ATOM     43  C   UNL     1      -0.553   1.759  -5.869  1.00  0.00     0.102 C 
ATOM     44  C   UNL     1      -1.859   2.427  -6.333  1.00  0.00     0.020 C 
BRANCH  43  45
ATOM     45  C   UNL     1       0.349   1.296  -7.017  1.00  0.00     0.225 C 
ATOM     46  O   UNL     1       0.084   0.335  -7.734  1.00  0.00    -0.275 OA
ATOM     47  N   UNL     1       1.541   1.973  -7.143  1.00  0.00    -0.342 N 
ATOM     48  H   UNL     1       1.675   2.846  -6.652  1.00  0.00     0.164 HD
BRANCH  47  49
ATOM     49  C   UNL     1       2.488   1.663  -8.218  1.00  0.00     0.192 C 
BRANCH  49  50
ATOM     50  C   UNL     1       3.919   1.895  -7.725  1.00  0.00     0.047 C 
BRANCH  50  51
ATOM     51  C   UNL     1       4.804   0.653  -7.903  1.00  0.00     0.103 C 
BRANCH  51  52
ATOM     52  C   UNL     1       6.044   0.948  -8.744  1.00  0.00     0.226 C 
ATOM     53  O   UNL     1       7.087   1.303  -8.191  1.00  0.00    -0.275 OA
BRANCH  52  54
ATOM     54  N   UNL     1       5.932   0.717 -10.128  1.00  0.00    -0.311 N 
ATOM     55  C   UNL     1       4.744   0.063 -10.691  1.00  0.00     0.153 C 
BRANCH  54  56
ATOM     56  C   UNL     1       6.946   1.105 -11.019  1.00  0.00     0.102 C 
ATOM     57  C   UNL     1       7.905   0.294 -11.493  1.00  0.00     0.043 C 
BRANCH  56  58
ATOM     58  C   UNL     1       7.000   2.513 -11.564  1.00  0.00     0.268 C 
ATOM     59  O   UNL     1       7.594   3.425 -11.005  1.00  0.00    -0.268 OA
ATOM     60  N   UNL     1       6.373   2.646 -12.780  1.00  0.00    -0.339 N 
ATOM     61  H   UNL     1       5.894   1.844 -13.172  1.00  0.00     0.164 HD
BRANCH  60  62
ATOM     62  C   UNL     1       6.360   3.910 -13.516  1.00  0.00     0.168 CG0
ATOM     63  C   UNL     1       5.086   4.696 -13.230  1.00  0.00     0.041 C 
ATOM     64  G   UNL     1       6.502   3.631 -15.026  1.00  0.00     0.000 G0
ENDBRANCH  60  62
ENDBRANCH  56  58
ENDBRANCH  54  56
ENDBRANCH  52  54
ENDBRANCH  51  52
ENDBRANCH  50  51
ENDBRANCH  49  50
BRANCH  49  65
ATOM     65  C   UNL     1       2.233   2.525  -9.464  1.00  0.00     0.326 C 
ATOM     66  O   UNL     1       2.849   3.536  -9.767  1.00  0.00    -0.250 OA
BRANCH  65  67
ATOM     67  O   UNL     1       1.194   2.119 -10.227  1.00  0.00    -0.480 OA
ATOM     68  H   UNL     1       1.399   1.178 -10.415  1.00  0.00     0.296 HD
ENDBRANCH  65  67
ENDBRANCH  49  65
ENDBRANCH  47  49
ENDBRANCH  43  45
ENDBRANCH   1  43
BRANCH   1  69
ATOM     69  C   UNL     1      -2.159   0.006  -4.704  1.00  0.00    -0.001 C 
ATOM     70  C   UNL     1      -2.511  -1.275  -4.915  1.00  0.00     0.001 C 
BRANCH  70  71
ATOM     71  C   UNL     1      -3.846  -1.856  -4.763  1.00  0.00    -0.055 C 
ATOM     72  C   UNL     1      -4.556  -1.519  -3.666  1.00  0.00    -0.018 C 
ATOM     73  C   UNL     1      -4.336  -2.783  -5.845  1.00  0.00     0.044 C 
BRANCH  72  74
ATOM     74  C   UNL     1      -5.952  -1.959  -3.249  1.00  0.00     0.038 C 
ATOM     75  C   UNL     1      -6.840  -0.709  -3.250  1.00  0.00     0.015 C 
BRANCH  74  76
ATOM     76  C   UNL     1      -5.858  -2.692  -1.878  1.00  0.00     0.128 C 
BRANCH  76  77
ATOM     77  O   UNL     1      -6.650  -2.002  -0.897  1.00  0.00    -0.381 OA
ATOM     78  C   UNL     1      -7.400  -2.868  -0.056  1.00  0.00     0.195 C 
ENDBRANCH  76  77
BRANCH  76  79
ATOM     79  C   UNL     1      -6.179  -4.206  -1.951  1.00  0.00     0.068 C 
BRANCH  79  80
ATOM     80  C   UNL     1      -5.421  -5.043  -2.953  1.00  0.00    -0.045 A 
ATOM     81  C   UNL     1      -4.024  -5.141  -2.902  1.00  0.00     0.004 A 
ATOM     82  C   UNL     1      -6.107  -5.717  -3.975  1.00  0.00     0.004 A 
ATOM     83  C   UNL     1      -3.329  -5.905  -3.841  1.00  0.00     0.000 A 
ATOM     84  C   UNL     1      -5.410  -6.480  -4.914  1.00  0.00     0.000 A 
ATOM     85  C   UNL     1      -4.022  -6.576  -4.846  1.00  0.00     0.000 A 
ENDBRANCH  79  80
ENDBRANCH  76  79
ENDBRANCH  74  76
ENDBRANCH  72  74
ENDBRANCH  70  71
ENDBRANCH   1  69
TORSDOF 17
ENDMDL
MODEL 14
REMARK VINA RESULT:    -6.875      5.492     13.776
REMARK INTER + INTRA:         -27.054
REMARK INTER:                 -21.450
REMARK INTRA:                  -5.604
REMARK UNBOUND:                -6.514
REMARK SMILES C=C1C(=O)N[C@H](C)C(=O)N[C@@H](CC(C)C)C(=O)N[C@@H](C(=O)O)[C@H](C)C(=O)N[C@@H](CCCN=C(N)N)C(=O)N[C@@H](/C=C/C(C)=C/[C@H](C)[C@H](Cc2ccccc2)OC)[C@H](C)C(=O)N[C@@H](C(=O)O)CCC(=O)N1C
REMARK SMILES IDX 39 1 38 2 37 3 36 4 28 6 27 7 25 8 26 9 23 11 24 12 19 13
REMARK SMILES IDX 18 14 16 15 17 16 11 18 10 19 8 20 9 21 12 24 13 25 14 26
REMARK SMILES IDX 15 27 20 28 21 29 22 30 29 32 30 33 31 34 32 35 33 36 34 37
REMARK SMILES IDX 35 38 57 43 58 44 59 45 60 46 61 47 62 49 66 50 67 51 68 52
REMARK SMILES IDX 69 53 70 54 71 55 2 56 1 57 3 58 4 59 5 60 6 62 7 63 63 65
REMARK SMILES IDX 64 66 65 67 40 69 41 70 42 71 44 72 43 73 45 74 46 75 47 76
REMARK SMILES IDX 55 77 56 78 48 79 49 80 50 81 54 82 51 83 53 84 52 85
REMARK H PARENT 38 5 27 10 18 17 10 22 22 31 34 39 34 40 35 41 35 42 61 48
REMARK H PARENT 5 61 65 68
REMARK Flexibility Score:  369.900
ROOT
ATOM      1  C   UNL     1      -0.898   0.608  -4.498  1.00  0.00     0.117 C 
ENDROOT
BRANCH   1   2
ATOM      2  N   UNL     1      -0.629   1.089  -3.143  1.00  0.00    -0.347 N 
ATOM      3  O   UNL     1       0.506  -0.753  -2.376  1.00  0.00    -0.273 OA
ATOM      4  C   UNL     1       0.134   0.405  -2.216  1.00  0.00     0.243 C 
ATOM      5  H   UNL     1      -0.971   1.996  -2.864  1.00  0.00     0.164 HD
BRANCH   4   6
ATOM      6  C   UNL     1       0.336   1.174  -0.886  1.00  0.00     0.171 C 
BRANCH   6   7
ATOM      7  N   UNL     1      -0.043   0.331   0.259  1.00  0.00    -0.344 N 
ATOM      8  C   UNL     1      -1.320   0.382   0.776  1.00  0.00     0.226 C 
ATOM      9  O   UNL     1      -2.182   1.132   0.335  1.00  0.00    -0.275 OA
ATOM     10  H   UNL     1       0.661  -0.253   0.693  1.00  0.00     0.164 HD
BRANCH   8  11
ATOM     11  C   UNL     1      -1.570  -0.587   1.919  1.00  0.00     0.109 C 
ATOM     12  C   UNL     1      -0.649  -1.800   1.792  1.00  0.00     0.021 C 
BRANCH  11  13
ATOM     13  C   UNL     1      -1.478   0.160   3.265  1.00  0.00     0.204 C 
BRANCH  13  14
ATOM     14  N   UNL     1      -2.311  -0.462   4.299  1.00  0.00    -0.340 N 
ATOM     15  C   UNL     1      -3.689  -0.433   4.268  1.00  0.00     0.243 C 
ATOM     16  O   UNL     1      -4.318   0.066   3.337  1.00  0.00    -0.273 OA
ATOM     17  H   UNL     1      -1.858  -0.757   5.168  1.00  0.00     0.164 HD
BRANCH  15  18
ATOM     18  C   UNL     1      -4.348  -0.968   5.563  1.00  0.00     0.171 C 
BRANCH  18  19
ATOM     19  N   UNL     1      -4.556   0.186   6.434  1.00  0.00    -0.343 N 
ATOM     20  C   UNL     1      -3.592   0.608   7.329  1.00  0.00     0.242 CG0
ATOM     21  O   UNL     1      -2.570  -0.045   7.528  1.00  0.00    -0.273 OA
ATOM     22  H   UNL     1      -5.434   0.691   6.389  1.00  0.00     0.164 HD
ATOM     23  G   UNL     1      -3.960   1.889   8.105  1.00  0.00     0.000 G0
ENDBRANCH  18  19
BRANCH  18  24
ATOM     24  C   UNL     1      -5.670  -1.678   5.244  1.00  0.00     0.038 C 
BRANCH  24  25
ATOM     25  C   UNL     1      -5.618  -3.217   5.354  1.00  0.00    -0.015 C 
ATOM     26  C   UNL     1      -6.650  -3.903   4.459  1.00  0.00     0.007 C 
ATOM     27  C   UNL     1      -5.838  -3.636   6.810  1.00  0.00     0.007 C 
ENDBRANCH  24  25
ENDBRANCH  18  24
ENDBRANCH  15  18
ENDBRANCH  13  14
BRANCH  13  28
ATOM     28  C   UNL     1      -0.052   0.236   3.816  1.00  0.00     0.327 C 
ATOM     29  O   UNL     1       0.360  -0.301   4.834  1.00  0.00    -0.250 OA
BRANCH  28  30
ATOM     30  O   UNL     1       0.740   1.078   3.121  1.00  0.00    -0.480 OA
ATOM     31  H   UNL     1       1.584   1.080   3.618  1.00  0.00     0.296 HD
ENDBRANCH  28  30
ENDBRANCH  13  28
ENDBRANCH  11  13
ENDBRANCH   8  11
ENDBRANCH   6   7
BRANCH   6  32
ATOM     32  C   UNL     1       1.800   1.616  -0.778  1.00  0.00     0.037 C 
BRANCH  32  33
ATOM     33  C   UNL     1       2.628   0.669   0.101  1.00  0.00     0.026 C 
BRANCH  33  34
ATOM     34  C   UNL     1       4.133   0.853  -0.097  1.00  0.00     0.146 C 
BRANCH  34  35
ATOM     35  N   UNL     1       4.444   2.275  -0.038  1.00  0.00    -0.254 NA
ATOM     36  C   UNL     1       4.997   2.739   1.020  1.00  0.00     0.185 C 
ATOM     37  N   UNL     1       5.292   4.047   1.083  1.00  0.00    -0.370 N 
ATOM     38  N   UNL     1       5.350   2.090   2.143  1.00  0.00    -0.370 N 
ATOM     39  H   UNL     1       5.065   4.604   0.269  1.00  0.00     0.159 HD
ATOM     40  H   UNL     1       5.876   4.452   1.795  1.00  0.00     0.159 HD
ATOM     41  H   UNL     1       5.650   2.592   2.963  1.00  0.00     0.159 HD
ATOM     42  H   UNL     1       5.172   1.103   2.242  1.00  0.00     0.159 HD
ENDBRANCH  34  35
ENDBRANCH  33  34
ENDBRANCH  32  33
ENDBRANCH   6  32
ENDBRANCH   4   6
ENDBRANCH   1   2
BRANCH   1  43
ATOM     43  C   UNL     1      -0.647   1.774  -5.497  1.00  0.00     0.102 C 
ATOM     44  C   UNL     1      -1.900   2.623  -5.773  1.00  0.00     0.020 C 
BRANCH  43  45
ATOM     45  C   UNL     1       0.056   1.274  -6.763  1.00  0.00     0.225 C 
ATOM     46  O   UNL     1      -0.251   0.230  -7.332  1.00  0.00    -0.275 OA
ATOM     47  N   UNL     1       1.130   2.026  -7.180  1.00  0.00    -0.342 N 
ATOM     48  H   UNL     1       1.272   2.950  -6.799  1.00  0.00     0.164 HD
BRANCH  47  49
ATOM     49  C   UNL     1       1.875   1.687  -8.396  1.00  0.00     0.192 C 
BRANCH  49  50
ATOM     50  C   UNL     1       3.324   2.164  -8.261  1.00  0.00     0.047 C 
BRANCH  50  51
ATOM     51  C   UNL     1       4.333   1.031  -8.495  1.00  0.00     0.103 C 
BRANCH  51  52
ATOM     52  C   UNL     1       5.153   1.248  -9.766  1.00  0.00     0.226 C 
ATOM     53  O   UNL     1       5.898   2.226  -9.852  1.00  0.00    -0.275 OA
BRANCH  52  54
ATOM     54  N   UNL     1       5.058   0.248 -10.751  1.00  0.00    -0.311 N 
ATOM     55  C   UNL     1       4.225  -0.943 -10.542  1.00  0.00     0.153 C 
BRANCH  54  56
ATOM     56  C   UNL     1       5.749   0.353 -11.970  1.00  0.00     0.102 C 
ATOM     57  C   UNL     1       5.180   0.636 -13.153  1.00  0.00     0.043 C 
BRANCH  56  58
ATOM     58  C   UNL     1       7.250   0.192 -12.027  1.00  0.00     0.268 C 
ATOM     59  O   UNL     1       7.870  -0.567 -11.294  1.00  0.00    -0.268 OA
ATOM     60  N   UNL     1       7.835   0.933 -13.026  1.00  0.00    -0.339 N 
ATOM     61  H   UNL     1       7.252   1.546 -13.583  1.00  0.00     0.164 HD
BRANCH  60  62
ATOM     62  C   UNL     1       9.271   0.877 -13.297  1.00  0.00     0.168 CG0
ATOM     63  C   UNL     1       9.550   0.184 -14.625  1.00  0.00     0.041 C 
ATOM     64  G   UNL     1       9.988   0.150 -12.141  1.00  0.00     0.000 G0
ENDBRANCH  60  62
ENDBRANCH  56  58
ENDBRANCH  54  56
ENDBRANCH  52  54
ENDBRANCH  51  52
ENDBRANCH  50  51
ENDBRANCH  49  50
BRANCH  49  65
ATOM     65  C   UNL     1       1.244   2.325  -9.644  1.00  0.00     0.326 C 
ATOM     66  O   UNL     1       1.630   3.347 -10.192  1.00  0.00    -0.250 OA
BRANCH  65  67
ATOM     67  O   UNL     1       0.141   1.694 -10.103  1.00  0.00    -0.480 OA
ATOM     68  H   UNL     1       0.501   0.929 -10.601  1.00  0.00     0.296 HD
ENDBRANCH  65  67
ENDBRANCH  49  65
ENDBRANCH  47  49
ENDBRANCH  43  45
ENDBRANCH   1  43
BRANCH   1  69
ATOM     69  C   UNL     1      -2.270  -0.038  -4.455  1.00  0.00    -0.001 C 
ATOM     70  C   UNL     1      -2.588  -1.305  -4.774  1.00  0.00     0.001 C 
BRANCH  70  71
ATOM     71  C   UNL     1      -3.913  -1.924  -4.707  1.00  0.00    -0.055 C 
ATOM     72  C   UNL     1      -4.699  -1.612  -3.655  1.00  0.00    -0.018 C 
ATOM     73  C   UNL     1      -4.310  -2.857  -5.821  1.00  0.00     0.044 C 
BRANCH  72  74
ATOM     74  C   UNL     1      -6.105  -2.093  -3.327  1.00  0.00     0.038 C 
ATOM     75  C   UNL     1      -7.040  -0.885  -3.468  1.00  0.00     0.015 C 
BRANCH  74  76
ATOM     76  C   UNL     1      -6.094  -2.749  -1.915  1.00  0.00     0.128 C 
BRANCH  76  77
ATOM     77  O   UNL     1      -7.028  -2.076  -1.054  1.00  0.00    -0.381 OA
ATOM     78  C   UNL     1      -7.399  -2.834   0.090  1.00  0.00     0.195 C 
ENDBRANCH  76  77
BRANCH  76  79
ATOM     79  C   UNL     1      -6.296  -4.285  -1.933  1.00  0.00     0.068 C 
BRANCH  79  80
ATOM     80  C   UNL     1      -5.496  -5.091  -2.928  1.00  0.00    -0.045 A 
ATOM     81  C   UNL     1      -4.100  -5.172  -2.836  1.00  0.00     0.004 A 
ATOM     82  C   UNL     1      -6.141  -5.754  -3.984  1.00  0.00     0.004 A 
ATOM     83  C   UNL     1      -3.366  -5.908  -3.769  1.00  0.00     0.000 A 
ATOM     84  C   UNL     1      -5.406  -6.489  -4.916  1.00  0.00     0.000 A 
ATOM     85  C   UNL     1      -4.020  -6.567  -4.807  1.00  0.00     0.000 A 
ENDBRANCH  79  80
ENDBRANCH  76  79
ENDBRANCH  74  76
ENDBRANCH  72  74
ENDBRANCH  70  71
ENDBRANCH   1  69
TORSDOF 17
ENDMDL
MODEL 15
REMARK VINA RESULT:    -6.859      5.665     13.741
REMARK INTER + INTRA:         -27.005
REMARK INTER:                 -21.026
REMARK INTRA:                  -5.979
REMARK UNBOUND:                -6.514
REMARK SMILES C=C1C(=O)N[C@H](C)C(=O)N[C@@H](CC(C)C)C(=O)N[C@@H](C(=O)O)[C@H](C)C(=O)N[C@@H](CCCN=C(N)N)C(=O)N[C@@H](/C=C/C(C)=C/[C@H](C)[C@H](Cc2ccccc2)OC)[C@H](C)C(=O)N[C@@H](C(=O)O)CCC(=O)N1C
REMARK SMILES IDX 39 1 38 2 37 3 36 4 28 6 27 7 25 8 26 9 23 11 24 12 19 13
REMARK SMILES IDX 18 14 16 15 17 16 11 18 10 19 8 20 9 21 12 24 13 25 14 26
REMARK SMILES IDX 15 27 20 28 21 29 22 30 29 32 30 33 31 34 32 35 33 36 34 37
REMARK SMILES IDX 35 38 57 43 58 44 59 45 60 46 61 47 62 49 66 50 67 51 68 52
REMARK SMILES IDX 69 53 70 54 71 55 2 56 1 57 3 58 4 59 5 60 6 62 7 63 63 65
REMARK SMILES IDX 64 66 65 67 40 69 41 70 42 71 44 72 43 73 45 74 46 75 47 76
REMARK SMILES IDX 55 77 56 78 48 79 49 80 50 81 54 82 51 83 53 84 52 85
REMARK H PARENT 38 5 27 10 18 17 10 22 22 31 34 39 34 40 35 41 35 42 61 48
REMARK H PARENT 5 61 65 68
REMARK Flexibility Score:  369.900
ROOT
ATOM      1  C   UNL     1      -0.816   0.387  -3.778  1.00  0.00     0.117 C 
ENDROOT
BRANCH   1   2
ATOM      2  N   UNL     1      -0.655   1.094  -2.507  1.00  0.00    -0.347 N 
ATOM      3  O   UNL     1       1.189  -0.044  -1.748  1.00  0.00    -0.273 OA
ATOM      4  C   UNL     1       0.394   0.882  -1.632  1.00  0.00     0.243 C 
ATOM      5  H   UNL     1      -1.311   1.818  -2.257  1.00  0.00     0.164 HD
BRANCH   4   6
ATOM      6  C   UNL     1       0.376   1.821  -0.399  1.00  0.00     0.171 C 
BRANCH   6   7
ATOM      7  N   UNL     1       0.009   1.071   0.813  1.00  0.00    -0.344 N 
ATOM      8  C   UNL     1      -1.306   0.754   1.072  1.00  0.00     0.226 C 
ATOM      9  O   UNL     1      -2.225   1.091   0.335  1.00  0.00    -0.275 OA
ATOM     10  H   UNL     1       0.733   0.834   1.480  1.00  0.00     0.164 HD
BRANCH   8  11
ATOM     11  C   UNL     1      -1.515  -0.068   2.332  1.00  0.00     0.109 C 
ATOM     12  C   UNL     1      -0.265  -0.011   3.210  1.00  0.00     0.021 C 
BRANCH  11  13
ATOM     13  C   UNL     1      -2.818   0.370   3.030  1.00  0.00     0.204 C 
BRANCH  13  14
ATOM     14  N   UNL     1      -3.221  -0.567   4.084  1.00  0.00    -0.340 N 
ATOM     15  C   UNL     1      -4.537  -0.879   4.345  1.00  0.00     0.243 C 
ATOM     16  O   UNL     1      -5.467  -0.439   3.670  1.00  0.00    -0.273 OA
ATOM     17  H   UNL     1      -2.517  -0.847   4.773  1.00  0.00     0.164 HD
BRANCH  15  18
ATOM     18  C   UNL     1      -4.731  -1.722   5.629  1.00  0.00     0.171 C 
BRANCH  18  19
ATOM     19  N   UNL     1      -5.311  -2.997   5.210  1.00  0.00    -0.343 N 
ATOM     20  C   UNL     1      -6.673  -3.225   5.248  1.00  0.00     0.242 CG0
ATOM     21  O   UNL     1      -7.446  -2.419   5.760  1.00  0.00    -0.273 OA
ATOM     22  H   UNL     1      -4.701  -3.739   4.887  1.00  0.00     0.164 HD
ATOM     23  G   UNL     1      -7.104  -4.598   4.694  1.00  0.00     0.000 G0
ENDBRANCH  18  19
BRANCH  18  24
ATOM     24  C   UNL     1      -3.393  -1.924   6.351  1.00  0.00     0.038 C 
BRANCH  24  25
ATOM     25  C   UNL     1      -3.321  -3.188   7.233  1.00  0.00    -0.015 C 
ATOM     26  C   UNL     1      -4.019  -3.002   8.581  1.00  0.00     0.007 C 
ATOM     27  C   UNL     1      -1.857  -3.575   7.461  1.00  0.00     0.007 C 
ENDBRANCH  24  25
ENDBRANCH  18  24
ENDBRANCH  15  18
ENDBRANCH  13  14
BRANCH  13  28
ATOM     28  C   UNL     1      -2.723   1.758   3.669  1.00  0.00     0.327 C 
ATOM     29  O   UNL     1      -2.454   2.000   4.836  1.00  0.00    -0.250 OA
BRANCH  28  30
ATOM     30  O   UNL     1      -3.090   2.751   2.834  1.00  0.00    -0.480 OA
ATOM     31  H   UNL     1      -3.440   2.286   2.046  1.00  0.00     0.296 HD
ENDBRANCH  28  30
ENDBRANCH  13  28
ENDBRANCH  11  13
ENDBRANCH   8  11
ENDBRANCH   6   7
BRANCH   6  32
ATOM     32  C   UNL     1       1.754   2.474  -0.244  1.00  0.00     0.037 C 
BRANCH  32  33
ATOM     33  C   UNL     1       1.739   3.621   0.777  1.00  0.00     0.026 C 
BRANCH  33  34
ATOM     34  C   UNL     1       0.490   4.494   0.658  1.00  0.00     0.146 C 
BRANCH  34  35
ATOM     35  N   UNL     1       0.878   5.803   0.152  1.00  0.00    -0.254 NA
ATOM     36  C   UNL     1       0.495   6.847   0.789  1.00  0.00     0.185 C 
ATOM     37  N   UNL     1       0.851   8.058   0.335  1.00  0.00    -0.370 N 
ATOM     38  N   UNL     1      -0.251   6.928   1.906  1.00  0.00    -0.370 N 
ATOM     39  H   UNL     1       1.424   8.080  -0.499  1.00  0.00     0.159 HD
ATOM     40  H   UNL     1       0.741   8.905   0.865  1.00  0.00     0.159 HD
ATOM     41  H   UNL     1      -0.603   7.813   2.233  1.00  0.00     0.159 HD
ATOM     42  H   UNL     1      -0.603   6.094   2.349  1.00  0.00     0.159 HD
ENDBRANCH  34  35
ENDBRANCH  33  34
ENDBRANCH  32  33
ENDBRANCH   6  32
ENDBRANCH   4   6
ENDBRANCH   1   2
BRANCH   1  43
ATOM     43  C   UNL     1      -0.736   1.426  -4.935  1.00  0.00     0.102 C 
ATOM     44  C   UNL     1      -2.000   2.293  -5.066  1.00  0.00     0.020 C 
BRANCH  43  45
ATOM     45  C   UNL     1      -0.301   0.759  -6.243  1.00  0.00     0.225 C 
ATOM     46  O   UNL     1      -0.881  -0.208  -6.729  1.00  0.00    -0.275 OA
ATOM     47  N   UNL     1       0.852   1.256  -6.806  1.00  0.00    -0.342 N 
ATOM     48  H   UNL     1       1.226   2.138  -6.484  1.00  0.00     0.164 HD
BRANCH  47  49
ATOM     49  C   UNL     1       1.368   0.740  -8.077  1.00  0.00     0.192 C 
BRANCH  49  50
ATOM     50  C   UNL     1       2.885   0.558  -7.981  1.00  0.00     0.047 C 
BRANCH  50  51
ATOM     51  C   UNL     1       3.599   1.844  -7.541  1.00  0.00     0.103 C 
BRANCH  51  52
ATOM     52  C   UNL     1       5.059   1.872  -7.989  1.00  0.00     0.226 C 
ATOM     53  O   UNL     1       5.953   1.666  -7.166  1.00  0.00    -0.275 OA
BRANCH  52  54
ATOM     54  N   UNL     1       5.289   2.061  -9.364  1.00  0.00    -0.311 N 
ATOM     55  C   UNL     1       4.940   3.327 -10.022  1.00  0.00     0.153 C 
BRANCH  54  56
ATOM     56  C   UNL     1       5.864   1.053 -10.156  1.00  0.00     0.102 C 
ATOM     57  C   UNL     1       5.179   0.216 -10.952  1.00  0.00     0.043 C 
BRANCH  56  58
ATOM     58  C   UNL     1       7.362   0.864 -10.202  1.00  0.00     0.268 C 
ATOM     59  O   UNL     1       7.976   0.183  -9.391  1.00  0.00    -0.268 OA
ATOM     60  N   UNL     1       7.952   1.478 -11.281  1.00  0.00    -0.339 N 
ATOM     61  H   UNL     1       7.374   2.033 -11.901  1.00  0.00     0.164 HD
BRANCH  60  62
ATOM     62  C   UNL     1       9.384   1.370 -11.552  1.00  0.00     0.168 CG0
ATOM     63  C   UNL     1      10.150   2.524 -10.915  1.00  0.00     0.041 C 
ATOM     64  G   UNL     1       9.621   1.333 -13.076  1.00  0.00     0.000 G0
ENDBRANCH  60  62
ENDBRANCH  56  58
ENDBRANCH  54  56
ENDBRANCH  52  54
ENDBRANCH  51  52
ENDBRANCH  50  51
ENDBRANCH  49  50
BRANCH  49  65
ATOM     65  C   UNL     1       1.042   1.683  -9.246  1.00  0.00     0.326 C 
ATOM     66  O   UNL     1       1.720   1.827 -10.253  1.00  0.00    -0.250 OA
BRANCH  65  67
ATOM     67  O   UNL     1      -0.068   2.433  -9.073  1.00  0.00    -0.480 OA
ATOM     68  H   UNL     1      -0.718   1.800  -8.697  1.00  0.00     0.296 HD
ENDBRANCH  65  67
ENDBRANCH  49  65
ENDBRANCH  47  49
ENDBRANCH  43  45
ENDBRANCH   1  43
BRANCH   1  69
ATOM     69  C   UNL     1      -2.067  -0.459  -3.638  1.00  0.00    -0.001 C 
ATOM     70  C   UNL     1      -2.409  -1.247  -2.603  1.00  0.00     0.001 C 
BRANCH  70  71
ATOM     71  C   UNL     1      -3.630  -2.044  -2.469  1.00  0.00    -0.055 C 
ATOM     72  C   UNL     1      -3.588  -3.330  -2.875  1.00  0.00    -0.018 C 
ATOM     73  C   UNL     1      -4.844  -1.374  -1.880  1.00  0.00     0.044 C 
BRANCH  72  74
ATOM     74  C   UNL     1      -4.687  -4.383  -2.854  1.00  0.00     0.038 C 
ATOM     75  C   UNL     1      -4.223  -5.503  -1.914  1.00  0.00     0.015 C 
BRANCH  74  76
ATOM     76  C   UNL     1      -4.976  -4.835  -4.316  1.00  0.00     0.128 C 
BRANCH  76  77
ATOM     77  O   UNL     1      -5.215  -6.252  -4.353  1.00  0.00    -0.381 OA
ATOM     78  C   UNL     1      -4.406  -6.942  -5.296  1.00  0.00     0.195 C 
ENDBRANCH  76  77
BRANCH  76  79
ATOM     79  C   UNL     1      -6.091  -4.020  -5.017  1.00  0.00     0.068 C 
BRANCH  79  80
ATOM     80  C   UNL     1      -5.807  -2.576  -5.355  1.00  0.00    -0.045 A 
ATOM     81  C   UNL     1      -4.688  -2.221  -6.120  1.00  0.00     0.004 A 
ATOM     82  C   UNL     1      -6.649  -1.559  -4.880  1.00  0.00     0.004 A 
ATOM     83  C   UNL     1      -4.424  -0.882  -6.416  1.00  0.00     0.000 A 
ATOM     84  C   UNL     1      -6.383  -0.221  -5.176  1.00  0.00     0.000 A 
ATOM     85  C   UNL     1      -5.272   0.118  -5.945  1.00  0.00     0.000 A 
ENDBRANCH  79  80
ENDBRANCH  76  79
ENDBRANCH  74  76
ENDBRANCH  72  74
ENDBRANCH  70  71
ENDBRANCH   1  69
TORSDOF 17
ENDMDL
MODEL 16
REMARK VINA RESULT:    -6.856      8.568     15.229
REMARK INTER + INTRA:         -26.998
REMARK INTER:                 -19.908
REMARK INTRA:                  -7.090
REMARK UNBOUND:                -6.514
REMARK SMILES C=C1C(=O)N[C@H](C)C(=O)N[C@@H](CC(C)C)C(=O)N[C@@H](C(=O)O)[C@H](C)C(=O)N[C@@H](CCCN=C(N)N)C(=O)N[C@@H](/C=C/C(C)=C/[C@H](C)[C@H](Cc2ccccc2)OC)[C@H](C)C(=O)N[C@@H](C(=O)O)CCC(=O)N1C
REMARK SMILES IDX 39 1 38 2 37 3 36 4 28 6 27 7 25 8 26 9 23 11 24 12 19 13
REMARK SMILES IDX 18 14 16 15 17 16 11 18 10 19 8 20 9 21 12 24 13 25 14 26
REMARK SMILES IDX 15 27 20 28 21 29 22 30 29 32 30 33 31 34 32 35 33 36 34 37
REMARK SMILES IDX 35 38 57 43 58 44 59 45 60 46 61 47 62 49 66 50 67 51 68 52
REMARK SMILES IDX 69 53 70 54 71 55 2 56 1 57 3 58 4 59 5 60 6 62 7 63 63 65
REMARK SMILES IDX 64 66 65 67 40 69 41 70 42 71 44 72 43 73 45 74 46 75 47 76
REMARK SMILES IDX 55 77 56 78 48 79 49 80 50 81 54 82 51 83 53 84 52 85
REMARK H PARENT 38 5 27 10 18 17 10 22 22 31 34 39 34 40 35 41 35 42 61 48
REMARK H PARENT 5 61 65 68
REMARK Flexibility Score:  369.900
ROOT
ATOM      1  C   UNL     1       5.366   3.571   1.275  1.00  0.00     0.117 C 
ENDROOT
BRANCH   1   2
ATOM      2  N   UNL     1       4.330   4.593   1.120  1.00  0.00    -0.347 N 
ATOM      3  O   UNL     1       4.997   5.977   2.826  1.00  0.00    -0.273 OA
ATOM      4  C   UNL     1       4.283   5.764   1.851  1.00  0.00     0.243 C 
ATOM      5  H   UNL     1       3.626   4.479   0.407  1.00  0.00     0.164 HD
BRANCH   4   6
ATOM      6  C   UNL     1       3.135   6.716   1.431  1.00  0.00     0.171 C 
BRANCH   6   7
ATOM      7  N   UNL     1       1.930   5.946   1.082  1.00  0.00    -0.344 N 
ATOM      8  C   UNL     1       0.927   6.515   0.328  1.00  0.00     0.226 C 
ATOM      9  O   UNL     1       0.972   7.674  -0.065  1.00  0.00    -0.275 OA
ATOM     10  H   UNL     1       1.826   5.007   1.445  1.00  0.00     0.164 HD
BRANCH   8  11
ATOM     11  C   UNL     1      -0.223   5.576   0.007  1.00  0.00     0.109 C 
ATOM     12  C   UNL     1       0.304   4.314  -0.677  1.00  0.00     0.021 C 
BRANCH  11  13
ATOM     13  C   UNL     1      -1.061   5.323   1.276  1.00  0.00     0.204 C 
BRANCH  13  14
ATOM     14  N   UNL     1      -1.001   6.452   2.210  1.00  0.00    -0.340 N 
ATOM     15  C   UNL     1      -0.407   6.366   3.451  1.00  0.00     0.243 C 
ATOM     16  O   UNL     1       0.169   5.351   3.838  1.00  0.00    -0.273 OA
ATOM     17  H   UNL     1      -1.586   7.269   2.015  1.00  0.00     0.164 HD
BRANCH  15  18
ATOM     18  C   UNL     1      -0.648   7.611   4.339  1.00  0.00     0.171 C 
BRANCH  18  19
ATOM     19  N   UNL     1      -2.014   8.057   4.074  1.00  0.00    -0.343 N 
ATOM     20  C   UNL     1      -3.109   7.268   4.373  1.00  0.00     0.242 CG0
ATOM     21  O   UNL     1      -2.980   6.106   4.750  1.00  0.00    -0.273 OA
ATOM     22  H   UNL     1      -2.168   8.967   3.654  1.00  0.00     0.164 HD
ATOM     23  G   UNL     1      -4.470   7.938   4.096  1.00  0.00     0.000 G0
ENDBRANCH  18  19
BRANCH  18  24
ATOM     24  C   UNL     1      -0.446   7.267   5.820  1.00  0.00     0.038 C 
BRANCH  24  25
ATOM     25  C   UNL     1       0.818   7.881   6.458  1.00  0.00    -0.015 C 
ATOM     26  C   UNL     1       0.573   8.376   7.883  1.00  0.00     0.007 C 
ATOM     27  C   UNL     1       1.323   9.037   5.590  1.00  0.00     0.007 C 
ENDBRANCH  24  25
ENDBRANCH  18  24
ENDBRANCH  15  18
ENDBRANCH  13  14
BRANCH  13  28
ATOM     28  C   UNL     1      -2.540   5.057   0.980  1.00  0.00     0.327 C 
ATOM     29  O   UNL     1      -3.237   4.198   1.497  1.00  0.00    -0.250 OA
BRANCH  28  30
ATOM     30  O   UNL     1      -3.020   5.808  -0.032  1.00  0.00    -0.480 OA
ATOM     31  H   UNL     1      -2.590   5.439  -0.831  1.00  0.00     0.296 HD
ENDBRANCH  28  30
ENDBRANCH  13  28
ENDBRANCH  11  13
ENDBRANCH   8  11
ENDBRANCH   6   7
BRANCH   6  32
ATOM     32  C   UNL     1       2.847   7.693   2.576  1.00  0.00     0.037 C 
BRANCH  32  33
ATOM     33  C   UNL     1       2.912   9.157   2.118  1.00  0.00     0.026 C 
BRANCH  33  34
ATOM     34  C   UNL     1       4.344   9.694   2.079  1.00  0.00     0.146 C 
BRANCH  34  35
ATOM     35  N   UNL     1       5.030   9.293   3.300  1.00  0.00    -0.254 NA
ATOM     36  C   UNL     1       6.162   8.702   3.202  1.00  0.00     0.185 C 
ATOM     37  N   UNL     1       6.805   8.332   4.321  1.00  0.00    -0.370 N 
ATOM     38  N   UNL     1       6.850   8.373   2.095  1.00  0.00    -0.370 N 
ATOM     39  H   UNL     1       6.354   8.555   5.199  1.00  0.00     0.159 HD
ATOM     40  H   UNL     1       7.762   8.026   4.336  1.00  0.00     0.159 HD
ATOM     41  H   UNL     1       7.665   7.784   2.144  1.00  0.00     0.159 HD
ATOM     42  H   UNL     1       6.478   8.576   1.181  1.00  0.00     0.159 HD
ENDBRANCH  34  35
ENDBRANCH  33  34
ENDBRANCH  32  33
ENDBRANCH   6  32
ENDBRANCH   4   6
ENDBRANCH   1   2
BRANCH   1  43
ATOM     43  C   UNL     1       5.513   2.806  -0.072  1.00  0.00     0.102 C 
ATOM     44  C   UNL     1       4.678   1.516  -0.138  1.00  0.00     0.020 C 
BRANCH  43  45
ATOM     45  C   UNL     1       6.988   2.611  -0.435  1.00  0.00     0.225 C 
ATOM     46  O   UNL     1       7.799   2.076   0.317  1.00  0.00    -0.275 OA
ATOM     47  N   UNL     1       7.381   3.161  -1.633  1.00  0.00    -0.342 N 
ATOM     48  H   UNL     1       6.683   3.457  -2.300  1.00  0.00     0.164 HD
BRANCH  47  49
ATOM     49  C   UNL     1       8.754   3.021  -2.127  1.00  0.00     0.192 C 
BRANCH  49  50
ATOM     50  C   UNL     1       9.650   4.067  -1.459  1.00  0.00     0.047 C 
BRANCH  50  51
ATOM     51  C   UNL     1      11.119   3.627  -1.406  1.00  0.00     0.103 C 
BRANCH  51  52
ATOM     52  C   UNL     1      12.069   4.744  -1.834  1.00  0.00     0.226 C 
ATOM     53  O   UNL     1      13.076   4.978  -1.164  1.00  0.00    -0.275 OA
BRANCH  52  54
ATOM     54  N   UNL     1      11.760   5.401  -3.039  1.00  0.00    -0.311 N 
ATOM     55  C   UNL     1      11.098   6.712  -3.038  1.00  0.00     0.153 C 
BRANCH  54  56
ATOM     56  C   UNL     1      12.077   4.833  -4.285  1.00  0.00     0.102 C 
ATOM     57  C   UNL     1      11.505   5.172  -5.452  1.00  0.00     0.043 C 
BRANCH  56  58
ATOM     58  C   UNL     1      13.162   3.790  -4.407  1.00  0.00     0.268 C 
ATOM     59  O   UNL     1      12.945   2.635  -4.748  1.00  0.00    -0.268 OA
ATOM     60  N   UNL     1      14.420   4.286  -4.160  1.00  0.00    -0.339 N 
ATOM     61  H   UNL     1      14.514   5.253  -3.872  1.00  0.00     0.164 HD
BRANCH  60  62
ATOM     62  C   UNL     1      15.621   3.462  -4.284  1.00  0.00     0.168 CG0
ATOM     63  C   UNL     1      15.974   2.806  -2.954  1.00  0.00     0.041 C 
ATOM     64  G   UNL     1      16.792   4.327  -4.793  1.00  0.00     0.000 G0
ENDBRANCH  60  62
ENDBRANCH  56  58
ENDBRANCH  54  56
ENDBRANCH  52  54
ENDBRANCH  51  52
ENDBRANCH  50  51
ENDBRANCH  49  50
BRANCH  49  65
ATOM     65  C   UNL     1       8.828   3.188  -3.653  1.00  0.00     0.326 C 
ATOM     66  O   UNL     1       9.403   2.433  -4.423  1.00  0.00    -0.250 OA
BRANCH  65  67
ATOM     67  O   UNL     1       8.239   4.308  -4.126  1.00  0.00    -0.480 OA
ATOM     68  H   UNL     1       8.028   4.082  -5.058  1.00  0.00     0.296 HD
ENDBRANCH  65  67
ENDBRANCH  49  65
ENDBRANCH  47  49
ENDBRANCH  43  45
ENDBRANCH   1  43
BRANCH   1  69
ATOM     69  C   UNL     1       5.006   2.790   2.526  1.00  0.00    -0.001 C 
ATOM     70  C   UNL     1       3.821   2.766   3.162  1.00  0.00     0.001 C 
BRANCH  70  71
ATOM     71  C   UNL     1       3.480   1.992   4.357  1.00  0.00    -0.055 C 
ATOM     72  C   UNL     1       2.180   1.933   4.717  1.00  0.00    -0.018 C 
ATOM     73  C   UNL     1       4.601   1.309   5.096  1.00  0.00     0.044 C 
BRANCH  72  74
ATOM     74  C   UNL     1       1.538   1.212   5.893  1.00  0.00     0.038 C 
ATOM     75  C   UNL     1       0.152   0.743   5.435  1.00  0.00     0.015 C 
BRANCH  74  76
ATOM     76  C   UNL     1       1.531   2.166   7.123  1.00  0.00     0.128 C 
BRANCH  76  77
ATOM     77  O   UNL     1       2.732   1.985   7.892  1.00  0.00    -0.381 OA
ATOM     78  C   UNL     1       2.506   1.427   9.180  1.00  0.00     0.195 C 
ENDBRANCH  76  77
BRANCH  76  79
ATOM     79  C   UNL     1       1.267   3.651   6.766  1.00  0.00     0.068 C 
BRANCH  79  80
ATOM     80  C   UNL     1       2.341   4.659   7.094  1.00  0.00    -0.045 A 
ATOM     81  C   UNL     1       2.488   5.161   8.394  1.00  0.00     0.004 A 
ATOM     82  C   UNL     1       3.197   5.133   6.088  1.00  0.00     0.004 A 
ATOM     83  C   UNL     1       3.475   6.104   8.686  1.00  0.00     0.000 A 
ATOM     84  C   UNL     1       4.184   6.077   6.381  1.00  0.00     0.000 A 
ATOM     85  C   UNL     1       4.324   6.561   7.680  1.00  0.00     0.000 A 
ENDBRANCH  79  80
ENDBRANCH  76  79
ENDBRANCH  74  76
ENDBRANCH  72  74
ENDBRANCH  70  71
ENDBRANCH   1  69
TORSDOF 17
ENDMDL
MODEL 17
REMARK VINA RESULT:    -6.834      8.693     13.351
REMARK INTER + INTRA:         -26.932
REMARK INTER:                 -20.084
REMARK INTRA:                  -6.848
REMARK UNBOUND:                -6.514
REMARK SMILES C=C1C(=O)N[C@H](C)C(=O)N[C@@H](CC(C)C)C(=O)N[C@@H](C(=O)O)[C@H](C)C(=O)N[C@@H](CCCN=C(N)N)C(=O)N[C@@H](/C=C/C(C)=C/[C@H](C)[C@H](Cc2ccccc2)OC)[C@H](C)C(=O)N[C@@H](C(=O)O)CCC(=O)N1C
REMARK SMILES IDX 39 1 38 2 37 3 36 4 28 6 27 7 25 8 26 9 23 11 24 12 19 13
REMARK SMILES IDX 18 14 16 15 17 16 11 18 10 19 8 20 9 21 12 24 13 25 14 26
REMARK SMILES IDX 15 27 20 28 21 29 22 30 29 32 30 33 31 34 32 35 33 36 34 37
REMARK SMILES IDX 35 38 57 43 58 44 59 45 60 46 61 47 62 49 66 50 67 51 68 52
REMARK SMILES IDX 69 53 70 54 71 55 2 56 1 57 3 58 4 59 5 60 6 62 7 63 63 65
REMARK SMILES IDX 64 66 65 67 40 69 41 70 42 71 44 72 43 73 45 74 46 75 47 76
REMARK SMILES IDX 55 77 56 78 48 79 49 80 50 81 54 82 51 83 53 84 52 85
REMARK H PARENT 38 5 27 10 18 17 10 22 22 31 34 39 34 40 35 41 35 42 61 48
REMARK H PARENT 5 61 65 68
REMARK Flexibility Score:  369.900
ROOT
ATOM      1  C   UNL     1      -1.826   2.347   3.104  1.00  0.00     0.117 C 
ENDROOT
BRANCH   1   2
ATOM      2  N   UNL     1      -1.325   2.291   1.730  1.00  0.00    -0.347 N 
ATOM      3  O   UNL     1      -2.327   4.205   0.954  1.00  0.00    -0.273 OA
ATOM      4  C   UNL     1      -1.542   3.277   0.787  1.00  0.00     0.243 C 
ATOM      5  H   UNL     1      -0.742   1.518   1.448  1.00  0.00     0.164 HD
BRANCH   4   6
ATOM      6  C   UNL     1      -0.829   3.015  -0.564  1.00  0.00     0.171 C 
BRANCH   6   7
ATOM      7  N   UNL     1      -1.294   1.750  -1.154  1.00  0.00    -0.344 N 
ATOM      8  C   UNL     1      -0.405   0.891  -1.763  1.00  0.00     0.226 C 
ATOM      9  O   UNL     1       0.790   1.139  -1.864  1.00  0.00    -0.275 OA
ATOM     10  H   UNL     1      -2.284   1.541  -1.149  1.00  0.00     0.164 HD
BRANCH   8  11
ATOM     11  C   UNL     1      -1.030  -0.397  -2.273  1.00  0.00     0.109 C 
ATOM     12  C   UNL     1       0.044  -1.295  -2.887  1.00  0.00     0.021 C 
BRANCH  11  13
ATOM     13  C   UNL     1      -1.860  -1.053  -1.152  1.00  0.00     0.204 C 
BRANCH  13  14
ATOM     14  N   UNL     1      -2.742  -2.107  -1.664  1.00  0.00    -0.340 N 
ATOM     15  C   UNL     1      -4.067  -1.889  -1.974  1.00  0.00     0.243 C 
ATOM     16  O   UNL     1      -4.588  -0.777  -1.901  1.00  0.00    -0.273 OA
ATOM     17  H   UNL     1      -2.417  -3.076  -1.604  1.00  0.00     0.164 HD
BRANCH  15  18
ATOM     18  C   UNL     1      -4.849  -3.186  -2.295  1.00  0.00     0.171 C 
BRANCH  18  19
ATOM     19  N   UNL     1      -6.121  -2.774  -2.884  1.00  0.00    -0.343 N 
ATOM     20  C   UNL     1      -7.333  -3.122  -2.319  1.00  0.00     0.242 CG0
ATOM     21  O   UNL     1      -7.401  -3.905  -1.374  1.00  0.00    -0.273 OA
ATOM     22  H   UNL     1      -6.120  -2.221  -3.734  1.00  0.00     0.164 HD
ATOM     23  G   UNL     1      -8.563  -2.530  -3.037  1.00  0.00     0.000 G0
ENDBRANCH  18  19
BRANCH  18  24
ATOM     24  C   UNL     1      -4.049  -4.078  -3.253  1.00  0.00     0.038 C 
BRANCH  24  25
ATOM     25  C   UNL     1      -4.233  -5.594  -3.027  1.00  0.00    -0.015 C 
ATOM     26  C   UNL     1      -5.381  -6.173  -3.854  1.00  0.00     0.007 C 
ATOM     27  C   UNL     1      -4.478  -5.867  -1.541  1.00  0.00     0.007 C 
ENDBRANCH  24  25
ENDBRANCH  18  24
ENDBRANCH  15  18
ENDBRANCH  13  14
BRANCH  13  28
ATOM     28  C   UNL     1      -1.000  -1.677  -0.049  1.00  0.00     0.327 C 
ATOM     29  O   UNL     1      -1.191  -2.754   0.494  1.00  0.00    -0.250 OA
BRANCH  28  30
ATOM     30  O   UNL     1      -0.021  -0.857   0.386  1.00  0.00    -0.480 OA
ATOM     31  H   UNL     1      -0.483  -0.017   0.589  1.00  0.00     0.296 HD
ENDBRANCH  28  30
ENDBRANCH  13  28
ENDBRANCH  11  13
ENDBRANCH   8  11
ENDBRANCH   6   7
BRANCH   6  32
ATOM     32  C   UNL     1      -1.096   4.191  -1.510  1.00  0.00     0.037 C 
BRANCH  32  33
ATOM     33  C   UNL     1       0.048   5.214  -1.501  1.00  0.00     0.026 C 
BRANCH  33  34
ATOM     34  C   UNL     1      -0.456   6.657  -1.539  1.00  0.00     0.146 C 
BRANCH  34  35
ATOM     35  N   UNL     1       0.475   7.500  -0.803  1.00  0.00    -0.254 NA
ATOM     36  C   UNL     1       0.496   7.422   0.476  1.00  0.00     0.185 C 
ATOM     37  N   UNL     1       1.353   8.191   1.164  1.00  0.00    -0.370 N 
ATOM     38  N   UNL     1      -0.247   6.648   1.287  1.00  0.00    -0.370 N 
ATOM     39  H   UNL     1       1.957   8.796   0.622  1.00  0.00     0.159 HD
ATOM     40  H   UNL     1       1.552   8.065   2.142  1.00  0.00     0.159 HD
ATOM     41  H   UNL     1      -0.236   6.779   2.285  1.00  0.00     0.159 HD
ATOM     42  H   UNL     1      -0.947   6.030   0.906  1.00  0.00     0.159 HD
ENDBRANCH  34  35
ENDBRANCH  33  34
ENDBRANCH  32  33
ENDBRANCH   6  32
ENDBRANCH   4   6
ENDBRANCH   1   2
BRANCH   1  43
ATOM     43  C   UNL     1      -0.684   2.859   4.028  1.00  0.00     0.102 C 
ATOM     44  C   UNL     1      -0.667   4.388   4.190  1.00  0.00     0.020 C 
BRANCH  43  45
ATOM     45  C   UNL     1       0.666   2.263   3.616  1.00  0.00     0.225 C 
ATOM     46  O   UNL     1       0.891   1.056   3.604  1.00  0.00    -0.275 OA
ATOM     47  N   UNL     1       1.658   3.177   3.344  1.00  0.00    -0.342 N 
ATOM     48  H   UNL     1       1.420   4.150   3.210  1.00  0.00     0.164 HD
BRANCH  47  49
ATOM     49  C   UNL     1       2.990   2.752   2.902  1.00  0.00     0.192 C 
BRANCH  49  50
ATOM     50  C   UNL     1       3.967   3.926   3.012  1.00  0.00     0.047 C 
BRANCH  50  51
ATOM     51  C   UNL     1       3.742   4.754   4.285  1.00  0.00     0.103 C 
BRANCH  51  52
ATOM     52  C   UNL     1       3.206   6.150   3.974  1.00  0.00     0.226 C 
ATOM     53  O   UNL     1       2.257   6.281   3.199  1.00  0.00    -0.275 OA
BRANCH  52  54
ATOM     54  N   UNL     1       3.801   7.219   4.670  1.00  0.00    -0.311 N 
ATOM     55  C   UNL     1       3.107   7.872   5.788  1.00  0.00     0.153 C 
BRANCH  54  56
ATOM     56  C   UNL     1       5.077   7.696   4.328  1.00  0.00     0.102 C 
ATOM     57  C   UNL     1       5.405   8.229   3.140  1.00  0.00     0.043 C 
BRANCH  56  58
ATOM     58  C   UNL     1       6.205   7.681   5.333  1.00  0.00     0.268 C 
ATOM     59  O   UNL     1       6.853   8.677   5.627  1.00  0.00    -0.268 OA
ATOM     60  N   UNL     1       6.383   6.455   5.928  1.00  0.00    -0.339 N 
ATOM     61  H   UNL     1       5.811   5.677   5.621  1.00  0.00     0.164 HD
BRANCH  60  62
ATOM     62  C   UNL     1       7.379   6.234   6.975  1.00  0.00     0.168 CG0
ATOM     63  C   UNL     1       7.946   4.822   6.902  1.00  0.00     0.041 C 
ATOM     64  G   UNL     1       6.744   6.497   8.356  1.00  0.00     0.000 G0
ENDBRANCH  60  62
ENDBRANCH  56  58
ENDBRANCH  54  56
ENDBRANCH  52  54
ENDBRANCH  51  52
ENDBRANCH  50  51
ENDBRANCH  49  50
BRANCH  49  65
ATOM     65  C   UNL     1       2.971   2.240   1.454  1.00  0.00     0.326 C 
ATOM     66  O   UNL     1       2.851   2.935   0.456  1.00  0.00    -0.250 OA
BRANCH  65  67
ATOM     67  O   UNL     1       3.040   0.896   1.330  1.00  0.00    -0.480 OA
ATOM     68  H   UNL     1       3.443   0.606   2.177  1.00  0.00     0.296 HD
ENDBRANCH  65  67
ENDBRANCH  49  65
ENDBRANCH  47  49
ENDBRANCH  43  45
ENDBRANCH   1  43
BRANCH   1  69
ATOM     69  C   UNL     1      -2.444   0.990   3.385  1.00  0.00    -0.001 C 
ATOM     70  C   UNL     1      -2.623   0.406   4.583  1.00  0.00     0.001 C 
BRANCH  70  71
ATOM     71  C   UNL     1      -3.240  -0.896   4.844  1.00  0.00    -0.055 C 
ATOM     72  C   UNL     1      -4.583  -0.987   4.738  1.00  0.00    -0.018 C 
ATOM     73  C   UNL     1      -2.333  -2.044   5.203  1.00  0.00     0.044 C 
BRANCH  72  74
ATOM     74  C   UNL     1      -5.486  -2.194   4.945  1.00  0.00     0.038 C 
ATOM     75  C   UNL     1      -6.738  -1.976   4.086  1.00  0.00     0.015 C 
BRANCH  74  76
ATOM     76  C   UNL     1      -5.760  -2.359   6.469  1.00  0.00     0.128 C 
BRANCH  76  77
ATOM     77  O   UNL     1      -7.158  -2.162   6.740  1.00  0.00    -0.381 OA
ATOM     78  C   UNL     1      -7.431  -1.780   8.082  1.00  0.00     0.195 C 
ENDBRANCH  76  77
BRANCH  76  79
ATOM     79  C   UNL     1      -5.214  -3.680   7.067  1.00  0.00     0.068 C 
BRANCH  79  80
ATOM     80  C   UNL     1      -4.042  -3.596   8.014  1.00  0.00    -0.045 A 
ATOM     81  C   UNL     1      -3.173  -4.681   8.186  1.00  0.00     0.004 A 
ATOM     82  C   UNL     1      -3.820  -2.430   8.763  1.00  0.00     0.004 A 
ATOM     83  C   UNL     1      -2.099  -4.600   9.075  1.00  0.00     0.000 A 
ATOM     84  C   UNL     1      -2.745  -2.350   9.651  1.00  0.00     0.000 A 
ATOM     85  C   UNL     1      -1.884  -3.434   9.806  1.00  0.00     0.000 A 
ENDBRANCH  79  80
ENDBRANCH  76  79
ENDBRANCH  74  76
ENDBRANCH  72  74
ENDBRANCH  70  71
ENDBRANCH   1  69
TORSDOF 17
ENDMDL
MODEL 18
REMARK VINA RESULT:    -6.823      6.940     14.153
REMARK INTER + INTRA:         -26.899
REMARK INTER:                 -19.825
REMARK INTRA:                  -7.073
REMARK UNBOUND:                -6.514
REMARK SMILES C=C1C(=O)N[C@H](C)C(=O)N[C@@H](CC(C)C)C(=O)N[C@@H](C(=O)O)[C@H](C)C(=O)N[C@@H](CCCN=C(N)N)C(=O)N[C@@H](/C=C/C(C)=C/[C@H](C)[C@H](Cc2ccccc2)OC)[C@H](C)C(=O)N[C@@H](C(=O)O)CCC(=O)N1C
REMARK SMILES IDX 39 1 38 2 37 3 36 4 28 6 27 7 25 8 26 9 23 11 24 12 19 13
REMARK SMILES IDX 18 14 16 15 17 16 11 18 10 19 8 20 9 21 12 24 13 25 14 26
REMARK SMILES IDX 15 27 20 28 21 29 22 30 29 32 30 33 31 34 32 35 33 36 34 37
REMARK SMILES IDX 35 38 57 43 58 44 59 45 60 46 61 47 62 49 66 50 67 51 68 52
REMARK SMILES IDX 69 53 70 54 71 55 2 56 1 57 3 58 4 59 5 60 6 62 7 63 63 65
REMARK SMILES IDX 64 66 65 67 40 69 41 70 42 71 44 72 43 73 45 74 46 75 47 76
REMARK SMILES IDX 55 77 56 78 48 79 49 80 50 81 54 82 51 83 53 84 52 85
REMARK H PARENT 38 5 27 10 18 17 10 22 22 31 34 39 34 40 35 41 35 42 61 48
REMARK H PARENT 5 61 65 68
REMARK Flexibility Score:  369.900
ROOT
ATOM      1  C   UNL     1      -1.088   0.897  -0.537  1.00  0.00     0.117 C 
ENDROOT
BRANCH   1   2
ATOM      2  N   UNL     1      -2.472   0.446  -0.386  1.00  0.00    -0.347 N 
ATOM      3  O   UNL     1      -3.501   2.463  -0.760  1.00  0.00    -0.273 OA
ATOM      4  C   UNL     1      -3.575   1.249  -0.601  1.00  0.00     0.243 C 
ATOM      5  H   UNL     1      -2.655  -0.520  -0.159  1.00  0.00     0.164 HD
BRANCH   4   6
ATOM      6  C   UNL     1      -4.926   0.504  -0.457  1.00  0.00     0.171 C 
BRANCH   6   7
ATOM      7  N   UNL     1      -5.788   1.185   0.521  1.00  0.00    -0.344 N 
ATOM      8  C   UNL     1      -5.531   1.087   1.872  1.00  0.00     0.226 C 
ATOM      9  O   UNL     1      -4.605   0.423   2.322  1.00  0.00    -0.275 OA
ATOM     10  H   UNL     1      -6.603   1.687   0.192  1.00  0.00     0.164 HD
BRANCH   8  11
ATOM     11  C   UNL     1      -6.477   1.890   2.748  1.00  0.00     0.109 C 
ATOM     12  C   UNL     1      -6.662   3.294   2.173  1.00  0.00     0.021 C 
BRANCH  11  13
ATOM     13  C   UNL     1      -7.784   1.101   2.965  1.00  0.00     0.204 C 
BRANCH  13  14
ATOM     14  N   UNL     1      -7.615   0.010   3.930  1.00  0.00    -0.340 N 
ATOM     15  C   UNL     1      -7.569  -1.317   3.559  1.00  0.00     0.243 C 
ATOM     16  O   UNL     1      -7.606  -1.675   2.383  1.00  0.00    -0.273 OA
ATOM     17  H   UNL     1      -7.731   0.225   4.924  1.00  0.00     0.164 HD
BRANCH  15  18
ATOM     18  C   UNL     1      -7.597  -2.296   4.758  1.00  0.00     0.171 C 
BRANCH  18  19
ATOM     19  N   UNL     1      -8.930  -2.893   4.780  1.00  0.00    -0.343 N 
ATOM     20  C   UNL     1     -10.022  -2.221   5.295  1.00  0.00     0.242 CG0
ATOM     21  O   UNL     1      -9.899  -1.146   5.877  1.00  0.00    -0.273 OA
ATOM     22  H   UNL     1      -9.062  -3.830   4.415  1.00  0.00     0.164 HD
ATOM     23  G   UNL     1     -11.358  -2.979   5.160  1.00  0.00     0.000 G0
ENDBRANCH  18  19
BRANCH  18  24
ATOM     24  C   UNL     1      -6.505  -3.363   4.611  1.00  0.00     0.038 C 
BRANCH  24  25
ATOM     25  C   UNL     1      -5.594  -3.527   5.846  1.00  0.00    -0.015 C 
ATOM     26  C   UNL     1      -5.527  -4.974   6.335  1.00  0.00     0.007 C 
ATOM     27  C   UNL     1      -6.092  -2.624   6.977  1.00  0.00     0.007 C 
ENDBRANCH  24  25
ENDBRANCH  18  24
ENDBRANCH  15  18
ENDBRANCH  13  14
BRANCH  13  28
ATOM     28  C   UNL     1      -8.940   1.973   3.464  1.00  0.00     0.327 C 
ATOM     29  O   UNL     1      -9.039   2.478   4.572  1.00  0.00    -0.250 OA
BRANCH  28  30
ATOM     30  O   UNL     1      -9.955   2.060   2.581  1.00  0.00    -0.480 OA
ATOM     31  H   UNL     1     -10.607   1.400   2.897  1.00  0.00     0.296 HD
ENDBRANCH  28  30
ENDBRANCH  13  28
ENDBRANCH  11  13
ENDBRANCH   8  11
ENDBRANCH   6   7
BRANCH   6  32
ATOM     32  C   UNL     1      -5.607   0.429  -1.828  1.00  0.00     0.037 C 
BRANCH  32  33
ATOM     33  C   UNL     1      -5.177  -0.813  -2.622  1.00  0.00     0.026 C 
BRANCH  33  34
ATOM     34  C   UNL     1      -6.344  -1.761  -2.901  1.00  0.00     0.146 C 
BRANCH  34  35
ATOM     35  N   UNL     1      -7.005  -2.076  -1.642  1.00  0.00    -0.254 NA
ATOM     36  C   UNL     1      -6.798  -3.223  -1.110  1.00  0.00     0.185 C 
ATOM     37  N   UNL     1      -7.399  -3.521   0.053  1.00  0.00    -0.370 N 
ATOM     38  N   UNL     1      -6.031  -4.234  -1.553  1.00  0.00    -0.370 N 
ATOM     39  H   UNL     1      -7.987  -2.804   0.458  1.00  0.00     0.159 HD
ATOM     40  H   UNL     1      -7.155  -4.318   0.616  1.00  0.00     0.159 HD
ATOM     41  H   UNL     1      -6.060  -5.140  -1.115  1.00  0.00     0.159 HD
ATOM     42  H   UNL     1      -5.532  -4.155  -2.425  1.00  0.00     0.159 HD
ENDBRANCH  34  35
ENDBRANCH  33  34
ENDBRANCH  32  33
ENDBRANCH   6  32
ENDBRANCH   4   6
ENDBRANCH   1   2
BRANCH   1  43
ATOM     43  C   UNL     1      -0.350  -0.081  -1.496  1.00  0.00     0.102 C 
ATOM     44  C   UNL     1       1.166   0.165  -1.574  1.00  0.00     0.020 C 
BRANCH  43  45
ATOM     45  C   UNL     1      -1.041  -0.139  -2.862  1.00  0.00     0.225 C 
ATOM     46  O   UNL     1      -1.688  -1.109  -3.246  1.00  0.00    -0.275 OA
ATOM     47  N   UNL     1      -0.815   0.940  -3.686  1.00  0.00    -0.342 N 
ATOM     48  H   UNL     1      -0.415   1.785  -3.305  1.00  0.00     0.164 HD
BRANCH  47  49
ATOM     49  C   UNL     1      -1.441   1.038  -5.008  1.00  0.00     0.192 C 
BRANCH  49  50
ATOM     50  C   UNL     1      -0.499   1.767  -5.970  1.00  0.00     0.047 C 
BRANCH  50  51
ATOM     51  C   UNL     1       0.730   0.922  -6.334  1.00  0.00     0.103 C 
BRANCH  51  52
ATOM     52  C   UNL     1       1.584   1.587  -7.411  1.00  0.00     0.226 C 
ATOM     53  O   UNL     1       2.157   2.651  -7.165  1.00  0.00    -0.275 OA
BRANCH  52  54
ATOM     54  N   UNL     1       1.726   0.884  -8.621  1.00  0.00    -0.311 N 
ATOM     55  C   UNL     1       0.836  -0.236  -8.954  1.00  0.00     0.153 C 
BRANCH  54  56
ATOM     56  C   UNL     1       2.717   1.227  -9.556  1.00  0.00     0.102 C 
ATOM     57  C   UNL     1       3.820   0.504  -9.808  1.00  0.00     0.043 C 
BRANCH  56  58
ATOM     58  C   UNL     1       2.579   2.465 -10.411  1.00  0.00     0.268 C 
ATOM     59  O   UNL     1       1.565   2.736 -11.039  1.00  0.00    -0.268 OA
ATOM     60  N   UNL     1       3.682   3.284 -10.357  1.00  0.00    -0.339 N 
ATOM     61  H   UNL     1       4.487   2.982  -9.822  1.00  0.00     0.164 HD
BRANCH  60  62
ATOM     62  C   UNL     1       3.736   4.565 -11.060  1.00  0.00     0.168 CG0
ATOM     63  C   UNL     1       5.010   4.682 -11.888  1.00  0.00     0.041 C 
ATOM     64  G   UNL     1       3.640   5.719 -10.041  1.00  0.00     0.000 G0
ENDBRANCH  60  62
ENDBRANCH  56  58
ENDBRANCH  54  56
ENDBRANCH  52  54
ENDBRANCH  51  52
ENDBRANCH  50  51
ENDBRANCH  49  50
BRANCH  49  65
ATOM     65  C   UNL     1      -2.783   1.784  -4.946  1.00  0.00     0.326 C 
ATOM     66  O   UNL     1      -3.261   2.305  -3.949  1.00  0.00    -0.250 OA
BRANCH  65  67
ATOM     67  O   UNL     1      -3.479   1.790  -6.104  1.00  0.00    -0.480 OA
ATOM     68  H   UNL     1      -3.879   2.686  -6.129  1.00  0.00     0.296 HD
ENDBRANCH  65  67
ENDBRANCH  49  65
ENDBRANCH  47  49
ENDBRANCH  43  45
ENDBRANCH   1  43
BRANCH   1  69
ATOM     69  C   UNL     1      -0.549   1.093   0.868  1.00  0.00    -0.001 C 
ATOM     70  C   UNL     1      -0.665   0.252   1.911  1.00  0.00     0.001 C 
BRANCH  70  71
ATOM     71  C   UNL     1      -0.122   0.442   3.258  1.00  0.00    -0.055 C 
ATOM     72  C   UNL     1      -0.748  -0.180   4.280  1.00  0.00    -0.018 C 
ATOM     73  C   UNL     1       1.099   1.310   3.407  1.00  0.00     0.044 C 
BRANCH  72  74
ATOM     74  C   UNL     1      -0.412  -0.168   5.765  1.00  0.00     0.038 C 
ATOM     75  C   UNL     1       0.589  -1.304   6.011  1.00  0.00     0.015 C 
BRANCH  74  76
ATOM     76  C   UNL     1      -1.735  -0.276   6.578  1.00  0.00     0.128 C 
BRANCH  76  77
ATOM     77  O   UNL     1      -2.583   0.848   6.288  1.00  0.00    -0.381 OA
ATOM     78  C   UNL     1      -3.941   0.495   6.063  1.00  0.00     0.195 C 
ENDBRANCH  76  77
BRANCH  76  79
ATOM     79  C   UNL     1      -2.464  -1.634   6.418  1.00  0.00     0.068 C 
BRANCH  79  80
ATOM     80  C   UNL     1      -2.477  -2.573   7.600  1.00  0.00    -0.045 A 
ATOM     81  C   UNL     1      -2.127  -3.922   7.455  1.00  0.00     0.004 A 
ATOM     82  C   UNL     1      -2.871  -2.112   8.865  1.00  0.00     0.004 A 
ATOM     83  C   UNL     1      -2.156  -4.787   8.550  1.00  0.00     0.000 A 
ATOM     84  C   UNL     1      -2.900  -2.978   9.960  1.00  0.00     0.000 A 
ATOM     85  C   UNL     1      -2.541  -4.315   9.803  1.00  0.00     0.000 A 
ENDBRANCH  79  80
ENDBRANCH  76  79
ENDBRANCH  74  76
ENDBRANCH  72  74
ENDBRANCH  70  71
ENDBRANCH   1  69
TORSDOF 17
ENDMDL
MODEL 19
REMARK VINA RESULT:    -6.821      5.844     13.633
REMARK INTER + INTRA:         -26.893
REMARK INTER:                 -21.030
REMARK INTRA:                  -5.863
REMARK UNBOUND:                -6.514
REMARK SMILES C=C1C(=O)N[C@H](C)C(=O)N[C@@H](CC(C)C)C(=O)N[C@@H](C(=O)O)[C@H](C)C(=O)N[C@@H](CCCN=C(N)N)C(=O)N[C@@H](/C=C/C(C)=C/[C@H](C)[C@H](Cc2ccccc2)OC)[C@H](C)C(=O)N[C@@H](C(=O)O)CCC(=O)N1C
REMARK SMILES IDX 39 1 38 2 37 3 36 4 28 6 27 7 25 8 26 9 23 11 24 12 19 13
REMARK SMILES IDX 18 14 16 15 17 16 11 18 10 19 8 20 9 21 12 24 13 25 14 26
REMARK SMILES IDX 15 27 20 28 21 29 22 30 29 32 30 33 31 34 32 35 33 36 34 37
REMARK SMILES IDX 35 38 57 43 58 44 59 45 60 46 61 47 62 49 66 50 67 51 68 52
REMARK SMILES IDX 69 53 70 54 71 55 2 56 1 57 3 58 4 59 5 60 6 62 7 63 63 65
REMARK SMILES IDX 64 66 65 67 40 69 41 70 42 71 44 72 43 73 45 74 46 75 47 76
REMARK SMILES IDX 55 77 56 78 48 79 49 80 50 81 54 82 51 83 53 84 52 85
REMARK H PARENT 38 5 27 10 18 17 10 22 22 31 34 39 34 40 35 41 35 42 61 48
REMARK H PARENT 5 61 65 68
REMARK Flexibility Score:  369.900
ROOT
ATOM      1  C   UNL     1      -1.415   0.952  -2.166  1.00  0.00     0.117 C 
ENDROOT
BRANCH   1   2
ATOM      2  N   UNL     1      -2.550   0.320  -1.492  1.00  0.00    -0.347 N 
ATOM      3  O   UNL     1      -4.194   1.724  -2.263  1.00  0.00    -0.273 OA
ATOM      4  C   UNL     1      -3.865   0.703  -1.668  1.00  0.00     0.243 C 
ATOM      5  H   UNL     1      -2.389  -0.478  -0.895  1.00  0.00     0.164 HD
BRANCH   4   6
ATOM      6  C   UNL     1      -4.881  -0.185  -0.906  1.00  0.00     0.171 C 
BRANCH   6   7
ATOM      7  N   UNL     1      -5.524   0.579   0.175  1.00  0.00    -0.344 N 
ATOM      8  C   UNL     1      -4.864   0.806   1.364  1.00  0.00     0.226 C 
ATOM      9  O   UNL     1      -3.740   0.373   1.588  1.00  0.00    -0.275 OA
ATOM     10  H   UNL     1      -6.477   0.896   0.052  1.00  0.00     0.164 HD
BRANCH   8  11
ATOM     11  C   UNL     1      -5.638   1.657   2.356  1.00  0.00     0.109 C 
ATOM     12  C   UNL     1      -5.637   3.118   1.908  1.00  0.00     0.021 C 
BRANCH  11  13
ATOM     13  C   UNL     1      -7.036   1.049   2.584  1.00  0.00     0.204 C 
BRANCH  13  14
ATOM     14  N   UNL     1      -7.024   0.010   3.618  1.00  0.00    -0.340 N 
ATOM     15  C   UNL     1      -7.210  -1.327   3.338  1.00  0.00     0.243 C 
ATOM     16  O   UNL     1      -7.340  -1.749   2.191  1.00  0.00    -0.273 OA
ATOM     17  H   UNL     1      -7.073   0.305   4.597  1.00  0.00     0.164 HD
BRANCH  15  18
ATOM     18  C   UNL     1      -7.365  -2.208   4.602  1.00  0.00     0.171 C 
BRANCH  18  19
ATOM     19  N   UNL     1      -8.697  -2.808   4.534  1.00  0.00    -0.343 N 
ATOM     20  C   UNL     1      -9.841  -2.070   4.768  1.00  0.00     0.242 CG0
ATOM     21  O   UNL     1      -9.788  -0.912   5.175  1.00  0.00    -0.273 OA
ATOM     22  H   UNL     1      -8.788  -3.793   4.314  1.00  0.00     0.164 HD
ATOM     23  G   UNL     1     -11.155  -2.854   4.573  1.00  0.00     0.000 G0
ENDBRANCH  18  19
BRANCH  18  24
ATOM     24  C   UNL     1      -6.269  -3.279   4.653  1.00  0.00     0.038 C 
BRANCH  24  25
ATOM     25  C   UNL     1      -5.590  -3.441   6.030  1.00  0.00    -0.015 C 
ATOM     26  C   UNL     1      -6.411  -2.824   7.163  1.00  0.00     0.007 C 
ATOM     27  C   UNL     1      -4.198  -2.805   5.996  1.00  0.00     0.007 C 
ENDBRANCH  24  25
ENDBRANCH  18  24
ENDBRANCH  15  18
ENDBRANCH  13  14
BRANCH  13  28
ATOM     28  C   UNL     1      -8.085   2.086   2.996  1.00  0.00     0.327 C 
ATOM     29  O   UNL     1      -8.274   2.515   4.125  1.00  0.00    -0.250 OA
BRANCH  28  30
ATOM     30  O   UNL     1      -8.911   2.433   1.988  1.00  0.00    -0.480 OA
ATOM     31  H   UNL     1      -9.800   2.169   2.303  1.00  0.00     0.296 HD
ENDBRANCH  28  30
ENDBRANCH  13  28
ENDBRANCH  11  13
ENDBRANCH   8  11
ENDBRANCH   6   7
BRANCH   6  32
ATOM     32  C   UNL     1      -5.924  -0.719  -1.894  1.00  0.00     0.037 C 
BRANCH  32  33
ATOM     33  C   UNL     1      -5.752  -2.220  -2.163  1.00  0.00     0.026 C 
BRANCH  33  34
ATOM     34  C   UNL     1      -4.525  -2.524  -3.024  1.00  0.00     0.146 C 
BRANCH  34  35
ATOM     35  N   UNL     1      -4.926  -3.383  -4.128  1.00  0.00    -0.254 NA
ATOM     36  C   UNL     1      -4.043  -3.731  -4.989  1.00  0.00     0.185 C 
ATOM     37  N   UNL     1      -4.401  -4.527  -6.008  1.00  0.00    -0.370 N 
ATOM     38  N   UNL     1      -2.739  -3.408  -5.038  1.00  0.00    -0.370 N 
ATOM     39  H   UNL     1      -5.369  -4.823  -6.035  1.00  0.00     0.159 HD
ATOM     40  H   UNL     1      -3.742  -4.981  -6.617  1.00  0.00     0.159 HD
ATOM     41  H   UNL     1      -2.177  -3.631  -5.843  1.00  0.00     0.159 HD
ATOM     42  H   UNL     1      -2.334  -2.801  -4.342  1.00  0.00     0.159 HD
ENDBRANCH  34  35
ENDBRANCH  33  34
ENDBRANCH  32  33
ENDBRANCH   6  32
ENDBRANCH   4   6
ENDBRANCH   1   2
BRANCH   1  43
ATOM     43  C   UNL     1      -0.627  -0.143  -2.941  1.00  0.00     0.102 C 
ATOM     44  C   UNL     1       0.860  -0.216  -2.554  1.00  0.00     0.020 C 
BRANCH  43  45
ATOM     45  C   UNL     1      -0.873  -0.034  -4.448  1.00  0.00     0.225 C 
ATOM     46  O   UNL     1      -1.919  -0.389  -4.985  1.00  0.00    -0.275 OA
ATOM     47  N   UNL     1       0.198   0.404  -5.193  1.00  0.00    -0.342 N 
ATOM     48  H   UNL     1       0.988   0.831  -4.730  1.00  0.00     0.164 HD
BRANCH  47  49
ATOM     49  C   UNL     1       0.098   0.591  -6.644  1.00  0.00     0.192 C 
BRANCH  49  50
ATOM     50  C   UNL     1       1.423   0.205  -7.305  1.00  0.00     0.047 C 
BRANCH  50  51
ATOM     51  C   UNL     1       2.486   1.303  -7.165  1.00  0.00     0.103 C 
BRANCH  51  52
ATOM     52  C   UNL     1       3.737   0.998  -7.986  1.00  0.00     0.226 C 
ATOM     53  O   UNL     1       4.741   0.553  -7.426  1.00  0.00    -0.275 OA
BRANCH  52  54
ATOM     54  N   UNL     1       3.634   1.181  -9.378  1.00  0.00    -0.311 N 
ATOM     55  C   UNL     1       2.625   2.083  -9.949  1.00  0.00     0.153 C 
BRANCH  54  56
ATOM     56  C   UNL     1       4.491   0.515 -10.270  1.00  0.00     0.102 C 
ATOM     57  C   UNL     1       4.223  -0.662 -10.858  1.00  0.00     0.043 C 
BRANCH  56  58
ATOM     58  C   UNL     1       5.809   1.127 -10.680  1.00  0.00     0.268 C 
ATOM     59  O   UNL     1       5.942   1.829 -11.674  1.00  0.00    -0.268 OA
ATOM     60  N   UNL     1       6.825   0.870  -9.790  1.00  0.00    -0.339 N 
ATOM     61  H   UNL     1       6.636   0.270  -8.996  1.00  0.00     0.164 HD
BRANCH  60  62
ATOM     62  C   UNL     1       8.169   1.419  -9.962  1.00  0.00     0.168 CG0
ATOM     63  C   UNL     1       9.002   0.545 -10.891  1.00  0.00     0.041 C 
ATOM     64  G   UNL     1       8.851   1.556  -8.585  1.00  0.00     0.000 G0
ENDBRANCH  60  62
ENDBRANCH  56  58
ENDBRANCH  54  56
ENDBRANCH  52  54
ENDBRANCH  51  52
ENDBRANCH  50  51
ENDBRANCH  49  50
BRANCH  49  65
ATOM     65  C   UNL     1      -0.247   2.045  -7.005  1.00  0.00     0.326 C 
ATOM     66  O   UNL     1      -0.438   2.470  -8.135  1.00  0.00    -0.250 OA
BRANCH  65  67
ATOM     67  O   UNL     1      -0.274   2.895  -5.956  1.00  0.00    -0.480 OA
ATOM     68  H   UNL     1      -0.522   2.321  -5.199  1.00  0.00     0.296 HD
ENDBRANCH  65  67
ENDBRANCH  49  65
ENDBRANCH  47  49
ENDBRANCH  43  45
ENDBRANCH   1  43
BRANCH   1  69
ATOM     69  C   UNL     1      -0.693   1.765  -1.107  1.00  0.00    -0.001 C 
ATOM     70  C   UNL     1      -1.192   2.221   0.055  1.00  0.00     0.001 C 
BRANCH  70  71
ATOM     71  C   UNL     1      -0.479   2.987   1.079  1.00  0.00    -0.055 C 
ATOM     72  C   UNL     1       0.114   4.140   0.702  1.00  0.00    -0.018 C 
ATOM     73  C   UNL     1      -0.463   2.439   2.482  1.00  0.00     0.044 C 
BRANCH  72  74
ATOM     74  C   UNL     1       0.911   5.131   1.537  1.00  0.00     0.038 C 
ATOM     75  C   UNL     1       0.474   6.538   1.110  1.00  0.00     0.015 C 
BRANCH  74  76
ATOM     76  C   UNL     1       2.429   4.835   1.353  1.00  0.00     0.128 C 
BRANCH  76  77
ATOM     77  O   UNL     1       2.913   4.051   2.456  1.00  0.00    -0.381 OA
ATOM     78  C   UNL     1       2.420   4.477   3.719  1.00  0.00     0.195 C 
ENDBRANCH  76  77
BRANCH  76  79
ATOM     79  C   UNL     1       2.787   4.220  -0.023  1.00  0.00     0.068 C 
BRANCH  79  80
ATOM     80  C   UNL     1       3.632   2.968  -0.040  1.00  0.00    -0.045 A 
ATOM     81  C   UNL     1       3.040   1.698  -0.050  1.00  0.00     0.004 A 
ATOM     82  C   UNL     1       5.032   3.060  -0.016  1.00  0.00     0.004 A 
ATOM     83  C   UNL     1       3.828   0.546  -0.051  1.00  0.00     0.000 A 
ATOM     84  C   UNL     1       5.819   1.906  -0.016  1.00  0.00     0.000 A 
ATOM     85  C   UNL     1       5.217   0.650  -0.035  1.00  0.00     0.000 A 
ENDBRANCH  79  80
ENDBRANCH  76  79
ENDBRANCH  74  76
ENDBRANCH  72  74
ENDBRANCH  70  71
ENDBRANCH   1  69
TORSDOF 17
ENDMDL
MODEL 20
REMARK VINA RESULT:    -6.811      3.621      5.782
REMARK INTER + INTRA:         -26.862
REMARK INTER:                 -21.177
REMARK INTRA:                  -5.684
REMARK UNBOUND:                -6.514
REMARK SMILES C=C1C(=O)N[C@H](C)C(=O)N[C@@H](CC(C)C)C(=O)N[C@@H](C(=O)O)[C@H](C)C(=O)N[C@@H](CCCN=C(N)N)C(=O)N[C@@H](/C=C/C(C)=C/[C@H](C)[C@H](Cc2ccccc2)OC)[C@H](C)C(=O)N[C@@H](C(=O)O)CCC(=O)N1C
REMARK SMILES IDX 39 1 38 2 37 3 36 4 28 6 27 7 25 8 26 9 23 11 24 12 19 13
REMARK SMILES IDX 18 14 16 15 17 16 11 18 10 19 8 20 9 21 12 24 13 25 14 26
REMARK SMILES IDX 15 27 20 28 21 29 22 30 29 32 30 33 31 34 32 35 33 36 34 37
REMARK SMILES IDX 35 38 57 43 58 44 59 45 60 46 61 47 62 49 66 50 67 51 68 52
REMARK SMILES IDX 69 53 70 54 71 55 2 56 1 57 3 58 4 59 5 60 6 62 7 63 63 65
REMARK SMILES IDX 64 66 65 67 40 69 41 70 42 71 44 72 43 73 45 74 46 75 47 76
REMARK SMILES IDX 55 77 56 78 48 79 49 80 50 81 54 82 51 83 53 84 52 85
REMARK H PARENT 38 5 27 10 18 17 10 22 22 31 34 39 34 40 35 41 35 42 61 48
REMARK H PARENT 5 61 65 68
REMARK Flexibility Score:  369.900
ROOT
ATOM      1  C   UNL     1      -1.340   2.064  -5.382  1.00  0.00     0.117 C 
ENDROOT
BRANCH   1   2
ATOM      2  N   UNL     1      -0.266   2.379  -6.325  1.00  0.00    -0.347 N 
ATOM      3  O   UNL     1       0.035   0.268  -7.174  1.00  0.00    -0.273 OA
ATOM      4  C   UNL     1       0.274   1.470  -7.214  1.00  0.00     0.243 C 
ATOM      5  H   UNL     1       0.082   3.324  -6.380  1.00  0.00     0.164 HD
BRANCH   4   6
ATOM      6  C   UNL     1       1.338   2.081  -8.161  1.00  0.00     0.171 C 
BRANCH   6   7
ATOM      7  N   UNL     1       2.652   1.461  -7.928  1.00  0.00    -0.344 N 
ATOM      8  C   UNL     1       3.787   2.235  -7.831  1.00  0.00     0.226 C 
ATOM      9  O   UNL     1       3.768   3.454  -7.954  1.00  0.00    -0.275 OA
ATOM     10  H   UNL     1       2.717   0.451  -7.889  1.00  0.00     0.164 HD
BRANCH   8  11
ATOM     11  C   UNL     1       5.055   1.452  -7.536  1.00  0.00     0.109 C 
ATOM     12  C   UNL     1       4.708   0.010  -7.166  1.00  0.00     0.021 C 
BRANCH  11  13
ATOM     13  C   UNL     1       6.045   1.601  -8.708  1.00  0.00     0.204 C 
BRANCH  13  14
ATOM     14  N   UNL     1       5.397   2.127  -9.914  1.00  0.00    -0.340 N 
ATOM     15  C   UNL     1       5.573   1.568 -11.161  1.00  0.00     0.243 C 
ATOM     16  O   UNL     1       6.238   0.550 -11.341  1.00  0.00    -0.273 OA
ATOM     17  H   UNL     1       4.959   3.050  -9.860  1.00  0.00     0.164 HD
BRANCH  15  18
ATOM     18  C   UNL     1       4.963   2.411 -12.308  1.00  0.00     0.171 C 
BRANCH  18  19
ATOM     19  N   UNL     1       6.011   3.323 -12.760  1.00  0.00    -0.343 N 
ATOM     20  C   UNL     1       6.173   4.579 -12.207  1.00  0.00     0.242 CG0
ATOM     21  O   UNL     1       5.363   5.038 -11.405  1.00  0.00    -0.273 OA
ATOM     22  H   UNL     1       6.636   3.033 -13.504  1.00  0.00     0.164 HD
ATOM     23  G   UNL     1       7.381   5.366 -12.757  1.00  0.00     0.000 G0
ENDBRANCH  18  19
BRANCH  18  24
ATOM     24  C   UNL     1       4.476   1.506 -13.446  1.00  0.00     0.038 C 
BRANCH  24  25
ATOM     25  C   UNL     1       4.396   2.192 -14.826  1.00  0.00    -0.015 C 
ATOM     26  C   UNL     1       3.102   2.985 -15.012  1.00  0.00     0.007 C 
ATOM     27  C   UNL     1       4.520   1.141 -15.932  1.00  0.00     0.007 C 
ENDBRANCH  24  25
ENDBRANCH  18  24
ENDBRANCH  15  18
ENDBRANCH  13  14
BRANCH  13  28
ATOM     28  C   UNL     1       7.225   2.524  -8.388  1.00  0.00     0.327 C 
ATOM     29  O   UNL     1       7.867   3.182  -9.192  1.00  0.00    -0.250 OA
BRANCH  28  30
ATOM     30  O   UNL     1       7.602   2.471  -7.094  1.00  0.00    -0.480 OA
ATOM     31  H   UNL     1       8.033   1.596  -7.004  1.00  0.00     0.296 HD
ENDBRANCH  28  30
ENDBRANCH  13  28
ENDBRANCH  11  13
ENDBRANCH   8  11
ENDBRANCH   6   7
BRANCH   6  32
ATOM     32  C   UNL     1       0.890   1.886  -9.614  1.00  0.00     0.037 C 
BRANCH  32  33
ATOM     33  C   UNL     1       1.916   2.434 -10.615  1.00  0.00     0.026 C 
BRANCH  33  34
ATOM     34  C   UNL     1       1.342   3.550 -11.489  1.00  0.00     0.146 C 
BRANCH  34  35
ATOM     35  N   UNL     1       1.173   4.745 -10.674  1.00  0.00    -0.254 NA
ATOM     36  C   UNL     1       0.269   5.591 -11.004  1.00  0.00     0.185 C 
ATOM     37  N   UNL     1       0.101   6.693 -10.257  1.00  0.00    -0.370 N 
ATOM     38  N   UNL     1      -0.588   5.550 -12.039  1.00  0.00    -0.370 N 
ATOM     39  H   UNL     1       0.704   6.792  -9.451  1.00  0.00     0.159 HD
ATOM     40  H   UNL     1      -0.689   7.310 -10.345  1.00  0.00     0.159 HD
ATOM     41  H   UNL     1      -1.159   6.346 -12.274  1.00  0.00     0.159 HD
ATOM     42  H   UNL     1      -0.564   4.785 -12.695  1.00  0.00     0.159 HD
ENDBRANCH  34  35
ENDBRANCH  33  34
ENDBRANCH  32  33
ENDBRANCH   6  32
ENDBRANCH   4   6
ENDBRANCH   1   2
BRANCH   1  43
ATOM     43  C   UNL     1      -2.705   2.311  -6.087  1.00  0.00     0.102 C 
ATOM     44  C   UNL     1      -3.230   3.747  -5.919  1.00  0.00     0.020 C 
BRANCH  43  45
ATOM     45  C   UNL     1      -3.723   1.230  -5.709  1.00  0.00     0.225 C 
ATOM     46  O   UNL     1      -4.892   1.478  -5.428  1.00  0.00    -0.275 OA
ATOM     47  N   UNL     1      -3.220  -0.048  -5.610  1.00  0.00    -0.342 N 
ATOM     48  H   UNL     1      -2.307  -0.256  -5.988  1.00  0.00     0.164 HD
BRANCH  47  49
ATOM     49  C   UNL     1      -4.085  -1.188  -5.292  1.00  0.00     0.192 C 
BRANCH  49  50
ATOM     50  C   UNL     1      -3.668  -1.790  -3.948  1.00  0.00     0.047 C 
BRANCH  50  51
ATOM     51  C   UNL     1      -3.001  -0.757  -3.030  1.00  0.00     0.103 C 
BRANCH  51  52
ATOM     52  C   UNL     1      -3.402  -0.945  -1.568  1.00  0.00     0.226 C 
ATOM     53  O   UNL     1      -2.631  -1.512  -0.791  1.00  0.00    -0.275 OA
BRANCH  52  54
ATOM     54  N   UNL     1      -4.628  -0.375  -1.177  1.00  0.00    -0.311 N 
ATOM     55  C   UNL     1      -5.900  -1.059  -1.446  1.00  0.00     0.153 C 
BRANCH  54  56
ATOM     56  C   UNL     1      -4.682   0.861  -0.512  1.00  0.00     0.102 C 
ATOM     57  C   UNL     1      -4.537   2.058  -1.103  1.00  0.00     0.043 C 
BRANCH  56  58
ATOM     58  C   UNL     1      -4.966   0.932   0.970  1.00  0.00     0.268 C 
ATOM     59  O   UNL     1      -4.169   0.562   1.823  1.00  0.00    -0.268 OA
ATOM     60  N   UNL     1      -6.176   1.514   1.262  1.00  0.00    -0.339 N 
ATOM     61  H   UNL     1      -6.783   1.784   0.497  1.00  0.00     0.164 HD
BRANCH  60  62
ATOM     62  C   UNL     1      -6.622   1.739   2.636  1.00  0.00     0.168 CG0
ATOM     63  C   UNL     1      -6.432   3.195   3.042  1.00  0.00     0.041 C 
ATOM     64  G   UNL     1      -5.851   0.802   3.589  1.00  0.00     0.000 G0
ENDBRANCH  60  62
ENDBRANCH  56  58
ENDBRANCH  54  56
ENDBRANCH  52  54
ENDBRANCH  51  52
ENDBRANCH  50  51
ENDBRANCH  49  50
BRANCH  49  65
ATOM     65  C   UNL     1      -4.015  -2.273  -6.379  1.00  0.00     0.326 C 
ATOM     66  O   UNL     1      -4.823  -3.176  -6.534  1.00  0.00    -0.250 OA
BRANCH  65  67
ATOM     67  O   UNL     1      -2.919  -2.210  -7.168  1.00  0.00    -0.480 OA
ATOM     68  H   UNL     1      -3.288  -2.046  -8.063  1.00  0.00     0.296 HD
ENDBRANCH  65  67
ENDBRANCH  49  65
ENDBRANCH  47  49
ENDBRANCH  43  45
ENDBRANCH   1  43
BRANCH   1  69
ATOM     69  C   UNL     1      -1.024   2.826  -4.108  1.00  0.00    -0.001 C 
ATOM     70  C   UNL     1      -1.405   2.519  -2.856  1.00  0.00     0.001 C 
BRANCH  70  71
ATOM     71  C   UNL     1      -1.076   3.250  -1.631  1.00  0.00    -0.055 C 
ATOM     72  C   UNL     1      -0.528   2.555  -0.613  1.00  0.00    -0.018 C 
ATOM     73  C   UNL     1      -1.363   4.729  -1.598  1.00  0.00     0.044 C 
BRANCH  72  74
ATOM     74  C   UNL     1      -0.086   3.043   0.759  1.00  0.00     0.038 C 
ATOM     75  C   UNL     1      -1.325   3.619   1.455  1.00  0.00     0.015 C 
BRANCH  74  76
ATOM     76  C   UNL     1       1.089   4.049   0.578  1.00  0.00     0.128 C 
BRANCH  76  77
ATOM     77  O   UNL     1       1.786   4.219   1.824  1.00  0.00    -0.381 OA
ATOM     78  C   UNL     1       2.145   5.567   2.098  1.00  0.00     0.195 C 
ENDBRANCH  76  77
BRANCH  76  79
ATOM     79  C   UNL     1       2.037   3.704  -0.598  1.00  0.00     0.068 C 
BRANCH  79  80
ATOM     80  C   UNL     1       3.204   2.788  -0.319  1.00  0.00    -0.045 A 
ATOM     81  C   UNL     1       3.044   1.396  -0.315  1.00  0.00     0.004 A 
ATOM     82  C   UNL     1       4.469   3.322  -0.031  1.00  0.00     0.004 A 
ATOM     83  C   UNL     1       4.126   0.556  -0.042  1.00  0.00     0.000 A 
ATOM     84  C   UNL     1       5.550   2.481   0.242  1.00  0.00     0.000 A 
ATOM     85  C   UNL     1       5.379   1.098   0.234  1.00  0.00     0.000 A 
ENDBRANCH  79  80
ENDBRANCH  76  79
ENDBRANCH  74  76
ENDBRANCH  72  74
ENDBRANCH  70  71
ENDBRANCH   1  69
TORSDOF 17
ENDMDL
MODEL 21
REMARK VINA RESULT:    -6.803      5.153     12.877
REMARK INTER + INTRA:         -26.838
REMARK INTER:                 -19.715
REMARK INTRA:                  -7.123
REMARK UNBOUND:                -6.514
REMARK SMILES C=C1C(=O)N[C@H](C)C(=O)N[C@@H](CC(C)C)C(=O)N[C@@H](C(=O)O)[C@H](C)C(=O)N[C@@H](CCCN=C(N)N)C(=O)N[C@@H](/C=C/C(C)=C/[C@H](C)[C@H](Cc2ccccc2)OC)[C@H](C)C(=O)N[C@@H](C(=O)O)CCC(=O)N1C
REMARK SMILES IDX 39 1 38 2 37 3 36 4 28 6 27 7 25 8 26 9 23 11 24 12 19 13
REMARK SMILES IDX 18 14 16 15 17 16 11 18 10 19 8 20 9 21 12 24 13 25 14 26
REMARK SMILES IDX 15 27 20 28 21 29 22 30 29 32 30 33 31 34 32 35 33 36 34 37
REMARK SMILES IDX 35 38 57 43 58 44 59 45 60 46 61 47 62 49 66 50 67 51 68 52
REMARK SMILES IDX 69 53 70 54 71 55 2 56 1 57 3 58 4 59 5 60 6 62 7 63 63 65
REMARK SMILES IDX 64 66 65 67 40 69 41 70 42 71 44 72 43 73 45 74 46 75 47 76
REMARK SMILES IDX 55 77 56 78 48 79 49 80 50 81 54 82 51 83 53 84 52 85
REMARK H PARENT 38 5 27 10 18 17 10 22 22 31 34 39 34 40 35 41 35 42 61 48
REMARK H PARENT 5 61 65 68
REMARK Flexibility Score:  369.900
ROOT
ATOM      1  C   UNL     1      -0.808   0.083  -3.628  1.00  0.00     0.117 C 
ENDROOT
BRANCH   1   2
ATOM      2  N   UNL     1      -0.674   0.750  -2.333  1.00  0.00    -0.347 N 
ATOM      3  O   UNL     1       1.510   0.183  -1.913  1.00  0.00    -0.273 OA
ATOM      4  C   UNL     1       0.507   0.824  -1.619  1.00  0.00     0.243 C 
ATOM      5  H   UNL     1      -1.468   1.235  -1.941  1.00  0.00     0.164 HD
BRANCH   4   6
ATOM      6  C   UNL     1       0.399   1.662  -0.320  1.00  0.00     0.171 C 
BRANCH   6   7
ATOM      7  N   UNL     1      -1.001   2.036  -0.064  1.00  0.00    -0.344 N 
ATOM      8  C   UNL     1      -1.321   3.303   0.373  1.00  0.00     0.226 C 
ATOM      9  O   UNL     1      -0.473   4.161   0.590  1.00  0.00    -0.275 OA
ATOM     10  H   UNL     1      -1.723   1.335  -0.167  1.00  0.00     0.164 HD
BRANCH   8  11
ATOM     11  C   UNL     1      -2.810   3.551   0.538  1.00  0.00     0.109 C 
ATOM     12  C   UNL     1      -3.269   4.653  -0.416  1.00  0.00     0.021 C 
BRANCH  11  13
ATOM     13  C   UNL     1      -3.577   2.220   0.408  1.00  0.00     0.204 C 
BRANCH  13  14
ATOM     14  N   UNL     1      -4.137   1.779   1.689  1.00  0.00    -0.340 N 
ATOM     15  C   UNL     1      -3.589   0.757   2.434  1.00  0.00     0.243 C 
ATOM     16  O   UNL     1      -2.552   0.183   2.105  1.00  0.00    -0.273 OA
ATOM     17  H   UNL     1      -5.074   2.106   1.943  1.00  0.00     0.164 HD
BRANCH  15  18
ATOM     18  C   UNL     1      -4.464   0.329   3.637  1.00  0.00     0.171 C 
BRANCH  18  19
ATOM     19  N   UNL     1      -4.138   1.235   4.736  1.00  0.00    -0.343 N 
ATOM     20  C   UNL     1      -3.242   0.885   5.728  1.00  0.00     0.242 CG0
ATOM     21  O   UNL     1      -2.780  -0.250   5.806  1.00  0.00    -0.273 OA
ATOM     22  H   UNL     1      -4.583   2.145   4.780  1.00  0.00     0.164 HD
ATOM     23  G   UNL     1      -2.965   2.000   6.758  1.00  0.00     0.000 G0
ENDBRANCH  18  19
BRANCH  18  24
ATOM     24  C   UNL     1      -5.953   0.398   3.275  1.00  0.00     0.038 C 
BRANCH  24  25
ATOM     25  C   UNL     1      -6.794  -0.794   3.778  1.00  0.00    -0.015 C 
ATOM     26  C   UNL     1      -5.980  -1.767   4.632  1.00  0.00     0.007 C 
ATOM     27  C   UNL     1      -7.399  -1.538   2.584  1.00  0.00     0.007 C 
ENDBRANCH  24  25
ENDBRANCH  18  24
ENDBRANCH  15  18
ENDBRANCH  13  14
BRANCH  13  28
ATOM     28  C   UNL     1      -4.734   2.285  -0.594  1.00  0.00     0.327 C 
ATOM     29  O   UNL     1      -5.916   2.433  -0.325  1.00  0.00    -0.250 OA
BRANCH  28  30
ATOM     30  O   UNL     1      -4.348   2.042  -1.863  1.00  0.00    -0.480 OA
ATOM     31  H   UNL     1      -4.290   1.065  -1.915  1.00  0.00     0.296 HD
ENDBRANCH  28  30
ENDBRANCH  13  28
ENDBRANCH  11  13
ENDBRANCH   8  11
ENDBRANCH   6   7
BRANCH   6  32
ATOM     32  C   UNL     1       0.972   0.853   0.849  1.00  0.00     0.037 C 
BRANCH  32  33
ATOM     33  C   UNL     1       1.846   1.712   1.774  1.00  0.00     0.026 C 
BRANCH  33  34
ATOM     34  C   UNL     1       3.055   2.307   1.050  1.00  0.00     0.146 C 
BRANCH  34  35
ATOM     35  N   UNL     1       3.931   1.223   0.630  1.00  0.00    -0.254 NA
ATOM     36  C   UNL     1       4.992   1.510  -0.028  1.00  0.00     0.185 C 
ATOM     37  N   UNL     1       5.810   0.519  -0.416  1.00  0.00    -0.370 N 
ATOM     38  N   UNL     1       5.446   2.716  -0.415  1.00  0.00    -0.370 N 
ATOM     39  H   UNL     1       5.541  -0.421  -0.153  1.00  0.00     0.159 HD
ATOM     40  H   UNL     1       6.736   0.671  -0.777  1.00  0.00     0.159 HD
ATOM     41  H   UNL     1       6.223   2.801  -1.049  1.00  0.00     0.159 HD
ATOM     42  H   UNL     1       4.923   3.552  -0.205  1.00  0.00     0.159 HD
ENDBRANCH  34  35
ENDBRANCH  33  34
ENDBRANCH  32  33
ENDBRANCH   6  32
ENDBRANCH   4   6
ENDBRANCH   1   2
BRANCH   1  43
ATOM     43  C   UNL     1      -0.887   1.169  -4.739  1.00  0.00     0.102 C 
ATOM     44  C   UNL     1      -2.243   1.893  -4.793  1.00  0.00     0.020 C 
BRANCH  43  45
ATOM     45  C   UNL     1      -0.427   0.610  -6.089  1.00  0.00     0.225 C 
ATOM     46  O   UNL     1      -0.958  -0.356  -6.631  1.00  0.00    -0.275 OA
ATOM     47  N   UNL     1       0.693   1.202  -6.625  1.00  0.00    -0.342 N 
ATOM     48  H   UNL     1       1.022   2.081  -6.250  1.00  0.00     0.164 HD
BRANCH  47  49
ATOM     49  C   UNL     1       1.226   0.794  -7.928  1.00  0.00     0.192 C 
BRANCH  49  50
ATOM     50  C   UNL     1       2.755   0.870  -7.905  1.00  0.00     0.047 C 
BRANCH  50  51
ATOM     51  C   UNL     1       3.263   2.265  -7.517  1.00  0.00     0.103 C 
BRANCH  51  52
ATOM     52  C   UNL     1       3.920   2.984  -8.693  1.00  0.00     0.226 C 
ATOM     53  O   UNL     1       3.472   4.067  -9.074  1.00  0.00    -0.275 OA
BRANCH  52  54
ATOM     54  N   UNL     1       5.073   2.382  -9.232  1.00  0.00    -0.311 N 
ATOM     55  C   UNL     1       6.239   2.091  -8.387  1.00  0.00     0.153 C 
BRANCH  54  56
ATOM     56  C   UNL     1       5.150   2.032 -10.590  1.00  0.00     0.102 C 
ATOM     57  C   UNL     1       4.490   1.009 -11.159  1.00  0.00     0.043 C 
BRANCH  56  58
ATOM     58  C   UNL     1       5.980   2.846 -11.554  1.00  0.00     0.268 C 
ATOM     59  O   UNL     1       6.960   2.399 -12.136  1.00  0.00    -0.268 OA
ATOM     60  N   UNL     1       5.486   4.112 -11.758  1.00  0.00    -0.339 N 
ATOM     61  H   UNL     1       4.675   4.410 -11.229  1.00  0.00     0.164 HD
BRANCH  60  62
ATOM     62  C   UNL     1       6.101   5.046 -12.700  1.00  0.00     0.168 CG0
ATOM     63  C   UNL     1       5.352   5.058 -14.027  1.00  0.00     0.041 C 
ATOM     64  G   UNL     1       7.581   4.666 -12.913  1.00  0.00     0.000 G0
ENDBRANCH  60  62
ENDBRANCH  56  58
ENDBRANCH  54  56
ENDBRANCH  52  54
ENDBRANCH  51  52
ENDBRANCH  50  51
ENDBRANCH  49  50
BRANCH  49  65
ATOM     65  C   UNL     1       0.690   1.681  -9.063  1.00  0.00     0.326 C 
ATOM     66  O   UNL     1       1.097   1.684 -10.215  1.00  0.00    -0.250 OA
BRANCH  65  67
ATOM     67  O   UNL     1      -0.274   2.552  -8.690  1.00  0.00    -0.480 OA
ATOM     68  H   UNL     1      -0.859   2.600  -9.476  1.00  0.00     0.296 HD
ENDBRANCH  65  67
ENDBRANCH  49  65
ENDBRANCH  47  49
ENDBRANCH  43  45
ENDBRANCH   1  43
BRANCH   1  69
ATOM     69  C   UNL     1      -1.955  -0.900  -3.481  1.00  0.00    -0.001 C 
ATOM     70  C   UNL     1      -2.764  -1.060  -2.419  1.00  0.00     0.001 C 
BRANCH  70  71
ATOM     71  C   UNL     1      -3.882  -1.998  -2.297  1.00  0.00    -0.055 C 
ATOM     72  C   UNL     1      -3.684  -3.267  -2.710  1.00  0.00    -0.018 C 
ATOM     73  C   UNL     1      -5.171  -1.482  -1.712  1.00  0.00     0.044 C 
BRANCH  72  74
ATOM     74  C   UNL     1      -4.648  -4.444  -2.702  1.00  0.00     0.038 C 
ATOM     75  C   UNL     1      -4.034  -5.527  -1.806  1.00  0.00     0.015 C 
BRANCH  74  76
ATOM     76  C   UNL     1      -4.913  -4.885  -4.172  1.00  0.00     0.128 C 
BRANCH  76  77
ATOM     77  O   UNL     1      -5.105  -6.309  -4.230  1.00  0.00    -0.381 OA
ATOM     78  C   UNL     1      -4.399  -6.937  -5.292  1.00  0.00     0.195 C 
ENDBRANCH  76  77
BRANCH  76  79
ATOM     79  C   UNL     1      -6.050  -4.098  -4.870  1.00  0.00     0.068 C 
BRANCH  79  80
ATOM     80  C   UNL     1      -5.772  -2.673  -5.285  1.00  0.00    -0.045 A 
ATOM     81  C   UNL     1      -4.643  -2.351  -6.049  1.00  0.00     0.004 A 
ATOM     82  C   UNL     1      -6.632  -1.639  -4.884  1.00  0.00     0.004 A 
ATOM     83  C   UNL     1      -4.385  -1.028  -6.416  1.00  0.00     0.000 A 
ATOM     84  C   UNL     1      -6.373  -0.317  -5.251  1.00  0.00     0.000 A 
ATOM     85  C   UNL     1      -5.251  -0.012  -6.018  1.00  0.00     0.000 A 
ENDBRANCH  79  80
ENDBRANCH  76  79
ENDBRANCH  74  76
ENDBRANCH  72  74
ENDBRANCH  70  71
ENDBRANCH   1  69
TORSDOF 17
ENDMDL
MODEL 22
REMARK VINA RESULT:    -6.791      8.008     13.691
REMARK INTER + INTRA:         -26.804
REMARK INTER:                 -20.879
REMARK INTRA:                  -5.924
REMARK UNBOUND:                -6.514
REMARK SMILES C=C1C(=O)N[C@H](C)C(=O)N[C@@H](CC(C)C)C(=O)N[C@@H](C(=O)O)[C@H](C)C(=O)N[C@@H](CCCN=C(N)N)C(=O)N[C@@H](/C=C/C(C)=C/[C@H](C)[C@H](Cc2ccccc2)OC)[C@H](C)C(=O)N[C@@H](C(=O)O)CCC(=O)N1C
REMARK SMILES IDX 39 1 38 2 37 3 36 4 28 6 27 7 25 8 26 9 23 11 24 12 19 13
REMARK SMILES IDX 18 14 16 15 17 16 11 18 10 19 8 20 9 21 12 24 13 25 14 26
REMARK SMILES IDX 15 27 20 28 21 29 22 30 29 32 30 33 31 34 32 35 33 36 34 37
REMARK SMILES IDX 35 38 57 43 58 44 59 45 60 46 61 47 62 49 66 50 67 51 68 52
REMARK SMILES IDX 69 53 70 54 71 55 2 56 1 57 3 58 4 59 5 60 6 62 7 63 63 65
REMARK SMILES IDX 64 66 65 67 40 69 41 70 42 71 44 72 43 73 45 74 46 75 47 76
REMARK SMILES IDX 55 77 56 78 48 79 49 80 50 81 54 82 51 83 53 84 52 85
REMARK H PARENT 38 5 27 10 18 17 10 22 22 31 34 39 34 40 35 41 35 42 61 48
REMARK H PARENT 5 61 65 68
REMARK Flexibility Score:  369.900
ROOT
ATOM      1  C   UNL     1       4.732   2.977   0.286  1.00  0.00     0.117 C 
ENDROOT
BRANCH   1   2
ATOM      2  N   UNL     1       3.317   2.748   0.581  1.00  0.00    -0.347 N 
ATOM      3  O   UNL     1       2.435   4.111  -1.043  1.00  0.00    -0.273 OA
ATOM      4  C   UNL     1       2.278   3.264  -0.169  1.00  0.00     0.243 C 
ATOM      5  H   UNL     1       3.064   2.139   1.344  1.00  0.00     0.164 HD
BRANCH   4   6
ATOM      6  C   UNL     1       0.877   2.799   0.304  1.00  0.00     0.171 C 
BRANCH   6   7
ATOM      7  N   UNL     1       0.486   1.561  -0.388  1.00  0.00    -0.344 N 
ATOM      8  C   UNL     1      -0.611   1.539  -1.222  1.00  0.00     0.226 C 
ATOM      9  O   UNL     1      -1.317   2.522  -1.411  1.00  0.00    -0.275 OA
ATOM     10  H   UNL     1       1.004   0.711  -0.204  1.00  0.00     0.164 HD
BRANCH   8  11
ATOM     11  C   UNL     1      -0.852   0.203  -1.904  1.00  0.00     0.109 C 
ATOM     12  C   UNL     1       0.473  -0.534  -2.100  1.00  0.00     0.021 C 
BRANCH  11  13
ATOM     13  C   UNL     1      -1.926  -0.589  -1.132  1.00  0.00     0.204 C 
BRANCH  13  14
ATOM     14  N   UNL     1      -2.510  -1.661  -1.944  1.00  0.00    -0.340 N 
ATOM     15  C   UNL     1      -3.856  -1.958  -1.936  1.00  0.00     0.243 C 
ATOM     16  O   UNL     1      -4.673  -1.302  -1.292  1.00  0.00    -0.273 OA
ATOM     17  H   UNL     1      -1.874  -2.335  -2.379  1.00  0.00     0.164 HD
BRANCH  15  18
ATOM     18  C   UNL     1      -4.208  -3.255  -2.705  1.00  0.00     0.171 C 
BRANCH  18  19
ATOM     19  N   UNL     1      -5.042  -4.058  -1.813  1.00  0.00    -0.343 N 
ATOM     20  C   UNL     1      -5.111  -5.433  -1.921  1.00  0.00     0.242 CG0
ATOM     21  O   UNL     1      -4.581  -6.032  -2.854  1.00  0.00    -0.273 OA
ATOM     22  H   UNL     1      -5.591  -3.596  -1.096  1.00  0.00     0.164 HD
ATOM     23  G   UNL     1      -5.979  -6.114  -0.843  1.00  0.00     0.000 G0
ENDBRANCH  18  19
BRANCH  18  24
ATOM     24  C   UNL     1      -4.939  -2.927  -4.013  1.00  0.00     0.038 C 
BRANCH  24  25
ATOM     25  C   UNL     1      -4.171  -3.313  -5.295  1.00  0.00    -0.015 C 
ATOM     26  C   UNL     1      -2.924  -2.456  -5.511  1.00  0.00     0.007 C 
ATOM     27  C   UNL     1      -5.098  -3.189  -6.507  1.00  0.00     0.007 C 
ENDBRANCH  24  25
ENDBRANCH  18  24
ENDBRANCH  15  18
ENDBRANCH  13  14
BRANCH  13  28
ATOM     28  C   UNL     1      -1.396  -1.231   0.154  1.00  0.00     0.327 C 
ATOM     29  O   UNL     1      -0.922  -0.642   1.113  1.00  0.00    -0.250 OA
BRANCH  28  30
ATOM     30  O   UNL     1      -1.384  -2.579   0.106  1.00  0.00    -0.480 OA
ATOM     31  H   UNL     1      -2.221  -2.811  -0.346  1.00  0.00     0.296 HD
ENDBRANCH  28  30
ENDBRANCH  13  28
ENDBRANCH  11  13
ENDBRANCH   8  11
ENDBRANCH   6   7
BRANCH   6  32
ATOM     32  C   UNL     1       0.902   2.593   1.823  1.00  0.00     0.037 C 
BRANCH  32  33
ATOM     33  C   UNL     1       0.548   3.876   2.587  1.00  0.00     0.026 C 
BRANCH  33  34
ATOM     34  C   UNL     1      -0.554   4.682   1.898  1.00  0.00     0.146 C 
BRANCH  34  35
ATOM     35  N   UNL     1      -0.043   6.012   1.594  1.00  0.00    -0.254 NA
ATOM     36  C   UNL     1       0.013   6.384   0.370  1.00  0.00     0.185 C 
ATOM     37  N   UNL     1       0.478   7.609   0.079  1.00  0.00    -0.370 N 
ATOM     38  N   UNL     1      -0.340   5.705  -0.736  1.00  0.00    -0.370 N 
ATOM     39  H   UNL     1       0.755   8.187   0.862  1.00  0.00     0.159 HD
ATOM     40  H   UNL     1       0.391   8.036  -0.827  1.00  0.00     0.159 HD
ATOM     41  H   UNL     1      -0.118   6.054  -1.654  1.00  0.00     0.159 HD
ATOM     42  H   UNL     1      -0.692   4.763  -0.669  1.00  0.00     0.159 HD
ENDBRANCH  34  35
ENDBRANCH  33  34
ENDBRANCH  32  33
ENDBRANCH   6  32
ENDBRANCH   4   6
ENDBRANCH   1   2
BRANCH   1  43
ATOM     43  C   UNL     1       5.354   1.646  -0.226  1.00  0.00     0.102 C 
ATOM     44  C   UNL     1       5.004   0.431   0.649  1.00  0.00     0.020 C 
BRANCH  43  45
ATOM     45  C   UNL     1       6.853   1.807  -0.497  1.00  0.00     0.225 C 
ATOM     46  O   UNL     1       7.720   1.335   0.233  1.00  0.00    -0.275 OA
ATOM     47  N   UNL     1       7.179   2.602  -1.571  1.00  0.00    -0.342 N 
ATOM     48  H   UNL     1       6.466   2.853  -2.242  1.00  0.00     0.164 HD
BRANCH  47  49
ATOM     49  C   UNL     1       8.573   2.817  -1.971  1.00  0.00     0.192 C 
BRANCH  49  50
ATOM     50  C   UNL     1       9.155   3.998  -1.191  1.00  0.00     0.047 C 
BRANCH  50  51
ATOM     51  C   UNL     1      10.653   4.193  -1.463  1.00  0.00     0.103 C 
BRANCH  51  52
ATOM     52  C   UNL     1      10.938   5.505  -2.191  1.00  0.00     0.226 C 
ATOM     53  O   UNL     1      10.568   6.571  -1.696  1.00  0.00    -0.275 OA
BRANCH  52  54
ATOM     54  N   UNL     1      11.692   5.413  -3.376  1.00  0.00    -0.311 N 
ATOM     55  C   UNL     1      11.119   5.809  -4.669  1.00  0.00     0.153 C 
BRANCH  54  56
ATOM     56  C   UNL     1      13.017   4.947  -3.367  1.00  0.00     0.102 C 
ATOM     57  C   UNL     1      14.018   5.490  -2.655  1.00  0.00     0.043 C 
BRANCH  56  58
ATOM     58  C   UNL     1      13.413   3.722  -4.157  1.00  0.00     0.268 C 
ATOM     59  O   UNL     1      12.745   2.697  -4.183  1.00  0.00    -0.268 OA
ATOM     60  N   UNL     1      14.560   3.901  -4.892  1.00  0.00    -0.339 N 
ATOM     61  H   UNL     1      15.061   4.777  -4.807  1.00  0.00     0.164 HD
BRANCH  60  62
ATOM     62  C   UNL     1      15.088   2.863  -5.777  1.00  0.00     0.168 CG0
ATOM     63  C   UNL     1      16.524   3.170  -6.185  1.00  0.00     0.041 C 
ATOM     64  G   UNL     1      14.183   2.734  -7.020  1.00  0.00     0.000 G0
ENDBRANCH  60  62
ENDBRANCH  56  58
ENDBRANCH  54  56
ENDBRANCH  52  54
ENDBRANCH  51  52
ENDBRANCH  50  51
ENDBRANCH  49  50
BRANCH  49  65
ATOM     65  C   UNL     1       8.695   3.091  -3.478  1.00  0.00     0.326 C 
ATOM     66  O   UNL     1       9.377   2.450  -4.264  1.00  0.00    -0.250 OA
BRANCH  65  67
ATOM     67  O   UNL     1       8.015   4.176  -3.910  1.00  0.00    -0.480 OA
ATOM     68  H   UNL     1       8.563   4.512  -4.652  1.00  0.00     0.296 HD
ENDBRANCH  65  67
ENDBRANCH  49  65
ENDBRANCH  47  49
ENDBRANCH  43  45
ENDBRANCH   1  43
BRANCH   1  69
ATOM     69  C   UNL     1       5.321   3.634   1.521  1.00  0.00    -0.001 C 
ATOM     70  C   UNL     1       5.414   4.950   1.782  1.00  0.00     0.001 C 
BRANCH  70  71
ATOM     71  C   UNL     1       5.965   5.571   2.988  1.00  0.00    -0.055 C 
ATOM     72  C   UNL     1       5.535   5.113   4.182  1.00  0.00    -0.018 C 
ATOM     73  C   UNL     1       6.978   6.672   2.810  1.00  0.00     0.044 C 
BRANCH  72  74
ATOM     74  C   UNL     1       5.929   5.560   5.583  1.00  0.00     0.038 C 
ATOM     75  C   UNL     1       6.131   4.292   6.422  1.00  0.00     0.015 C 
BRANCH  74  76
ATOM     76  C   UNL     1       4.841   6.534   6.123  1.00  0.00     0.128 C 
BRANCH  76  77
ATOM     77  O   UNL     1       5.343   7.881   6.121  1.00  0.00    -0.381 OA
ATOM     78  C   UNL     1       6.476   8.069   6.959  1.00  0.00     0.195 C 
ENDBRANCH  76  77
BRANCH  76  79
ATOM     79  C   UNL     1       3.471   6.404   5.412  1.00  0.00     0.068 C 
BRANCH  79  80
ATOM     80  C   UNL     1       2.909   7.627   4.729  1.00  0.00    -0.045 A 
ATOM     81  C   UNL     1       3.169   7.883   3.376  1.00  0.00     0.004 A 
ATOM     82  C   UNL     1       2.137   8.549   5.453  1.00  0.00     0.004 A 
ATOM     83  C   UNL     1       2.657   9.025   2.756  1.00  0.00     0.000 A 
ATOM     84  C   UNL     1       1.627   9.691   4.832  1.00  0.00     0.000 A 
ATOM     85  C   UNL     1       1.885   9.928   3.484  1.00  0.00     0.000 A 
ENDBRANCH  79  80
ENDBRANCH  76  79
ENDBRANCH  74  76
ENDBRANCH  72  74
ENDBRANCH  70  71
ENDBRANCH   1  69
TORSDOF 17
ENDMDL
MODEL 23
REMARK VINA RESULT:    -6.760      5.351     13.327
REMARK INTER + INTRA:         -26.709
REMARK INTER:                 -19.499
REMARK INTRA:                  -7.210
REMARK UNBOUND:                -6.514
REMARK SMILES C=C1C(=O)N[C@H](C)C(=O)N[C@@H](CC(C)C)C(=O)N[C@@H](C(=O)O)[C@H](C)C(=O)N[C@@H](CCCN=C(N)N)C(=O)N[C@@H](/C=C/C(C)=C/[C@H](C)[C@H](Cc2ccccc2)OC)[C@H](C)C(=O)N[C@@H](C(=O)O)CCC(=O)N1C
REMARK SMILES IDX 39 1 38 2 37 3 36 4 28 6 27 7 25 8 26 9 23 11 24 12 19 13
REMARK SMILES IDX 18 14 16 15 17 16 11 18 10 19 8 20 9 21 12 24 13 25 14 26
REMARK SMILES IDX 15 27 20 28 21 29 22 30 29 32 30 33 31 34 32 35 33 36 34 37
REMARK SMILES IDX 35 38 57 43 58 44 59 45 60 46 61 47 62 49 66 50 67 51 68 52
REMARK SMILES IDX 69 53 70 54 71 55 2 56 1 57 3 58 4 59 5 60 6 62 7 63 63 65
REMARK SMILES IDX 64 66 65 67 40 69 41 70 42 71 44 72 43 73 45 74 46 75 47 76
REMARK SMILES IDX 55 77 56 78 48 79 49 80 50 81 54 82 51 83 53 84 52 85
REMARK H PARENT 38 5 27 10 18 17 10 22 22 31 34 39 34 40 35 41 35 42 61 48
REMARK H PARENT 5 61 65 68
REMARK Flexibility Score:  369.900
ROOT
ATOM      1  C   UNL     1      -1.391   1.003  -3.686  1.00  0.00     0.117 C 
ENDROOT
BRANCH   1   2
ATOM      2  N   UNL     1      -1.449   1.842  -2.489  1.00  0.00    -0.347 N 
ATOM      3  O   UNL     1       0.526   1.165  -1.536  1.00  0.00    -0.273 OA
ATOM      4  C   UNL     1      -0.437   1.923  -1.552  1.00  0.00     0.243 C 
ATOM      5  H   UNL     1      -2.246   2.443  -2.345  1.00  0.00     0.164 HD
BRANCH   4   6
ATOM      6  C   UNL     1      -0.713   2.951  -0.425  1.00  0.00     0.171 C 
BRANCH   6   7
ATOM      7  N   UNL     1      -2.130   2.914  -0.030  1.00  0.00    -0.344 N 
ATOM      8  C   UNL     1      -2.878   4.070   0.014  1.00  0.00     0.226 C 
ATOM      9  O   UNL     1      -2.407   5.171  -0.246  1.00  0.00    -0.275 OA
ATOM     10  H   UNL     1      -2.536   2.032   0.257  1.00  0.00     0.164 HD
BRANCH   8  11
ATOM     11  C   UNL     1      -4.335   3.859   0.387  1.00  0.00     0.109 C 
ATOM     12  C   UNL     1      -4.800   2.477  -0.071  1.00  0.00     0.021 C 
BRANCH  11  13
ATOM     13  C   UNL     1      -4.536   4.147   1.888  1.00  0.00     0.204 C 
BRANCH  13  14
ATOM     14  N   UNL     1      -4.052   5.479   2.264  1.00  0.00    -0.340 N 
ATOM     15  C   UNL     1      -3.541   5.765   3.512  1.00  0.00     0.243 C 
ATOM     16  O   UNL     1      -3.399   4.905   4.380  1.00  0.00    -0.273 OA
ATOM     17  H   UNL     1      -4.280   6.264   1.649  1.00  0.00     0.164 HD
BRANCH  15  18
ATOM     18  C   UNL     1      -3.290   7.275   3.747  1.00  0.00     0.171 C 
BRANCH  18  19
ATOM     19  N   UNL     1      -4.494   7.805   4.383  1.00  0.00    -0.343 N 
ATOM     20  C   UNL     1      -5.576   8.244   3.644  1.00  0.00     0.242 CG0
ATOM     21  O   UNL     1      -5.525   8.334   2.420  1.00  0.00    -0.273 OA
ATOM     22  H   UNL     1      -4.540   7.860   5.394  1.00  0.00     0.164 HD
ATOM     23  G   UNL     1      -6.784   8.696   4.491  1.00  0.00     0.000 G0
ENDBRANCH  18  19
BRANCH  18  24
ATOM     24  C   UNL     1      -2.051   7.487   4.624  1.00  0.00     0.038 C 
BRANCH  24  25
ATOM     25  C   UNL     1      -0.739   7.711   3.842  1.00  0.00    -0.015 C 
ATOM     26  C   UNL     1       0.349   6.706   4.224  1.00  0.00     0.007 C 
ATOM     27  C   UNL     1      -0.232   9.135   4.084  1.00  0.00     0.007 C 
ENDBRANCH  24  25
ENDBRANCH  18  24
ENDBRANCH  15  18
ENDBRANCH  13  14
BRANCH  13  28
ATOM     28  C   UNL     1      -6.000   4.054   2.329  1.00  0.00     0.327 C 
ATOM     29  O   UNL     1      -6.886   4.853   2.066  1.00  0.00    -0.250 OA
BRANCH  28  30
ATOM     30  O   UNL     1      -6.234   3.028   3.172  1.00  0.00    -0.480 OA
ATOM     31  H   UNL     1      -7.102   2.674   2.886  1.00  0.00     0.296 HD
ENDBRANCH  28  30
ENDBRANCH  13  28
ENDBRANCH  11  13
ENDBRANCH   8  11
ENDBRANCH   6   7
BRANCH   6  32
ATOM     32  C   UNL     1       0.197   2.644   0.769  1.00  0.00     0.037 C 
BRANCH  32  33
ATOM     33  C   UNL     1       1.293   3.704   0.951  1.00  0.00     0.026 C 
BRANCH  33  34
ATOM     34  C   UNL     1       1.165   4.854  -0.048  1.00  0.00     0.146 C 
BRANCH  34  35
ATOM     35  N   UNL     1       1.510   6.100   0.623  1.00  0.00    -0.254 NA
ATOM     36  C   UNL     1       0.850   7.158   0.331  1.00  0.00     0.185 C 
ATOM     37  N   UNL     1       1.156   8.310   0.947  1.00  0.00    -0.370 N 
ATOM     38  N   UNL     1      -0.161   7.309  -0.543  1.00  0.00    -0.370 N 
ATOM     39  H   UNL     1       1.902   8.276   1.630  1.00  0.00     0.159 HD
ATOM     40  H   UNL     1       0.580   9.134   0.905  1.00  0.00     0.159 HD
ATOM     41  H   UNL     1      -0.507   8.223  -0.787  1.00  0.00     0.159 HD
ATOM     42  H   UNL     1      -0.486   6.528  -1.091  1.00  0.00     0.159 HD
ENDBRANCH  34  35
ENDBRANCH  33  34
ENDBRANCH  32  33
ENDBRANCH   6  32
ENDBRANCH   4   6
ENDBRANCH   1   2
BRANCH   1  43
ATOM     43  C   UNL     1      -1.332   1.927  -4.937  1.00  0.00     0.102 C 
ATOM     44  C   UNL     1      -2.708   2.465  -5.365  1.00  0.00     0.020 C 
BRANCH  43  45
ATOM     45  C   UNL     1      -0.542   1.268  -6.071  1.00  0.00     0.225 C 
ATOM     46  O   UNL     1      -0.704   0.099  -6.410  1.00  0.00    -0.275 OA
ATOM     47  N   UNL     1       0.441   2.046  -6.638  1.00  0.00    -0.342 N 
ATOM     48  H   UNL     1       0.459   3.039  -6.457  1.00  0.00     0.164 HD
BRANCH  47  49
ATOM     49  C   UNL     1       1.253   1.559  -7.758  1.00  0.00     0.192 C 
BRANCH  49  50
ATOM     50  C   UNL     1       2.705   2.007  -7.573  1.00  0.00     0.047 C 
BRANCH  50  51
ATOM     51  C   UNL     1       3.676   0.820  -7.507  1.00  0.00     0.103 C 
BRANCH  51  52
ATOM     52  C   UNL     1       4.343   0.549  -8.854  1.00  0.00     0.226 C 
ATOM     53  O   UNL     1       3.721  -0.051  -9.733  1.00  0.00    -0.275 OA
BRANCH  52  54
ATOM     54  N   UNL     1       5.633   1.082  -9.033  1.00  0.00    -0.311 N 
ATOM     55  C   UNL     1       6.583   1.156  -7.914  1.00  0.00     0.153 C 
BRANCH  54  56
ATOM     56  C   UNL     1       6.063   1.555 -10.283  1.00  0.00     0.102 C 
ATOM     57  C   UNL     1       6.320   2.842 -10.571  1.00  0.00     0.043 C 
BRANCH  56  58
ATOM     58  C   UNL     1       6.320   0.602 -11.427  1.00  0.00     0.268 C 
ATOM     59  O   UNL     1       7.252  -0.191 -11.441  1.00  0.00    -0.268 OA
ATOM     60  N   UNL     1       5.365   0.671 -12.412  1.00  0.00    -0.339 N 
ATOM     61  H   UNL     1       4.629   1.362 -12.331  1.00  0.00     0.164 HD
BRANCH  60  62
ATOM     62  C   UNL     1       5.386  -0.209 -13.581  1.00  0.00     0.168 CG0
ATOM     63  C   UNL     1       5.288   0.594 -14.872  1.00  0.00     0.041 C 
ATOM     64  G   UNL     1       4.231  -1.227 -13.482  1.00  0.00     0.000 G0
ENDBRANCH  60  62
ENDBRANCH  56  58
ENDBRANCH  54  56
ENDBRANCH  52  54
ENDBRANCH  51  52
ENDBRANCH  50  51
ENDBRANCH  49  50
BRANCH  49  65
ATOM     65  C   UNL     1       0.728   2.078  -9.106  1.00  0.00     0.326 C 
ATOM     66  O   UNL     1      -0.277   2.757  -9.263  1.00  0.00    -0.250 OA
BRANCH  65  67
ATOM     67  O   UNL     1       1.440   1.675 -10.181  1.00  0.00    -0.480 OA
ATOM     68  H   UNL     1       2.141   2.358 -10.263  1.00  0.00     0.296 HD
ENDBRANCH  65  67
ENDBRANCH  49  65
ENDBRANCH  47  49
ENDBRANCH  43  45
ENDBRANCH   1  43
BRANCH   1  69
ATOM     69  C   UNL     1      -2.531   0.008  -3.563  1.00  0.00    -0.001 C 
ATOM     70  C   UNL     1      -2.799  -0.802  -2.524  1.00  0.00     0.001 C 
BRANCH  70  71
ATOM     71  C   UNL     1      -3.916  -1.743  -2.407  1.00  0.00    -0.055 C 
ATOM     72  C   UNL     1      -3.691  -3.029  -2.750  1.00  0.00    -0.018 C 
ATOM     73  C   UNL     1      -5.232  -1.211  -1.904  1.00  0.00     0.044 C 
BRANCH  72  74
ATOM     74  C   UNL     1      -4.648  -4.212  -2.729  1.00  0.00     0.038 C 
ATOM     75  C   UNL     1      -4.026  -5.281  -1.822  1.00  0.00     0.015 C 
BRANCH  74  76
ATOM     76  C   UNL     1      -4.911  -4.671  -4.194  1.00  0.00     0.128 C 
BRANCH  76  77
ATOM     77  O   UNL     1      -5.074  -6.098  -4.240  1.00  0.00    -0.381 OA
ATOM     78  C   UNL     1      -4.353  -6.722  -5.294  1.00  0.00     0.195 C 
ENDBRANCH  76  77
BRANCH  76  79
ATOM     79  C   UNL     1      -6.067  -3.912  -4.893  1.00  0.00     0.068 C 
BRANCH  79  80
ATOM     80  C   UNL     1      -5.806  -2.502  -5.362  1.00  0.00    -0.045 A 
ATOM     81  C   UNL     1      -4.610  -2.167  -6.012  1.00  0.00     0.004 A 
ATOM     82  C   UNL     1      -6.751  -1.492  -5.127  1.00  0.00     0.004 A 
ATOM     83  C   UNL     1      -4.370  -0.856  -6.430  1.00  0.00     0.000 A 
ATOM     84  C   UNL     1      -6.510  -0.181  -5.545  1.00  0.00     0.000 A 
ATOM     85  C   UNL     1      -5.320   0.136  -6.198  1.00  0.00     0.000 A 
ENDBRANCH  79  80
ENDBRANCH  76  79
ENDBRANCH  74  76
ENDBRANCH  72  74
ENDBRANCH  70  71
ENDBRANCH   1  69
TORSDOF 17
ENDMDL
MODEL 24
REMARK VINA RESULT:    -6.731      4.368     11.354
REMARK INTER + INTRA:         -26.625
REMARK INTER:                 -21.140
REMARK INTRA:                  -5.485
REMARK UNBOUND:                -6.514
REMARK SMILES C=C1C(=O)N[C@H](C)C(=O)N[C@@H](CC(C)C)C(=O)N[C@@H](C(=O)O)[C@H](C)C(=O)N[C@@H](CCCN=C(N)N)C(=O)N[C@@H](/C=C/C(C)=C/[C@H](C)[C@H](Cc2ccccc2)OC)[C@H](C)C(=O)N[C@@H](C(=O)O)CCC(=O)N1C
REMARK SMILES IDX 39 1 38 2 37 3 36 4 28 6 27 7 25 8 26 9 23 11 24 12 19 13
REMARK SMILES IDX 18 14 16 15 17 16 11 18 10 19 8 20 9 21 12 24 13 25 14 26
REMARK SMILES IDX 15 27 20 28 21 29 22 30 29 32 30 33 31 34 32 35 33 36 34 37
REMARK SMILES IDX 35 38 57 43 58 44 59 45 60 46 61 47 62 49 66 50 67 51 68 52
REMARK SMILES IDX 69 53 70 54 71 55 2 56 1 57 3 58 4 59 5 60 6 62 7 63 63 65
REMARK SMILES IDX 64 66 65 67 40 69 41 70 42 71 44 72 43 73 45 74 46 75 47 76
REMARK SMILES IDX 55 77 56 78 48 79 49 80 50 81 54 82 51 83 53 84 52 85
REMARK H PARENT 38 5 27 10 18 17 10 22 22 31 34 39 34 40 35 41 35 42 61 48
REMARK H PARENT 5 61 65 68
REMARK Flexibility Score:  369.900
ROOT
ATOM      1  C   UNL     1      -1.585   2.186  -5.417  1.00  0.00     0.117 C 
ENDROOT
BRANCH   1   2
ATOM      2  N   UNL     1      -2.950   1.894  -5.855  1.00  0.00    -0.347 N 
ATOM      3  O   UNL     1      -3.559   4.032  -6.429  1.00  0.00    -0.273 OA
ATOM      4  C   UNL     1      -3.800   2.829  -6.414  1.00  0.00     0.243 C 
ATOM      5  H   UNL     1      -3.296   0.948  -5.800  1.00  0.00     0.164 HD
BRANCH   4   6
ATOM      6  C   UNL     1      -5.159   2.242  -6.871  1.00  0.00     0.171 C 
BRANCH   6   7
ATOM      7  N   UNL     1      -6.098   2.177  -5.740  1.00  0.00    -0.344 N 
ATOM      8  C   UNL     1      -6.749   1.001  -5.434  1.00  0.00     0.226 C 
ATOM      9  O   UNL     1      -6.602  -0.025  -6.087  1.00  0.00    -0.275 OA
ATOM     10  H   UNL     1      -6.297   3.021  -5.218  1.00  0.00     0.164 HD
BRANCH   8  11
ATOM     11  C   UNL     1      -7.642   1.082  -4.208  1.00  0.00     0.109 C 
ATOM     12  C   UNL     1      -9.044   0.575  -4.544  1.00  0.00     0.021 C 
BRANCH  11  13
ATOM     13  C   UNL     1      -6.962   0.370  -3.021  1.00  0.00     0.204 C 
BRANCH  13  14
ATOM     14  N   UNL     1      -6.506  -0.978  -3.374  1.00  0.00    -0.340 N 
ATOM     15  C   UNL     1      -6.148  -1.918  -2.431  1.00  0.00     0.243 C 
ATOM     16  O   UNL     1      -6.244  -1.711  -1.223  1.00  0.00    -0.273 OA
ATOM     17  H   UNL     1      -6.260  -1.162  -4.350  1.00  0.00     0.164 HD
BRANCH  15  18
ATOM     18  C   UNL     1      -5.504  -3.188  -3.038  1.00  0.00     0.171 C 
BRANCH  18  19
ATOM     19  N   UNL     1      -6.000  -4.322  -2.260  1.00  0.00    -0.343 N 
ATOM     20  C   UNL     1      -5.184  -5.381  -1.913  1.00  0.00     0.242 CG0
ATOM     21  O   UNL     1      -4.042  -5.484  -2.354  1.00  0.00    -0.273 OA
ATOM     22  H   UNL     1      -6.971  -4.338  -1.969  1.00  0.00     0.164 HD
ATOM     23  G   UNL     1      -5.863  -6.444  -1.025  1.00  0.00     0.000 G0
ENDBRANCH  18  19
BRANCH  18  24
ATOM     24  C   UNL     1      -5.867  -3.324  -4.522  1.00  0.00     0.038 C 
BRANCH  24  25
ATOM     25  C   UNL     1      -4.657  -3.457  -5.471  1.00  0.00    -0.015 C 
ATOM     26  C   UNL     1      -3.500  -2.538  -5.078  1.00  0.00     0.007 C 
ATOM     27  C   UNL     1      -5.093  -3.151  -6.906  1.00  0.00     0.007 C 
ENDBRANCH  24  25
ENDBRANCH  18  24
ENDBRANCH  15  18
ENDBRANCH  13  14
BRANCH  13  28
ATOM     28  C   UNL     1      -5.750   1.131  -2.475  1.00  0.00     0.327 C 
ATOM     29  O   UNL     1      -4.697   1.330  -3.062  1.00  0.00    -0.250 OA
BRANCH  28  30
ATOM     30  O   UNL     1      -5.890   1.492  -1.183  1.00  0.00    -0.480 OA
ATOM     31  H   UNL     1      -6.251   2.402  -1.225  1.00  0.00     0.296 HD
ENDBRANCH  28  30
ENDBRANCH  13  28
ENDBRANCH  11  13
ENDBRANCH   8  11
ENDBRANCH   6   7
BRANCH   6  32
ATOM     32  C   UNL     1      -5.725   3.106  -8.004  1.00  0.00     0.037 C 
BRANCH  32  33
ATOM     33  C   UNL     1      -6.539   2.281  -9.010  1.00  0.00     0.026 C 
BRANCH  33  34
ATOM     34  C   UNL     1      -6.267   2.691 -10.458  1.00  0.00     0.146 C 
BRANCH  34  35
ATOM     35  N   UNL     1      -7.461   2.432 -11.252  1.00  0.00    -0.254 NA
ATOM     36  C   UNL     1      -8.208   3.421 -11.578  1.00  0.00     0.185 C 
ATOM     37  N   UNL     1      -9.307   3.195 -12.313  1.00  0.00    -0.370 N 
ATOM     38  N   UNL     1      -8.058   4.725 -11.286  1.00  0.00    -0.370 N 
ATOM     39  H   UNL     1      -9.484   2.235 -12.583  1.00  0.00     0.159 HD
ATOM     40  H   UNL     1      -9.842   3.924 -12.752  1.00  0.00     0.159 HD
ATOM     41  H   UNL     1      -8.789   5.389 -11.481  1.00  0.00     0.159 HD
ATOM     42  H   UNL     1      -7.282   5.039 -10.724  1.00  0.00     0.159 HD
ENDBRANCH  34  35
ENDBRANCH  33  34
ENDBRANCH  32  33
ENDBRANCH   6  32
ENDBRANCH   4   6
ENDBRANCH   1   2
BRANCH   1  43
ATOM     43  C   UNL     1      -0.635   1.099  -5.999  1.00  0.00     0.102 C 
ATOM     44  C   UNL     1       0.188   0.367  -4.925  1.00  0.00     0.020 C 
BRANCH  43  45
ATOM     45  C   UNL     1       0.204   1.660  -7.150  1.00  0.00     0.225 C 
ATOM     46  O   UNL     1      -0.246   2.425  -7.998  1.00  0.00    -0.275 OA
ATOM     47  N   UNL     1       1.491   1.178  -7.235  1.00  0.00    -0.342 N 
ATOM     48  H   UNL     1       1.889   0.676  -6.454  1.00  0.00     0.164 HD
BRANCH  47  49
ATOM     49  C   UNL     1       2.420   1.653  -8.264  1.00  0.00     0.192 C 
BRANCH  49  50
ATOM     50  C   UNL     1       2.818   0.489  -9.174  1.00  0.00     0.047 C 
BRANCH  50  51
ATOM     51  C   UNL     1       3.371   0.968 -10.524  1.00  0.00     0.103 C 
BRANCH  51  52
ATOM     52  C   UNL     1       4.779   0.437 -10.788  1.00  0.00     0.226 C 
ATOM     53  O   UNL     1       5.172  -0.570 -10.196  1.00  0.00    -0.275 OA
BRANCH  52  54
ATOM     54  N   UNL     1       5.527   1.109 -11.772  1.00  0.00    -0.311 N 
ATOM     55  C   UNL     1       4.925   1.475 -13.061  1.00  0.00     0.153 C 
BRANCH  54  56
ATOM     56  C   UNL     1       6.871   1.458 -11.559  1.00  0.00     0.102 C 
ATOM     57  C   UNL     1       7.286   2.506 -10.829  1.00  0.00     0.043 C 
BRANCH  56  58
ATOM     58  C   UNL     1       7.990   0.616 -12.125  1.00  0.00     0.268 C 
ATOM     59  O   UNL     1       8.245  -0.513 -11.728  1.00  0.00    -0.268 OA
ATOM     60  N   UNL     1       8.646   1.221 -13.170  1.00  0.00    -0.339 N 
ATOM     61  H   UNL     1       8.381   2.163 -13.432  1.00  0.00     0.164 HD
BRANCH  60  62
ATOM     62  C   UNL     1       9.722   0.556 -13.904  1.00  0.00     0.168 CG0
ATOM     63  C   UNL     1      11.008   1.372 -13.848  1.00  0.00     0.041 C 
ATOM     64  G   UNL     1       9.285   0.326 -15.366  1.00  0.00     0.000 G0
ENDBRANCH  60  62
ENDBRANCH  56  58
ENDBRANCH  54  56
ENDBRANCH  52  54
ENDBRANCH  51  52
ENDBRANCH  50  51
ENDBRANCH  49  50
BRANCH  49  65
ATOM     65  C   UNL     1       3.684   2.270  -7.645  1.00  0.00     0.326 C 
ATOM     66  O   UNL     1       4.741   1.685  -7.456  1.00  0.00    -0.250 OA
BRANCH  65  67
ATOM     67  O   UNL     1       3.546   3.552  -7.241  1.00  0.00    -0.480 OA
ATOM     68  H   UNL     1       3.722   3.512  -6.276  1.00  0.00     0.296 HD
ENDBRANCH  65  67
ENDBRANCH  49  65
ENDBRANCH  47  49
ENDBRANCH  43  45
ENDBRANCH   1  43
BRANCH   1  69
ATOM     69  C   UNL     1      -1.653   2.372  -3.912  1.00  0.00    -0.001 C 
ATOM     70  C   UNL     1      -1.400   3.494  -3.215  1.00  0.00     0.001 C 
BRANCH  70  71
ATOM     71  C   UNL     1      -1.489   3.667  -1.764  1.00  0.00    -0.055 C 
ATOM     72  C   UNL     1      -0.340   3.861  -1.083  1.00  0.00    -0.018 C 
ATOM     73  C   UNL     1      -2.857   3.624  -1.135  1.00  0.00     0.044 C 
BRANCH  72  74
ATOM     74  C   UNL     1      -0.129   4.071   0.409  1.00  0.00     0.038 C 
ATOM     75  C   UNL     1      -0.382   5.556   0.698  1.00  0.00     0.015 C 
BRANCH  74  76
ATOM     76  C   UNL     1       1.293   3.564   0.790  1.00  0.00     0.128 C 
BRANCH  76  77
ATOM     77  O   UNL     1       1.205   2.623   1.873  1.00  0.00    -0.381 OA
ATOM     78  C   UNL     1       1.276   3.224   3.159  1.00  0.00     0.195 C 
ENDBRANCH  76  77
BRANCH  76  79
ATOM     79  C   UNL     1       2.111   3.023  -0.410  1.00  0.00     0.068 C 
BRANCH  79  80
ATOM     80  C   UNL     1       3.475   2.440  -0.130  1.00  0.00    -0.045 A 
ATOM     81  C   UNL     1       3.726   1.073  -0.306  1.00  0.00     0.004 A 
ATOM     82  C   UNL     1       4.512   3.260   0.340  1.00  0.00     0.004 A 
ATOM     83  C   UNL     1       4.986   0.539  -0.032  1.00  0.00     0.000 A 
ATOM     84  C   UNL     1       5.772   2.725   0.615  1.00  0.00     0.000 A 
ATOM     85  C   UNL     1       6.010   1.366   0.427  1.00  0.00     0.000 A 
ENDBRANCH  79  80
ENDBRANCH  76  79
ENDBRANCH  74  76
ENDBRANCH  72  74
ENDBRANCH  70  71
ENDBRANCH   1  69
TORSDOF 17
ENDMDL
MODEL 25
REMARK VINA RESULT:    -6.719      4.758     10.629
REMARK INTER + INTRA:         -26.589
REMARK INTER:                 -21.030
REMARK INTRA:                  -5.559
REMARK UNBOUND:                -6.514
REMARK SMILES C=C1C(=O)N[C@H](C)C(=O)N[C@@H](CC(C)C)C(=O)N[C@@H](C(=O)O)[C@H](C)C(=O)N[C@@H](CCCN=C(N)N)C(=O)N[C@@H](/C=C/C(C)=C/[C@H](C)[C@H](Cc2ccccc2)OC)[C@H](C)C(=O)N[C@@H](C(=O)O)CCC(=O)N1C
REMARK SMILES IDX 39 1 38 2 37 3 36 4 28 6 27 7 25 8 26 9 23 11 24 12 19 13
REMARK SMILES IDX 18 14 16 15 17 16 11 18 10 19 8 20 9 21 12 24 13 25 14 26
REMARK SMILES IDX 15 27 20 28 21 29 22 30 29 32 30 33 31 34 32 35 33 36 34 37
REMARK SMILES IDX 35 38 57 43 58 44 59 45 60 46 61 47 62 49 66 50 67 51 68 52
REMARK SMILES IDX 69 53 70 54 71 55 2 56 1 57 3 58 4 59 5 60 6 62 7 63 63 65
REMARK SMILES IDX 64 66 65 67 40 69 41 70 42 71 44 72 43 73 45 74 46 75 47 76
REMARK SMILES IDX 55 77 56 78 48 79 49 80 50 81 54 82 51 83 53 84 52 85
REMARK H PARENT 38 5 27 10 18 17 10 22 22 31 34 39 34 40 35 41 35 42 61 48
REMARK H PARENT 5 61 65 68
REMARK Flexibility Score:  369.900
ROOT
ATOM      1  C   UNL     1      -1.419   3.242  -5.893  1.00  0.00     0.117 C 
ENDROOT
BRANCH   1   2
ATOM      2  N   UNL     1      -1.484   2.385  -4.708  1.00  0.00    -0.347 N 
ATOM      3  O   UNL     1      -0.946   3.976  -3.143  1.00  0.00    -0.273 OA
ATOM      4  C   UNL     1      -1.331   2.843  -3.414  1.00  0.00     0.243 C 
ATOM      5  H   UNL     1      -1.701   1.406  -4.817  1.00  0.00     0.164 HD
BRANCH   4   6
ATOM      6  C   UNL     1      -1.532   1.747  -2.337  1.00  0.00     0.171 C 
BRANCH   6   7
ATOM      7  N   UNL     1      -2.800   1.033  -2.560  1.00  0.00    -0.344 N 
ATOM      8  C   UNL     1      -3.994   1.573  -2.135  1.00  0.00     0.226 C 
ATOM      9  O   UNL     1      -4.061   2.643  -1.541  1.00  0.00    -0.275 OA
ATOM     10  H   UNL     1      -2.778   0.116  -2.987  1.00  0.00     0.164 HD
BRANCH   8  11
ATOM     11  C   UNL     1      -5.216   0.743  -2.487  1.00  0.00     0.109 C 
ATOM     12  C   UNL     1      -5.157   0.316  -3.954  1.00  0.00     0.021 C 
BRANCH  11  13
ATOM     13  C   UNL     1      -5.368  -0.414  -1.480  1.00  0.00     0.204 C 
BRANCH  13  14
ATOM     14  N   UNL     1      -5.364  -1.724  -2.140  1.00  0.00    -0.340 N 
ATOM     15  C   UNL     1      -6.146  -2.777  -1.718  1.00  0.00     0.243 C 
ATOM     16  O   UNL     1      -6.950  -2.674  -0.793  1.00  0.00    -0.273 OA
ATOM     17  H   UNL     1      -4.616  -1.921  -2.810  1.00  0.00     0.164 HD
BRANCH  15  18
ATOM     18  C   UNL     1      -5.821  -4.113  -2.431  1.00  0.00     0.171 C 
BRANCH  18  19
ATOM     19  N   UNL     1      -5.763  -5.139  -1.391  1.00  0.00    -0.343 N 
ATOM     20  C   UNL     1      -4.621  -5.884  -1.167  1.00  0.00     0.242 CG0
ATOM     21  O   UNL     1      -3.649  -5.814  -1.914  1.00  0.00    -0.273 OA
ATOM     22  H   UNL     1      -6.582  -5.316  -0.821  1.00  0.00     0.164 HD
ATOM     23  G   UNL     1      -4.724  -6.862   0.023  1.00  0.00     0.000 G0
ENDBRANCH  18  19
BRANCH  18  24
ATOM     24  C   UNL     1      -6.888  -4.439  -3.483  1.00  0.00     0.038 C 
BRANCH  24  25
ATOM     25  C   UNL     1      -6.348  -4.607  -4.919  1.00  0.00    -0.015 C 
ATOM     26  C   UNL     1      -5.188  -5.601  -4.995  1.00  0.00     0.007 C 
ATOM     27  C   UNL     1      -5.899  -3.248  -5.462  1.00  0.00     0.007 C 
ENDBRANCH  24  25
ENDBRANCH  18  24
ENDBRANCH  15  18
ENDBRANCH  13  14
BRANCH  13  28
ATOM     28  C   UNL     1      -4.266  -0.438  -0.417  1.00  0.00     0.327 C 
ATOM     29  O   UNL     1      -4.262   0.185   0.634  1.00  0.00    -0.250 OA
BRANCH  28  30
ATOM     30  O   UNL     1      -3.184  -1.150  -0.792  1.00  0.00    -0.480 OA
ATOM     31  H   UNL     1      -2.492  -0.895  -0.148  1.00  0.00     0.296 HD
ENDBRANCH  28  30
ENDBRANCH  13  28
ENDBRANCH  11  13
ENDBRANCH   8  11
ENDBRANCH   6   7
BRANCH   6  32
ATOM     32  C   UNL     1      -0.345   0.779  -2.377  1.00  0.00     0.037 C 
BRANCH  32  33
ATOM     33  C   UNL     1       0.793   1.218  -1.445  1.00  0.00     0.026 C 
BRANCH  33  34
ATOM     34  C   UNL     1       1.066   0.202  -0.335  1.00  0.00     0.146 C 
BRANCH  34  35
ATOM     35  N   UNL     1       0.086   0.391   0.726  1.00  0.00    -0.254 NA
ATOM     36  C   UNL     1      -0.643  -0.603   1.072  1.00  0.00     0.185 C 
ATOM     37  N   UNL     1      -1.546  -0.442   2.052  1.00  0.00    -0.370 N 
ATOM     38  N   UNL     1      -0.651  -1.856   0.584  1.00  0.00    -0.370 N 
ATOM     39  H   UNL     1      -1.594   0.474   2.479  1.00  0.00     0.159 HD
ATOM     40  H   UNL     1      -2.027  -1.205   2.496  1.00  0.00     0.159 HD
ATOM     41  H   UNL     1      -1.369  -2.512   0.843  1.00  0.00     0.159 HD
ATOM     42  H   UNL     1      -0.033  -2.117  -0.170  1.00  0.00     0.159 HD
ENDBRANCH  34  35
ENDBRANCH  33  34
ENDBRANCH  32  33
ENDBRANCH   6  32
ENDBRANCH   4   6
ENDBRANCH   1   2
BRANCH   1  43
ATOM     43  C   UNL     1      -2.870   3.559  -6.355  1.00  0.00     0.102 C 
ATOM     44  C   UNL     1      -3.790   2.326  -6.375  1.00  0.00     0.020 C 
BRANCH  43  45
ATOM     45  C   UNL     1      -2.869   4.354  -7.664  1.00  0.00     0.225 C 
ATOM     46  O   UNL     1      -2.378   3.930  -8.706  1.00  0.00    -0.275 OA
ATOM     47  N   UNL     1      -3.376   5.631  -7.582  1.00  0.00    -0.342 N 
ATOM     48  H   UNL     1      -3.908   5.907  -6.769  1.00  0.00     0.164 HD
BRANCH  47  49
ATOM     49  C   UNL     1      -3.471   6.495  -8.762  1.00  0.00     0.192 C 
BRANCH  49  50
ATOM     50  C   UNL     1      -3.841   7.917  -8.331  1.00  0.00     0.047 C 
BRANCH  50  51
ATOM     51  C   UNL     1      -4.270   7.985  -6.859  1.00  0.00     0.103 C 
BRANCH  51  52
ATOM     52  C   UNL     1      -5.023   9.276  -6.541  1.00  0.00     0.226 C 
ATOM     53  O   UNL     1      -4.398  10.331  -6.416  1.00  0.00    -0.275 OA
BRANCH  52  54
ATOM     54  N   UNL     1      -6.426   9.185  -6.483  1.00  0.00    -0.311 N 
ATOM     55  C   UNL     1      -7.121   9.027  -5.199  1.00  0.00     0.153 C 
BRANCH  54  56
ATOM     56  C   UNL     1      -7.212   9.248  -7.645  1.00  0.00     0.102 C 
ATOM     57  C   UNL     1      -8.030   8.273  -8.073  1.00  0.00     0.043 C 
BRANCH  56  58
ATOM     58  C   UNL     1      -7.226  10.489  -8.506  1.00  0.00     0.268 C 
ATOM     59  O   UNL     1      -7.587  11.584  -8.096  1.00  0.00    -0.268 OA
ATOM     60  N   UNL     1      -6.730  10.276  -9.770  1.00  0.00    -0.339 N 
ATOM     61  H   UNL     1      -6.461   9.336 -10.035  1.00  0.00     0.164 HD
BRANCH  60  62
ATOM     62  C   UNL     1      -6.594  11.356 -10.746  1.00  0.00     0.168 CG0
ATOM     63  C   UNL     1      -5.141  11.791 -10.882  1.00  0.00     0.041 C 
ATOM     64  G   UNL     1      -7.483  12.545 -10.328  1.00  0.00     0.000 G0
ENDBRANCH  60  62
ENDBRANCH  56  58
ENDBRANCH  54  56
ENDBRANCH  52  54
ENDBRANCH  51  52
ENDBRANCH  50  51
ENDBRANCH  49  50
BRANCH  49  65
ATOM     65  C   UNL     1      -4.518   5.977  -9.761  1.00  0.00     0.326 C 
ATOM     66  O   UNL     1      -5.731   6.054  -9.622  1.00  0.00    -0.250 OA
BRANCH  65  67
ATOM     67  O   UNL     1      -4.005   5.344 -10.839  1.00  0.00    -0.480 OA
ATOM     68  H   UNL     1      -3.682   4.492 -10.474  1.00  0.00     0.296 HD
ENDBRANCH  65  67
ENDBRANCH  49  65
ENDBRANCH  47  49
ENDBRANCH  43  45
ENDBRANCH   1  43
BRANCH   1  69
ATOM     69  C   UNL     1      -0.475   2.553  -6.862  1.00  0.00    -0.001 C 
ATOM     70  C   UNL     1       0.406   1.574  -6.589  1.00  0.00     0.001 C 
BRANCH  70  71
ATOM     71  C   UNL     1       1.297   0.903  -7.537  1.00  0.00    -0.055 C 
ATOM     72  C   UNL     1       2.582   1.312  -7.589  1.00  0.00    -0.018 C 
ATOM     73  C   UNL     1       0.719  -0.203  -8.381  1.00  0.00     0.044 C 
BRANCH  72  74
ATOM     74  C   UNL     1       3.720   0.804  -8.462  1.00  0.00     0.038 C 
ATOM     75  C   UNL     1       4.922   0.558  -7.541  1.00  0.00     0.015 C 
BRANCH  74  76
ATOM     76  C   UNL     1       3.973   1.832  -9.604  1.00  0.00     0.128 C 
BRANCH  76  77
ATOM     77  O   UNL     1       5.353   1.792 -10.004  1.00  0.00    -0.381 OA
ATOM     78  C   UNL     1       5.869   3.055 -10.403  1.00  0.00     0.195 C 
ENDBRANCH  76  77
BRANCH  76  79
ATOM     79  C   UNL     1       2.998   1.696 -10.800  1.00  0.00     0.068 C 
BRANCH  79  80
ATOM     80  C   UNL     1       1.948   2.765 -10.982  1.00  0.00    -0.045 A 
ATOM     81  C   UNL     1       2.308   4.108 -11.160  1.00  0.00     0.004 A 
ATOM     82  C   UNL     1       0.585   2.432 -10.946  1.00  0.00     0.004 A 
ATOM     83  C   UNL     1       1.330   5.093 -11.313  1.00  0.00     0.000 A 
ATOM     84  C   UNL     1      -0.392   3.418 -11.099  1.00  0.00     0.000 A 
ATOM     85  C   UNL     1      -0.019   4.748 -11.284  1.00  0.00     0.000 A 
ENDBRANCH  79  80
ENDBRANCH  76  79
ENDBRANCH  74  76
ENDBRANCH  72  74
ENDBRANCH  70  71
ENDBRANCH   1  69
TORSDOF 17
ENDMDL
MODEL 26
REMARK VINA RESULT:    -6.704      6.715     13.591
REMARK INTER + INTRA:         -26.544
REMARK INTER:                 -19.782
REMARK INTRA:                  -6.762
REMARK UNBOUND:                -6.514
REMARK SMILES C=C1C(=O)N[C@H](C)C(=O)N[C@@H](CC(C)C)C(=O)N[C@@H](C(=O)O)[C@H](C)C(=O)N[C@@H](CCCN=C(N)N)C(=O)N[C@@H](/C=C/C(C)=C/[C@H](C)[C@H](Cc2ccccc2)OC)[C@H](C)C(=O)N[C@@H](C(=O)O)CCC(=O)N1C
REMARK SMILES IDX 39 1 38 2 37 3 36 4 28 6 27 7 25 8 26 9 23 11 24 12 19 13
REMARK SMILES IDX 18 14 16 15 17 16 11 18 10 19 8 20 9 21 12 24 13 25 14 26
REMARK SMILES IDX 15 27 20 28 21 29 22 30 29 32 30 33 31 34 32 35 33 36 34 37
REMARK SMILES IDX 35 38 57 43 58 44 59 45 60 46 61 47 62 49 66 50 67 51 68 52
REMARK SMILES IDX 69 53 70 54 71 55 2 56 1 57 3 58 4 59 5 60 6 62 7 63 63 65
REMARK SMILES IDX 64 66 65 67 40 69 41 70 42 71 44 72 43 73 45 74 46 75 47 76
REMARK SMILES IDX 55 77 56 78 48 79 49 80 50 81 54 82 51 83 53 84 52 85
REMARK H PARENT 38 5 27 10 18 17 10 22 22 31 34 39 34 40 35 41 35 42 61 48
REMARK H PARENT 5 61 65 68
REMARK Flexibility Score:  369.900
ROOT
ATOM      1  C   UNL     1      -1.858  -0.332  -0.981  1.00  0.00     0.117 C 
ENDROOT
BRANCH   1   2
ATOM      2  N   UNL     1      -2.646   0.564  -0.134  1.00  0.00    -0.347 N 
ATOM      3  O   UNL     1      -2.079  -0.344   1.896  1.00  0.00    -0.273 OA
ATOM      4  C   UNL     1      -2.621   0.544   1.247  1.00  0.00     0.243 C 
ATOM      5  H   UNL     1      -3.210   1.281  -0.564  1.00  0.00     0.164 HD
BRANCH   4   6
ATOM      6  C   UNL     1      -3.480   1.655   1.902  1.00  0.00     0.171 C 
BRANCH   6   7
ATOM      7  N   UNL     1      -4.422   1.073   2.871  1.00  0.00    -0.344 N 
ATOM      8  C   UNL     1      -5.783   1.204   2.694  1.00  0.00     0.226 C 
ATOM      9  O   UNL     1      -6.270   1.819   1.752  1.00  0.00    -0.275 OA
ATOM     10  H   UNL     1      -4.057   0.616   3.697  1.00  0.00     0.164 HD
BRANCH   8  11
ATOM     11  C   UNL     1      -6.621   0.502   3.747  1.00  0.00     0.109 C 
ATOM     12  C   UNL     1      -8.057   1.026   3.711  1.00  0.00     0.021 C 
BRANCH  11  13
ATOM     13  C   UNL     1      -6.484  -1.025   3.591  1.00  0.00     0.204 C 
BRANCH  13  14
ATOM     14  N   UNL     1      -6.059  -1.672   4.836  1.00  0.00    -0.340 N 
ATOM     15  C   UNL     1      -4.736  -1.796   5.201  1.00  0.00     0.243 C 
ATOM     16  O   UNL     1      -3.819  -1.318   4.536  1.00  0.00    -0.273 OA
ATOM     17  H   UNL     1      -6.752  -2.219   5.354  1.00  0.00     0.164 HD
BRANCH  15  18
ATOM     18  C   UNL     1      -4.519  -2.693   6.445  1.00  0.00     0.171 C 
BRANCH  18  19
ATOM     19  N   UNL     1      -3.122  -2.530   6.840  1.00  0.00    -0.343 N 
ATOM     20  C   UNL     1      -2.418  -3.541   7.466  1.00  0.00     0.242 CG0
ATOM     21  O   UNL     1      -2.971  -4.574   7.838  1.00  0.00    -0.273 OA
ATOM     22  H   UNL     1      -2.653  -1.649   6.658  1.00  0.00     0.164 HD
ATOM     23  G   UNL     1      -0.935  -3.213   7.735  1.00  0.00     0.000 G0
ENDBRANCH  18  19
BRANCH  18  24
ATOM     24  C   UNL     1      -5.474  -2.290   7.576  1.00  0.00     0.038 C 
BRANCH  24  25
ATOM     25  C   UNL     1      -5.042  -1.039   8.370  1.00  0.00    -0.015 C 
ATOM     26  C   UNL     1      -4.907  -1.314   9.868  1.00  0.00     0.007 C 
ATOM     27  C   UNL     1      -6.051   0.089   8.142  1.00  0.00     0.007 C 
ENDBRANCH  24  25
ENDBRANCH  18  24
ENDBRANCH  15  18
ENDBRANCH  13  14
BRANCH  13  28
ATOM     28  C   UNL     1      -7.782  -1.706   3.146  1.00  0.00     0.327 C 
ATOM     29  O   UNL     1      -8.717  -2.019   3.867  1.00  0.00    -0.250 OA
BRANCH  28  30
ATOM     30  O   UNL     1      -7.776  -2.057   1.844  1.00  0.00    -0.480 OA
ATOM     31  H   UNL     1      -7.937  -3.024   1.855  1.00  0.00     0.296 HD
ENDBRANCH  28  30
ENDBRANCH  13  28
ENDBRANCH  11  13
ENDBRANCH   8  11
ENDBRANCH   6   7
BRANCH   6  32
ATOM     32  C   UNL     1      -2.555   2.672   2.581  1.00  0.00     0.037 C 
BRANCH  32  33
ATOM     33  C   UNL     1      -1.428   3.141   1.651  1.00  0.00     0.026 C 
BRANCH  33  34
ATOM     34  C   UNL     1      -0.321   3.884   2.401  1.00  0.00     0.146 C 
BRANCH  34  35
ATOM     35  N   UNL     1       0.150   4.985   1.573  1.00  0.00    -0.254 NA
ATOM     36  C   UNL     1      -0.307   6.161   1.796  1.00  0.00     0.185 C 
ATOM     37  N   UNL     1       0.125   7.184   1.042  1.00  0.00    -0.370 N 
ATOM     38  N   UNL     1      -1.201   6.559   2.718  1.00  0.00    -0.370 N 
ATOM     39  H   UNL     1       0.810   6.966   0.330  1.00  0.00     0.159 HD
ATOM     40  H   UNL     1      -0.049   8.149   1.263  1.00  0.00     0.159 HD
ATOM     41  H   UNL     1      -1.586   7.489   2.703  1.00  0.00     0.159 HD
ATOM     42  H   UNL     1      -1.622   5.891   3.345  1.00  0.00     0.159 HD
ENDBRANCH  34  35
ENDBRANCH  33  34
ENDBRANCH  32  33
ENDBRANCH   6  32
ENDBRANCH   4   6
ENDBRANCH   1   2
BRANCH   1  43
ATOM     43  C   UNL     1      -0.957   0.530  -1.912  1.00  0.00     0.102 C 
ATOM     44  C   UNL     1       0.405   0.882  -1.290  1.00  0.00     0.020 C 
BRANCH  43  45
ATOM     45  C   UNL     1      -1.724   1.740  -2.453  1.00  0.00     0.225 C 
ATOM     46  O   UNL     1      -2.910   1.697  -2.765  1.00  0.00    -0.275 OA
ATOM     47  N   UNL     1      -0.972   2.873  -2.662  1.00  0.00    -0.342 N 
ATOM     48  H   UNL     1      -0.046   2.939  -2.263  1.00  0.00     0.164 HD
BRANCH  47  49
ATOM     49  C   UNL     1      -1.579   4.118  -3.143  1.00  0.00     0.192 C 
BRANCH  49  50
ATOM     50  C   UNL     1      -1.322   4.268  -4.645  1.00  0.00     0.047 C 
BRANCH  50  51
ATOM     51  C   UNL     1      -2.606   4.576  -5.427  1.00  0.00     0.103 C 
BRANCH  51  52
ATOM     52  C   UNL     1      -2.528   4.089  -6.873  1.00  0.00     0.226 C 
ATOM     53  O   UNL     1      -1.746   3.185  -7.171  1.00  0.00    -0.275 OA
BRANCH  52  54
ATOM     54  N   UNL     1      -3.433   4.672  -7.780  1.00  0.00    -0.311 N 
ATOM     55  C   UNL     1      -4.769   4.098  -7.988  1.00  0.00     0.153 C 
BRANCH  54  56
ATOM     56  C   UNL     1      -3.097   5.822  -8.513  1.00  0.00     0.102 C 
ATOM     57  C   UNL     1      -3.415   7.078  -8.160  1.00  0.00     0.043 C 
BRANCH  56  58
ATOM     58  C   UNL     1      -2.280   5.722  -9.780  1.00  0.00     0.268 C 
ATOM     59  O   UNL     1      -2.591   5.005 -10.722  1.00  0.00    -0.268 OA
ATOM     60  N   UNL     1      -1.195   6.565  -9.791  1.00  0.00    -0.339 N 
ATOM     61  H   UNL     1      -1.001   7.120  -8.966  1.00  0.00     0.164 HD
BRANCH  60  62
ATOM     62  C   UNL     1      -0.305   6.674 -10.947  1.00  0.00     0.168 CG0
ATOM     63  C   UNL     1      -1.023   7.310 -12.131  1.00  0.00     0.041 C 
ATOM     64  G   UNL     1       0.232   5.277 -11.319  1.00  0.00     0.000 G0
ENDBRANCH  60  62
ENDBRANCH  56  58
ENDBRANCH  54  56
ENDBRANCH  52  54
ENDBRANCH  51  52
ENDBRANCH  50  51
ENDBRANCH  49  50
BRANCH  49  65
ATOM     65  C   UNL     1      -1.018   5.344  -2.406  1.00  0.00     0.326 C 
ATOM     66  O   UNL     1      -1.462   5.813  -1.368  1.00  0.00    -0.250 OA
BRANCH  65  67
ATOM     67  O   UNL     1       0.018   5.950  -3.027  1.00  0.00    -0.480 OA
ATOM     68  H   UNL     1      -0.389   6.743  -3.437  1.00  0.00     0.296 HD
ENDBRANCH  65  67
ENDBRANCH  49  65
ENDBRANCH  47  49
ENDBRANCH  43  45
ENDBRANCH   1  43
BRANCH   1  69
ATOM     69  C   UNL     1      -2.845  -1.300  -1.607  1.00  0.00    -0.001 C 
ATOM     70  C   UNL     1      -4.187  -1.267  -1.523  1.00  0.00     0.001 C 
BRANCH  70  71
ATOM     71  C   UNL     1      -5.131  -2.194  -2.150  1.00  0.00    -0.055 C 
ATOM     72  C   UNL     1      -4.730  -3.470  -2.332  1.00  0.00    -0.018 C 
ATOM     73  C   UNL     1      -6.485  -1.662  -2.540  1.00  0.00     0.044 C 
BRANCH  72  74
ATOM     74  C   UNL     1      -5.487  -4.639  -2.946  1.00  0.00     0.038 C 
ATOM     75  C   UNL     1      -5.524  -5.756  -1.896  1.00  0.00     0.015 C 
BRANCH  74  76
ATOM     76  C   UNL     1      -4.803  -5.029  -4.290  1.00  0.00     0.128 C 
BRANCH  76  77
ATOM     77  O   UNL     1      -5.246  -6.331  -4.707  1.00  0.00    -0.381 OA
ATOM     78  C   UNL     1      -4.398  -6.942  -5.669  1.00  0.00     0.195 C 
ENDBRANCH  76  77
BRANCH  76  79
ATOM     79  C   UNL     1      -4.949  -3.961  -5.403  1.00  0.00     0.068 C 
BRANCH  79  80
ATOM     80  C   UNL     1      -4.012  -2.778  -5.375  1.00  0.00    -0.045 A 
ATOM     81  C   UNL     1      -4.470  -1.487  -5.673  1.00  0.00     0.004 A 
ATOM     82  C   UNL     1      -2.654  -2.958  -5.075  1.00  0.00     0.004 A 
ATOM     83  C   UNL     1      -3.594  -0.400  -5.658  1.00  0.00     0.000 A 
ATOM     84  C   UNL     1      -1.778  -1.870  -5.062  1.00  0.00     0.000 A 
ATOM     85  C   UNL     1      -2.249  -0.591  -5.352  1.00  0.00     0.000 A 
ENDBRANCH  79  80
ENDBRANCH  76  79
ENDBRANCH  74  76
ENDBRANCH  72  74
ENDBRANCH  70  71
ENDBRANCH   1  69
TORSDOF 17
ENDMDL
MODEL 27
REMARK VINA RESULT:    -6.695      7.413     13.848
REMARK INTER + INTRA:         -26.517
REMARK INTER:                 -20.483
REMARK INTRA:                  -6.034
REMARK UNBOUND:                -6.514
REMARK SMILES C=C1C(=O)N[C@H](C)C(=O)N[C@@H](CC(C)C)C(=O)N[C@@H](C(=O)O)[C@H](C)C(=O)N[C@@H](CCCN=C(N)N)C(=O)N[C@@H](/C=C/C(C)=C/[C@H](C)[C@H](Cc2ccccc2)OC)[C@H](C)C(=O)N[C@@H](C(=O)O)CCC(=O)N1C
REMARK SMILES IDX 39 1 38 2 37 3 36 4 28 6 27 7 25 8 26 9 23 11 24 12 19 13
REMARK SMILES IDX 18 14 16 15 17 16 11 18 10 19 8 20 9 21 12 24 13 25 14 26
REMARK SMILES IDX 15 27 20 28 21 29 22 30 29 32 30 33 31 34 32 35 33 36 34 37
REMARK SMILES IDX 35 38 57 43 58 44 59 45 60 46 61 47 62 49 66 50 67 51 68 52
REMARK SMILES IDX 69 53 70 54 71 55 2 56 1 57 3 58 4 59 5 60 6 62 7 63 63 65
REMARK SMILES IDX 64 66 65 67 40 69 41 70 42 71 44 72 43 73 45 74 46 75 47 76
REMARK SMILES IDX 55 77 56 78 48 79 49 80 50 81 54 82 51 83 53 84 52 85
REMARK H PARENT 38 5 27 10 18 17 10 22 22 31 34 39 34 40 35 41 35 42 61 48
REMARK H PARENT 5 61 65 68
REMARK Flexibility Score:  369.900
ROOT
ATOM      1  C   UNL     1       5.032   3.283   0.130  1.00  0.00     0.117 C 
ENDROOT
BRANCH   1   2
ATOM      2  N   UNL     1       3.787   2.534   0.305  1.00  0.00    -0.347 N 
ATOM      3  O   UNL     1       2.389   3.988  -0.791  1.00  0.00    -0.273 OA
ATOM      4  C   UNL     1       2.577   2.903  -0.251  1.00  0.00     0.243 C 
ATOM      5  H   UNL     1       3.801   1.666   0.818  1.00  0.00     0.164 HD
BRANCH   4   6
ATOM      6  C   UNL     1       1.434   1.891   0.015  1.00  0.00     0.171 C 
BRANCH   6   7
ATOM      7  N   UNL     1       0.145   2.442  -0.430  1.00  0.00    -0.344 N 
ATOM      8  C   UNL     1      -0.775   2.906   0.485  1.00  0.00     0.226 C 
ATOM      9  O   UNL     1      -0.582   2.864   1.694  1.00  0.00    -0.275 OA
ATOM     10  H   UNL     1      -0.079   2.432  -1.418  1.00  0.00     0.164 HD
BRANCH   8  11
ATOM     11  C   UNL     1      -2.031   3.494  -0.134  1.00  0.00     0.109 C 
ATOM     12  C   UNL     1      -1.712   4.094  -1.503  1.00  0.00     0.021 C 
BRANCH  11  13
ATOM     13  C   UNL     1      -3.155   2.438  -0.134  1.00  0.00     0.204 C 
BRANCH  13  14
ATOM     14  N   UNL     1      -2.914   1.376  -1.116  1.00  0.00    -0.340 N 
ATOM     15  C   UNL     1      -3.813   1.056  -2.109  1.00  0.00     0.243 C 
ATOM     16  O   UNL     1      -4.858   1.682  -2.280  1.00  0.00    -0.273 OA
ATOM     17  H   UNL     1      -2.144   0.724  -0.938  1.00  0.00     0.164 HD
BRANCH  15  18
ATOM     18  C   UNL     1      -3.441  -0.228  -2.891  1.00  0.00     0.171 C 
BRANCH  18  19
ATOM     19  N   UNL     1      -4.602  -1.113  -2.818  1.00  0.00    -0.343 N 
ATOM     20  C   UNL     1      -4.586  -2.275  -2.071  1.00  0.00     0.242 CG0
ATOM     21  O   UNL     1      -3.556  -2.687  -1.543  1.00  0.00    -0.273 OA
ATOM     22  H   UNL     1      -5.442  -0.875  -3.333  1.00  0.00     0.164 HD
ATOM     23  G   UNL     1      -5.927  -3.038  -2.052  1.00  0.00     0.000 G0
ENDBRANCH  18  19
BRANCH  18  24
ATOM     24  C   UNL     1      -3.081   0.108  -4.343  1.00  0.00     0.038 C 
BRANCH  24  25
ATOM     25  C   UNL     1      -1.615   0.541  -4.560  1.00  0.00    -0.015 C 
ATOM     26  C   UNL     1      -1.476   2.048  -4.776  1.00  0.00     0.007 C 
ATOM     27  C   UNL     1      -1.029  -0.208  -5.759  1.00  0.00     0.007 C 
ENDBRANCH  24  25
ENDBRANCH  18  24
ENDBRANCH  15  18
ENDBRANCH  13  14
BRANCH  13  28
ATOM     28  C   UNL     1      -3.350   1.763   1.227  1.00  0.00     0.327 C 
ATOM     29  O   UNL     1      -3.426   0.562   1.433  1.00  0.00    -0.250 OA
BRANCH  28  30
ATOM     30  O   UNL     1      -3.557   2.642   2.228  1.00  0.00    -0.480 OA
ATOM     31  H   UNL     1      -4.456   2.993   2.059  1.00  0.00     0.296 HD
ENDBRANCH  28  30
ENDBRANCH  13  28
ENDBRANCH  11  13
ENDBRANCH   8  11
ENDBRANCH   6   7
BRANCH   6  32
ATOM     32  C   UNL     1       1.747   0.577  -0.709  1.00  0.00     0.037 C 
BRANCH  32  33
ATOM     33  C   UNL     1       0.702   0.245  -1.784  1.00  0.00     0.026 C 
BRANCH  33  34
ATOM     34  C   UNL     1      -0.253  -0.867  -1.347  1.00  0.00     0.146 C 
BRANCH  34  35
ATOM     35  N   UNL     1      -0.702  -0.594   0.011  1.00  0.00    -0.254 NA
ATOM     36  C   UNL     1      -0.670  -1.543   0.871  1.00  0.00     0.185 C 
ATOM     37  N   UNL     1      -1.077  -1.302   2.127  1.00  0.00    -0.370 N 
ATOM     38  N   UNL     1      -0.271  -2.817   0.709  1.00  0.00    -0.370 N 
ATOM     39  H   UNL     1      -1.384  -0.359   2.331  1.00  0.00     0.159 HD
ATOM     40  H   UNL     1      -0.922  -1.934   2.893  1.00  0.00     0.159 HD
ATOM     41  H   UNL     1      -0.425  -3.507   1.426  1.00  0.00     0.159 HD
ATOM     42  H   UNL     1       0.046  -3.145  -0.191  1.00  0.00     0.159 HD
ENDBRANCH  34  35
ENDBRANCH  33  34
ENDBRANCH  32  33
ENDBRANCH   6  32
ENDBRANCH   4   6
ENDBRANCH   1   2
BRANCH   1  43
ATOM     43  C   UNL     1       6.050   2.382  -0.627  1.00  0.00     0.102 C 
ATOM     44  C   UNL     1       6.194   0.977  -0.017  1.00  0.00     0.020 C 
BRANCH  43  45
ATOM     45  C   UNL     1       7.382   3.110  -0.832  1.00  0.00     0.225 C 
ATOM     46  O   UNL     1       7.601   4.241  -0.408  1.00  0.00    -0.275 OA
ATOM     47  N   UNL     1       8.303   2.450  -1.614  1.00  0.00    -0.342 N 
ATOM     48  H   UNL     1       8.170   1.471  -1.825  1.00  0.00     0.164 HD
BRANCH  47  49
ATOM     49  C   UNL     1       9.634   3.010  -1.867  1.00  0.00     0.192 C 
BRANCH  49  50
ATOM     50  C   UNL     1      10.137   2.543  -3.235  1.00  0.00     0.047 C 
BRANCH  50  51
ATOM     51  C   UNL     1       9.734   3.503  -4.362  1.00  0.00     0.103 C 
BRANCH  51  52
ATOM     52  C   UNL     1      10.259   4.918  -4.125  1.00  0.00     0.226 C 
ATOM     53  O   UNL     1       9.472   5.818  -3.824  1.00  0.00    -0.275 OA
BRANCH  52  54
ATOM     54  N   UNL     1      11.654   5.089  -4.195  1.00  0.00    -0.311 N 
ATOM     55  C   UNL     1      12.338   6.074  -3.347  1.00  0.00     0.153 C 
BRANCH  54  56
ATOM     56  C   UNL     1      12.443   4.324  -5.070  1.00  0.00     0.102 C 
ATOM     57  C   UNL     1      12.314   4.309  -6.407  1.00  0.00     0.043 C 
BRANCH  56  58
ATOM     58  C   UNL     1      13.568   3.462  -4.547  1.00  0.00     0.268 C 
ATOM     59  O   UNL     1      13.596   3.018  -3.407  1.00  0.00    -0.268 OA
ATOM     60  N   UNL     1      14.517   3.177  -5.498  1.00  0.00    -0.339 N 
ATOM     61  H   UNL     1      14.426   3.593  -6.418  1.00  0.00     0.164 HD
BRANCH  60  62
ATOM     62  C   UNL     1      15.660   2.307  -5.222  1.00  0.00     0.168 CG0
ATOM     63  C   UNL     1      15.380   0.877  -5.668  1.00  0.00     0.041 C 
ATOM     64  G   UNL     1      15.994   2.355  -3.717  1.00  0.00     0.000 G0
ENDBRANCH  60  62
ENDBRANCH  56  58
ENDBRANCH  54  56
ENDBRANCH  52  54
ENDBRANCH  51  52
ENDBRANCH  50  51
ENDBRANCH  49  50
BRANCH  49  65
ATOM     65  C   UNL     1      10.640   2.590  -0.784  1.00  0.00     0.326 C 
ATOM     66  O   UNL     1      10.397   1.867   0.171  1.00  0.00    -0.250 OA
BRANCH  65  67
ATOM     67  O   UNL     1      11.869   3.138  -0.913  1.00  0.00    -0.480 OA
ATOM     68  H   UNL     1      11.685   4.044  -1.243  1.00  0.00     0.296 HD
ENDBRANCH  65  67
ENDBRANCH  49  65
ENDBRANCH  47  49
ENDBRANCH  43  45
ENDBRANCH   1  43
BRANCH   1  69
ATOM     69  C   UNL     1       5.402   3.817   1.501  1.00  0.00    -0.001 C 
ATOM     70  C   UNL     1       5.025   4.984   2.053  1.00  0.00     0.001 C 
BRANCH  70  71
ATOM     71  C   UNL     1       5.371   5.479   3.387  1.00  0.00    -0.055 C 
ATOM     72  C   UNL     1       4.516   5.213   4.397  1.00  0.00    -0.018 C 
ATOM     73  C   UNL     1       6.661   6.242   3.540  1.00  0.00     0.044 C 
BRANCH  72  74
ATOM     74  C   UNL     1       4.614   5.593   5.867  1.00  0.00     0.038 C 
ATOM     75  C   UNL     1       4.411   4.309   6.681  1.00  0.00     0.015 C 
BRANCH  74  76
ATOM     76  C   UNL     1       3.584   6.723   6.163  1.00  0.00     0.128 C 
BRANCH  76  77
ATOM     77  O   UNL     1       3.278   6.753   7.567  1.00  0.00    -0.381 OA
ATOM     78  C   UNL     1       1.896   6.936   7.846  1.00  0.00     0.195 C 
ENDBRANCH  76  77
BRANCH  76  79
ATOM     79  C   UNL     1       3.996   8.111   5.610  1.00  0.00     0.068 C 
BRANCH  79  80
ATOM     80  C   UNL     1       3.125   8.735   4.547  1.00  0.00    -0.045 A 
ATOM     81  C   UNL     1       3.527   8.759   3.205  1.00  0.00     0.004 A 
ATOM     82  C   UNL     1       1.903   9.331   4.895  1.00  0.00     0.004 A 
ATOM     83  C   UNL     1       2.721   9.351   2.230  1.00  0.00     0.000 A 
ATOM     84  C   UNL     1       1.098   9.924   3.919  1.00  0.00     0.000 A 
ATOM     85  C   UNL     1       1.507   9.933   2.588  1.00  0.00     0.000 A 
ENDBRANCH  79  80
ENDBRANCH  76  79
ENDBRANCH  74  76
ENDBRANCH  72  74
ENDBRANCH  70  71
ENDBRANCH   1  69
TORSDOF 17
ENDMDL
MODEL 28
REMARK VINA RESULT:    -6.685      5.057     11.221
REMARK INTER + INTRA:         -26.488
REMARK INTER:                 -20.750
REMARK INTRA:                  -5.737
REMARK UNBOUND:                -6.514
REMARK SMILES C=C1C(=O)N[C@H](C)C(=O)N[C@@H](CC(C)C)C(=O)N[C@@H](C(=O)O)[C@H](C)C(=O)N[C@@H](CCCN=C(N)N)C(=O)N[C@@H](/C=C/C(C)=C/[C@H](C)[C@H](Cc2ccccc2)OC)[C@H](C)C(=O)N[C@@H](C(=O)O)CCC(=O)N1C
REMARK SMILES IDX 39 1 38 2 37 3 36 4 28 6 27 7 25 8 26 9 23 11 24 12 19 13
REMARK SMILES IDX 18 14 16 15 17 16 11 18 10 19 8 20 9 21 12 24 13 25 14 26
REMARK SMILES IDX 15 27 20 28 21 29 22 30 29 32 30 33 31 34 32 35 33 36 34 37
REMARK SMILES IDX 35 38 57 43 58 44 59 45 60 46 61 47 62 49 66 50 67 51 68 52
REMARK SMILES IDX 69 53 70 54 71 55 2 56 1 57 3 58 4 59 5 60 6 62 7 63 63 65
REMARK SMILES IDX 64 66 65 67 40 69 41 70 42 71 44 72 43 73 45 74 46 75 47 76
REMARK SMILES IDX 55 77 56 78 48 79 49 80 50 81 54 82 51 83 53 84 52 85
REMARK H PARENT 38 5 27 10 18 17 10 22 22 31 34 39 34 40 35 41 35 42 61 48
REMARK H PARENT 5 61 65 68
REMARK Flexibility Score:  369.900
ROOT
ATOM      1  C   UNL     1      -1.431   0.483  -5.279  1.00  0.00     0.117 C 
ENDROOT
BRANCH   1   2
ATOM      2  N   UNL     1      -0.818   0.848  -4.001  1.00  0.00    -0.347 N 
ATOM      3  O   UNL     1      -2.390   2.378  -3.326  1.00  0.00    -0.273 OA
ATOM      4  C   UNL     1      -1.396   1.702  -3.082  1.00  0.00     0.243 C 
ATOM      5  H   UNL     1       0.057   0.423  -3.733  1.00  0.00     0.164 HD
BRANCH   4   6
ATOM      6  C   UNL     1      -0.581   1.853  -1.773  1.00  0.00     0.171 C 
BRANCH   6   7
ATOM      7  N   UNL     1      -0.569   3.257  -1.334  1.00  0.00    -0.344 N 
ATOM      8  C   UNL     1       0.593   3.840  -0.876  1.00  0.00     0.226 C 
ATOM      9  O   UNL     1       1.650   3.227  -0.791  1.00  0.00    -0.275 OA
ATOM     10  H   UNL     1      -1.438   3.777  -1.326  1.00  0.00     0.164 HD
BRANCH   8  11
ATOM     11  C   UNL     1       0.455   5.308  -0.513  1.00  0.00     0.109 C 
ATOM     12  C   UNL     1      -0.866   5.861  -1.048  1.00  0.00     0.021 C 
BRANCH  11  13
ATOM     13  C   UNL     1       0.668   5.493   1.003  1.00  0.00     0.204 C 
BRANCH  13  14
ATOM     14  N   UNL     1       1.158   6.835   1.333  1.00  0.00    -0.340 N 
ATOM     15  C   UNL     1       2.430   7.072   1.805  1.00  0.00     0.243 C 
ATOM     16  O   UNL     1       3.267   6.178   1.926  1.00  0.00    -0.273 OA
ATOM     17  H   UNL     1       0.473   7.593   1.399  1.00  0.00     0.164 HD
BRANCH  15  18
ATOM     18  C   UNL     1       2.653   8.529   2.279  1.00  0.00     0.171 C 
BRANCH  18  19
ATOM     19  N   UNL     1       3.651   9.112   1.386  1.00  0.00    -0.343 N 
ATOM     20  C   UNL     1       4.884   9.532   1.846  1.00  0.00     0.242 CG0
ATOM     21  O   UNL     1       5.149   9.558   3.045  1.00  0.00    -0.273 OA
ATOM     22  H   UNL     1       3.435   9.219   0.401  1.00  0.00     0.164 HD
ATOM     23  G   UNL     1       5.833  10.047   0.744  1.00  0.00     0.000 G0
ENDBRANCH  18  19
BRANCH  18  24
ATOM     24  C   UNL     1       1.337   9.317   2.244  1.00  0.00     0.038 C 
BRANCH  24  25
ATOM     25  C   UNL     1       0.881   9.872   3.610  1.00  0.00    -0.015 C 
ATOM     26  C   UNL     1       1.976   9.780   4.673  1.00  0.00     0.007 C 
ATOM     27  C   UNL     1      -0.362   9.116   4.084  1.00  0.00     0.007 C 
ENDBRANCH  24  25
ENDBRANCH  18  24
ENDBRANCH  15  18
ENDBRANCH  13  14
BRANCH  13  28
ATOM     28  C   UNL     1      -0.605   5.260   1.824  1.00  0.00     0.327 C 
ATOM     29  O   UNL     1      -1.191   6.091   2.500  1.00  0.00    -0.250 OA
BRANCH  28  30
ATOM     30  O   UNL     1      -0.994   3.969   1.841  1.00  0.00    -0.480 OA
ATOM     31  H   UNL     1      -1.965   4.011   1.965  1.00  0.00     0.296 HD
ENDBRANCH  28  30
ENDBRANCH  13  28
ENDBRANCH  11  13
ENDBRANCH   8  11
ENDBRANCH   6   7
BRANCH   6  32
ATOM     32  C   UNL     1      -1.188   0.948  -0.695  1.00  0.00     0.037 C 
BRANCH  32  33
ATOM     33  C   UNL     1      -0.814  -0.527  -0.900  1.00  0.00     0.026 C 
BRANCH  33  34
ATOM     34  C   UNL     1      -2.041  -1.420  -1.093  1.00  0.00     0.146 C 
BRANCH  34  35
ATOM     35  N   UNL     1      -3.210  -0.576  -1.290  1.00  0.00    -0.254 NA
ATOM     36  C   UNL     1      -4.218  -1.059  -1.916  1.00  0.00     0.185 C 
ATOM     37  N   UNL     1      -5.304  -0.291  -2.099  1.00  0.00    -0.370 N 
ATOM     38  N   UNL     1      -4.374  -2.283  -2.450  1.00  0.00    -0.370 N 
ATOM     39  H   UNL     1      -5.268   0.645  -1.716  1.00  0.00     0.159 HD
ATOM     40  H   UNL     1      -6.188  -0.646  -2.421  1.00  0.00     0.159 HD
ATOM     41  H   UNL     1      -5.160  -2.498  -3.040  1.00  0.00     0.159 HD
ATOM     42  H   UNL     1      -3.630  -2.962  -2.401  1.00  0.00     0.159 HD
ENDBRANCH  34  35
ENDBRANCH  33  34
ENDBRANCH  32  33
ENDBRANCH   6  32
ENDBRANCH   4   6
ENDBRANCH   1   2
BRANCH   1  43
ATOM     43  C   UNL     1      -2.433  -0.682  -5.033  1.00  0.00     0.102 C 
ATOM     44  C   UNL     1      -1.835  -2.072  -5.305  1.00  0.00     0.020 C 
BRANCH  43  45
ATOM     45  C   UNL     1      -3.761  -0.426  -5.751  1.00  0.00     0.225 C 
ATOM     46  O   UNL     1      -4.352  -1.287  -6.397  1.00  0.00    -0.275 OA
ATOM     47  N   UNL     1      -4.217   0.872  -5.709  1.00  0.00    -0.342 N 
ATOM     48  H   UNL     1      -3.807   1.525  -5.056  1.00  0.00     0.164 HD
BRANCH  47  49
ATOM     49  C   UNL     1      -5.492   1.257  -6.322  1.00  0.00     0.192 C 
BRANCH  49  50
ATOM     50  C   UNL     1      -5.396   2.690  -6.852  1.00  0.00     0.047 C 
BRANCH  50  51
ATOM     51  C   UNL     1      -6.770   3.272  -7.208  1.00  0.00     0.103 C 
BRANCH  51  52
ATOM     52  C   UNL     1      -6.803   3.839  -8.626  1.00  0.00     0.226 C 
ATOM     53  O   UNL     1      -6.406   4.988  -8.833  1.00  0.00    -0.275 OA
BRANCH  52  54
ATOM     54  N   UNL     1      -7.225   2.962  -9.643  1.00  0.00    -0.311 N 
ATOM     55  C   UNL     1      -6.274   2.058 -10.304  1.00  0.00     0.153 C 
BRANCH  54  56
ATOM     56  C   UNL     1      -8.566   2.913 -10.058  1.00  0.00     0.102 C 
ATOM     57  C   UNL     1      -9.595   2.525  -9.287  1.00  0.00     0.043 C 
BRANCH  56  58
ATOM     58  C   UNL     1      -8.964   3.355 -11.446  1.00  0.00     0.268 C 
ATOM     59  O   UNL     1      -8.950   2.610 -12.416  1.00  0.00    -0.268 OA
ATOM     60  N   UNL     1      -9.404   4.657 -11.493  1.00  0.00    -0.339 N 
ATOM     61  H   UNL     1      -9.374   5.212 -10.646  1.00  0.00     0.164 HD
BRANCH  60  62
ATOM     62  C   UNL     1      -9.897   5.269 -12.726  1.00  0.00     0.168 CG0
ATOM     63  C   UNL     1      -9.274   6.643 -12.942  1.00  0.00     0.041 C 
ATOM     64  G   UNL     1     -11.435   5.368 -12.676  1.00  0.00     0.000 G0
ENDBRANCH  60  62
ENDBRANCH  56  58
ENDBRANCH  54  56
ENDBRANCH  52  54
ENDBRANCH  51  52
ENDBRANCH  50  51
ENDBRANCH  49  50
BRANCH  49  65
ATOM     65  C   UNL     1      -6.654   1.161  -5.321  1.00  0.00     0.326 C 
ATOM     66  O   UNL     1      -6.666   1.644  -4.198  1.00  0.00    -0.250 OA
BRANCH  65  67
ATOM     67  O   UNL     1      -7.704   0.424  -5.745  1.00  0.00    -0.480 OA
ATOM     68  H   UNL     1      -7.579   0.383  -6.718  1.00  0.00     0.296 HD
ENDBRANCH  65  67
ENDBRANCH  49  65
ENDBRANCH  47  49
ENDBRANCH  43  45
ENDBRANCH   1  43
BRANCH   1  69
ATOM     69  C   UNL     1      -0.286   0.271  -6.253  1.00  0.00    -0.001 C 
ATOM     70  C   UNL     1       0.493   1.213  -6.814  1.00  0.00     0.001 C 
BRANCH  70  71
ATOM     71  C   UNL     1       1.609   0.995  -7.737  1.00  0.00    -0.055 C 
ATOM     72  C   UNL     1       2.640   1.865  -7.691  1.00  0.00    -0.018 C 
ATOM     73  C   UNL     1       1.532  -0.188  -8.666  1.00  0.00     0.044 C 
BRANCH  72  74
ATOM     74  C   UNL     1       3.919   1.887  -8.516  1.00  0.00     0.038 C 
ATOM     75  C   UNL     1       5.083   2.103  -7.541  1.00  0.00     0.015 C 
BRANCH  74  76
ATOM     76  C   UNL     1       3.783   2.975  -9.622  1.00  0.00     0.128 C 
BRANCH  76  77
ATOM     77  O   UNL     1       5.086   3.381 -10.074  1.00  0.00    -0.381 OA
ATOM     78  C   UNL     1       5.524   2.697 -11.241  1.00  0.00     0.195 C 
ENDBRANCH  76  77
BRANCH  76  79
ATOM     79  C   UNL     1       2.842   2.576 -10.786  1.00  0.00     0.068 C 
BRANCH  79  80
ATOM     80  C   UNL     1       1.574   3.373 -10.976  1.00  0.00    -0.045 A 
ATOM     81  C   UNL     1       1.613   4.683 -11.472  1.00  0.00     0.004 A 
ATOM     82  C   UNL     1       0.332   2.820 -10.629  1.00  0.00     0.004 A 
ATOM     83  C   UNL     1       0.437   5.419 -11.631  1.00  0.00     0.000 A 
ATOM     84  C   UNL     1      -0.843   3.558 -10.789  1.00  0.00     0.000 A 
ATOM     85  C   UNL     1      -0.791   4.856 -11.291  1.00  0.00     0.000 A 
ENDBRANCH  79  80
ENDBRANCH  76  79
ENDBRANCH  74  76
ENDBRANCH  72  74
ENDBRANCH  70  71
ENDBRANCH   1  69
TORSDOF 17
ENDMDL
MODEL 29
REMARK VINA RESULT:    -6.624      5.707     10.395
REMARK INTER + INTRA:         -26.304
REMARK INTER:                 -21.524
REMARK INTRA:                  -4.780
REMARK UNBOUND:                -6.514
REMARK SMILES C=C1C(=O)N[C@H](C)C(=O)N[C@@H](CC(C)C)C(=O)N[C@@H](C(=O)O)[C@H](C)C(=O)N[C@@H](CCCN=C(N)N)C(=O)N[C@@H](/C=C/C(C)=C/[C@H](C)[C@H](Cc2ccccc2)OC)[C@H](C)C(=O)N[C@@H](C(=O)O)CCC(=O)N1C
REMARK SMILES IDX 39 1 38 2 37 3 36 4 28 6 27 7 25 8 26 9 23 11 24 12 19 13
REMARK SMILES IDX 18 14 16 15 17 16 11 18 10 19 8 20 9 21 12 24 13 25 14 26
REMARK SMILES IDX 15 27 20 28 21 29 22 30 29 32 30 33 31 34 32 35 33 36 34 37
REMARK SMILES IDX 35 38 57 43 58 44 59 45 60 46 61 47 62 49 66 50 67 51 68 52
REMARK SMILES IDX 69 53 70 54 71 55 2 56 1 57 3 58 4 59 5 60 6 62 7 63 63 65
REMARK SMILES IDX 64 66 65 67 40 69 41 70 42 71 44 72 43 73 45 74 46 75 47 76
REMARK SMILES IDX 55 77 56 78 48 79 49 80 50 81 54 82 51 83 53 84 52 85
REMARK H PARENT 38 5 27 10 18 17 10 22 22 31 34 39 34 40 35 41 35 42 61 48
REMARK H PARENT 5 61 65 68
REMARK Flexibility Score:  369.900
ROOT
ATOM      1  C   UNL     1      -0.347  -0.355  -1.441  1.00  0.00     0.117 C 
ENDROOT
BRANCH   1   2
ATOM      2  N   UNL     1      -0.806   0.122  -2.746  1.00  0.00    -0.347 N 
ATOM      3  O   UNL     1       1.001  -0.566  -3.984  1.00  0.00    -0.273 OA
ATOM      4  C   UNL     1      -0.134  -0.104  -3.932  1.00  0.00     0.243 C 
ATOM      5  H   UNL     1      -1.689   0.605  -2.813  1.00  0.00     0.164 HD
BRANCH   4   6
ATOM      6  C   UNL     1      -0.878   0.433  -5.181  1.00  0.00     0.171 C 
BRANCH   6   7
ATOM      7  N   UNL     1      -0.085   0.188  -6.396  1.00  0.00    -0.344 N 
ATOM      8  C   UNL     1       0.578   1.221  -7.023  1.00  0.00     0.226 C 
ATOM      9  O   UNL     1       0.525   2.378  -6.623  1.00  0.00    -0.275 OA
ATOM     10  H   UNL     1      -0.072  -0.742  -6.795  1.00  0.00     0.164 HD
BRANCH   8  11
ATOM     11  C   UNL     1       1.396   0.799  -8.230  1.00  0.00     0.109 C 
ATOM     12  C   UNL     1       0.672  -0.311  -8.994  1.00  0.00     0.021 C 
BRANCH  11  13
ATOM     13  C   UNL     1       1.757   2.037  -9.075  1.00  0.00     0.204 C 
BRANCH  13  14
ATOM     14  N   UNL     1       2.994   1.843  -9.838  1.00  0.00    -0.340 N 
ATOM     15  C   UNL     1       4.141   2.568  -9.600  1.00  0.00     0.243 C 
ATOM     16  O   UNL     1       4.227   3.390  -8.689  1.00  0.00    -0.273 OA
ATOM     17  H   UNL     1       2.946   1.291 -10.699  1.00  0.00     0.164 HD
BRANCH  15  18
ATOM     18  C   UNL     1       5.248   2.340 -10.659  1.00  0.00     0.171 C 
BRANCH  18  19
ATOM     19  N   UNL     1       4.688   2.752 -11.945  1.00  0.00    -0.343 N 
ATOM     20  C   UNL     1       4.586   1.877 -13.009  1.00  0.00     0.242 CG0
ATOM     21  O   UNL     1       5.082   0.753 -12.968  1.00  0.00    -0.273 OA
ATOM     22  H   UNL     1       4.369   3.707 -12.066  1.00  0.00     0.164 HD
ATOM     23  G   UNL     1       3.898   2.468 -14.256  1.00  0.00     0.000 G0
ENDBRANCH  18  19
BRANCH  18  24
ATOM     24  C   UNL     1       6.506   3.146 -10.310  1.00  0.00     0.038 C 
BRANCH  24  25
ATOM     25  C   UNL     1       7.752   2.291  -9.996  1.00  0.00    -0.015 C 
ATOM     26  C   UNL     1       7.455   1.167  -9.003  1.00  0.00     0.007 C 
ATOM     27  C   UNL     1       8.864   3.186  -9.443  1.00  0.00     0.007 C 
ENDBRANCH  24  25
ENDBRANCH  18  24
ENDBRANCH  15  18
ENDBRANCH  13  14
BRANCH  13  28
ATOM     28  C   UNL     1       0.664   2.426 -10.074  1.00  0.00     0.327 C 
ATOM     29  O   UNL     1       0.767   2.433 -11.292  1.00  0.00    -0.250 OA
BRANCH  28  30
ATOM     30  O   UNL     1      -0.452   2.896  -9.481  1.00  0.00    -0.480 OA
ATOM     31  H   UNL     1      -1.178   2.617 -10.077  1.00  0.00     0.296 HD
ENDBRANCH  28  30
ENDBRANCH  13  28
ENDBRANCH  11  13
ENDBRANCH   8  11
ENDBRANCH   6   7
BRANCH   6  32
ATOM     32  C   UNL     1      -2.250  -0.243  -5.278  1.00  0.00     0.037 C 
BRANCH  32  33
ATOM     33  C   UNL     1      -2.157  -1.664  -5.850  1.00  0.00     0.026 C 
BRANCH  33  34
ATOM     34  C   UNL     1      -3.312  -2.556  -5.392  1.00  0.00     0.146 C 
BRANCH  34  35
ATOM     35  N   UNL     1      -3.137  -2.863  -3.979  1.00  0.00    -0.254 NA
ATOM     36  C   UNL     1      -4.178  -3.053  -3.258  1.00  0.00     0.185 C 
ATOM     37  N   UNL     1      -4.028  -3.342  -1.956  1.00  0.00    -0.370 N 
ATOM     38  N   UNL     1      -5.473  -3.009  -3.617  1.00  0.00    -0.370 N 
ATOM     39  H   UNL     1      -3.079  -3.403  -1.611  1.00  0.00     0.159 HD
ATOM     40  H   UNL     1      -4.775  -3.672  -1.370  1.00  0.00     0.159 HD
ATOM     41  H   UNL     1      -6.206  -3.039  -2.927  1.00  0.00     0.159 HD
ATOM     42  H   UNL     1      -5.736  -2.787  -4.564  1.00  0.00     0.159 HD
ENDBRANCH  34  35
ENDBRANCH  33  34
ENDBRANCH  32  33
ENDBRANCH   6  32
ENDBRANCH   4   6
ENDBRANCH   1   2
BRANCH   1  43
ATOM     43  C   UNL     1      -1.565  -0.944  -0.672  1.00  0.00     0.102 C 
ATOM     44  C   UNL     1      -2.823  -0.063  -0.753  1.00  0.00     0.020 C 
BRANCH  43  45
ATOM     45  C   UNL     1      -1.175  -1.340   0.755  1.00  0.00     0.225 C 
ATOM     46  O   UNL     1      -0.649  -2.414   1.033  1.00  0.00    -0.275 OA
ATOM     47  N   UNL     1      -1.539  -0.448   1.738  1.00  0.00    -0.342 N 
ATOM     48  H   UNL     1      -1.828   0.486   1.484  1.00  0.00     0.164 HD
BRANCH  47  49
ATOM     49  C   UNL     1      -1.200  -0.679   3.146  1.00  0.00     0.192 C 
BRANCH  49  50
ATOM     50  C   UNL     1      -2.409  -0.353   4.026  1.00  0.00     0.047 C 
BRANCH  50  51
ATOM     51  C   UNL     1      -2.636  -1.408   5.117  1.00  0.00     0.103 C 
BRANCH  51  52
ATOM     52  C   UNL     1      -4.100  -1.834   5.208  1.00  0.00     0.226 C 
ATOM     53  O   UNL     1      -4.933  -1.318   4.461  1.00  0.00    -0.275 OA
BRANCH  52  54
ATOM     54  N   UNL     1      -4.396  -2.870   6.113  1.00  0.00    -0.311 N 
ATOM     55  C   UNL     1      -3.404  -3.320   7.099  1.00  0.00     0.153 C 
BRANCH  54  56
ATOM     56  C   UNL     1      -5.648  -3.506   6.113  1.00  0.00     0.102 C 
ATOM     57  C   UNL     1      -5.899  -4.709   5.570  1.00  0.00     0.043 C 
BRANCH  56  58
ATOM     58  C   UNL     1      -6.840  -2.874   6.793  1.00  0.00     0.268 C 
ATOM     59  O   UNL     1      -6.935  -2.761   8.008  1.00  0.00    -0.268 OA
ATOM     60  N   UNL     1      -7.768  -2.381   5.908  1.00  0.00    -0.339 N 
ATOM     61  H   UNL     1      -7.620  -2.525   4.916  1.00  0.00     0.164 HD
BRANCH  60  62
ATOM     62  C   UNL     1      -8.969  -1.674   6.352  1.00  0.00     0.168 CG0
ATOM     63  C   UNL     1      -9.745  -1.116   5.165  1.00  0.00     0.041 C 
ATOM     64  G   UNL     1      -8.573  -0.544   7.325  1.00  0.00     0.000 G0
ENDBRANCH  60  62
ENDBRANCH  56  58
ENDBRANCH  54  56
ENDBRANCH  52  54
ENDBRANCH  51  52
ENDBRANCH  50  51
ENDBRANCH  49  50
BRANCH  49  65
ATOM     65  C   UNL     1      -0.003   0.177   3.588  1.00  0.00     0.326 C 
ATOM     66  O   UNL     1       0.452   0.231   4.721  1.00  0.00    -0.250 OA
BRANCH  65  67
ATOM     67  O   UNL     1       0.521   0.957   2.617  1.00  0.00    -0.480 OA
ATOM     68  H   UNL     1      -0.153   0.926   1.905  1.00  0.00     0.296 HD
ENDBRANCH  65  67
ENDBRANCH  49  65
ENDBRANCH  47  49
ENDBRANCH  43  45
ENDBRANCH   1  43
BRANCH   1  69
ATOM     69  C   UNL     1       0.429   0.792  -0.819  1.00  0.00    -0.001 C 
ATOM     70  C   UNL     1       1.763   0.956  -0.792  1.00  0.00     0.001 C 
BRANCH  70  71
ATOM     71  C   UNL     1       2.500   2.078  -0.207  1.00  0.00    -0.055 C 
ATOM     72  C   UNL     1       1.795   3.171   0.155  1.00  0.00    -0.018 C 
ATOM     73  C   UNL     1       3.990   1.932  -0.043  1.00  0.00     0.044 C 
BRANCH  72  74
ATOM     74  C   UNL     1       2.284   4.469   0.782  1.00  0.00     0.038 C 
ATOM     75  C   UNL     1       2.463   4.208   2.282  1.00  0.00     0.015 C 
BRANCH  74  76
ATOM     76  C   UNL     1       1.277   5.605   0.432  1.00  0.00     0.128 C 
BRANCH  76  77
ATOM     77  O   UNL     1       0.521   5.247  -0.737  1.00  0.00    -0.381 OA
ATOM     78  C   UNL     1      -0.228   6.325  -1.284  1.00  0.00     0.195 C 
ENDBRANCH  76  77
BRANCH  76  79
ATOM     79  C   UNL     1       0.379   6.037   1.618  1.00  0.00     0.068 C 
BRANCH  79  80
ATOM     80  C   UNL     1       0.598   7.409   2.208  1.00  0.00    -0.045 A 
ATOM     81  C   UNL     1       1.530   8.294   1.649  1.00  0.00     0.004 A 
ATOM     82  C   UNL     1      -0.112   7.810   3.349  1.00  0.00     0.004 A 
ATOM     83  C   UNL     1       1.737   9.557   2.209  1.00  0.00     0.000 A 
ATOM     84  C   UNL     1       0.096   9.073   3.909  1.00  0.00     0.000 A 
ATOM     85  C   UNL     1       1.019   9.946   3.338  1.00  0.00     0.000 A 
ENDBRANCH  79  80
ENDBRANCH  76  79
ENDBRANCH  74  76
ENDBRANCH  72  74
ENDBRANCH  70  71
ENDBRANCH   1  69
TORSDOF 17
ENDMDL
MODEL 30
REMARK VINA RESULT:    -6.598      5.708     13.282
REMARK INTER + INTRA:         -26.225
REMARK INTER:                 -19.913
REMARK INTRA:                  -6.312
REMARK UNBOUND:                -6.514
REMARK SMILES C=C1C(=O)N[C@H](C)C(=O)N[C@@H](CC(C)C)C(=O)N[C@@H](C(=O)O)[C@H](C)C(=O)N[C@@H](CCCN=C(N)N)C(=O)N[C@@H](/C=C/C(C)=C/[C@H](C)[C@H](Cc2ccccc2)OC)[C@H](C)C(=O)N[C@@H](C(=O)O)CCC(=O)N1C
REMARK SMILES IDX 39 1 38 2 37 3 36 4 28 6 27 7 25 8 26 9 23 11 24 12 19 13
REMARK SMILES IDX 18 14 16 15 17 16 11 18 10 19 8 20 9 21 12 24 13 25 14 26
REMARK SMILES IDX 15 27 20 28 21 29 22 30 29 32 30 33 31 34 32 35 33 36 34 37
REMARK SMILES IDX 35 38 57 43 58 44 59 45 60 46 61 47 62 49 66 50 67 51 68 52
REMARK SMILES IDX 69 53 70 54 71 55 2 56 1 57 3 58 4 59 5 60 6 62 7 63 63 65
REMARK SMILES IDX 64 66 65 67 40 69 41 70 42 71 44 72 43 73 45 74 46 75 47 76
REMARK SMILES IDX 55 77 56 78 48 79 49 80 50 81 54 82 51 83 53 84 52 85
REMARK H PARENT 38 5 27 10 18 17 10 22 22 31 34 39 34 40 35 41 35 42 61 48
REMARK H PARENT 5 61 65 68
REMARK Flexibility Score:  369.900
ROOT
ATOM      1  C   UNL     1      -1.742   0.595  -2.345  1.00  0.00     0.117 C 
ENDROOT
BRANCH   1   2
ATOM      2  N   UNL     1      -2.848   0.013  -1.584  1.00  0.00    -0.347 N 
ATOM      3  O   UNL     1      -4.454   1.559  -2.133  1.00  0.00    -0.273 OA
ATOM      4  C   UNL     1      -4.143   0.493  -1.613  1.00  0.00     0.243 C 
ATOM      5  H   UNL     1      -2.688  -0.819  -1.037  1.00  0.00     0.164 HD
BRANCH   4   6
ATOM      6  C   UNL     1      -5.141  -0.357  -0.785  1.00  0.00     0.171 C 
BRANCH   6   7
ATOM      7  N   UNL     1      -5.760   0.461   0.271  1.00  0.00    -0.344 N 
ATOM      8  C   UNL     1      -5.048   0.812   1.397  1.00  0.00     0.226 C 
ATOM      9  O   UNL     1      -3.893   0.451   1.587  1.00  0.00    -0.275 OA
ATOM     10  H   UNL     1      -6.734   0.722   0.181  1.00  0.00     0.164 HD
BRANCH   8  11
ATOM     11  C   UNL     1      -5.808   1.702   2.365  1.00  0.00     0.109 C 
ATOM     12  C   UNL     1      -5.841   3.138   1.844  1.00  0.00     0.021 C 
BRANCH  11  13
ATOM     13  C   UNL     1      -7.190   1.087   2.663  1.00  0.00     0.204 C 
BRANCH  13  14
ATOM     14  N   UNL     1      -7.112   0.007   3.651  1.00  0.00    -0.340 N 
ATOM     15  C   UNL     1      -7.251  -1.323   3.318  1.00  0.00     0.243 C 
ATOM     16  O   UNL     1      -7.391  -1.702   2.156  1.00  0.00    -0.273 OA
ATOM     17  H   UNL     1      -7.150   0.258   4.643  1.00  0.00     0.164 HD
BRANCH  15  18
ATOM     18  C   UNL     1      -7.341  -2.263   4.546  1.00  0.00     0.171 C 
BRANCH  18  19
ATOM     19  N   UNL     1      -8.695  -2.814   4.552  1.00  0.00    -0.343 N 
ATOM     20  C   UNL     1      -9.780  -2.078   4.988  1.00  0.00     0.242 CG0
ATOM     21  O   UNL     1      -9.640  -0.976   5.513  1.00  0.00    -0.273 OA
ATOM     22  H   UNL     1      -8.846  -3.765   4.235  1.00  0.00     0.164 HD
ATOM     23  G   UNL     1     -11.136  -2.799   4.847  1.00  0.00     0.000 G0
ENDBRANCH  18  19
BRANCH  18  24
ATOM     24  C   UNL     1      -6.283  -3.370   4.459  1.00  0.00     0.038 C 
BRANCH  24  25
ATOM     25  C   UNL     1      -5.250  -3.364   5.605  1.00  0.00    -0.015 C 
ATOM     26  C   UNL     1      -5.897  -3.554   6.978  1.00  0.00     0.007 C 
ATOM     27  C   UNL     1      -4.464  -2.051   5.584  1.00  0.00     0.007 C 
ENDBRANCH  24  25
ENDBRANCH  18  24
ENDBRANCH  15  18
ENDBRANCH  13  14
BRANCH  13  28
ATOM     28  C   UNL     1      -8.204   2.109   3.187  1.00  0.00     0.327 C 
ATOM     29  O   UNL     1      -9.160   2.558   2.574  1.00  0.00    -0.250 OA
BRANCH  28  30
ATOM     30  O   UNL     1      -7.887   2.592   4.406  1.00  0.00    -0.480 OA
ATOM     31  H   UNL     1      -8.745   2.642   4.876  1.00  0.00     0.296 HD
ENDBRANCH  28  30
ENDBRANCH  13  28
ENDBRANCH  11  13
ENDBRANCH   8  11
ENDBRANCH   6   7
BRANCH   6  32
ATOM     32  C   UNL     1      -6.205  -0.939  -1.722  1.00  0.00     0.037 C 
BRANCH  32  33
ATOM     33  C   UNL     1      -5.735  -2.234  -2.398  1.00  0.00     0.026 C 
BRANCH  33  34
ATOM     34  C   UNL     1      -5.347  -2.023  -3.862  1.00  0.00     0.146 C 
BRANCH  34  35
ATOM     35  N   UNL     1      -6.162  -0.949  -4.414  1.00  0.00    -0.254 NA
ATOM     36  C   UNL     1      -5.865  -0.484  -5.570  1.00  0.00     0.185 C 
ATOM     37  N   UNL     1      -6.612   0.502  -6.090  1.00  0.00    -0.370 N 
ATOM     38  N   UNL     1      -4.867  -0.846  -6.395  1.00  0.00    -0.370 N 
ATOM     39  H   UNL     1      -7.392   0.824  -5.531  1.00  0.00     0.159 HD
ATOM     40  H   UNL     1      -6.554   0.797  -7.049  1.00  0.00     0.159 HD
ATOM     41  H   UNL     1      -4.651  -0.310  -7.219  1.00  0.00     0.159 HD
ATOM     42  H   UNL     1      -4.215  -1.567  -6.126  1.00  0.00     0.159 HD
ENDBRANCH  34  35
ENDBRANCH  33  34
ENDBRANCH  32  33
ENDBRANCH   6  32
ENDBRANCH   4   6
ENDBRANCH   1   2
BRANCH   1  43
ATOM     43  C   UNL     1      -1.137  -0.508  -3.261  1.00  0.00     0.102 C 
ATOM     44  C   UNL     1       0.230  -1.022  -2.779  1.00  0.00     0.020 C 
BRANCH  43  45
ATOM     45  C   UNL     1      -1.155  -0.074  -4.730  1.00  0.00     0.225 C 
ATOM     46  O   UNL     1      -2.105  -0.281  -5.479  1.00  0.00    -0.275 OA
ATOM     47  N   UNL     1       0.012   0.488  -5.196  1.00  0.00    -0.342 N 
ATOM     48  H   UNL     1       0.720   0.787  -4.540  1.00  0.00     0.164 HD
BRANCH  47  49
ATOM     49  C   UNL     1       0.128   0.982  -6.571  1.00  0.00     0.192 C 
BRANCH  49  50
ATOM     50  C   UNL     1       1.594   0.942  -7.010  1.00  0.00     0.047 C 
BRANCH  50  51
ATOM     51  C   UNL     1       1.751   0.532  -8.480  1.00  0.00     0.103 C 
BRANCH  51  52
ATOM     52  C   UNL     1       2.381   1.640  -9.321  1.00  0.00     0.226 C 
ATOM     53  O   UNL     1       1.706   2.618  -9.646  1.00  0.00    -0.275 OA
BRANCH  52  54
ATOM     54  N   UNL     1       3.751   1.503  -9.614  1.00  0.00    -0.311 N 
ATOM     55  C   UNL     1       4.588   0.543  -8.882  1.00  0.00     0.153 C 
BRANCH  54  56
ATOM     56  C   UNL     1       4.366   2.271 -10.616  1.00  0.00     0.102 C 
ATOM     57  C   UNL     1       5.013   3.430 -10.408  1.00  0.00     0.043 C 
BRANCH  56  58
ATOM     58  C   UNL     1       4.381   1.803 -12.052  1.00  0.00     0.268 C 
ATOM     59  O   UNL     1       4.833   0.720 -12.398  1.00  0.00    -0.268 OA
ATOM     60  N   UNL     1       3.778   2.687 -12.915  1.00  0.00    -0.339 N 
ATOM     61  H   UNL     1       3.438   3.569 -12.550  1.00  0.00     0.164 HD
BRANCH  60  62
ATOM     62  C   UNL     1       3.627   2.403 -14.341  1.00  0.00     0.168 CG0
ATOM     63  C   UNL     1       3.108   3.624 -15.090  1.00  0.00     0.041 C 
ATOM     64  G   UNL     1       2.679   1.201 -14.532  1.00  0.00     0.000 G0
ENDBRANCH  60  62
ENDBRANCH  56  58
ENDBRANCH  54  56
ENDBRANCH  52  54
ENDBRANCH  51  52
ENDBRANCH  50  51
ENDBRANCH  49  50
BRANCH  49  65
ATOM     65  C   UNL     1      -0.403   2.418  -6.704  1.00  0.00     0.326 C 
ATOM     66  O   UNL     1      -0.639   3.177  -5.775  1.00  0.00    -0.250 OA
BRANCH  65  67
ATOM     67  O   UNL     1      -0.668   2.806  -7.971  1.00  0.00    -0.480 OA
ATOM     68  H   UNL     1      -0.272   2.094  -8.519  1.00  0.00     0.296 HD
ENDBRANCH  65  67
ENDBRANCH  49  65
ENDBRANCH  47  49
ENDBRANCH  43  45
ENDBRANCH   1  43
BRANCH   1  69
ATOM     69  C   UNL     1      -0.844   1.281  -1.332  1.00  0.00    -0.001 C 
ATOM     70  C   UNL     1      -0.884   1.162   0.007  1.00  0.00     0.001 C 
BRANCH  70  71
ATOM     71  C   UNL     1       0.002   1.813   0.974  1.00  0.00    -0.055 C 
ATOM     72  C   UNL     1       0.039   3.162   0.982  1.00  0.00    -0.018 C 
ATOM     73  C   UNL     1       0.803   0.932   1.897  1.00  0.00     0.044 C 
BRANCH  72  74
ATOM     74  C   UNL     1       0.852   4.098   1.866  1.00  0.00     0.038 C 
ATOM     75  C   UNL     1      -0.140   4.851   2.761  1.00  0.00     0.015 C 
BRANCH  74  76
ATOM     76  C   UNL     1       1.732   5.006   0.957  1.00  0.00     0.128 C 
BRANCH  76  77
ATOM     77  O   UNL     1       1.424   6.389   1.201  1.00  0.00    -0.381 OA
ATOM     78  C   UNL     1       0.799   7.038   0.101  1.00  0.00     0.195 C 
ENDBRANCH  76  77
BRANCH  76  79
ATOM     79  C   UNL     1       3.249   4.706   1.046  1.00  0.00     0.068 C 
BRANCH  79  80
ATOM     80  C   UNL     1       3.696   3.272   0.892  1.00  0.00    -0.045 A 
ATOM     81  C   UNL     1       3.400   2.544  -0.268  1.00  0.00     0.004 A 
ATOM     82  C   UNL     1       4.394   2.633   1.928  1.00  0.00     0.004 A 
ATOM     83  C   UNL     1       3.805   1.214  -0.397  1.00  0.00     0.000 A 
ATOM     84  C   UNL     1       4.798   1.303   1.798  1.00  0.00     0.000 A 
ATOM     85  C   UNL     1       4.505   0.594   0.636  1.00  0.00     0.000 A 
ENDBRANCH  79  80
ENDBRANCH  76  79
ENDBRANCH  74  76
ENDBRANCH  72  74
ENDBRANCH  70  71
ENDBRANCH   1  69
TORSDOF 17
ENDMDL
MODEL 31
REMARK VINA RESULT:    -6.587      9.719     15.938
REMARK INTER + INTRA:         -26.192
REMARK INTER:                 -18.548
REMARK INTRA:                  -7.644
REMARK UNBOUND:                -6.514
REMARK SMILES C=C1C(=O)N[C@H](C)C(=O)N[C@@H](CC(C)C)C(=O)N[C@@H](C(=O)O)[C@H](C)C(=O)N[C@@H](CCCN=C(N)N)C(=O)N[C@@H](/C=C/C(C)=C/[C@H](C)[C@H](Cc2ccccc2)OC)[C@H](C)C(=O)N[C@@H](C(=O)O)CCC(=O)N1C
REMARK SMILES IDX 39 1 38 2 37 3 36 4 28 6 27 7 25 8 26 9 23 11 24 12 19 13
REMARK SMILES IDX 18 14 16 15 17 16 11 18 10 19 8 20 9 21 12 24 13 25 14 26
REMARK SMILES IDX 15 27 20 28 21 29 22 30 29 32 30 33 31 34 32 35 33 36 34 37
REMARK SMILES IDX 35 38 57 43 58 44 59 45 60 46 61 47 62 49 66 50 67 51 68 52
REMARK SMILES IDX 69 53 70 54 71 55 2 56 1 57 3 58 4 59 5 60 6 62 7 63 63 65
REMARK SMILES IDX 64 66 65 67 40 69 41 70 42 71 44 72 43 73 45 74 46 75 47 76
REMARK SMILES IDX 55 77 56 78 48 79 49 80 50 81 54 82 51 83 53 84 52 85
REMARK H PARENT 38 5 27 10 18 17 10 22 22 31 34 39 34 40 35 41 35 42 61 48
REMARK H PARENT 5 61 65 68
REMARK Flexibility Score:  369.900
ROOT
ATOM      1  C   UNL     1       0.406   4.255   0.324  1.00  0.00     0.117 C 
ENDROOT
BRANCH   1   2
ATOM      2  N   UNL     1      -0.504   3.408   1.096  1.00  0.00    -0.347 N 
ATOM      3  O   UNL     1      -2.451   4.527   0.622  1.00  0.00    -0.273 OA
ATOM      4  C   UNL     1      -1.877   3.559   1.109  1.00  0.00     0.243 C 
ATOM      5  H   UNL     1      -0.131   2.629   1.618  1.00  0.00     0.164 HD
BRANCH   4   6
ATOM      6  C   UNL     1      -2.615   2.477   1.938  1.00  0.00     0.171 C 
BRANCH   6   7
ATOM      7  N   UNL     1      -3.984   2.916   2.253  1.00  0.00    -0.344 N 
ATOM      8  C   UNL     1      -4.721   2.275   3.225  1.00  0.00     0.226 C 
ATOM      9  O   UNL     1      -4.294   1.311   3.850  1.00  0.00    -0.275 OA
ATOM     10  H   UNL     1      -4.397   3.665   1.711  1.00  0.00     0.164 HD
BRANCH   8  11
ATOM     11  C   UNL     1      -6.093   2.879   3.470  1.00  0.00     0.109 C 
ATOM     12  C   UNL     1      -6.091   4.359   3.089  1.00  0.00     0.021 C 
BRANCH  11  13
ATOM     13  C   UNL     1      -7.170   2.029   2.766  1.00  0.00     0.204 C 
BRANCH  13  14
ATOM     14  N   UNL     1      -7.532   0.841   3.546  1.00  0.00    -0.340 N 
ATOM     15  C   UNL     1      -7.265  -0.442   3.121  1.00  0.00     0.243 C 
ATOM     16  O   UNL     1      -6.649  -0.680   2.084  1.00  0.00    -0.273 OA
ATOM     17  H   UNL     1      -8.175   0.961   4.334  1.00  0.00     0.164 HD
BRANCH  15  18
ATOM     18  C   UNL     1      -7.922  -1.534   4.002  1.00  0.00     0.171 C 
BRANCH  18  19
ATOM     19  N   UNL     1      -9.218  -1.835   3.398  1.00  0.00    -0.343 N 
ATOM     20  C   UNL     1     -10.387  -1.820   4.136  1.00  0.00     0.242 CG0
ATOM     21  O   UNL     1     -10.375  -1.683   5.357  1.00  0.00    -0.273 OA
ATOM     22  H   UNL     1      -9.266  -2.069   2.413  1.00  0.00     0.164 HD
ATOM     23  G   UNL     1     -11.663  -2.085   3.311  1.00  0.00     0.000 G0
ENDBRANCH  18  19
BRANCH  18  24
ATOM     24  C   UNL     1      -7.031  -2.780   4.072  1.00  0.00     0.038 C 
BRANCH  24  25
ATOM     25  C   UNL     1      -6.248  -2.939   5.393  1.00  0.00    -0.015 C 
ATOM     26  C   UNL     1      -7.024  -2.415   6.601  1.00  0.00     0.007 C 
ATOM     27  C   UNL     1      -4.906  -2.209   5.286  1.00  0.00     0.007 C 
ENDBRANCH  24  25
ENDBRANCH  18  24
ENDBRANCH  15  18
ENDBRANCH  13  14
BRANCH  13  28
ATOM     28  C   UNL     1      -8.463   2.802   2.490  1.00  0.00     0.327 C 
ATOM     29  O   UNL     1      -9.373   2.995   3.282  1.00  0.00    -0.250 OA
BRANCH  28  30
ATOM     30  O   UNL     1      -8.587   3.183   1.202  1.00  0.00    -0.480 OA
ATOM     31  H   UNL     1      -7.724   3.594   0.989  1.00  0.00     0.296 HD
ENDBRANCH  28  30
ENDBRANCH  13  28
ENDBRANCH  11  13
ENDBRANCH   8  11
ENDBRANCH   6   7
BRANCH   6  32
ATOM     32  C   UNL     1      -2.629   1.162   1.151  1.00  0.00     0.037 C 
BRANCH  32  33
ATOM     33  C   UNL     1      -3.322   1.309  -0.211  1.00  0.00     0.026 C 
BRANCH  33  34
ATOM     34  C   UNL     1      -4.710   0.668  -0.233  1.00  0.00     0.146 C 
BRANCH  34  35
ATOM     35  N   UNL     1      -4.645  -0.568  -1.001  1.00  0.00    -0.254 NA
ATOM     36  C   UNL     1      -5.471  -0.737  -1.965  1.00  0.00     0.185 C 
ATOM     37  N   UNL     1      -5.416  -1.870  -2.683  1.00  0.00    -0.370 N 
ATOM     38  N   UNL     1      -6.440   0.087  -2.401  1.00  0.00    -0.370 N 
ATOM     39  H   UNL     1      -4.702  -2.538  -2.422  1.00  0.00     0.159 HD
ATOM     40  H   UNL     1      -5.904  -2.002  -3.552  1.00  0.00     0.159 HD
ATOM     41  H   UNL     1      -7.117  -0.219  -3.081  1.00  0.00     0.159 HD
ATOM     42  H   UNL     1      -6.607   0.970  -1.943  1.00  0.00     0.159 HD
ENDBRANCH  34  35
ENDBRANCH  33  34
ENDBRANCH  32  33
ENDBRANCH   6  32
ENDBRANCH   4   6
ENDBRANCH   1   2
BRANCH   1  43
ATOM     43  C   UNL     1       1.512   3.355  -0.298  1.00  0.00     0.102 C 
ATOM     44  C   UNL     1       0.971   2.047  -0.899  1.00  0.00     0.020 C 
BRANCH  43  45
ATOM     45  C   UNL     1       2.674   3.156   0.681  1.00  0.00     0.225 C 
ATOM     46  O   UNL     1       2.554   2.569   1.753  1.00  0.00    -0.275 OA
ATOM     47  N   UNL     1       3.857   3.762   0.327  1.00  0.00    -0.342 N 
ATOM     48  H   UNL     1       3.982   4.105  -0.615  1.00  0.00     0.164 HD
BRANCH  47  49
ATOM     49  C   UNL     1       5.063   3.627   1.149  1.00  0.00     0.192 C 
BRANCH  49  50
ATOM     50  C   UNL     1       5.360   4.955   1.850  1.00  0.00     0.047 C 
BRANCH  50  51
ATOM     51  C   UNL     1       4.883   4.963   3.309  1.00  0.00     0.103 C 
BRANCH  51  52
ATOM     52  C   UNL     1       5.921   4.361   4.254  1.00  0.00     0.226 C 
ATOM     53  O   UNL     1       7.103   4.309   3.909  1.00  0.00    -0.275 OA
BRANCH  52  54
ATOM     54  N   UNL     1       5.458   3.962   5.522  1.00  0.00    -0.311 N 
ATOM     55  C   UNL     1       4.595   2.784   5.676  1.00  0.00     0.153 C 
BRANCH  54  56
ATOM     56  C   UNL     1       5.806   4.670   6.684  1.00  0.00     0.102 C 
ATOM     57  C   UNL     1       4.988   5.498   7.354  1.00  0.00     0.043 C 
BRANCH  56  58
ATOM     58  C   UNL     1       7.170   4.506   7.312  1.00  0.00     0.268 C 
ATOM     59  O   UNL     1       7.718   3.420   7.450  1.00  0.00    -0.268 OA
ATOM     60  N   UNL     1       7.757   5.702   7.650  1.00  0.00    -0.339 N 
ATOM     61  H   UNL     1       7.233   6.558   7.513  1.00  0.00     0.164 HD
BRANCH  60  62
ATOM     62  C   UNL     1       9.104   5.777   8.214  1.00  0.00     0.168 CG0
ATOM     63  C   UNL     1       9.170   6.804   9.338  1.00  0.00     0.041 C 
ATOM     64  G   UNL     1      10.113   6.121   7.100  1.00  0.00     0.000 G0
ENDBRANCH  60  62
ENDBRANCH  56  58
ENDBRANCH  54  56
ENDBRANCH  52  54
ENDBRANCH  51  52
ENDBRANCH  50  51
ENDBRANCH  49  50
BRANCH  49  65
ATOM     65  C   UNL     1       6.280   3.213   0.307  1.00  0.00     0.326 C 
ATOM     66  O   UNL     1       7.226   3.933   0.023  1.00  0.00    -0.250 OA
BRANCH  65  67
ATOM     67  O   UNL     1       6.226   1.954  -0.181  1.00  0.00    -0.480 OA
ATOM     68  H   UNL     1       5.717   1.463   0.500  1.00  0.00     0.296 HD
ENDBRANCH  65  67
ENDBRANCH  49  65
ENDBRANCH  47  49
ENDBRANCH  43  45
ENDBRANCH   1  43
BRANCH   1  69
ATOM     69  C   UNL     1       0.815   5.389   1.246  1.00  0.00    -0.001 C 
ATOM     70  C   UNL     1       1.382   6.558   0.902  1.00  0.00     0.001 C 
BRANCH  70  71
ATOM     71  C   UNL     1       1.753   7.654   1.799  1.00  0.00    -0.055 C 
ATOM     72  C   UNL     1       3.056   8.002   1.860  1.00  0.00    -0.018 C 
ATOM     73  C   UNL     1       0.654   8.321   2.585  1.00  0.00     0.044 C 
BRANCH  72  74
ATOM     74  C   UNL     1       3.724   9.089   2.690  1.00  0.00     0.038 C 
ATOM     75  C   UNL     1       4.728   9.802   1.776  1.00  0.00     0.015 C 
BRANCH  74  76
ATOM     76  C   UNL     1       4.346   8.438   3.961  1.00  0.00     0.128 C 
BRANCH  76  77
ATOM     77  O   UNL     1       5.732   8.804   4.071  1.00  0.00    -0.381 OA
ATOM     78  C   UNL     1       6.475   7.965   4.946  1.00  0.00     0.195 C 
ENDBRANCH  76  77
BRANCH  76  79
ATOM     79  C   UNL     1       3.548   8.710   5.261  1.00  0.00     0.068 C 
BRANCH  79  80
ATOM     80  C   UNL     1       2.399   7.789   5.591  1.00  0.00    -0.045 A 
ATOM     81  C   UNL     1       1.297   8.245   6.326  1.00  0.00     0.004 A 
ATOM     82  C   UNL     1       2.432   6.445   5.189  1.00  0.00     0.004 A 
ATOM     83  C   UNL     1       0.244   7.382   6.640  1.00  0.00     0.000 A 
ATOM     84  C   UNL     1       1.379   5.584   5.504  1.00  0.00     0.000 A 
ATOM     85  C   UNL     1       0.285   6.052   6.227  1.00  0.00     0.000 A 
ENDBRANCH  79  80
ENDBRANCH  76  79
ENDBRANCH  74  76
ENDBRANCH  72  74
ENDBRANCH  70  71
ENDBRANCH   1  69
TORSDOF 17
ENDMDL
MODEL 32
REMARK VINA RESULT:    -6.579      8.819     13.917
REMARK INTER + INTRA:         -26.171
REMARK INTER:                 -18.730
REMARK INTRA:                  -7.441
REMARK UNBOUND:                -6.514
REMARK SMILES C=C1C(=O)N[C@H](C)C(=O)N[C@@H](CC(C)C)C(=O)N[C@@H](C(=O)O)[C@H](C)C(=O)N[C@@H](CCCN=C(N)N)C(=O)N[C@@H](/C=C/C(C)=C/[C@H](C)[C@H](Cc2ccccc2)OC)[C@H](C)C(=O)N[C@@H](C(=O)O)CCC(=O)N1C
REMARK SMILES IDX 39 1 38 2 37 3 36 4 28 6 27 7 25 8 26 9 23 11 24 12 19 13
REMARK SMILES IDX 18 14 16 15 17 16 11 18 10 19 8 20 9 21 12 24 13 25 14 26
REMARK SMILES IDX 15 27 20 28 21 29 22 30 29 32 30 33 31 34 32 35 33 36 34 37
REMARK SMILES IDX 35 38 57 43 58 44 59 45 60 46 61 47 62 49 66 50 67 51 68 52
REMARK SMILES IDX 69 53 70 54 71 55 2 56 1 57 3 58 4 59 5 60 6 62 7 63 63 65
REMARK SMILES IDX 64 66 65 67 40 69 41 70 42 71 44 72 43 73 45 74 46 75 47 76
REMARK SMILES IDX 55 77 56 78 48 79 49 80 50 81 54 82 51 83 53 84 52 85
REMARK H PARENT 38 5 27 10 18 17 10 22 22 31 34 39 34 40 35 41 35 42 61 48
REMARK H PARENT 5 61 65 68
REMARK Flexibility Score:  369.900
ROOT
ATOM      1  C   UNL     1       1.046   1.374   4.192  1.00  0.00     0.117 C 
ENDROOT
BRANCH   1   2
ATOM      2  N   UNL     1       1.016   2.836   4.133  1.00  0.00    -0.347 N 
ATOM      3  O   UNL     1       2.709   3.122   2.609  1.00  0.00    -0.273 OA
ATOM      4  C   UNL     1       1.791   3.591   3.275  1.00  0.00     0.243 C 
ATOM      5  H   UNL     1       0.362   3.341   4.711  1.00  0.00     0.164 HD
BRANCH   4   6
ATOM      6  C   UNL     1       1.505   5.112   3.352  1.00  0.00     0.171 C 
BRANCH   6   7
ATOM      7  N   UNL     1       2.597   5.873   2.723  1.00  0.00    -0.344 N 
ATOM      8  C   UNL     1       3.081   7.022   3.310  1.00  0.00     0.226 C 
ATOM      9  O   UNL     1       2.623   7.475   4.353  1.00  0.00    -0.275 OA
ATOM     10  H   UNL     1       2.955   5.568   1.827  1.00  0.00     0.164 HD
BRANCH   8  11
ATOM     11  C   UNL     1       4.242   7.662   2.569  1.00  0.00     0.109 C 
ATOM     12  C   UNL     1       4.093   9.183   2.570  1.00  0.00     0.021 C 
BRANCH  11  13
ATOM     13  C   UNL     1       5.576   7.141   3.141  1.00  0.00     0.204 C 
BRANCH  13  14
ATOM     14  N   UNL     1       5.460   6.763   4.553  1.00  0.00    -0.340 N 
ATOM     15  C   UNL     1       6.117   7.432   5.563  1.00  0.00     0.243 C 
ATOM     16  O   UNL     1       6.800   8.433   5.357  1.00  0.00    -0.273 OA
ATOM     17  H   UNL     1       5.036   5.858   4.775  1.00  0.00     0.164 HD
BRANCH  15  18
ATOM     18  C   UNL     1       6.012   6.730   6.940  1.00  0.00     0.171 C 
BRANCH  18  19
ATOM     19  N   UNL     1       6.854   7.490   7.862  1.00  0.00    -0.343 N 
ATOM     20  C   UNL     1       7.869   6.892   8.584  1.00  0.00     0.242 CG0
ATOM     21  O   UNL     1       8.025   5.673   8.586  1.00  0.00    -0.273 OA
ATOM     22  H   UNL     1       6.688   8.483   7.983  1.00  0.00     0.164 HD
ATOM     23  G   UNL     1       8.699   7.867   9.444  1.00  0.00     0.000 G0
ENDBRANCH  18  19
BRANCH  18  24
ATOM     24  C   UNL     1       4.555   6.686   7.416  1.00  0.00     0.038 C 
BRANCH  24  25
ATOM     25  C   UNL     1       4.011   5.269   7.697  1.00  0.00    -0.015 C 
ATOM     26  C   UNL     1       5.053   4.180   7.436  1.00  0.00     0.007 C 
ATOM     27  C   UNL     1       2.772   5.013   6.836  1.00  0.00     0.007 C 
ENDBRANCH  24  25
ENDBRANCH  18  24
ENDBRANCH  15  18
ENDBRANCH  13  14
BRANCH  13  28
ATOM     28  C   UNL     1       6.121   5.924   2.389  1.00  0.00     0.327 C 
ATOM     29  O   UNL     1       5.643   4.800   2.389  1.00  0.00    -0.250 OA
BRANCH  28  30
ATOM     30  O   UNL     1       7.300   6.164   1.779  1.00  0.00    -0.480 OA
ATOM     31  H   UNL     1       7.635   6.976   2.212  1.00  0.00     0.296 HD
ENDBRANCH  28  30
ENDBRANCH  13  28
ENDBRANCH  11  13
ENDBRANCH   8  11
ENDBRANCH   6   7
BRANCH   6  32
ATOM     32  C   UNL     1       0.167   5.408   2.666  1.00  0.00     0.037 C 
BRANCH  32  33
ATOM     33  C   UNL     1       0.282   5.385   1.135  1.00  0.00     0.026 C 
BRANCH  33  34
ATOM     34  C   UNL     1      -0.948   4.772   0.465  1.00  0.00     0.146 C 
BRANCH  34  35
ATOM     35  N   UNL     1      -0.518   4.016  -0.703  1.00  0.00    -0.254 NA
ATOM     36  C   UNL     1      -1.410   3.535  -1.487  1.00  0.00     0.185 C 
ATOM     37  N   UNL     1      -1.025   2.841  -2.569  1.00  0.00    -0.370 N 
ATOM     38  N   UNL     1      -2.749   3.619  -1.394  1.00  0.00    -0.370 N 
ATOM     39  H   UNL     1      -0.028   2.742  -2.714  1.00  0.00     0.159 HD
ATOM     40  H   UNL     1      -1.647   2.584  -3.315  1.00  0.00     0.159 HD
ATOM     41  H   UNL     1      -3.348   3.079  -1.998  1.00  0.00     0.159 HD
ATOM     42  H   UNL     1      -3.180   4.099  -0.620  1.00  0.00     0.159 HD
ENDBRANCH  34  35
ENDBRANCH  33  34
ENDBRANCH  32  33
ENDBRANCH   6  32
ENDBRANCH   4   6
ENDBRANCH   1   2
BRANCH   1  43
ATOM     43  C   UNL     1      -0.291   0.828   3.612  1.00  0.00     0.102 C 
ATOM     44  C   UNL     1      -0.620  -0.602   4.075  1.00  0.00     0.020 C 
BRANCH  43  45
ATOM     45  C   UNL     1      -0.349   1.018   2.093  1.00  0.00     0.225 C 
ATOM     46  O   UNL     1      -1.361   1.386   1.502  1.00  0.00    -0.275 OA
ATOM     47  N   UNL     1       0.788   0.658   1.407  1.00  0.00    -0.342 N 
ATOM     48  H   UNL     1       1.650   0.506   1.911  1.00  0.00     0.164 HD
BRANCH  47  49
ATOM     49  C   UNL     1       0.888   0.819  -0.047  1.00  0.00     0.192 C 
BRANCH  49  50
ATOM     50  C   UNL     1       0.738  -0.544  -0.727  1.00  0.00     0.047 C 
BRANCH  50  51
ATOM     51  C   UNL     1      -0.416  -0.565  -1.739  1.00  0.00     0.103 C 
BRANCH  51  52
ATOM     52  C   UNL     1      -1.687  -1.169  -1.147  1.00  0.00     0.226 C 
ATOM     53  O   UNL     1      -1.647  -1.711  -0.041  1.00  0.00    -0.275 OA
BRANCH  52  54
ATOM     54  N   UNL     1      -2.869  -0.997  -1.892  1.00  0.00    -0.311 N 
ATOM     55  C   UNL     1      -3.787   0.114  -1.607  1.00  0.00     0.153 C 
BRANCH  54  56
ATOM     56  C   UNL     1      -3.212  -1.873  -2.935  1.00  0.00     0.102 C 
ATOM     57  C   UNL     1      -2.840  -1.724  -4.217  1.00  0.00     0.043 C 
BRANCH  56  58
ATOM     58  C   UNL     1      -4.020  -3.120  -2.666  1.00  0.00     0.268 C 
ATOM     59  O   UNL     1      -4.220  -3.558  -1.541  1.00  0.00    -0.268 OA
ATOM     60  N   UNL     1      -4.558  -3.671  -3.804  1.00  0.00    -0.339 N 
ATOM     61  H   UNL     1      -4.336  -3.254  -4.700  1.00  0.00     0.164 HD
BRANCH  60  62
ATOM     62  C   UNL     1      -5.426  -4.847  -3.765  1.00  0.00     0.168 CG0
ATOM     63  C   UNL     1      -4.623  -6.127  -3.959  1.00  0.00     0.041 C 
ATOM     64  G   UNL     1      -6.519  -4.720  -4.846  1.00  0.00     0.000 G0
ENDBRANCH  60  62
ENDBRANCH  56  58
ENDBRANCH  54  56
ENDBRANCH  52  54
ENDBRANCH  51  52
ENDBRANCH  50  51
ENDBRANCH  49  50
BRANCH  49  65
ATOM     65  C   UNL     1       2.230   1.447  -0.456  1.00  0.00     0.326 C 
ATOM     66  O   UNL     1       3.241   0.829  -0.757  1.00  0.00    -0.250 OA
BRANCH  65  67
ATOM     67  O   UNL     1       2.258   2.797  -0.410  1.00  0.00    -0.480 OA
ATOM     68  H   UNL     1       3.205   3.014  -0.552  1.00  0.00     0.296 HD
ENDBRANCH  65  67
ENDBRANCH  49  65
ENDBRANCH  47  49
ENDBRANCH  43  45
ENDBRANCH   1  43
BRANCH   1  69
ATOM     69  C   UNL     1       1.428   1.015   5.616  1.00  0.00    -0.001 C 
ATOM     70  C   UNL     1       2.528   0.359   6.027  1.00  0.00     0.001 C 
BRANCH  70  71
ATOM     71  C   UNL     1       2.897   0.037   7.406  1.00  0.00    -0.055 C 
ATOM     72  C   UNL     1       3.336  -1.213   7.663  1.00  0.00    -0.018 C 
ATOM     73  C   UNL     1       2.769   1.125   8.440  1.00  0.00     0.044 C 
BRANCH  72  74
ATOM     74  C   UNL     1       3.786  -1.824   8.983  1.00  0.00     0.038 C 
ATOM     75  C   UNL     1       5.282  -1.522   9.134  1.00  0.00     0.015 C 
BRANCH  74  76
ATOM     76  C   UNL     1       3.422  -3.338   8.984  1.00  0.00     0.128 C 
BRANCH  76  77
ATOM     77  O   UNL     1       2.436  -3.605   9.995  1.00  0.00    -0.381 OA
ATOM     78  C   UNL     1       1.767  -2.441  10.462  1.00  0.00     0.195 C 
ENDBRANCH  76  77
BRANCH  76  79
ATOM     79  C   UNL     1       3.019  -3.890   7.593  1.00  0.00     0.068 C 
BRANCH  79  80
ATOM     80  C   UNL     1       3.480  -5.278   7.222  1.00  0.00    -0.045 A 
ATOM     81  C   UNL     1       2.889  -6.412   7.794  1.00  0.00     0.004 A 
ATOM     82  C   UNL     1       4.535  -5.454   6.314  1.00  0.00     0.004 A 
ATOM     83  C   UNL     1       3.331  -7.693   7.457  1.00  0.00     0.000 A 
ATOM     84  C   UNL     1       4.977  -6.736   5.977  1.00  0.00     0.000 A 
ATOM     85  C   UNL     1       4.374  -7.854   6.547  1.00  0.00     0.000 A 
ENDBRANCH  79  80
ENDBRANCH  76  79
ENDBRANCH  74  76
ENDBRANCH  72  74
ENDBRANCH  70  71
ENDBRANCH   1  69
TORSDOF 17
ENDMDL
MODEL 33
REMARK VINA RESULT:    -6.561      8.726     12.635
REMARK INTER + INTRA:         -26.117
REMARK INTER:                 -19.090
REMARK INTRA:                  -7.027
REMARK UNBOUND:                -6.514
REMARK SMILES C=C1C(=O)N[C@H](C)C(=O)N[C@@H](CC(C)C)C(=O)N[C@@H](C(=O)O)[C@H](C)C(=O)N[C@@H](CCCN=C(N)N)C(=O)N[C@@H](/C=C/C(C)=C/[C@H](C)[C@H](Cc2ccccc2)OC)[C@H](C)C(=O)N[C@@H](C(=O)O)CCC(=O)N1C
REMARK SMILES IDX 39 1 38 2 37 3 36 4 28 6 27 7 25 8 26 9 23 11 24 12 19 13
REMARK SMILES IDX 18 14 16 15 17 16 11 18 10 19 8 20 9 21 12 24 13 25 14 26
REMARK SMILES IDX 15 27 20 28 21 29 22 30 29 32 30 33 31 34 32 35 33 36 34 37
REMARK SMILES IDX 35 38 57 43 58 44 59 45 60 46 61 47 62 49 66 50 67 51 68 52
REMARK SMILES IDX 69 53 70 54 71 55 2 56 1 57 3 58 4 59 5 60 6 62 7 63 63 65
REMARK SMILES IDX 64 66 65 67 40 69 41 70 42 71 44 72 43 73 45 74 46 75 47 76
REMARK SMILES IDX 55 77 56 78 48 79 49 80 50 81 54 82 51 83 53 84 52 85
REMARK H PARENT 38 5 27 10 18 17 10 22 22 31 34 39 34 40 35 41 35 42 61 48
REMARK H PARENT 5 61 65 68
REMARK Flexibility Score:  369.900
ROOT
ATOM      1  C   UNL     1      -3.420   1.405   2.928  1.00  0.00     0.117 C 
ENDROOT
BRANCH   1   2
ATOM      2  N   UNL     1      -3.368   0.934   1.543  1.00  0.00    -0.347 N 
ATOM      3  O   UNL     1      -5.187   2.090   0.752  1.00  0.00    -0.273 OA
ATOM      4  C   UNL     1      -4.204   1.387   0.541  1.00  0.00     0.243 C 
ATOM      5  H   UNL     1      -2.655   0.275   1.271  1.00  0.00     0.164 HD
BRANCH   4   6
ATOM      6  C   UNL     1      -3.884   0.793  -0.854  1.00  0.00     0.171 C 
BRANCH   6   7
ATOM      7  N   UNL     1      -5.109   0.280  -1.488  1.00  0.00    -0.344 N 
ATOM      8  C   UNL     1      -5.314  -1.076  -1.625  1.00  0.00     0.226 C 
ATOM      9  O   UNL     1      -4.495  -1.909  -1.256  1.00  0.00    -0.275 OA
ATOM     10  H   UNL     1      -5.779   0.938  -1.866  1.00  0.00     0.164 HD
BRANCH   8  11
ATOM     11  C   UNL     1      -6.649  -1.447  -2.249  1.00  0.00     0.109 C 
ATOM     12  C   UNL     1      -7.015  -0.443  -3.342  1.00  0.00     0.021 C 
BRANCH  11  13
ATOM     13  C   UNL     1      -6.621  -2.920  -2.703  1.00  0.00     0.204 C 
BRANCH  13  14
ATOM     14  N   UNL     1      -5.449  -3.219  -3.532  1.00  0.00    -0.340 N 
ATOM     15  C   UNL     1      -5.541  -3.548  -4.867  1.00  0.00     0.243 C 
ATOM     16  O   UNL     1      -6.610  -3.555  -5.473  1.00  0.00    -0.273 OA
ATOM     17  H   UNL     1      -4.555  -3.379  -3.060  1.00  0.00     0.164 HD
BRANCH  15  18
ATOM     18  C   UNL     1      -4.201  -4.025  -5.480  1.00  0.00     0.171 C 
BRANCH  18  19
ATOM     19  N   UNL     1      -4.397  -5.415  -5.886  1.00  0.00    -0.343 N 
ATOM     20  C   UNL     1      -4.412  -6.447  -4.967  1.00  0.00     0.242 CG0
ATOM     21  O   UNL     1      -4.128  -6.261  -3.786  1.00  0.00    -0.273 OA
ATOM     22  H   UNL     1      -4.520  -5.634  -6.868  1.00  0.00     0.164 HD
ATOM     23  G   UNL     1      -4.710  -7.834  -5.572  1.00  0.00     0.000 G0
ENDBRANCH  18  19
BRANCH  18  24
ATOM     24  C   UNL     1      -3.807  -3.142  -6.671  1.00  0.00     0.038 C 
BRANCH  24  25
ATOM     25  C   UNL     1      -2.975  -1.896  -6.302  1.00  0.00    -0.015 C 
ATOM     26  C   UNL     1      -2.084  -2.127  -5.082  1.00  0.00     0.007 C 
ATOM     27  C   UNL     1      -3.910  -0.712  -6.040  1.00  0.00     0.007 C 
ENDBRANCH  24  25
ENDBRANCH  18  24
ENDBRANCH  15  18
ENDBRANCH  13  14
BRANCH  13  28
ATOM     28  C   UNL     1      -6.616  -3.912  -1.536  1.00  0.00     0.327 C 
ATOM     29  O   UNL     1      -7.401  -3.930  -0.600  1.00  0.00    -0.250 OA
BRANCH  28  30
ATOM     30  O   UNL     1      -5.557  -4.745  -1.555  1.00  0.00    -0.480 OA
ATOM     31  H   UNL     1      -4.920  -4.340  -0.930  1.00  0.00     0.296 HD
ENDBRANCH  28  30
ENDBRANCH  13  28
ENDBRANCH  11  13
ENDBRANCH   8  11
ENDBRANCH   6   7
BRANCH   6  32
ATOM     32  C   UNL     1      -3.229   1.872  -1.723  1.00  0.00     0.037 C 
BRANCH  32  33
ATOM     33  C   UNL     1      -2.787   1.327  -3.088  1.00  0.00     0.026 C 
BRANCH  33  34
ATOM     34  C   UNL     1      -1.270   1.162  -3.188  1.00  0.00     0.146 C 
BRANCH  34  35
ATOM     35  N   UNL     1      -0.849   0.115  -2.268  1.00  0.00    -0.254 NA
ATOM     36  C   UNL     1       0.065   0.381  -1.411  1.00  0.00     0.185 C 
ATOM     37  N   UNL     1       0.456  -0.576  -0.554  1.00  0.00    -0.370 N 
ATOM     38  N   UNL     1       0.734   1.531  -1.219  1.00  0.00    -0.370 N 
ATOM     39  H   UNL     1      -0.010  -1.471  -0.629  1.00  0.00     0.159 HD
ATOM     40  H   UNL     1       1.033  -0.399   0.250  1.00  0.00     0.159 HD
ATOM     41  H   UNL     1       1.530   1.575  -0.603  1.00  0.00     0.159 HD
ATOM     42  H   UNL     1       0.553   2.333  -1.803  1.00  0.00     0.159 HD
ENDBRANCH  34  35
ENDBRANCH  33  34
ENDBRANCH  32  33
ENDBRANCH   6  32
ENDBRANCH   4   6
ENDBRANCH   1   2
BRANCH   1  43
ATOM     43  C   UNL     1      -2.079   2.122   3.257  1.00  0.00     0.102 C 
ATOM     44  C   UNL     1      -2.216   3.212   4.334  1.00  0.00     0.020 C 
BRANCH  43  45
ATOM     45  C   UNL     1      -1.380   2.596   1.979  1.00  0.00     0.225 C 
ATOM     46  O   UNL     1      -0.583   1.904   1.354  1.00  0.00    -0.275 OA
ATOM     47  N   UNL     1      -1.631   3.900   1.616  1.00  0.00    -0.342 N 
ATOM     48  H   UNL     1      -2.396   4.401   2.046  1.00  0.00     0.164 HD
BRANCH  47  49
ATOM     49  C   UNL     1      -1.060   4.479   0.396  1.00  0.00     0.192 C 
BRANCH  49  50
ATOM     50  C   UNL     1       0.225   5.236   0.740  1.00  0.00     0.047 C 
BRANCH  50  51
ATOM     51  C   UNL     1       0.416   5.403   2.253  1.00  0.00     0.103 C 
BRANCH  51  52
ATOM     52  C   UNL     1       1.052   6.747   2.607  1.00  0.00     0.226 C 
ATOM     53  O   UNL     1       0.485   7.793   2.286  1.00  0.00    -0.275 OA
BRANCH  52  54
ATOM     54  N   UNL     1       2.239   6.699   3.361  1.00  0.00    -0.311 N 
ATOM     55  C   UNL     1       2.226   6.260   4.763  1.00  0.00     0.153 C 
BRANCH  54  56
ATOM     56  C   UNL     1       3.476   7.062   2.804  1.00  0.00     0.102 C 
ATOM     57  C   UNL     1       4.312   6.221   2.174  1.00  0.00     0.043 C 
BRANCH  56  58
ATOM     58  C   UNL     1       3.949   8.496   2.836  1.00  0.00     0.268 C 
ATOM     59  O   UNL     1       3.941   9.181   3.851  1.00  0.00    -0.268 OA
ATOM     60  N   UNL     1       4.449   8.928   1.631  1.00  0.00    -0.339 N 
ATOM     61  H   UNL     1       4.410   8.302   0.835  1.00  0.00     0.164 HD
BRANCH  60  62
ATOM     62  C   UNL     1       5.018  10.264   1.457  1.00  0.00     0.168 CG0
ATOM     63  C   UNL     1       6.495  10.186   1.091  1.00  0.00     0.041 C 
ATOM     64  G   UNL     1       4.818  11.083   2.749  1.00  0.00     0.000 G0
ENDBRANCH  60  62
ENDBRANCH  56  58
ENDBRANCH  54  56
ENDBRANCH  52  54
ENDBRANCH  51  52
ENDBRANCH  50  51
ENDBRANCH  49  50
BRANCH  49  65
ATOM     65  C   UNL     1      -2.046   5.435  -0.293  1.00  0.00     0.326 C 
ATOM     66  O   UNL     1      -3.240   5.229  -0.455  1.00  0.00    -0.250 OA
BRANCH  65  67
ATOM     67  O   UNL     1      -1.485   6.559  -0.792  1.00  0.00    -0.480 OA
ATOM     68  H   UNL     1      -1.054   6.255  -1.620  1.00  0.00     0.296 HD
ENDBRANCH  65  67
ENDBRANCH  49  65
ENDBRANCH  47  49
ENDBRANCH  43  45
ENDBRANCH   1  43
BRANCH   1  69
ATOM     69  C   UNL     1      -3.837   0.211   3.766  1.00  0.00    -0.001 C 
ATOM     70  C   UNL     1      -3.052  -0.561   4.538  1.00  0.00     0.001 C 
BRANCH  70  71
ATOM     71  C   UNL     1      -3.470  -1.699   5.359  1.00  0.00    -0.055 C 
ATOM     72  C   UNL     1      -4.734  -2.149   5.210  1.00  0.00    -0.018 C 
ATOM     73  C   UNL     1      -2.459  -2.290   6.307  1.00  0.00     0.044 C 
BRANCH  72  74
ATOM     74  C   UNL     1      -5.435  -3.300   5.917  1.00  0.00     0.038 C 
ATOM     75  C   UNL     1      -6.282  -4.029   4.866  1.00  0.00     0.015 C 
BRANCH  74  76
ATOM     76  C   UNL     1      -6.240  -2.731   7.123  1.00  0.00     0.128 C 
BRANCH  76  77
ATOM     77  O   UNL     1      -5.456  -2.826   8.325  1.00  0.00    -0.381 OA
ATOM     78  C   UNL     1      -5.143  -1.565   8.903  1.00  0.00     0.195 C 
ENDBRANCH  76  77
BRANCH  76  79
ATOM     79  C   UNL     1      -6.806  -1.309   6.887  1.00  0.00     0.068 C 
BRANCH  79  80
ATOM     80  C   UNL     1      -8.070  -1.177   6.073  1.00  0.00    -0.045 A 
ATOM     81  C   UNL     1      -9.147  -2.053   6.264  1.00  0.00     0.004 A 
ATOM     82  C   UNL     1      -8.175  -0.186   5.085  1.00  0.00     0.004 A 
ATOM     83  C   UNL     1     -10.307  -1.933   5.497  1.00  0.00     0.000 A 
ATOM     84  C   UNL     1      -9.336  -0.068   4.318  1.00  0.00     0.000 A 
ATOM     85  C   UNL     1     -10.402  -0.940   4.525  1.00  0.00     0.000 A 
ENDBRANCH  79  80
ENDBRANCH  76  79
ENDBRANCH  74  76
ENDBRANCH  72  74
ENDBRANCH  70  71
ENDBRANCH   1  69
TORSDOF 17
ENDMDL
MODEL 34
REMARK VINA RESULT:    -6.549      6.978     14.624
REMARK INTER + INTRA:         -26.079
REMARK INTER:                 -19.685
REMARK INTRA:                  -6.394
REMARK UNBOUND:                -6.514
REMARK SMILES C=C1C(=O)N[C@H](C)C(=O)N[C@@H](CC(C)C)C(=O)N[C@@H](C(=O)O)[C@H](C)C(=O)N[C@@H](CCCN=C(N)N)C(=O)N[C@@H](/C=C/C(C)=C/[C@H](C)[C@H](Cc2ccccc2)OC)[C@H](C)C(=O)N[C@@H](C(=O)O)CCC(=O)N1C
REMARK SMILES IDX 39 1 38 2 37 3 36 4 28 6 27 7 25 8 26 9 23 11 24 12 19 13
REMARK SMILES IDX 18 14 16 15 17 16 11 18 10 19 8 20 9 21 12 24 13 25 14 26
REMARK SMILES IDX 15 27 20 28 21 29 22 30 29 32 30 33 31 34 32 35 33 36 34 37
REMARK SMILES IDX 35 38 57 43 58 44 59 45 60 46 61 47 62 49 66 50 67 51 68 52
REMARK SMILES IDX 69 53 70 54 71 55 2 56 1 57 3 58 4 59 5 60 6 62 7 63 63 65
REMARK SMILES IDX 64 66 65 67 40 69 41 70 42 71 44 72 43 73 45 74 46 75 47 76
REMARK SMILES IDX 55 77 56 78 48 79 49 80 50 81 54 82 51 83 53 84 52 85
REMARK H PARENT 38 5 27 10 18 17 10 22 22 31 34 39 34 40 35 41 35 42 61 48
REMARK H PARENT 5 61 65 68
REMARK Flexibility Score:  369.900
ROOT
ATOM      1  C   UNL     1      -1.270   0.268  -0.352  1.00  0.00     0.117 C 
ENDROOT
BRANCH   1   2
ATOM      2  N   UNL     1      -1.594   1.054   0.839  1.00  0.00    -0.347 N 
ATOM      3  O   UNL     1      -1.737  -0.685   2.331  1.00  0.00    -0.273 OA
ATOM      4  C   UNL     1      -1.712   0.521   2.109  1.00  0.00     0.243 C 
ATOM      5  H   UNL     1      -1.692   2.055   0.760  1.00  0.00     0.164 HD
BRANCH   4   6
ATOM      6  C   UNL     1      -1.975   1.581   3.208  1.00  0.00     0.171 C 
BRANCH   6   7
ATOM      7  N   UNL     1      -3.228   1.284   3.920  1.00  0.00    -0.344 N 
ATOM      8  C   UNL     1      -4.396   1.937   3.590  1.00  0.00     0.226 C 
ATOM      9  O   UNL     1      -4.447   2.799   2.720  1.00  0.00    -0.275 OA
ATOM     10  H   UNL     1      -3.211   0.627   4.690  1.00  0.00     0.164 HD
BRANCH   8  11
ATOM     11  C   UNL     1      -5.612   1.481   4.376  1.00  0.00     0.109 C 
ATOM     12  C   UNL     1      -6.203   2.654   5.159  1.00  0.00     0.021 C 
BRANCH  11  13
ATOM     13  C   UNL     1      -6.602   0.764   3.437  1.00  0.00     0.204 C 
BRANCH  13  14
ATOM     14  N   UNL     1      -7.212  -0.409   4.070  1.00  0.00    -0.340 N 
ATOM     15  C   UNL     1      -7.410  -1.600   3.404  1.00  0.00     0.243 C 
ATOM     16  O   UNL     1      -7.033  -1.781   2.248  1.00  0.00    -0.273 OA
ATOM     17  H   UNL     1      -7.681  -0.280   4.970  1.00  0.00     0.164 HD
BRANCH  15  18
ATOM     18  C   UNL     1      -8.255  -2.622   4.204  1.00  0.00     0.171 C 
BRANCH  18  19
ATOM     19  N   UNL     1      -7.445  -3.833   4.322  1.00  0.00    -0.343 N 
ATOM     20  C   UNL     1      -6.228  -3.835   4.977  1.00  0.00     0.242 CG0
ATOM     21  O   UNL     1      -5.709  -2.794   5.373  1.00  0.00    -0.273 OA
ATOM     22  H   UNL     1      -7.778  -4.697   3.909  1.00  0.00     0.164 HD
ATOM     23  G   UNL     1      -5.556  -5.221   5.068  1.00  0.00     0.000 G0
ENDBRANCH  18  19
BRANCH  18  24
ATOM     24  C   UNL     1      -8.626  -2.058   5.581  1.00  0.00     0.038 C 
BRANCH  24  25
ATOM     25  C   UNL     1     -10.114  -1.682   5.743  1.00  0.00    -0.015 C 
ATOM     26  C   UNL     1     -10.774  -1.318   4.413  1.00  0.00     0.007 C 
ATOM     27  C   UNL     1     -10.246  -0.511   6.721  1.00  0.00     0.007 C 
ENDBRANCH  24  25
ENDBRANCH  18  24
ENDBRANCH  15  18
ENDBRANCH  13  14
BRANCH  13  28
ATOM     28  C   UNL     1      -7.744   1.667   2.960  1.00  0.00     0.327 C 
ATOM     29  O   UNL     1      -8.886   1.678   3.393  1.00  0.00    -0.250 OA
BRANCH  28  30
ATOM     30  O   UNL     1      -7.413   2.418   1.890  1.00  0.00    -0.480 OA
ATOM     31  H   UNL     1      -6.665   2.968   2.203  1.00  0.00     0.296 HD
ENDBRANCH  28  30
ENDBRANCH  13  28
ENDBRANCH  11  13
ENDBRANCH   8  11
ENDBRANCH   6   7
BRANCH   6  32
ATOM     32  C   UNL     1      -0.788   1.607   4.177  1.00  0.00     0.037 C 
BRANCH  32  33
ATOM     33  C   UNL     1      -1.136   0.983   5.536  1.00  0.00     0.026 C 
BRANCH  33  34
ATOM     34  C   UNL     1      -0.053   0.025   6.034  1.00  0.00     0.146 C 
BRANCH  34  35
ATOM     35  N   UNL     1      -0.690  -1.084   6.730  1.00  0.00    -0.254 NA
ATOM     36  C   UNL     1      -0.932  -2.160   6.078  1.00  0.00     0.185 C 
ATOM     37  N   UNL     1      -1.514  -3.191   6.710  1.00  0.00    -0.370 N 
ATOM     38  N   UNL     1      -0.680  -2.440   4.787  1.00  0.00    -0.370 N 
ATOM     39  H   UNL     1      -1.726  -3.061   7.691  1.00  0.00     0.159 HD
ATOM     40  H   UNL     1      -1.577  -4.117   6.323  1.00  0.00     0.159 HD
ATOM     41  H   UNL     1      -1.044  -3.273   4.354  1.00  0.00     0.159 HD
ATOM     42  H   UNL     1      -0.258  -1.750   4.185  1.00  0.00     0.159 HD
ENDBRANCH  34  35
ENDBRANCH  33  34
ENDBRANCH  32  33
ENDBRANCH   6  32
ENDBRANCH   4   6
ENDBRANCH   1   2
BRANCH   1  43
ATOM     43  C   UNL     1      -0.362   1.127  -1.279  1.00  0.00     0.102 C 
ATOM     44  C   UNL     1      -0.921   2.534  -1.550  1.00  0.00     0.020 C 
BRANCH  43  45
ATOM     45  C   UNL     1       0.016   0.355  -2.547  1.00  0.00     0.225 C 
ATOM     46  O   UNL     1       0.847  -0.549  -2.559  1.00  0.00    -0.275 OA
ATOM     47  N   UNL     1      -0.570   0.800  -3.709  1.00  0.00    -0.342 N 
ATOM     48  H   UNL     1      -1.355   1.434  -3.663  1.00  0.00     0.164 HD
BRANCH  47  49
ATOM     49  C   UNL     1      -0.328   0.135  -4.993  1.00  0.00     0.192 C 
BRANCH  49  50
ATOM     50  C   UNL     1      -0.230   1.183  -6.105  1.00  0.00     0.047 C 
BRANCH  50  51
ATOM     51  C   UNL     1       1.083   1.074  -6.893  1.00  0.00     0.103 C 
BRANCH  51  52
ATOM     52  C   UNL     1       0.844   0.719  -8.359  1.00  0.00     0.226 C 
ATOM     53  O   UNL     1       0.164  -0.268  -8.644  1.00  0.00    -0.275 OA
BRANCH  52  54
ATOM     54  N   UNL     1       1.370   1.609  -9.313  1.00  0.00    -0.311 N 
ATOM     55  C   UNL     1       0.484   2.431 -10.149  1.00  0.00     0.153 C 
BRANCH  54  56
ATOM     56  C   UNL     1       2.755   1.750  -9.499  1.00  0.00     0.102 C 
ATOM     57  C   UNL     1       3.620   0.731  -9.633  1.00  0.00     0.043 C 
BRANCH  56  58
ATOM     58  C   UNL     1       3.387   3.118  -9.610  1.00  0.00     0.268 C 
ATOM     59  O   UNL     1       3.475   3.893  -8.667  1.00  0.00    -0.268 OA
ATOM     60  N   UNL     1       3.910   3.372 -10.855  1.00  0.00    -0.339 N 
ATOM     61  H   UNL     1       3.786   2.681 -11.586  1.00  0.00     0.164 HD
BRANCH  60  62
ATOM     62  C   UNL     1       4.621   4.611 -11.164  1.00  0.00     0.168 CG0
ATOM     63  C   UNL     1       6.032   4.323 -11.663  1.00  0.00     0.041 C 
ATOM     64  G   UNL     1       4.659   5.511  -9.911  1.00  0.00     0.000 G0
ENDBRANCH  60  62
ENDBRANCH  56  58
ENDBRANCH  54  56
ENDBRANCH  52  54
ENDBRANCH  51  52
ENDBRANCH  50  51
ENDBRANCH  49  50
BRANCH  49  65
ATOM     65  C   UNL     1      -1.445  -0.864  -5.333  1.00  0.00     0.326 C 
ATOM     66  O   UNL     1      -2.021  -1.586  -4.531  1.00  0.00    -0.250 OA
BRANCH  65  67
ATOM     67  O   UNL     1      -1.741  -0.954  -6.648  1.00  0.00    -0.480 OA
ATOM     68  H   UNL     1      -0.868  -1.093  -7.073  1.00  0.00     0.296 HD
ENDBRANCH  65  67
ENDBRANCH  49  65
ENDBRANCH  47  49
ENDBRANCH  43  45
ENDBRANCH   1  43
BRANCH   1  69
ATOM     69  C   UNL     1      -2.591  -0.248  -0.892  1.00  0.00    -0.001 C 
ATOM     70  C   UNL     1      -3.532   0.450  -1.552  1.00  0.00     0.001 C 
BRANCH  70  71
ATOM     71  C   UNL     1      -4.794  -0.065  -2.087  1.00  0.00    -0.055 C 
ATOM     72  C   UNL     1      -4.923  -1.402  -2.215  1.00  0.00    -0.018 C 
ATOM     73  C   UNL     1      -5.862   0.934  -2.450  1.00  0.00     0.044 C 
BRANCH  72  74
ATOM     74  C   UNL     1      -6.105  -2.211  -2.732  1.00  0.00     0.038 C 
ATOM     75  C   UNL     1      -6.637  -3.037  -1.555  1.00  0.00     0.015 C 
BRANCH  74  76
ATOM     76  C   UNL     1      -5.640  -3.047  -3.960  1.00  0.00     0.128 C 
BRANCH  76  77
ATOM     77  O   UNL     1      -5.831  -4.448  -3.700  1.00  0.00    -0.381 OA
ATOM     78  C   UNL     1      -6.829  -5.050  -4.514  1.00  0.00     0.195 C 
ENDBRANCH  76  77
BRANCH  76  79
ATOM     79  C   UNL     1      -6.268  -2.596  -5.303  1.00  0.00     0.068 C 
BRANCH  79  80
ATOM     80  C   UNL     1      -6.238  -1.125  -5.638  1.00  0.00    -0.045 A 
ATOM     81  C   UNL     1      -5.035  -0.483  -5.962  1.00  0.00     0.004 A 
ATOM     82  C   UNL     1      -7.418  -0.367  -5.604  1.00  0.00     0.004 A 
ATOM     83  C   UNL     1      -5.013   0.882  -6.257  1.00  0.00     0.000 A 
ATOM     84  C   UNL     1      -7.395   0.998  -5.899  1.00  0.00     0.000 A 
ATOM     85  C   UNL     1      -6.193   1.622  -6.227  1.00  0.00     0.000 A 
ENDBRANCH  79  80
ENDBRANCH  76  79
ENDBRANCH  74  76
ENDBRANCH  72  74
ENDBRANCH  70  71
ENDBRANCH   1  69
TORSDOF 17
ENDMDL
MODEL 35
REMARK VINA RESULT:    -6.549      5.795     13.647
REMARK INTER + INTRA:         -26.079
REMARK INTER:                 -20.512
REMARK INTRA:                  -5.566
REMARK UNBOUND:                -6.514
REMARK SMILES C=C1C(=O)N[C@H](C)C(=O)N[C@@H](CC(C)C)C(=O)N[C@@H](C(=O)O)[C@H](C)C(=O)N[C@@H](CCCN=C(N)N)C(=O)N[C@@H](/C=C/C(C)=C/[C@H](C)[C@H](Cc2ccccc2)OC)[C@H](C)C(=O)N[C@@H](C(=O)O)CCC(=O)N1C
REMARK SMILES IDX 39 1 38 2 37 3 36 4 28 6 27 7 25 8 26 9 23 11 24 12 19 13
REMARK SMILES IDX 18 14 16 15 17 16 11 18 10 19 8 20 9 21 12 24 13 25 14 26
REMARK SMILES IDX 15 27 20 28 21 29 22 30 29 32 30 33 31 34 32 35 33 36 34 37
REMARK SMILES IDX 35 38 57 43 58 44 59 45 60 46 61 47 62 49 66 50 67 51 68 52
REMARK SMILES IDX 69 53 70 54 71 55 2 56 1 57 3 58 4 59 5 60 6 62 7 63 63 65
REMARK SMILES IDX 64 66 65 67 40 69 41 70 42 71 44 72 43 73 45 74 46 75 47 76
REMARK SMILES IDX 55 77 56 78 48 79 49 80 50 81 54 82 51 83 53 84 52 85
REMARK H PARENT 38 5 27 10 18 17 10 22 22 31 34 39 34 40 35 41 35 42 61 48
REMARK H PARENT 5 61 65 68
REMARK Flexibility Score:  369.900
ROOT
ATOM      1  C   UNL     1      -1.199   0.666  -4.198  1.00  0.00     0.117 C 
ENDROOT
BRANCH   1   2
ATOM      2  N   UNL     1      -1.442   1.334  -2.918  1.00  0.00    -0.347 N 
ATOM      3  O   UNL     1      -0.762  -0.372  -1.541  1.00  0.00    -0.273 OA
ATOM      4  C   UNL     1      -1.117   0.793  -1.690  1.00  0.00     0.243 C 
ATOM      5  H   UNL     1      -1.824   2.268  -2.913  1.00  0.00     0.164 HD
BRANCH   4   6
ATOM      6  C   UNL     1      -1.398   1.741  -0.497  1.00  0.00     0.171 C 
BRANCH   6   7
ATOM      7  N   UNL     1      -1.930   0.984   0.648  1.00  0.00    -0.344 N 
ATOM      8  C   UNL     1      -3.122   1.346   1.237  1.00  0.00     0.226 C 
ATOM      9  O   UNL     1      -3.777   2.312   0.862  1.00  0.00    -0.275 OA
ATOM     10  H   UNL     1      -1.384   0.221   1.028  1.00  0.00     0.164 HD
BRANCH   8  11
ATOM     11  C   UNL     1      -3.563   0.435   2.369  1.00  0.00     0.109 C 
ATOM     12  C   UNL     1      -2.452   0.317   3.412  1.00  0.00     0.021 C 
BRANCH  11  13
ATOM     13  C   UNL     1      -4.922   0.909   2.921  1.00  0.00     0.204 C 
BRANCH  13  14
ATOM     14  N   UNL     1      -5.784  -0.214   3.302  1.00  0.00    -0.340 N 
ATOM     15  C   UNL     1      -7.160  -0.129   3.321  1.00  0.00     0.243 C 
ATOM     16  O   UNL     1      -7.764   0.879   2.958  1.00  0.00    -0.273 OA
ATOM     17  H   UNL     1      -5.349  -1.022   3.756  1.00  0.00     0.164 HD
BRANCH  15  18
ATOM     18  C   UNL     1      -7.848  -1.364   3.953  1.00  0.00     0.171 C 
BRANCH  18  19
ATOM     19  N   UNL     1      -9.176  -1.457   3.352  1.00  0.00    -0.343 N 
ATOM     20  C   UNL     1     -10.306  -1.691   4.112  1.00  0.00     0.242 CG0
ATOM     21  O   UNL     1     -10.231  -1.963   5.308  1.00  0.00    -0.273 OA
ATOM     22  H   UNL     1      -9.276  -1.354   2.348  1.00  0.00     0.164 HD
ATOM     23  G   UNL     1     -11.625  -1.678   3.313  1.00  0.00     0.000 G0
ENDBRANCH  18  19
BRANCH  18  24
ATOM     24  C   UNL     1      -7.024  -2.632   3.698  1.00  0.00     0.038 C 
BRANCH  24  25
ATOM     25  C   UNL     1      -6.689  -3.448   4.964  1.00  0.00    -0.015 C 
ATOM     26  C   UNL     1      -5.363  -3.026   5.598  1.00  0.00     0.007 C 
ATOM     27  C   UNL     1      -6.643  -4.939   4.619  1.00  0.00     0.007 C 
ENDBRANCH  24  25
ENDBRANCH  18  24
ENDBRANCH  15  18
ENDBRANCH  13  14
BRANCH  13  28
ATOM     28  C   UNL     1      -4.792   1.819   4.146  1.00  0.00     0.327 C 
ATOM     29  O   UNL     1      -4.932   1.484   5.313  1.00  0.00    -0.250 OA
BRANCH  28  30
ATOM     30  O   UNL     1      -4.612   3.116   3.825  1.00  0.00    -0.480 OA
ATOM     31  H   UNL     1      -5.458   3.545   4.072  1.00  0.00     0.296 HD
ENDBRANCH  28  30
ENDBRANCH  13  28
ENDBRANCH  11  13
ENDBRANCH   8  11
ENDBRANCH   6   7
BRANCH   6  32
ATOM     32  C   UNL     1      -0.104   2.470  -0.117  1.00  0.00     0.037 C 
BRANCH  32  33
ATOM     33  C   UNL     1      -0.302   3.419   1.073  1.00  0.00     0.026 C 
BRANCH  33  34
ATOM     34  C   UNL     1      -0.456   4.877   0.639  1.00  0.00     0.146 C 
BRANCH  34  35
ATOM     35  N   UNL     1      -0.329   4.952  -0.810  1.00  0.00    -0.254 NA
ATOM     36  C   UNL     1      -0.398   6.100  -1.374  1.00  0.00     0.185 C 
ATOM     37  N   UNL     1      -0.277   6.181  -2.708  1.00  0.00    -0.370 N 
ATOM     38  N   UNL     1      -0.581   7.308  -0.812  1.00  0.00    -0.370 N 
ATOM     39  H   UNL     1      -0.126   5.311  -3.204  1.00  0.00     0.159 HD
ATOM     40  H   UNL     1      -0.146   7.046  -3.203  1.00  0.00     0.159 HD
ATOM     41  H   UNL     1      -0.757   8.123  -1.376  1.00  0.00     0.159 HD
ATOM     42  H   UNL     1      -0.703   7.396   0.184  1.00  0.00     0.159 HD
ENDBRANCH  34  35
ENDBRANCH  33  34
ENDBRANCH  32  33
ENDBRANCH   6  32
ENDBRANCH   4   6
ENDBRANCH   1   2
BRANCH   1  43
ATOM     43  C   UNL     1      -1.023   1.753  -5.298  1.00  0.00     0.102 C 
ATOM     44  C   UNL     1      -2.331   2.476  -5.659  1.00  0.00     0.020 C 
BRANCH  43  45
ATOM     45  C   UNL     1      -0.267   1.194  -6.507  1.00  0.00     0.225 C 
ATOM     46  O   UNL     1      -0.384   0.034  -6.894  1.00  0.00    -0.275 OA
ATOM     47  N   UNL     1       0.637   2.052  -7.090  1.00  0.00    -0.342 N 
ATOM     48  H   UNL     1       0.611   3.036  -6.861  1.00  0.00     0.164 HD
BRANCH  47  49
ATOM     49  C   UNL     1       1.405   1.666  -8.277  1.00  0.00     0.192 C 
BRANCH  49  50
ATOM     50  C   UNL     1       2.870   2.070  -8.095  1.00  0.00     0.047 C 
BRANCH  50  51
ATOM     51  C   UNL     1       3.720   0.932  -7.513  1.00  0.00     0.103 C 
BRANCH  51  52
ATOM     52  C   UNL     1       5.067   0.801  -8.221  1.00  0.00     0.226 C 
ATOM     53  O   UNL     1       6.107   0.811  -7.560  1.00  0.00    -0.275 OA
BRANCH  52  54
ATOM     54  N   UNL     1       5.026   0.599  -9.613  1.00  0.00    -0.311 N 
ATOM     55  C   UNL     1       4.085  -0.358 -10.211  1.00  0.00     0.153 C 
BRANCH  54  56
ATOM     56  C   UNL     1       5.875   1.304 -10.481  1.00  0.00     0.102 C 
ATOM     57  C   UNL     1       7.039   0.839 -10.964  1.00  0.00     0.043 C 
BRANCH  56  58
ATOM     58  C   UNL     1       5.499   2.677 -10.988  1.00  0.00     0.268 C 
ATOM     59  O   UNL     1       4.401   3.183 -10.799  1.00  0.00    -0.268 OA
ATOM     60  N   UNL     1       6.534   3.321 -11.623  1.00  0.00    -0.339 N 
ATOM     61  H   UNL     1       7.410   2.828 -11.749  1.00  0.00     0.164 HD
BRANCH  60  62
ATOM     62  C   UNL     1       6.406   4.684 -12.136  1.00  0.00     0.168 CG0
ATOM     63  C   UNL     1       5.907   4.682 -13.576  1.00  0.00     0.041 C 
ATOM     64  G   UNL     1       7.764   5.407 -12.029  1.00  0.00     0.000 G0
ENDBRANCH  60  62
ENDBRANCH  56  58
ENDBRANCH  54  56
ENDBRANCH  52  54
ENDBRANCH  51  52
ENDBRANCH  50  51
ENDBRANCH  49  50
BRANCH  49  65
ATOM     65  C   UNL     1       0.850   2.324  -9.550  1.00  0.00     0.326 C 
ATOM     66  O   UNL     1      -0.266   2.808  -9.671  1.00  0.00    -0.250 OA
BRANCH  65  67
ATOM     67  O   UNL     1       1.684   2.289 -10.612  1.00  0.00    -0.480 OA
ATOM     68  H   UNL     1       1.372   1.514 -11.127  1.00  0.00     0.296 HD
ENDBRANCH  65  67
ENDBRANCH  49  65
ENDBRANCH  47  49
ENDBRANCH  43  45
ENDBRANCH   1  43
BRANCH   1  69
ATOM     69  C   UNL     1      -2.303  -0.364  -4.355  1.00  0.00    -0.001 C 
ATOM     70  C   UNL     1      -2.171  -1.655  -4.707  1.00  0.00     0.001 C 
BRANCH  70  71
ATOM     71  C   UNL     1      -3.242  -2.645  -4.835  1.00  0.00    -0.055 C 
ATOM     72  C   UNL     1      -3.317  -3.613  -3.897  1.00  0.00    -0.018 C 
ATOM     73  C   UNL     1      -4.190  -2.509  -5.998  1.00  0.00     0.044 C 
BRANCH  72  74
ATOM     74  C   UNL     1      -4.311  -4.758  -3.772  1.00  0.00     0.038 C 
ATOM     75  C   UNL     1      -3.963  -5.781  -4.861  1.00  0.00     0.015 C 
BRANCH  74  76
ATOM     76  C   UNL     1      -5.755  -4.180  -3.856  1.00  0.00     0.128 C 
BRANCH  76  77
ATOM     77  O   UNL     1      -6.681  -5.222  -4.205  1.00  0.00    -0.381 OA
ATOM     78  C   UNL     1      -7.997  -5.005  -3.714  1.00  0.00     0.195 C 
ENDBRANCH  76  77
BRANCH  76  79
ATOM     79  C   UNL     1      -6.190  -3.387  -2.598  1.00  0.00     0.068 C 
BRANCH  79  80
ATOM     80  C   UNL     1      -6.032  -1.886  -2.619  1.00  0.00    -0.045 A 
ATOM     81  C   UNL     1      -5.305  -1.223  -1.621  1.00  0.00     0.004 A 
ATOM     82  C   UNL     1      -6.638  -1.125  -3.629  1.00  0.00     0.004 A 
ATOM     83  C   UNL     1      -5.176   0.167  -1.639  1.00  0.00     0.000 A 
ATOM     84  C   UNL     1      -6.508   0.265  -3.646  1.00  0.00     0.000 A 
ATOM     85  C   UNL     1      -5.776   0.911  -2.653  1.00  0.00     0.000 A 
ENDBRANCH  79  80
ENDBRANCH  76  79
ENDBRANCH  74  76
ENDBRANCH  72  74
ENDBRANCH  70  71
ENDBRANCH   1  69
TORSDOF 17
ENDMDL
MODEL 36
REMARK VINA RESULT:    -6.505      5.434      9.336
REMARK INTER + INTRA:         -25.950
REMARK INTER:                 -20.554
REMARK INTRA:                  -5.395
REMARK UNBOUND:                -6.514
REMARK SMILES C=C1C(=O)N[C@H](C)C(=O)N[C@@H](CC(C)C)C(=O)N[C@@H](C(=O)O)[C@H](C)C(=O)N[C@@H](CCCN=C(N)N)C(=O)N[C@@H](/C=C/C(C)=C/[C@H](C)[C@H](Cc2ccccc2)OC)[C@H](C)C(=O)N[C@@H](C(=O)O)CCC(=O)N1C
REMARK SMILES IDX 39 1 38 2 37 3 36 4 28 6 27 7 25 8 26 9 23 11 24 12 19 13
REMARK SMILES IDX 18 14 16 15 17 16 11 18 10 19 8 20 9 21 12 24 13 25 14 26
REMARK SMILES IDX 15 27 20 28 21 29 22 30 29 32 30 33 31 34 32 35 33 36 34 37
REMARK SMILES IDX 35 38 57 43 58 44 59 45 60 46 61 47 62 49 66 50 67 51 68 52
REMARK SMILES IDX 69 53 70 54 71 55 2 56 1 57 3 58 4 59 5 60 6 62 7 63 63 65
REMARK SMILES IDX 64 66 65 67 40 69 41 70 42 71 44 72 43 73 45 74 46 75 47 76
REMARK SMILES IDX 55 77 56 78 48 79 49 80 50 81 54 82 51 83 53 84 52 85
REMARK H PARENT 38 5 27 10 18 17 10 22 22 31 34 39 34 40 35 41 35 42 61 48
REMARK H PARENT 5 61 65 68
REMARK Flexibility Score:  369.900
ROOT
ATOM      1  C   UNL     1       0.072   0.397  -1.130  1.00  0.00     0.117 C 
ENDROOT
BRANCH   1   2
ATOM      2  N   UNL     1      -0.458   0.759  -2.445  1.00  0.00    -0.347 N 
ATOM      3  O   UNL     1       0.732  -0.759  -3.690  1.00  0.00    -0.273 OA
ATOM      4  C   UNL     1      -0.152   0.088  -3.613  1.00  0.00     0.243 C 
ATOM      5  H   UNL     1      -1.127   1.510  -2.519  1.00  0.00     0.164 HD
BRANCH   4   6
ATOM      6  C   UNL     1      -0.914   0.618  -4.854  1.00  0.00     0.171 C 
BRANCH   6   7
ATOM      7  N   UNL     1      -0.133   0.378  -6.078  1.00  0.00    -0.344 N 
ATOM      8  C   UNL     1       0.395   1.431  -6.793  1.00  0.00     0.226 C 
ATOM      9  O   UNL     1       0.226   2.600  -6.467  1.00  0.00    -0.275 OA
ATOM     10  H   UNL     1      -0.030  -0.571  -6.417  1.00  0.00     0.164 HD
BRANCH   8  11
ATOM     11  C   UNL     1       1.219   1.018  -7.999  1.00  0.00     0.109 C 
ATOM     12  C   UNL     1       0.596  -0.207  -8.668  1.00  0.00     0.021 C 
BRANCH  11  13
ATOM     13  C   UNL     1       1.426   2.230  -8.930  1.00  0.00     0.204 C 
BRANCH  13  14
ATOM     14  N   UNL     1       2.654   2.115  -9.721  1.00  0.00    -0.340 N 
ATOM     15  C   UNL     1       3.504   3.177  -9.943  1.00  0.00     0.243 C 
ATOM     16  O   UNL     1       3.321   4.285  -9.441  1.00  0.00    -0.273 OA
ATOM     17  H   UNL     1       2.784   1.272 -10.287  1.00  0.00     0.164 HD
BRANCH  15  18
ATOM     18  C   UNL     1       4.619   2.873 -10.974  1.00  0.00     0.171 C 
BRANCH  18  19
ATOM     19  N   UNL     1       5.656   3.884 -10.779  1.00  0.00    -0.343 N 
ATOM     20  C   UNL     1       6.461   4.312 -11.817  1.00  0.00     0.242 CG0
ATOM     21  O   UNL     1       6.432   3.769 -12.919  1.00  0.00    -0.273 OA
ATOM     22  H   UNL     1       5.797   4.281  -9.857  1.00  0.00     0.164 HD
ATOM     23  G   UNL     1       7.443   5.440 -11.438  1.00  0.00     0.000 G0
ENDBRANCH  18  19
BRANCH  18  24
ATOM     24  C   UNL     1       5.170   1.456 -10.772  1.00  0.00     0.038 C 
BRANCH  24  25
ATOM     25  C   UNL     1       4.530   0.381 -11.676  1.00  0.00    -0.015 C 
ATOM     26  C   UNL     1       4.228  -0.914 -10.921  1.00  0.00     0.007 C 
ATOM     27  C   UNL     1       5.457   0.084 -12.858  1.00  0.00     0.007 C 
ENDBRANCH  24  25
ENDBRANCH  18  24
ENDBRANCH  15  18
ENDBRANCH  13  14
BRANCH  13  28
ATOM     28  C   UNL     1       0.270   2.439  -9.913  1.00  0.00     0.327 C 
ATOM     29  O   UNL     1       0.247   2.094 -11.085  1.00  0.00    -0.250 OA
BRANCH  28  30
ATOM     30  O   UNL     1      -0.737   3.174  -9.398  1.00  0.00    -0.480 OA
ATOM     31  H   UNL     1      -1.481   3.031 -10.018  1.00  0.00     0.296 HD
ENDBRANCH  28  30
ENDBRANCH  13  28
ENDBRANCH  11  13
ENDBRANCH   8  11
ENDBRANCH   6   7
BRANCH   6  32
ATOM     32  C   UNL     1      -2.283  -0.067  -4.935  1.00  0.00     0.037 C 
BRANCH  32  33
ATOM     33  C   UNL     1      -3.440   0.930  -4.783  1.00  0.00     0.026 C 
BRANCH  33  34
ATOM     34  C   UNL     1      -4.807   0.246  -4.790  1.00  0.00     0.146 C 
BRANCH  34  35
ATOM     35  N   UNL     1      -4.988  -0.455  -3.527  1.00  0.00    -0.254 NA
ATOM     36  C   UNL     1      -5.917  -0.065  -2.735  1.00  0.00     0.185 C 
ATOM     37  N   UNL     1      -6.096  -0.708  -1.571  1.00  0.00    -0.370 N 
ATOM     38  N   UNL     1      -6.794   0.942  -2.893  1.00  0.00    -0.370 N 
ATOM     39  H   UNL     1      -5.479  -1.488  -1.383  1.00  0.00     0.159 HD
ATOM     40  H   UNL     1      -6.901  -0.579  -0.982  1.00  0.00     0.159 HD
ATOM     41  H   UNL     1      -7.388   1.239  -2.136  1.00  0.00     0.159 HD
ATOM     42  H   UNL     1      -6.766   1.522  -3.717  1.00  0.00     0.159 HD
ENDBRANCH  34  35
ENDBRANCH  33  34
ENDBRANCH  32  33
ENDBRANCH   6  32
ENDBRANCH   4   6
ENDBRANCH   1   2
BRANCH   1  43
ATOM     43  C   UNL     1      -1.115  -0.028  -0.218  1.00  0.00     0.102 C 
ATOM     44  C   UNL     1      -1.632  -1.447  -0.509  1.00  0.00     0.020 C 
BRANCH  43  45
ATOM     45  C   UNL     1      -2.210   1.042  -0.205  1.00  0.00     0.225 C 
ATOM     46  O   UNL     1      -2.544   1.672  -1.204  1.00  0.00    -0.275 OA
ATOM     47  N   UNL     1      -2.744   1.328   1.030  1.00  0.00    -0.342 N 
ATOM     48  H   UNL     1      -2.573   0.704   1.806  1.00  0.00     0.164 HD
BRANCH  47  49
ATOM     49  C   UNL     1      -3.826   2.305   1.190  1.00  0.00     0.192 C 
BRANCH  49  50
ATOM     50  C   UNL     1      -4.107   2.522   2.679  1.00  0.00     0.047 C 
BRANCH  50  51
ATOM     51  C   UNL     1      -3.080   1.817   3.574  1.00  0.00     0.103 C 
BRANCH  51  52
ATOM     52  C   UNL     1      -3.509   0.395   3.931  1.00  0.00     0.226 C 
ATOM     53  O   UNL     1      -3.040  -0.558   3.306  1.00  0.00    -0.275 OA
BRANCH  52  54
ATOM     54  N   UNL     1      -4.380   0.260   5.028  1.00  0.00    -0.311 N 
ATOM     55  C   UNL     1      -3.858   0.093   6.391  1.00  0.00     0.153 C 
BRANCH  54  56
ATOM     56  C   UNL     1      -5.775   0.285   4.864  1.00  0.00     0.102 C 
ATOM     57  C   UNL     1      -6.572   1.305   5.218  1.00  0.00     0.043 C 
BRANCH  56  58
ATOM     58  C   UNL     1      -6.498  -0.867   4.207  1.00  0.00     0.268 C 
ATOM     59  O   UNL     1      -6.598  -0.991   2.993  1.00  0.00    -0.268 OA
ATOM     60  N   UNL     1      -6.972  -1.792   5.107  1.00  0.00    -0.339 N 
ATOM     61  H   UNL     1      -6.858  -1.610   6.097  1.00  0.00     0.164 HD
BRANCH  60  62
ATOM     62  C   UNL     1      -7.649  -3.016   4.682  1.00  0.00     0.168 CG0
ATOM     63  C   UNL     1      -6.649  -4.144   4.459  1.00  0.00     0.041 C 
ATOM     64  G   UNL     1      -8.458  -2.741   3.398  1.00  0.00     0.000 G0
ENDBRANCH  60  62
ENDBRANCH  56  58
ENDBRANCH  54  56
ENDBRANCH  52  54
ENDBRANCH  51  52
ENDBRANCH  50  51
ENDBRANCH  49  50
BRANCH  49  65
ATOM     65  C   UNL     1      -5.114   1.844   0.490  1.00  0.00     0.326 C 
ATOM     66  O   UNL     1      -5.682   2.436  -0.415  1.00  0.00    -0.250 OA
BRANCH  65  67
ATOM     67  O   UNL     1      -5.654   0.711   0.992  1.00  0.00    -0.480 OA
ATOM     68  H   UNL     1      -5.279   0.004   0.423  1.00  0.00     0.296 HD
ENDBRANCH  65  67
ENDBRANCH  49  65
ENDBRANCH  47  49
ENDBRANCH  43  45
ENDBRANCH   1  43
BRANCH   1  69
ATOM     69  C   UNL     1       0.953   1.554  -0.695  1.00  0.00    -0.001 C 
ATOM     70  C   UNL     1       2.253   1.507  -0.354  1.00  0.00     0.001 C 
BRANCH  70  71
ATOM     71  C   UNL     1       3.099   2.635   0.044  1.00  0.00    -0.055 C 
ATOM     72  C   UNL     1       2.504   3.680   0.656  1.00  0.00    -0.018 C 
ATOM     73  C   UNL     1       4.574   2.545  -0.251  1.00  0.00     0.044 C 
BRANCH  72  74
ATOM     74  C   UNL     1       3.122   4.970   1.176  1.00  0.00     0.038 C 
ATOM     75  C   UNL     1       3.650   4.682   2.587  1.00  0.00     0.015 C 
BRANCH  74  76
ATOM     76  C   UNL     1       2.057   6.103   1.096  1.00  0.00     0.128 C 
BRANCH  76  77
ATOM     77  O   UNL     1       1.020   5.872   2.065  1.00  0.00    -0.381 OA
ATOM     78  C   UNL     1      -0.289   5.873   1.511  1.00  0.00     0.195 C 
ENDBRANCH  76  77
BRANCH  76  79
ATOM     79  C   UNL     1       2.650   7.532   1.184  1.00  0.00     0.068 C 
BRANCH  79  80
ATOM     80  C   UNL     1       2.298   8.372   2.388  1.00  0.00    -0.045 A 
ATOM     81  C   UNL     1       3.016   8.253   3.585  1.00  0.00     0.004 A 
ATOM     82  C   UNL     1       1.221   9.269   2.334  1.00  0.00     0.004 A 
ATOM     83  C   UNL     1       2.675   9.023   4.699  1.00  0.00     0.000 A 
ATOM     84  C   UNL     1       0.881  10.038   3.449  1.00  0.00     0.000 A 
ATOM     85  C   UNL     1       1.609   9.916   4.630  1.00  0.00     0.000 A 
ENDBRANCH  79  80
ENDBRANCH  76  79
ENDBRANCH  74  76
ENDBRANCH  72  74
ENDBRANCH  70  71
ENDBRANCH   1  69
TORSDOF 17
ENDMDL
MODEL 37
REMARK VINA RESULT:    -6.498      5.095     12.394
REMARK INTER + INTRA:         -25.927
REMARK INTER:                 -19.685
REMARK INTRA:                  -6.243
REMARK UNBOUND:                -6.514
REMARK SMILES C=C1C(=O)N[C@H](C)C(=O)N[C@@H](CC(C)C)C(=O)N[C@@H](C(=O)O)[C@H](C)C(=O)N[C@@H](CCCN=C(N)N)C(=O)N[C@@H](/C=C/C(C)=C/[C@H](C)[C@H](Cc2ccccc2)OC)[C@H](C)C(=O)N[C@@H](C(=O)O)CCC(=O)N1C
REMARK SMILES IDX 39 1 38 2 37 3 36 4 28 6 27 7 25 8 26 9 23 11 24 12 19 13
REMARK SMILES IDX 18 14 16 15 17 16 11 18 10 19 8 20 9 21 12 24 13 25 14 26
REMARK SMILES IDX 15 27 20 28 21 29 22 30 29 32 30 33 31 34 32 35 33 36 34 37
REMARK SMILES IDX 35 38 57 43 58 44 59 45 60 46 61 47 62 49 66 50 67 51 68 52
REMARK SMILES IDX 69 53 70 54 71 55 2 56 1 57 3 58 4 59 5 60 6 62 7 63 63 65
REMARK SMILES IDX 64 66 65 67 40 69 41 70 42 71 44 72 43 73 45 74 46 75 47 76
REMARK SMILES IDX 55 77 56 78 48 79 49 80 50 81 54 82 51 83 53 84 52 85
REMARK H PARENT 38 5 27 10 18 17 10 22 22 31 34 39 34 40 35 41 35 42 61 48
REMARK H PARENT 5 61 65 68
REMARK Flexibility Score:  369.900
ROOT
ATOM      1  C   UNL     1      -1.097   1.376  -3.900  1.00  0.00     0.117 C 
ENDROOT
BRANCH   1   2
ATOM      2  N   UNL     1      -1.058   2.352  -2.810  1.00  0.00    -0.347 N 
ATOM      3  O   UNL     1       0.407   1.235  -1.442  1.00  0.00    -0.273 OA
ATOM      4  C   UNL     1      -0.235   2.246  -1.706  1.00  0.00     0.243 C 
ATOM      5  H   UNL     1      -1.622   3.186  -2.873  1.00  0.00     0.164 HD
BRANCH   4   6
ATOM      6  C   UNL     1      -0.325   3.457  -0.743  1.00  0.00     0.171 C 
BRANCH   6   7
ATOM      7  N   UNL     1       0.969   3.682  -0.078  1.00  0.00    -0.344 N 
ATOM      8  C   UNL     1       1.101   3.499   1.281  1.00  0.00     0.226 C 
ATOM      9  O   UNL     1       0.164   3.169   1.998  1.00  0.00    -0.275 OA
ATOM     10  H   UNL     1       1.750   4.021  -0.626  1.00  0.00     0.164 HD
BRANCH   8  11
ATOM     11  C   UNL     1       2.509   3.718   1.808  1.00  0.00     0.109 C 
ATOM     12  C   UNL     1       3.499   2.844   1.038  1.00  0.00     0.021 C 
BRANCH  11  13
ATOM     13  C   UNL     1       2.838   5.224   1.808  1.00  0.00     0.204 C 
BRANCH  13  14
ATOM     14  N   UNL     1       1.847   6.004   2.556  1.00  0.00    -0.340 N 
ATOM     15  C   UNL     1       0.914   6.813   1.943  1.00  0.00     0.243 C 
ATOM     16  O   UNL     1       0.808   6.890   0.721  1.00  0.00    -0.273 OA
ATOM     17  H   UNL     1       1.977   6.104   3.566  1.00  0.00     0.164 HD
BRANCH  15  18
ATOM     18  C   UNL     1       0.116   7.696   2.934  1.00  0.00     0.171 C 
BRANCH  18  19
ATOM     19  N   UNL     1      -1.095   6.952   3.275  1.00  0.00    -0.343 N 
ATOM     20  C   UNL     1      -1.087   5.935   4.211  1.00  0.00     0.242 CG0
ATOM     21  O   UNL     1      -0.039   5.522   4.702  1.00  0.00    -0.273 OA
ATOM     22  H   UNL     1      -1.967   7.180   2.810  1.00  0.00     0.164 HD
ATOM     23  G   UNL     1      -2.472   5.320   4.495  1.00  0.00     0.000 G0
ENDBRANCH  18  19
BRANCH  18  24
ATOM     24  C   UNL     1       0.954   8.007   4.180  1.00  0.00     0.038 C 
BRANCH  24  25
ATOM     25  C   UNL     1       1.641   9.388   4.166  1.00  0.00    -0.015 C 
ATOM     26  C   UNL     1       1.978   9.889   5.570  1.00  0.00     0.007 C 
ATOM     27  C   UNL     1       0.741  10.404   3.458  1.00  0.00     0.007 C 
ENDBRANCH  24  25
ENDBRANCH  18  24
ENDBRANCH  15  18
ENDBRANCH  13  14
BRANCH  13  28
ATOM     28  C   UNL     1       4.211   5.542   2.406  1.00  0.00     0.327 C 
ATOM     29  O   UNL     1       4.734   4.978   3.355  1.00  0.00    -0.250 OA
BRANCH  28  30
ATOM     30  O   UNL     1       4.792   6.625   1.852  1.00  0.00    -0.480 OA
ATOM     31  H   UNL     1       4.039   7.201   1.603  1.00  0.00     0.296 HD
ENDBRANCH  28  30
ENDBRANCH  13  28
ENDBRANCH  11  13
ENDBRANCH   8  11
ENDBRANCH   6   7
BRANCH   6  32
ATOM     32  C   UNL     1      -0.757   4.697  -1.533  1.00  0.00     0.037 C 
BRANCH  32  33
ATOM     33  C   UNL     1      -2.003   5.362  -0.931  1.00  0.00     0.026 C 
BRANCH  33  34
ATOM     34  C   UNL     1      -2.611   4.542   0.207  1.00  0.00     0.146 C 
BRANCH  34  35
ATOM     35  N   UNL     1      -2.936   5.437   1.310  1.00  0.00    -0.254 NA
ATOM     36  C   UNL     1      -4.169   5.641   1.593  1.00  0.00     0.185 C 
ATOM     37  N   UNL     1      -4.479   6.460   2.610  1.00  0.00    -0.370 N 
ATOM     38  N   UNL     1      -5.266   5.137   1.001  1.00  0.00    -0.370 N 
ATOM     39  H   UNL     1      -3.704   6.873   3.113  1.00  0.00     0.159 HD
ATOM     40  H   UNL     1      -5.402   6.535   3.002  1.00  0.00     0.159 HD
ATOM     41  H   UNL     1      -6.185   5.482   1.226  1.00  0.00     0.159 HD
ATOM     42  H   UNL     1      -5.183   4.517   0.211  1.00  0.00     0.159 HD
ENDBRANCH  34  35
ENDBRANCH  33  34
ENDBRANCH  32  33
ENDBRANCH   6  32
ENDBRANCH   4   6
ENDBRANCH   1   2
BRANCH   1  43
ATOM     43  C   UNL     1      -1.070   2.144  -5.253  1.00  0.00     0.102 C 
ATOM     44  C   UNL     1      -2.426   2.761  -5.634  1.00  0.00     0.020 C 
BRANCH  43  45
ATOM     45  C   UNL     1      -0.445   1.287  -6.359  1.00  0.00     0.225 C 
ATOM     46  O   UNL     1      -0.658   0.083  -6.476  1.00  0.00    -0.275 OA
ATOM     47  N   UNL     1       0.456   1.935  -7.172  1.00  0.00    -0.342 N 
ATOM     48  H   UNL     1       0.504   2.944  -7.161  1.00  0.00     0.164 HD
BRANCH  47  49
ATOM     49  C   UNL     1       1.106   1.250  -8.294  1.00  0.00     0.192 C 
BRANCH  49  50
ATOM     50  C   UNL     1       2.593   1.059  -7.989  1.00  0.00     0.047 C 
BRANCH  50  51
ATOM     51  C   UNL     1       3.225   2.310  -7.363  1.00  0.00     0.103 C 
BRANCH  51  52
ATOM     52  C   UNL     1       4.222   2.982  -8.304  1.00  0.00     0.226 C 
ATOM     53  O   UNL     1       4.007   4.128  -8.704  1.00  0.00    -0.275 OA
BRANCH  52  54
ATOM     54  N   UNL     1       5.390   2.255  -8.603  1.00  0.00    -0.311 N 
ATOM     55  C   UNL     1       6.330   1.868  -7.543  1.00  0.00     0.153 C 
BRANCH  54  56
ATOM     56  C   UNL     1       5.696   1.869  -9.918  1.00  0.00     0.102 C 
ATOM     57  C   UNL     1       5.188   0.793 -10.541  1.00  0.00     0.043 C 
BRANCH  56  58
ATOM     58  C   UNL     1       6.624   2.700 -10.773  1.00  0.00     0.268 C 
ATOM     59  O   UNL     1       7.587   3.305 -10.323  1.00  0.00    -0.268 OA
ATOM     60  N   UNL     1       6.313   2.651 -12.111  1.00  0.00    -0.339 N 
ATOM     61  H   UNL     1       5.491   2.135 -12.402  1.00  0.00     0.164 HD
BRANCH  60  62
ATOM     62  C   UNL     1       7.119   3.333 -13.123  1.00  0.00     0.168 CG0
ATOM     63  C   UNL     1       6.245   3.864 -14.252  1.00  0.00     0.041 C 
ATOM     64  G   UNL     1       8.189   2.365 -13.670  1.00  0.00     0.000 G0
ENDBRANCH  60  62
ENDBRANCH  56  58
ENDBRANCH  54  56
ENDBRANCH  52  54
ENDBRANCH  51  52
ENDBRANCH  50  51
ENDBRANCH  49  50
BRANCH  49  65
ATOM     65  C   UNL     1       0.952   2.038  -9.604  1.00  0.00     0.326 C 
ATOM     66  O   UNL     1       1.733   2.013 -10.544  1.00  0.00    -0.250 OA
BRANCH  65  67
ATOM     67  O   UNL     1      -0.124   2.855  -9.648  1.00  0.00    -0.480 OA
ATOM     68  H   UNL     1       0.230   3.683 -10.037  1.00  0.00     0.296 HD
ENDBRANCH  65  67
ENDBRANCH  49  65
ENDBRANCH  47  49
ENDBRANCH  43  45
ENDBRANCH   1  43
BRANCH   1  69
ATOM     69  C   UNL     1      -2.267   0.456  -3.602  1.00  0.00    -0.001 C 
ATOM     70  C   UNL     1      -2.228  -0.746  -3.001  1.00  0.00     0.001 C 
BRANCH  70  71
ATOM     71  C   UNL     1      -3.366  -1.617  -2.699  1.00  0.00    -0.055 C 
ATOM     72  C   UNL     1      -3.313  -2.893  -3.136  1.00  0.00    -0.018 C 
ATOM     73  C   UNL     1      -4.511  -1.030  -1.917  1.00  0.00     0.044 C 
BRANCH  72  74
ATOM     74  C   UNL     1      -4.333  -4.010  -2.971  1.00  0.00     0.038 C 
ATOM     75  C   UNL     1      -3.772  -4.985  -1.930  1.00  0.00     0.015 C 
BRANCH  74  76
ATOM     76  C   UNL     1      -4.618  -4.638  -4.368  1.00  0.00     0.128 C 
BRANCH  76  77
ATOM     77  O   UNL     1      -4.757  -6.064  -4.245  1.00  0.00    -0.381 OA
ATOM     78  C   UNL     1      -4.380  -6.777  -5.415  1.00  0.00     0.195 C 
ENDBRANCH  76  77
BRANCH  76  79
ATOM     79  C   UNL     1      -5.802  -3.983  -5.123  1.00  0.00     0.068 C 
BRANCH  79  80
ATOM     80  C   UNL     1      -5.757  -2.491  -5.349  1.00  0.00    -0.045 A 
ATOM     81  C   UNL     1      -4.819  -1.920  -6.219  1.00  0.00     0.004 A 
ATOM     82  C   UNL     1      -6.643  -1.646  -4.664  1.00  0.00     0.004 A 
ATOM     83  C   UNL     1      -4.775  -0.538  -6.412  1.00  0.00     0.000 A 
ATOM     84  C   UNL     1      -6.598  -0.263  -4.857  1.00  0.00     0.000 A 
ATOM     85  C   UNL     1      -5.666   0.290  -5.732  1.00  0.00     0.000 A 
ENDBRANCH  79  80
ENDBRANCH  76  79
ENDBRANCH  74  76
ENDBRANCH  72  74
ENDBRANCH  70  71
ENDBRANCH   1  69
TORSDOF 17
ENDMDL
MODEL 38
REMARK VINA RESULT:    -6.460      9.976     15.252
REMARK INTER + INTRA:         -25.814
REMARK INTER:                 -20.193
REMARK INTRA:                  -5.621
REMARK UNBOUND:                -6.514
REMARK SMILES C=C1C(=O)N[C@H](C)C(=O)N[C@@H](CC(C)C)C(=O)N[C@@H](C(=O)O)[C@H](C)C(=O)N[C@@H](CCCN=C(N)N)C(=O)N[C@@H](/C=C/C(C)=C/[C@H](C)[C@H](Cc2ccccc2)OC)[C@H](C)C(=O)N[C@@H](C(=O)O)CCC(=O)N1C
REMARK SMILES IDX 39 1 38 2 37 3 36 4 28 6 27 7 25 8 26 9 23 11 24 12 19 13
REMARK SMILES IDX 18 14 16 15 17 16 11 18 10 19 8 20 9 21 12 24 13 25 14 26
REMARK SMILES IDX 15 27 20 28 21 29 22 30 29 32 30 33 31 34 32 35 33 36 34 37
REMARK SMILES IDX 35 38 57 43 58 44 59 45 60 46 61 47 62 49 66 50 67 51 68 52
REMARK SMILES IDX 69 53 70 54 71 55 2 56 1 57 3 58 4 59 5 60 6 62 7 63 63 65
REMARK SMILES IDX 64 66 65 67 40 69 41 70 42 71 44 72 43 73 45 74 46 75 47 76
REMARK SMILES IDX 55 77 56 78 48 79 49 80 50 81 54 82 51 83 53 84 52 85
REMARK H PARENT 38 5 27 10 18 17 10 22 22 31 34 39 34 40 35 41 35 42 61 48
REMARK H PARENT 5 61 65 68
REMARK Flexibility Score:  369.900
ROOT
ATOM      1  C   UNL     1       6.323   6.021   4.359  1.00  0.00     0.117 C 
ENDROOT
BRANCH   1   2
ATOM      2  N   UNL     1       7.199   5.469   5.393  1.00  0.00    -0.347 N 
ATOM      3  O   UNL     1       7.511   7.396   6.601  1.00  0.00    -0.273 OA
ATOM      4  C   UNL     1       7.650   6.183   6.486  1.00  0.00     0.243 C 
ATOM      5  H   UNL     1       7.462   4.496   5.350  1.00  0.00     0.164 HD
BRANCH   4   6
ATOM      6  C   UNL     1       8.493   5.340   7.476  1.00  0.00     0.171 C 
BRANCH   6   7
ATOM      7  N   UNL     1       9.923   5.427   7.138  1.00  0.00    -0.344 N 
ATOM      8  C   UNL     1      10.505   4.503   6.298  1.00  0.00     0.226 C 
ATOM      9  O   UNL     1       9.881   3.566   5.814  1.00  0.00    -0.275 OA
ATOM     10  H   UNL     1      10.486   6.149   7.572  1.00  0.00     0.164 HD
BRANCH   8  11
ATOM     11  C   UNL     1      11.972   4.762   6.004  1.00  0.00     0.109 C 
ATOM     12  C   UNL     1      12.644   5.411   7.213  1.00  0.00     0.021 C 
BRANCH  11  13
ATOM     13  C   UNL     1      12.641   3.464   5.509  1.00  0.00     0.204 C 
BRANCH  13  14
ATOM     14  N   UNL     1      13.752   3.731   4.591  1.00  0.00    -0.340 N 
ATOM     15  C   UNL     1      13.977   2.989   3.451  1.00  0.00     0.243 C 
ATOM     16  O   UNL     1      13.223   2.087   3.092  1.00  0.00    -0.273 OA
ATOM     17  H   UNL     1      14.495   4.360   4.907  1.00  0.00     0.164 HD
BRANCH  15  18
ATOM     18  C   UNL     1      15.319   3.318   2.754  1.00  0.00     0.171 C 
BRANCH  18  19
ATOM     19  N   UNL     1      16.056   2.060   2.650  1.00  0.00    -0.343 N 
ATOM     20  C   UNL     1      16.715   1.509   3.732  1.00  0.00     0.242 CG0
ATOM     21  O   UNL     1      16.824   2.116   4.795  1.00  0.00    -0.273 OA
ATOM     22  H   UNL     1      16.093   1.577   1.759  1.00  0.00     0.164 HD
ATOM     23  G   UNL     1      17.369   0.141   3.451  1.00  0.00     0.000 G0
ENDBRANCH  18  19
BRANCH  18  24
ATOM     24  C   UNL     1      15.074   3.941   1.374  1.00  0.00     0.038 C 
BRANCH  24  25
ATOM     25  C   UNL     1      14.932   2.923   0.223  1.00  0.00    -0.015 C 
ATOM     26  C   UNL     1      15.783   3.291  -0.993  1.00  0.00     0.007 C 
ATOM     27  C   UNL     1      13.462   2.816  -0.191  1.00  0.00     0.007 C 
ENDBRANCH  24  25
ENDBRANCH  18  24
ENDBRANCH  15  18
ENDBRANCH  13  14
BRANCH  13  28
ATOM     28  C   UNL     1      13.190   2.597   6.646  1.00  0.00     0.327 C 
ATOM     29  O   UNL     1      14.361   2.503   6.983  1.00  0.00    -0.250 OA
BRANCH  28  30
ATOM     30  O   UNL     1      12.252   1.811   7.213  1.00  0.00    -0.480 OA
ATOM     31  H   UNL     1      12.757   1.051   7.569  1.00  0.00     0.296 HD
ENDBRANCH  28  30
ENDBRANCH  13  28
ENDBRANCH  11  13
ENDBRANCH   8  11
ENDBRANCH   6   7
BRANCH   6  32
ATOM     32  C   UNL     1       8.237   5.834   8.904  1.00  0.00     0.037 C 
BRANCH  32  33
ATOM     33  C   UNL     1       9.511   5.822   9.759  1.00  0.00     0.026 C 
BRANCH  33  34
ATOM     34  C   UNL     1       9.814   7.188  10.377  1.00  0.00     0.146 C 
BRANCH  34  35
ATOM     35  N   UNL     1      11.071   7.682   9.831  1.00  0.00    -0.254 NA
ATOM     36  C   UNL     1      12.106   7.695  10.585  1.00  0.00     0.185 C 
ATOM     37  N   UNL     1      13.270   8.144  10.091  1.00  0.00    -0.370 N 
ATOM     38  N   UNL     1      12.221   7.308  11.868  1.00  0.00    -0.370 N 
ATOM     39  H   UNL     1      13.267   8.445   9.124  1.00  0.00     0.159 HD
ATOM     40  H   UNL     1      14.154   8.025  10.555  1.00  0.00     0.159 HD
ATOM     41  H   UNL     1      13.057   7.497  12.396  1.00  0.00     0.159 HD
ATOM     42  H   UNL     1      11.420   6.963  12.373  1.00  0.00     0.159 HD
ENDBRANCH  34  35
ENDBRANCH  33  34
ENDBRANCH  32  33
ENDBRANCH   6  32
ENDBRANCH   4   6
ENDBRANCH   1   2
BRANCH   1  43
ATOM     43  C   UNL     1       5.029   6.555   5.039  1.00  0.00     0.102 C 
ATOM     44  C   UNL     1       3.853   5.565   4.980  1.00  0.00     0.020 C 
BRANCH  43  45
ATOM     45  C   UNL     1       4.684   7.960   4.539  1.00  0.00     0.225 C 
ATOM     46  O   UNL     1       4.154   8.813   5.245  1.00  0.00    -0.275 OA
ATOM     47  N   UNL     1       4.920   8.188   3.202  1.00  0.00    -0.342 N 
ATOM     48  H   UNL     1       5.489   7.539   2.677  1.00  0.00     0.164 HD
BRANCH  47  49
ATOM     49  C   UNL     1       4.670   9.497   2.592  1.00  0.00     0.192 C 
BRANCH  49  50
ATOM     50  C   UNL     1       3.420   9.425   1.712  1.00  0.00     0.047 C 
BRANCH  50  51
ATOM     51  C   UNL     1       3.098   7.990   1.274  1.00  0.00     0.103 C 
BRANCH  51  52
ATOM     52  C   UNL     1       1.604   7.786   1.030  1.00  0.00     0.226 C 
ATOM     53  O   UNL     1       1.128   8.033  -0.079  1.00  0.00    -0.275 OA
BRANCH  52  54
ATOM     54  N   UNL     1       0.864   7.242   2.096  1.00  0.00    -0.311 N 
ATOM     55  C   UNL     1       0.532   8.051   3.276  1.00  0.00     0.153 C 
BRANCH  54  56
ATOM     56  C   UNL     1       0.411   5.913   2.071  1.00  0.00     0.102 C 
ATOM     57  C   UNL     1       1.125   4.849   2.474  1.00  0.00     0.043 C 
BRANCH  56  58
ATOM     58  C   UNL     1      -0.988   5.580   1.609  1.00  0.00     0.268 C 
ATOM     59  O   UNL     1      -1.907   5.334   2.379  1.00  0.00    -0.268 OA
ATOM     60  N   UNL     1      -1.137   5.646   0.244  1.00  0.00    -0.339 N 
ATOM     61  H   UNL     1      -0.324   5.846  -0.325  1.00  0.00     0.164 HD
BRANCH  60  62
ATOM     62  C   UNL     1      -2.425   5.422  -0.411  1.00  0.00     0.168 CG0
ATOM     63  C   UNL     1      -2.305   4.369  -1.506  1.00  0.00     0.041 C 
ATOM     64  G   UNL     1      -2.951   6.752  -0.988  1.00  0.00     0.000 G0
ENDBRANCH  60  62
ENDBRANCH  56  58
ENDBRANCH  54  56
ENDBRANCH  52  54
ENDBRANCH  51  52
ENDBRANCH  50  51
ENDBRANCH  49  50
BRANCH  49  65
ATOM     65  C   UNL     1       5.864   9.963   1.743  1.00  0.00     0.326 C 
ATOM     66  O   UNL     1       5.957  11.045   1.182  1.00  0.00    -0.250 OA
BRANCH  65  67
ATOM     67  O   UNL     1       6.841   9.043   1.591  1.00  0.00    -0.480 OA
ATOM     68  H   UNL     1       7.555   9.536   1.132  1.00  0.00     0.296 HD
ENDBRANCH  65  67
ENDBRANCH  49  65
ENDBRANCH  47  49
ENDBRANCH  43  45
ENDBRANCH   1  43
BRANCH   1  69
ATOM     69  C   UNL     1       6.201   4.951   3.290  1.00  0.00    -0.001 C 
ATOM     70  C   UNL     1       5.612   5.061   2.086  1.00  0.00     0.001 C 
BRANCH  70  71
ATOM     71  C   UNL     1       5.519   4.027   1.054  1.00  0.00    -0.055 C 
ATOM     72  C   UNL     1       6.672   3.551   0.537  1.00  0.00    -0.018 C 
ATOM     73  C   UNL     1       4.145   3.561   0.647  1.00  0.00     0.044 C 
BRANCH  72  74
ATOM     74  C   UNL     1       6.882   2.487  -0.531  1.00  0.00     0.038 C 
ATOM     75  C   UNL     1       6.177   1.214  -0.046  1.00  0.00     0.015 C 
BRANCH  74  76
ATOM     76  C   UNL     1       8.409   2.331  -0.788  1.00  0.00     0.128 C 
BRANCH  76  77
ATOM     77  O   UNL     1       8.889   1.121  -0.176  1.00  0.00    -0.381 OA
ATOM     78  C   UNL     1      10.047   1.308   0.626  1.00  0.00     0.195 C 
ENDBRANCH  76  77
BRANCH  76  79
ATOM     79  C   UNL     1       8.812   2.448  -2.280  1.00  0.00     0.068 C 
BRANCH  79  80
ATOM     80  C   UNL     1      10.054   3.235  -2.617  1.00  0.00    -0.045 A 
ATOM     81  C   UNL     1      10.939   2.797  -3.612  1.00  0.00     0.004 A 
ATOM     82  C   UNL     1      10.358   4.412  -1.916  1.00  0.00     0.004 A 
ATOM     83  C   UNL     1      12.094   3.524  -3.908  1.00  0.00     0.000 A 
ATOM     84  C   UNL     1      11.514   5.138  -2.212  1.00  0.00     0.000 A 
ATOM     85  C   UNL     1      12.380   4.695  -3.209  1.00  0.00     0.000 A 
ENDBRANCH  79  80
ENDBRANCH  76  79
ENDBRANCH  74  76
ENDBRANCH  72  74
ENDBRANCH  70  71
ENDBRANCH   1  69
TORSDOF 17
ENDMDL
MODEL 39
REMARK VINA RESULT:    -6.455      5.081     10.925
REMARK INTER + INTRA:         -25.800
REMARK INTER:                 -19.922
REMARK INTRA:                  -5.878
REMARK UNBOUND:                -6.514
REMARK SMILES C=C1C(=O)N[C@H](C)C(=O)N[C@@H](CC(C)C)C(=O)N[C@@H](C(=O)O)[C@H](C)C(=O)N[C@@H](CCCN=C(N)N)C(=O)N[C@@H](/C=C/C(C)=C/[C@H](C)[C@H](Cc2ccccc2)OC)[C@H](C)C(=O)N[C@@H](C(=O)O)CCC(=O)N1C
REMARK SMILES IDX 39 1 38 2 37 3 36 4 28 6 27 7 25 8 26 9 23 11 24 12 19 13
REMARK SMILES IDX 18 14 16 15 17 16 11 18 10 19 8 20 9 21 12 24 13 25 14 26
REMARK SMILES IDX 15 27 20 28 21 29 22 30 29 32 30 33 31 34 32 35 33 36 34 37
REMARK SMILES IDX 35 38 57 43 58 44 59 45 60 46 61 47 62 49 66 50 67 51 68 52
REMARK SMILES IDX 69 53 70 54 71 55 2 56 1 57 3 58 4 59 5 60 6 62 7 63 63 65
REMARK SMILES IDX 64 66 65 67 40 69 41 70 42 71 44 72 43 73 45 74 46 75 47 76
REMARK SMILES IDX 55 77 56 78 48 79 49 80 50 81 54 82 51 83 53 84 52 85
REMARK H PARENT 38 5 27 10 18 17 10 22 22 31 34 39 34 40 35 41 35 42 61 48
REMARK H PARENT 5 61 65 68
REMARK Flexibility Score:  369.900
ROOT
ATOM      1  C   UNL     1      -1.344   0.151  -5.024  1.00  0.00     0.117 C 
ENDROOT
BRANCH   1   2
ATOM      2  N   UNL     1      -0.642   0.460  -3.778  1.00  0.00    -0.347 N 
ATOM      3  O   UNL     1      -1.503   2.562  -3.447  1.00  0.00    -0.273 OA
ATOM      4  C   UNL     1      -0.849   1.609  -3.039  1.00  0.00     0.243 C 
ATOM      5  H   UNL     1       0.000  -0.215  -3.392  1.00  0.00     0.164 HD
BRANCH   4   6
ATOM      6  C   UNL     1      -0.043   1.652  -1.716  1.00  0.00     0.171 C 
BRANCH   6   7
ATOM      7  N   UNL     1      -0.505   2.762  -0.867  1.00  0.00    -0.344 N 
ATOM      8  C   UNL     1       0.285   3.874  -0.673  1.00  0.00     0.226 C 
ATOM      9  O   UNL     1       1.401   3.986  -1.168  1.00  0.00    -0.275 OA
ATOM     10  H   UNL     1      -1.392   2.677  -0.388  1.00  0.00     0.164 HD
BRANCH   8  11
ATOM     11  C   UNL     1      -0.354   4.955   0.181  1.00  0.00     0.109 C 
ATOM     12  C   UNL     1      -1.783   5.223  -0.293  1.00  0.00     0.021 C 
BRANCH  11  13
ATOM     13  C   UNL     1      -0.225   4.585   1.672  1.00  0.00     0.204 C 
BRANCH  13  14
ATOM     14  N   UNL     1       1.018   3.860   1.955  1.00  0.00    -0.340 N 
ATOM     15  C   UNL     1       2.256   4.465   1.944  1.00  0.00     0.243 C 
ATOM     16  O   UNL     1       2.400   5.672   1.757  1.00  0.00    -0.273 OA
ATOM     17  H   UNL     1       0.985   2.837   1.967  1.00  0.00     0.164 HD
BRANCH  15  18
ATOM     18  C   UNL     1       3.434   3.466   2.063  1.00  0.00     0.171 C 
BRANCH  18  19
ATOM     19  N   UNL     1       3.175   2.654   3.250  1.00  0.00    -0.343 N 
ATOM     20  C   UNL     1       4.174   2.345   4.154  1.00  0.00     0.242 CG0
ATOM     21  O   UNL     1       5.349   2.626   3.934  1.00  0.00    -0.273 OA
ATOM     22  H   UNL     1       2.240   2.299   3.416  1.00  0.00     0.164 HD
ATOM     23  G   UNL     1       3.695   1.546   5.383  1.00  0.00     0.000 G0
ENDBRANCH  18  19
BRANCH  18  24
ATOM     24  C   UNL     1       3.539   2.601   0.801  1.00  0.00     0.038 C 
BRANCH  24  25
ATOM     25  C   UNL     1       4.933   1.984   0.558  1.00  0.00    -0.015 C 
ATOM     26  C   UNL     1       5.780   2.814  -0.407  1.00  0.00     0.007 C 
ATOM     27  C   UNL     1       4.778   0.561   0.015  1.00  0.00     0.007 C 
ENDBRANCH  24  25
ENDBRANCH  18  24
ENDBRANCH  15  18
ENDBRANCH  13  14
BRANCH  13  28
ATOM     28  C   UNL     1      -0.261   5.802   2.601  1.00  0.00     0.327 C 
ATOM     29  O   UNL     1      -0.431   5.783   3.811  1.00  0.00    -0.250 OA
BRANCH  28  30
ATOM     30  O   UNL     1      -0.201   6.975   1.939  1.00  0.00    -0.480 OA
ATOM     31  H   UNL     1      -0.458   7.643   2.607  1.00  0.00     0.296 HD
ENDBRANCH  28  30
ENDBRANCH  13  28
ENDBRANCH  11  13
ENDBRANCH   8  11
ENDBRANCH   6   7
BRANCH   6  32
ATOM     32  C   UNL     1      -0.194   0.310  -0.991  1.00  0.00     0.037 C 
BRANCH  32  33
ATOM     33  C   UNL     1      -1.454   0.263  -0.116  1.00  0.00     0.026 C 
BRANCH  33  34
ATOM     34  C   UNL     1      -2.661  -0.313  -0.858  1.00  0.00     0.146 C 
BRANCH  34  35
ATOM     35  N   UNL     1      -3.878   0.162  -0.215  1.00  0.00    -0.254 NA
ATOM     36  C   UNL     1      -4.437   1.223  -0.666  1.00  0.00     0.185 C 
ATOM     37  N   UNL     1      -5.562   1.667  -0.084  1.00  0.00    -0.370 N 
ATOM     38  N   UNL     1      -4.056   2.010  -1.688  1.00  0.00    -0.370 N 
ATOM     39  H   UNL     1      -5.919   1.121   0.689  1.00  0.00     0.159 HD
ATOM     40  H   UNL     1      -6.149   2.381  -0.481  1.00  0.00     0.159 HD
ATOM     41  H   UNL     1      -4.503   2.896  -1.858  1.00  0.00     0.159 HD
ATOM     42  H   UNL     1      -3.217   1.805  -2.208  1.00  0.00     0.159 HD
ENDBRANCH  34  35
ENDBRANCH  33  34
ENDBRANCH  32  33
ENDBRANCH   6  32
ENDBRANCH   4   6
ENDBRANCH   1   2
BRANCH   1  43
ATOM     43  C   UNL     1      -2.298  -1.051  -4.769  1.00  0.00     0.102 C 
ATOM     44  C   UNL     1      -1.730  -2.397  -5.251  1.00  0.00     0.020 C 
BRANCH  43  45
ATOM     45  C   UNL     1      -3.709  -0.752  -5.286  1.00  0.00     0.225 C 
ATOM     46  O   UNL     1      -4.096  -1.076  -6.405  1.00  0.00    -0.275 OA
ATOM     47  N   UNL     1      -4.502  -0.005  -4.445  1.00  0.00    -0.342 N 
ATOM     48  H   UNL     1      -4.229   0.120  -3.480  1.00  0.00     0.164 HD
BRANCH  47  49
ATOM     49  C   UNL     1      -5.887   0.326  -4.792  1.00  0.00     0.192 C 
BRANCH  49  50
ATOM     50  C   UNL     1      -5.923   1.653  -5.555  1.00  0.00     0.047 C 
BRANCH  50  51
ATOM     51  C   UNL     1      -7.033   1.685  -6.614  1.00  0.00     0.103 C 
BRANCH  51  52
ATOM     52  C   UNL     1      -8.048   2.795  -6.347  1.00  0.00     0.226 C 
ATOM     53  O   UNL     1      -8.154   3.264  -5.212  1.00  0.00    -0.275 OA
BRANCH  52  54
ATOM     54  N   UNL     1      -8.762   3.274  -7.461  1.00  0.00    -0.311 N 
ATOM     55  C   UNL     1      -9.008   4.710  -7.641  1.00  0.00     0.153 C 
BRANCH  54  56
ATOM     56  C   UNL     1      -9.259   2.400  -8.443  1.00  0.00     0.102 C 
ATOM     57  C   UNL     1     -10.247   1.511  -8.251  1.00  0.00     0.043 C 
BRANCH  56  58
ATOM     58  C   UNL     1      -8.722   2.435  -9.854  1.00  0.00     0.268 C 
ATOM     59  O   UNL     1      -7.592   2.070 -10.150  1.00  0.00    -0.268 OA
ATOM     60  N   UNL     1      -9.652   2.854 -10.775  1.00  0.00    -0.339 N 
ATOM     61  H   UNL     1     -10.564   3.149 -10.447  1.00  0.00     0.164 HD
BRANCH  60  62
ATOM     62  C   UNL     1      -9.363   2.903 -12.208  1.00  0.00     0.168 CG0
ATOM     63  C   UNL     1      -9.979   4.140 -12.849  1.00  0.00     0.041 C 
ATOM     64  G   UNL     1      -9.885   1.619 -12.885  1.00  0.00     0.000 G0
ENDBRANCH  60  62
ENDBRANCH  56  58
ENDBRANCH  54  56
ENDBRANCH  52  54
ENDBRANCH  51  52
ENDBRANCH  50  51
ENDBRANCH  49  50
BRANCH  49  65
ATOM     65  C   UNL     1      -6.774   0.435  -3.542  1.00  0.00     0.326 C 
ATOM     66  O   UNL     1      -7.409  -0.481  -3.039  1.00  0.00    -0.250 OA
BRANCH  65  67
ATOM     67  O   UNL     1      -6.870   1.680  -3.025  1.00  0.00    -0.480 OA
ATOM     68  H   UNL     1      -5.991   2.076  -3.211  1.00  0.00     0.296 HD
ENDBRANCH  65  67
ENDBRANCH  49  65
ENDBRANCH  47  49
ENDBRANCH  43  45
ENDBRANCH   1  43
BRANCH   1  69
ATOM     69  C   UNL     1      -0.274   0.024  -6.093  1.00  0.00    -0.001 C 
ATOM     70  C   UNL     1       0.481   1.007  -6.614  1.00  0.00     0.001 C 
BRANCH  70  71
ATOM     71  C   UNL     1       1.526   0.869  -7.630  1.00  0.00    -0.055 C 
ATOM     72  C   UNL     1       2.591   1.696  -7.552  1.00  0.00    -0.018 C 
ATOM     73  C   UNL     1       1.344  -0.190  -8.686  1.00  0.00     0.044 C 
BRANCH  72  74
ATOM     74  C   UNL     1       3.813   1.779  -8.455  1.00  0.00     0.038 C 
ATOM     75  C   UNL     1       5.044   1.864  -7.544  1.00  0.00     0.015 C 
BRANCH  74  76
ATOM     76  C   UNL     1       3.637   2.982  -9.428  1.00  0.00     0.128 C 
BRANCH  76  77
ATOM     77  O   UNL     1       4.918   3.553  -9.741  1.00  0.00    -0.381 OA
ATOM     78  C   UNL     1       5.300   3.391 -11.100  1.00  0.00     0.195 C 
ENDBRANCH  76  77
BRANCH  76  79
ATOM     79  C   UNL     1       2.803   2.652 -10.692  1.00  0.00     0.068 C 
BRANCH  79  80
ATOM     80  C   UNL     1       1.521   3.416 -10.913  1.00  0.00    -0.045 A 
ATOM     81  C   UNL     1       1.536   4.716 -11.436  1.00  0.00     0.004 A 
ATOM     82  C   UNL     1       0.287   2.843 -10.568  1.00  0.00     0.004 A 
ATOM     83  C   UNL     1       0.346   5.422 -11.624  1.00  0.00     0.000 A 
ATOM     84  C   UNL     1      -0.902   3.550 -10.756  1.00  0.00     0.000 A 
ATOM     85  C   UNL     1      -0.873   4.839 -11.285  1.00  0.00     0.000 A 
ENDBRANCH  79  80
ENDBRANCH  76  79
ENDBRANCH  74  76
ENDBRANCH  72  74
ENDBRANCH  70  71
ENDBRANCH   1  69
TORSDOF 17
ENDMDL
MODEL 40
REMARK VINA RESULT:    -6.453      7.809     14.931
REMARK INTER + INTRA:         -25.794
REMARK INTER:                 -19.749
REMARK INTRA:                  -6.045
REMARK UNBOUND:                -6.514
REMARK SMILES C=C1C(=O)N[C@H](C)C(=O)N[C@@H](CC(C)C)C(=O)N[C@@H](C(=O)O)[C@H](C)C(=O)N[C@@H](CCCN=C(N)N)C(=O)N[C@@H](/C=C/C(C)=C/[C@H](C)[C@H](Cc2ccccc2)OC)[C@H](C)C(=O)N[C@@H](C(=O)O)CCC(=O)N1C
REMARK SMILES IDX 39 1 38 2 37 3 36 4 28 6 27 7 25 8 26 9 23 11 24 12 19 13
REMARK SMILES IDX 18 14 16 15 17 16 11 18 10 19 8 20 9 21 12 24 13 25 14 26
REMARK SMILES IDX 15 27 20 28 21 29 22 30 29 32 30 33 31 34 32 35 33 36 34 37
REMARK SMILES IDX 35 38 57 43 58 44 59 45 60 46 61 47 62 49 66 50 67 51 68 52
REMARK SMILES IDX 69 53 70 54 71 55 2 56 1 57 3 58 4 59 5 60 6 62 7 63 63 65
REMARK SMILES IDX 64 66 65 67 40 69 41 70 42 71 44 72 43 73 45 74 46 75 47 76
REMARK SMILES IDX 55 77 56 78 48 79 49 80 50 81 54 82 51 83 53 84 52 85
REMARK H PARENT 38 5 27 10 18 17 10 22 22 31 34 39 34 40 35 41 35 42 61 48
REMARK H PARENT 5 61 65 68
REMARK Flexibility Score:  369.900
ROOT
ATOM      1  C   UNL     1       5.341   5.806   2.710  1.00  0.00     0.117 C 
ENDROOT
BRANCH   1   2
ATOM      2  N   UNL     1       4.052   6.119   2.092  1.00  0.00    -0.347 N 
ATOM      3  O   UNL     1       2.923   6.707   4.001  1.00  0.00    -0.273 OA
ATOM      4  C   UNL     1       2.969   6.633   2.778  1.00  0.00     0.243 C 
ATOM      5  H   UNL     1       3.942   6.005   1.095  1.00  0.00     0.164 HD
BRANCH   4   6
ATOM      6  C   UNL     1       1.754   6.957   1.873  1.00  0.00     0.171 C 
BRANCH   6   7
ATOM      7  N   UNL     1       1.386   5.782   1.066  1.00  0.00    -0.344 N 
ATOM      8  C   UNL     1       0.779   5.934  -0.162  1.00  0.00     0.226 C 
ATOM      9  O   UNL     1       0.499   7.032  -0.628  1.00  0.00    -0.275 OA
ATOM     10  H   UNL     1       1.541   4.857   1.448  1.00  0.00     0.164 HD
BRANCH   8  11
ATOM     11  C   UNL     1       0.513   4.631  -0.894  1.00  0.00     0.109 C 
ATOM     12  C   UNL     1       0.826   3.443   0.016  1.00  0.00     0.021 C 
BRANCH  11  13
ATOM     13  C   UNL     1      -0.914   4.642  -1.477  1.00  0.00     0.204 C 
BRANCH  13  14
ATOM     14  N   UNL     1      -1.224   3.407  -2.203  1.00  0.00    -0.340 N 
ATOM     15  C   UNL     1      -1.308   3.348  -3.577  1.00  0.00     0.243 C 
ATOM     16  O   UNL     1      -1.070   4.317  -4.296  1.00  0.00    -0.273 OA
ATOM     17  H   UNL     1      -1.579   2.610  -1.667  1.00  0.00     0.164 HD
BRANCH  15  18
ATOM     18  C   UNL     1      -1.849   1.997  -4.106  1.00  0.00     0.171 C 
BRANCH  18  19
ATOM     19  N   UNL     1      -2.437   2.266  -5.417  1.00  0.00    -0.343 N 
ATOM     20  C   UNL     1      -3.782   2.073  -5.666  1.00  0.00     0.242 CG0
ATOM     21  O   UNL     1      -4.520   1.542  -4.839  1.00  0.00    -0.273 OA
ATOM     22  H   UNL     1      -1.844   2.597  -6.170  1.00  0.00     0.164 HD
ATOM     23  G   UNL     1      -4.233   2.485  -7.082  1.00  0.00     0.000 G0
ENDBRANCH  18  19
BRANCH  18  24
ATOM     24  C   UNL     1      -0.722   0.961  -4.198  1.00  0.00     0.038 C 
BRANCH  24  25
ATOM     25  C   UNL     1      -0.826  -0.196  -3.181  1.00  0.00    -0.015 C 
ATOM     26  C   UNL     1       0.482  -0.977  -3.048  1.00  0.00     0.007 C 
ATOM     27  C   UNL     1      -1.953  -1.146  -3.595  1.00  0.00     0.007 C 
ENDBRANCH  24  25
ENDBRANCH  18  24
ENDBRANCH  15  18
ENDBRANCH  13  14
BRANCH  13  28
ATOM     28  C   UNL     1      -2.000   4.827  -0.412  1.00  0.00     0.327 C 
ATOM     29  O   UNL     1      -2.549   3.938   0.221  1.00  0.00    -0.250 OA
BRANCH  28  30
ATOM     30  O   UNL     1      -2.412   6.105  -0.293  1.00  0.00    -0.480 OA
ATOM     31  H   UNL     1      -2.986   6.247  -1.075  1.00  0.00     0.296 HD
ENDBRANCH  28  30
ENDBRANCH  13  28
ENDBRANCH  11  13
ENDBRANCH   8  11
ENDBRANCH   6   7
BRANCH   6  32
ATOM     32  C   UNL     1       0.580   7.409   2.748  1.00  0.00     0.037 C 
BRANCH  32  33
ATOM     33  C   UNL     1      -0.206   6.221   3.321  1.00  0.00     0.026 C 
BRANCH  33  34
ATOM     34  C   UNL     1      -1.635   6.600   3.713  1.00  0.00     0.146 C 
BRANCH  34  35
ATOM     35  N   UNL     1      -2.564   5.773   2.954  1.00  0.00    -0.254 NA
ATOM     36  C   UNL     1      -3.765   6.189   2.791  1.00  0.00     0.185 C 
ATOM     37  N   UNL     1      -4.628   5.438   2.090  1.00  0.00    -0.370 N 
ATOM     38  N   UNL     1      -4.333   7.325   3.235  1.00  0.00    -0.370 N 
ATOM     39  H   UNL     1      -4.271   4.569   1.713  1.00  0.00     0.159 HD
ATOM     40  H   UNL     1      -5.523   5.769   1.773  1.00  0.00     0.159 HD
ATOM     41  H   UNL     1      -5.326   7.474   3.160  1.00  0.00     0.159 HD
ATOM     42  H   UNL     1      -3.804   7.979   3.791  1.00  0.00     0.159 HD
ENDBRANCH  34  35
ENDBRANCH  33  34
ENDBRANCH  32  33
ENDBRANCH   6  32
ENDBRANCH   4   6
ENDBRANCH   1   2
BRANCH   1  43
ATOM     43  C   UNL     1       6.113   7.137   2.945  1.00  0.00     0.102 C 
ATOM     44  C   UNL     1       7.432   7.226   2.160  1.00  0.00     0.020 C 
BRANCH  43  45
ATOM     45  C   UNL     1       6.259   7.431   4.441  1.00  0.00     0.225 C 
ATOM     46  O   UNL     1       6.827   8.428   4.877  1.00  0.00    -0.275 OA
ATOM     47  N   UNL     1       5.793   6.450   5.286  1.00  0.00    -0.342 N 
ATOM     48  H   UNL     1       5.199   5.717   4.923  1.00  0.00     0.164 HD
BRANCH  47  49
ATOM     49  C   UNL     1       5.834   6.610   6.743  1.00  0.00     0.192 C 
BRANCH  49  50
ATOM     50  C   UNL     1       6.709   5.513   7.356  1.00  0.00     0.047 C 
BRANCH  50  51
ATOM     51  C   UNL     1       8.205   5.755   7.106  1.00  0.00     0.103 C 
BRANCH  51  52
ATOM     52  C   UNL     1       8.802   4.717   6.158  1.00  0.00     0.226 C 
ATOM     53  O   UNL     1       8.433   4.680   4.983  1.00  0.00    -0.275 OA
BRANCH  52  54
ATOM     54  N   UNL     1       9.818   3.898   6.685  1.00  0.00    -0.311 N 
ATOM     55  C   UNL     1       9.559   3.014   7.830  1.00  0.00     0.153 C 
BRANCH  54  56
ATOM     56  C   UNL     1      11.111   3.890   6.136  1.00  0.00     0.102 C 
ATOM     57  C   UNL     1      11.614   2.908   5.369  1.00  0.00     0.043 C 
BRANCH  56  58
ATOM     58  C   UNL     1      12.048   5.056   6.342  1.00  0.00     0.268 C 
ATOM     59  O   UNL     1      12.104   6.013   5.582  1.00  0.00    -0.268 OA
ATOM     60  N   UNL     1      12.780   4.962   7.502  1.00  0.00    -0.339 N 
ATOM     61  H   UNL     1      12.684   4.131   8.073  1.00  0.00     0.164 HD
BRANCH  60  62
ATOM     62  C   UNL     1      13.703   6.013   7.928  1.00  0.00     0.168 CG0
ATOM     63  C   UNL     1      15.043   5.425   8.354  1.00  0.00     0.041 C 
ATOM     64  G   UNL     1      13.071   6.821   9.080  1.00  0.00     0.000 G0
ENDBRANCH  60  62
ENDBRANCH  56  58
ENDBRANCH  54  56
ENDBRANCH  52  54
ENDBRANCH  51  52
ENDBRANCH  50  51
ENDBRANCH  49  50
BRANCH  49  65
ATOM     65  C   UNL     1       4.429   6.544   7.361  1.00  0.00     0.326 C 
ATOM     66  O   UNL     1       3.508   7.309   7.114  1.00  0.00    -0.250 OA
BRANCH  65  67
ATOM     67  O   UNL     1       4.266   5.576   8.289  1.00  0.00    -0.480 OA
ATOM     68  H   UNL     1       4.706   5.943   9.086  1.00  0.00     0.296 HD
ENDBRANCH  65  67
ENDBRANCH  49  65
ENDBRANCH  47  49
ENDBRANCH  43  45
ENDBRANCH   1  43
BRANCH   1  69
ATOM     69  C   UNL     1       5.977   4.732   1.846  1.00  0.00    -0.001 C 
ATOM     70  C   UNL     1       5.367   3.942   0.945  1.00  0.00     0.001 C 
BRANCH  70  71
ATOM     71  C   UNL     1       5.996   2.924   0.101  1.00  0.00    -0.055 C 
ATOM     72  C   UNL     1       7.226   3.185  -0.388  1.00  0.00    -0.018 C 
ATOM     73  C   UNL     1       5.228   1.653  -0.155  1.00  0.00     0.044 C 
BRANCH  72  74
ATOM     74  C   UNL     1       8.112   2.324  -1.277  1.00  0.00     0.038 C 
ATOM     75  C   UNL     1       8.860   1.348  -0.361  1.00  0.00     0.015 C 
BRANCH  74  76
ATOM     76  C   UNL     1       9.028   3.256  -2.124  1.00  0.00     0.128 C 
BRANCH  76  77
ATOM     77  O   UNL     1       8.346   3.654  -3.326  1.00  0.00    -0.381 OA
ATOM     78  C   UNL     1       8.957   3.173  -4.515  1.00  0.00     0.195 C 
ENDBRANCH  76  77
BRANCH  76  79
ATOM     79  C   UNL     1       9.604   4.459  -1.335  1.00  0.00     0.068 C 
BRANCH  79  80
ATOM     80  C   UNL     1      11.059   4.807  -1.539  1.00  0.00    -0.045 A 
ATOM     81  C   UNL     1      11.436   6.030  -2.109  1.00  0.00     0.004 A 
ATOM     82  C   UNL     1      12.061   3.892  -1.183  1.00  0.00     0.004 A 
ATOM     83  C   UNL     1      12.783   6.338  -2.307  1.00  0.00     0.000 A 
ATOM     84  C   UNL     1      13.408   4.200  -1.382  1.00  0.00     0.000 A 
ATOM     85  C   UNL     1      13.769   5.423  -1.943  1.00  0.00     0.000 A 
ENDBRANCH  79  80
ENDBRANCH  76  79
ENDBRANCH  74  76
ENDBRANCH  72  74
ENDBRANCH  70  71
ENDBRANCH   1  69
TORSDOF 17
ENDMDL
MODEL 41
REMARK VINA RESULT:    -6.436      6.413     10.854
REMARK INTER + INTRA:         -25.743
REMARK INTER:                 -17.590
REMARK INTRA:                  -8.153
REMARK UNBOUND:                -6.514
REMARK SMILES C=C1C(=O)N[C@H](C)C(=O)N[C@@H](CC(C)C)C(=O)N[C@@H](C(=O)O)[C@H](C)C(=O)N[C@@H](CCCN=C(N)N)C(=O)N[C@@H](/C=C/C(C)=C/[C@H](C)[C@H](Cc2ccccc2)OC)[C@H](C)C(=O)N[C@@H](C(=O)O)CCC(=O)N1C
REMARK SMILES IDX 39 1 38 2 37 3 36 4 28 6 27 7 25 8 26 9 23 11 24 12 19 13
REMARK SMILES IDX 18 14 16 15 17 16 11 18 10 19 8 20 9 21 12 24 13 25 14 26
REMARK SMILES IDX 15 27 20 28 21 29 22 30 29 32 30 33 31 34 32 35 33 36 34 37
REMARK SMILES IDX 35 38 57 43 58 44 59 45 60 46 61 47 62 49 66 50 67 51 68 52
REMARK SMILES IDX 69 53 70 54 71 55 2 56 1 57 3 58 4 59 5 60 6 62 7 63 63 65
REMARK SMILES IDX 64 66 65 67 40 69 41 70 42 71 44 72 43 73 45 74 46 75 47 76
REMARK SMILES IDX 55 77 56 78 48 79 49 80 50 81 54 82 51 83 53 84 52 85
REMARK H PARENT 38 5 27 10 18 17 10 22 22 31 34 39 34 40 35 41 35 42 61 48
REMARK H PARENT 5 61 65 68
REMARK Flexibility Score:  369.900
ROOT
ATOM      1  C   UNL     1      -0.043   0.403  -0.984  1.00  0.00     0.117 C 
ENDROOT
BRANCH   1   2
ATOM      2  N   UNL     1      -1.045   0.764  -1.987  1.00  0.00    -0.347 N 
ATOM      3  O   UNL     1      -0.763  -1.042  -3.376  1.00  0.00    -0.273 OA
ATOM      4  C   UNL     1      -1.390  -0.036  -3.059  1.00  0.00     0.243 C 
ATOM      5  H   UNL     1      -1.562   1.624  -1.882  1.00  0.00     0.164 HD
BRANCH   4   6
ATOM      6  C   UNL     1      -2.540   0.541  -3.923  1.00  0.00     0.171 C 
BRANCH   6   7
ATOM      7  N   UNL     1      -3.832   0.373  -3.238  1.00  0.00    -0.344 N 
ATOM      8  C   UNL     1      -4.997   0.233  -3.960  1.00  0.00     0.226 C 
ATOM      9  O   UNL     1      -5.023   0.263  -5.185  1.00  0.00    -0.275 OA
ATOM     10  H   UNL     1      -3.860   0.410  -2.227  1.00  0.00     0.164 HD
BRANCH   8  11
ATOM     11  C   UNL     1      -6.237   0.014  -3.111  1.00  0.00     0.109 C 
ATOM     12  C   UNL     1      -7.455   0.644  -3.786  1.00  0.00     0.021 C 
BRANCH  11  13
ATOM     13  C   UNL     1      -6.383  -1.485  -2.778  1.00  0.00     0.204 C 
BRANCH  13  14
ATOM     14  N   UNL     1      -5.602  -2.330  -3.687  1.00  0.00    -0.340 N 
ATOM     15  C   UNL     1      -5.902  -3.655  -3.920  1.00  0.00     0.243 C 
ATOM     16  O   UNL     1      -6.885  -4.205  -3.428  1.00  0.00    -0.273 OA
ATOM     17  H   UNL     1      -4.694  -1.982  -4.006  1.00  0.00     0.164 HD
BRANCH  15  18
ATOM     18  C   UNL     1      -4.824  -4.397  -4.747  1.00  0.00     0.171 C 
BRANCH  18  19
ATOM     19  N   UNL     1      -5.459  -5.602  -5.277  1.00  0.00    -0.343 N 
ATOM     20  C   UNL     1      -4.824  -6.829  -5.258  1.00  0.00     0.242 CG0
ATOM     21  O   UNL     1      -3.649  -6.940  -4.917  1.00  0.00    -0.273 OA
ATOM     22  H   UNL     1      -6.388  -5.539  -5.677  1.00  0.00     0.164 HD
ATOM     23  G   UNL     1      -5.681  -7.997  -5.789  1.00  0.00     0.000 G0
ENDBRANCH  18  19
BRANCH  18  24
ATOM     24  C   UNL     1      -4.291  -3.501  -5.871  1.00  0.00     0.038 C 
BRANCH  24  25
ATOM     25  C   UNL     1      -2.988  -2.746  -5.531  1.00  0.00    -0.015 C 
ATOM     26  C   UNL     1      -2.371  -2.064  -6.752  1.00  0.00     0.007 C 
ATOM     27  C   UNL     1      -1.976  -3.717  -4.916  1.00  0.00     0.007 C 
ENDBRANCH  24  25
ENDBRANCH  18  24
ENDBRANCH  15  18
ENDBRANCH  13  14
BRANCH  13  28
ATOM     28  C   UNL     1      -5.950  -1.831  -1.351  1.00  0.00     0.327 C 
ATOM     29  O   UNL     1      -6.690  -2.069  -0.408  1.00  0.00    -0.250 OA
BRANCH  28  30
ATOM     30  O   UNL     1      -4.617  -1.741  -1.166  1.00  0.00    -0.480 OA
ATOM     31  H   UNL     1      -4.413  -0.798  -1.336  1.00  0.00     0.296 HD
ENDBRANCH  28  30
ENDBRANCH  13  28
ENDBRANCH  11  13
ENDBRANCH   8  11
ENDBRANCH   6   7
BRANCH   6  32
ATOM     32  C   UNL     1      -2.261   2.020  -4.209  1.00  0.00     0.037 C 
BRANCH  32  33
ATOM     33  C   UNL     1      -1.841   2.259  -5.667  1.00  0.00     0.026 C 
BRANCH  33  34
ATOM     34  C   UNL     1      -0.495   1.616  -6.001  1.00  0.00     0.146 C 
BRANCH  34  35
ATOM     35  N   UNL     1      -0.081   2.054  -7.326  1.00  0.00    -0.254 NA
ATOM     36  C   UNL     1       1.063   1.683  -7.767  1.00  0.00     0.185 C 
ATOM     37  N   UNL     1       1.453   2.077  -8.989  1.00  0.00    -0.370 N 
ATOM     38  N   UNL     1       1.991   0.916  -7.167  1.00  0.00    -0.370 N 
ATOM     39  H   UNL     1       0.802   2.651  -9.510  1.00  0.00     0.159 HD
ATOM     40  H   UNL     1       2.247   1.692  -9.471  1.00  0.00     0.159 HD
ATOM     41  H   UNL     1       2.912   0.809  -7.560  1.00  0.00     0.159 HD
ATOM     42  H   UNL     1       1.839   0.561  -6.236  1.00  0.00     0.159 HD
ENDBRANCH  34  35
ENDBRANCH  33  34
ENDBRANCH  32  33
ENDBRANCH   6  32
ENDBRANCH   4   6
ENDBRANCH   1   2
BRANCH   1  43
ATOM     43  C   UNL     1      -0.778  -0.108   0.289  1.00  0.00     0.102 C 
ATOM     44  C   UNL     1      -0.916  -1.639   0.343  1.00  0.00     0.020 C 
BRANCH  43  45
ATOM     45  C   UNL     1      -2.096   0.643   0.500  1.00  0.00     0.225 C 
ATOM     46  O   UNL     1      -3.173   0.244   0.064  1.00  0.00    -0.275 OA
ATOM     47  N   UNL     1      -1.991   1.857   1.139  1.00  0.00    -0.342 N 
ATOM     48  H   UNL     1      -1.135   2.097   1.620  1.00  0.00     0.164 HD
BRANCH  47  49
ATOM     49  C   UNL     1      -3.173   2.669   1.441  1.00  0.00     0.192 C 
BRANCH  49  50
ATOM     50  C   UNL     1      -2.922   4.120   1.021  1.00  0.00     0.047 C 
BRANCH  50  51
ATOM     51  C   UNL     1      -1.558   4.301   0.341  1.00  0.00     0.103 C 
BRANCH  51  52
ATOM     52  C   UNL     1      -0.754   5.440   0.965  1.00  0.00     0.226 C 
ATOM     53  O   UNL     1      -0.448   6.418   0.279  1.00  0.00    -0.275 OA
BRANCH  52  54
ATOM     54  N   UNL     1      -0.471   5.329   2.339  1.00  0.00    -0.311 N 
ATOM     55  C   UNL     1       0.302   4.195   2.862  1.00  0.00     0.153 C 
BRANCH  54  56
ATOM     56  C   UNL     1      -0.910   6.296   3.258  1.00  0.00     0.102 C 
ATOM     57  C   UNL     1      -2.121   6.310   3.839  1.00  0.00     0.043 C 
BRANCH  56  58
ATOM     58  C   UNL     1       0.006   7.410   3.708  1.00  0.00     0.268 C 
ATOM     59  O   UNL     1       0.283   8.373   3.007  1.00  0.00    -0.268 OA
ATOM     60  N   UNL     1       0.439   7.262   5.004  1.00  0.00    -0.339 N 
ATOM     61  H   UNL     1       0.173   6.429   5.515  1.00  0.00     0.164 HD
BRANCH  60  62
ATOM     62  C   UNL     1       1.285   8.258   5.661  1.00  0.00     0.168 CG0
ATOM     63  C   UNL     1       2.542   7.616   6.233  1.00  0.00     0.041 C 
ATOM     64  G   UNL     1       0.481   8.968   6.770  1.00  0.00     0.000 G0
ENDBRANCH  60  62
ENDBRANCH  56  58
ENDBRANCH  54  56
ENDBRANCH  52  54
ENDBRANCH  51  52
ENDBRANCH  50  51
ENDBRANCH  49  50
BRANCH  49  65
ATOM     65  C   UNL     1      -3.523   2.626   2.937  1.00  0.00     0.326 C 
ATOM     66  O   UNL     1      -4.482   3.176   3.459  1.00  0.00    -0.250 OA
BRANCH  65  67
ATOM     67  O   UNL     1      -2.635   1.956   3.704  1.00  0.00    -0.480 OA
ATOM     68  H   UNL     1      -2.191   1.352   3.071  1.00  0.00     0.296 HD
ENDBRANCH  65  67
ENDBRANCH  49  65
ENDBRANCH  47  49
ENDBRANCH  43  45
ENDBRANCH   1  43
BRANCH   1  69
ATOM     69  C   UNL     1       0.888   1.596  -0.865  1.00  0.00    -0.001 C 
ATOM     70  C   UNL     1       1.783   1.840   0.109  1.00  0.00     0.001 C 
BRANCH  70  71
ATOM     71  C   UNL     1       2.691   2.985   0.202  1.00  0.00    -0.055 C 
ATOM     72  C   UNL     1       3.871   2.801   0.831  1.00  0.00    -0.018 C 
ATOM     73  C   UNL     1       2.248   4.285  -0.417  1.00  0.00     0.044 C 
BRANCH  72  74
ATOM     74  C   UNL     1       4.998   3.794   1.073  1.00  0.00     0.038 C 
ATOM     75  C   UNL     1       6.279   3.172   0.504  1.00  0.00     0.015 C 
BRANCH  74  76
ATOM     76  C   UNL     1       5.054   4.127   2.593  1.00  0.00     0.128 C 
BRANCH  76  77
ATOM     77  O   UNL     1       6.353   4.638   2.937  1.00  0.00    -0.381 OA
ATOM     78  C   UNL     1       6.632   4.600   4.330  1.00  0.00     0.195 C 
ENDBRANCH  76  77
BRANCH  76  79
ATOM     79  C   UNL     1       3.902   5.043   3.080  1.00  0.00     0.068 C 
BRANCH  79  80
ATOM     80  C   UNL     1       3.897   6.479   2.616  1.00  0.00    -0.045 A 
ATOM     81  C   UNL     1       4.639   7.458   3.291  1.00  0.00     0.004 A 
ATOM     82  C   UNL     1       3.122   6.864   1.512  1.00  0.00     0.004 A 
ATOM     83  C   UNL     1       4.618   8.787   2.865  1.00  0.00     0.000 A 
ATOM     84  C   UNL     1       3.101   8.194   1.087  1.00  0.00     0.000 A 
ATOM     85  C   UNL     1       3.850   9.155   1.762  1.00  0.00     0.000 A 
ENDBRANCH  79  80
ENDBRANCH  76  79
ENDBRANCH  74  76
ENDBRANCH  72  74
ENDBRANCH  70  71
ENDBRANCH   1  69
TORSDOF 17
ENDMDL
MODEL 42
REMARK VINA RESULT:    -6.405      6.155     11.431
REMARK INTER + INTRA:         -25.651
REMARK INTER:                 -21.348
REMARK INTRA:                  -4.303
REMARK UNBOUND:                -6.514
REMARK SMILES C=C1C(=O)N[C@H](C)C(=O)N[C@@H](CC(C)C)C(=O)N[C@@H](C(=O)O)[C@H](C)C(=O)N[C@@H](CCCN=C(N)N)C(=O)N[C@@H](/C=C/C(C)=C/[C@H](C)[C@H](Cc2ccccc2)OC)[C@H](C)C(=O)N[C@@H](C(=O)O)CCC(=O)N1C
REMARK SMILES IDX 39 1 38 2 37 3 36 4 28 6 27 7 25 8 26 9 23 11 24 12 19 13
REMARK SMILES IDX 18 14 16 15 17 16 11 18 10 19 8 20 9 21 12 24 13 25 14 26
REMARK SMILES IDX 15 27 20 28 21 29 22 30 29 32 30 33 31 34 32 35 33 36 34 37
REMARK SMILES IDX 35 38 57 43 58 44 59 45 60 46 61 47 62 49 66 50 67 51 68 52
REMARK SMILES IDX 69 53 70 54 71 55 2 56 1 57 3 58 4 59 5 60 6 62 7 63 63 65
REMARK SMILES IDX 64 66 65 67 40 69 41 70 42 71 44 72 43 73 45 74 46 75 47 76
REMARK SMILES IDX 55 77 56 78 48 79 49 80 50 81 54 82 51 83 53 84 52 85
REMARK H PARENT 38 5 27 10 18 17 10 22 22 31 34 39 34 40 35 41 35 42 61 48
REMARK H PARENT 5 61 65 68
REMARK Flexibility Score:  369.900
ROOT
ATOM      1  C   UNL     1      -0.367   0.024  -1.160  1.00  0.00     0.117 C 
ENDROOT
BRANCH   1   2
ATOM      2  N   UNL     1      -0.895   0.369  -2.480  1.00  0.00    -0.347 N 
ATOM      3  O   UNL     1       0.873  -0.390  -3.733  1.00  0.00    -0.273 OA
ATOM      4  C   UNL     1      -0.270   0.051  -3.671  1.00  0.00     0.243 C 
ATOM      5  H   UNL     1      -1.792   0.825  -2.550  1.00  0.00     0.164 HD
BRANCH   4   6
ATOM      6  C   UNL     1      -1.082   0.454  -4.928  1.00  0.00     0.171 C 
BRANCH   6   7
ATOM      7  N   UNL     1      -0.295   0.213  -6.148  1.00  0.00    -0.344 N 
ATOM      8  C   UNL     1       0.335   1.254  -6.795  1.00  0.00     0.226 C 
ATOM      9  O   UNL     1       0.257   2.414  -6.410  1.00  0.00    -0.275 OA
ATOM     10  H   UNL     1      -0.263  -0.722  -6.534  1.00  0.00     0.164 HD
BRANCH   8  11
ATOM     11  C   UNL     1       1.151   0.836  -8.005  1.00  0.00     0.109 C 
ATOM     12  C   UNL     1       0.491  -0.356  -8.699  1.00  0.00     0.021 C 
BRANCH  11  13
ATOM     13  C   UNL     1       1.402   2.057  -8.912  1.00  0.00     0.204 C 
BRANCH  13  14
ATOM     14  N   UNL     1       2.587   1.881  -9.758  1.00  0.00    -0.340 N 
ATOM     15  C   UNL     1       3.421   2.923 -10.103  1.00  0.00     0.243 C 
ATOM     16  O   UNL     1       3.263   4.065  -9.675  1.00  0.00    -0.273 OA
ATOM     17  H   UNL     1       2.688   0.999 -10.266  1.00  0.00     0.164 HD
BRANCH  15  18
ATOM     18  C   UNL     1       4.479   2.542 -11.167  1.00  0.00     0.171 C 
BRANCH  18  19
ATOM     19  N   UNL     1       5.786   2.681 -10.526  1.00  0.00    -0.343 N 
ATOM     20  C   UNL     1       6.662   3.693 -10.870  1.00  0.00     0.242 CG0
ATOM     21  O   UNL     1       6.441   4.440 -11.820  1.00  0.00    -0.273 OA
ATOM     22  H   UNL     1       6.064   2.016  -9.813  1.00  0.00     0.164 HD
ATOM     23  G   UNL     1       7.956   3.726 -10.032  1.00  0.00     0.000 G0
ENDBRANCH  18  19
BRANCH  18  24
ATOM     24  C   UNL     1       4.250   1.111 -11.670  1.00  0.00     0.038 C 
BRANCH  24  25
ATOM     25  C   UNL     1       4.604   0.886 -13.156  1.00  0.00    -0.015 C 
ATOM     26  C   UNL     1       6.044   0.412 -13.349  1.00  0.00     0.007 C 
ATOM     27  C   UNL     1       4.378   2.181 -13.940  1.00  0.00     0.007 C 
ENDBRANCH  24  25
ENDBRANCH  18  24
ENDBRANCH  15  18
ENDBRANCH  13  14
BRANCH  13  28
ATOM     28  C   UNL     1       0.225   2.371  -9.840  1.00  0.00     0.327 C 
ATOM     29  O   UNL     1       0.131   2.065 -11.018  1.00  0.00    -0.250 OA
BRANCH  28  30
ATOM     30  O   UNL     1      -0.709   3.155  -9.262  1.00  0.00    -0.480 OA
ATOM     31  H   UNL     1      -1.393   3.266  -9.955  1.00  0.00     0.296 HD
ENDBRANCH  28  30
ENDBRANCH  13  28
ENDBRANCH  11  13
ENDBRANCH   8  11
ENDBRANCH   6   7
BRANCH   6  32
ATOM     32  C   UNL     1      -2.393  -0.340  -4.957  1.00  0.00     0.037 C 
BRANCH  32  33
ATOM     33  C   UNL     1      -2.187  -1.812  -4.574  1.00  0.00     0.026 C 
BRANCH  33  34
ATOM     34  C   UNL     1      -3.509  -2.559  -4.389  1.00  0.00     0.146 C 
BRANCH  34  35
ATOM     35  N   UNL     1      -3.589  -3.040  -3.017  1.00  0.00    -0.254 NA
ATOM     36  C   UNL     1      -4.021  -4.228  -2.806  1.00  0.00     0.185 C 
ATOM     37  N   UNL     1      -4.094  -4.683  -1.546  1.00  0.00    -0.370 N 
ATOM     38  N   UNL     1      -4.437  -5.146  -3.697  1.00  0.00    -0.370 N 
ATOM     39  H   UNL     1      -3.788  -4.052  -0.817  1.00  0.00     0.159 HD
ATOM     40  H   UNL     1      -4.253  -5.648  -1.312  1.00  0.00     0.159 HD
ATOM     41  H   UNL     1      -4.886  -5.995  -3.398  1.00  0.00     0.159 HD
ATOM     42  H   UNL     1      -4.451  -4.934  -4.682  1.00  0.00     0.159 HD
ENDBRANCH  34  35
ENDBRANCH  33  34
ENDBRANCH  32  33
ENDBRANCH   6  32
ENDBRANCH   4   6
ENDBRANCH   1   2
BRANCH   1  43
ATOM     43  C   UNL     1      -1.540  -0.489  -0.276  1.00  0.00     0.102 C 
ATOM     44  C   UNL     1      -2.680   0.532  -0.120  1.00  0.00     0.020 C 
BRANCH  43  45
ATOM     45  C   UNL     1      -1.023  -1.052   1.051  1.00  0.00     0.225 C 
ATOM     46  O   UNL     1      -0.681  -2.222   1.196  1.00  0.00    -0.275 OA
ATOM     47  N   UNL     1      -1.052  -0.180   2.116  1.00  0.00    -0.342 N 
ATOM     48  H   UNL     1      -1.188   0.808   1.950  1.00  0.00     0.164 HD
BRANCH  47  49
ATOM     49  C   UNL     1      -0.555  -0.569   3.439  1.00  0.00     0.192 C 
BRANCH  49  50
ATOM     50  C   UNL     1      -1.732  -0.958   4.337  1.00  0.00     0.047 C 
BRANCH  50  51
ATOM     51  C   UNL     1      -1.407  -2.160   5.234  1.00  0.00     0.103 C 
BRANCH  51  52
ATOM     52  C   UNL     1      -1.805  -1.914   6.688  1.00  0.00     0.226 C 
ATOM     53  O   UNL     1      -1.570  -0.822   7.208  1.00  0.00    -0.275 OA
BRANCH  52  54
ATOM     54  N   UNL     1      -2.500  -2.955   7.332  1.00  0.00    -0.311 N 
ATOM     55  C   UNL     1      -3.691  -3.560   6.722  1.00  0.00     0.153 C 
BRANCH  54  56
ATOM     56  C   UNL     1      -2.079  -3.456   8.575  1.00  0.00     0.102 C 
ATOM     57  C   UNL     1      -2.900  -3.824   9.573  1.00  0.00     0.043 C 
BRANCH  56  58
ATOM     58  C   UNL     1      -0.613  -3.667   8.870  1.00  0.00     0.268 C 
ATOM     59  O   UNL     1      -0.012  -4.692   8.580  1.00  0.00    -0.268 OA
ATOM     60  N   UNL     1      -0.012  -2.567   9.435  1.00  0.00    -0.339 N 
ATOM     61  H   UNL     1      -0.582  -1.759   9.654  1.00  0.00     0.164 HD
BRANCH  60  62
ATOM     62  C   UNL     1       1.417  -2.533   9.744  1.00  0.00     0.168 CG0
ATOM     63  C   UNL     1       2.253  -2.783   8.495  1.00  0.00     0.041 C 
ATOM     64  G   UNL     1       1.736  -3.578  10.832  1.00  0.00     0.000 G0
ENDBRANCH  60  62
ENDBRANCH  56  58
ENDBRANCH  54  56
ENDBRANCH  52  54
ENDBRANCH  51  52
ENDBRANCH  50  51
ENDBRANCH  49  50
BRANCH  49  65
ATOM     65  C   UNL     1       0.239   0.567   4.103  1.00  0.00     0.326 C 
ATOM     66  O   UNL     1      -0.093   1.169   5.114  1.00  0.00    -0.250 OA
BRANCH  65  67
ATOM     67  O   UNL     1       1.362   0.930   3.445  1.00  0.00    -0.480 OA
ATOM     68  H   UNL     1       1.641   0.106   2.991  1.00  0.00     0.296 HD
ENDBRANCH  65  67
ENDBRANCH  49  65
ENDBRANCH  47  49
ENDBRANCH  43  45
ENDBRANCH   1  43
BRANCH   1  69
ATOM     69  C   UNL     1       0.431   1.228  -0.694  1.00  0.00    -0.001 C 
ATOM     70  C   UNL     1       1.752   1.288  -0.449  1.00  0.00     0.001 C 
BRANCH  70  71
ATOM     71  C   UNL     1       2.515   2.462  -0.020  1.00  0.00    -0.055 C 
ATOM     72  C   UNL     1       1.821   3.548   0.381  1.00  0.00    -0.018 C 
ATOM     73  C   UNL     1       4.018   2.371  -0.048  1.00  0.00     0.044 C 
BRANCH  72  74
ATOM     74  C   UNL     1       2.338   4.892   0.876  1.00  0.00     0.038 C 
ATOM     75  C   UNL     1       2.644   4.736   2.371  1.00  0.00     0.015 C 
BRANCH  74  76
ATOM     76  C   UNL     1       1.287   5.989   0.535  1.00  0.00     0.128 C 
BRANCH  76  77
ATOM     77  O   UNL     1       0.591   5.643  -0.674  1.00  0.00    -0.381 OA
ATOM     78  C   UNL     1      -0.278   6.665  -1.145  1.00  0.00     0.195 C 
ENDBRANCH  76  77
BRANCH  76  79
ATOM     79  C   UNL     1       0.327   6.326   1.704  1.00  0.00     0.068 C 
BRANCH  79  80
ATOM     80  C   UNL     1       0.505   7.651   2.405  1.00  0.00    -0.045 A 
ATOM     81  C   UNL     1      -0.271   7.987   3.523  1.00  0.00     0.004 A 
ATOM     82  C   UNL     1       1.436   8.585   1.927  1.00  0.00     0.004 A 
ATOM     83  C   UNL     1      -0.111   9.220   4.157  1.00  0.00     0.000 A 
ATOM     84  C   UNL     1       1.595   9.819   2.561  1.00  0.00     0.000 A 
ATOM     85  C   UNL     1       0.824  10.136   3.676  1.00  0.00     0.000 A 
ENDBRANCH  79  80
ENDBRANCH  76  79
ENDBRANCH  74  76
ENDBRANCH  72  74
ENDBRANCH  70  71
ENDBRANCH   1  69
TORSDOF 17
ENDMDL
MODEL 43
REMARK VINA RESULT:    -6.395     12.378     18.208
REMARK INTER + INTRA:         -25.621
REMARK INTER:                 -18.199
REMARK INTRA:                  -7.421
REMARK UNBOUND:                -6.514
REMARK SMILES C=C1C(=O)N[C@H](C)C(=O)N[C@@H](CC(C)C)C(=O)N[C@@H](C(=O)O)[C@H](C)C(=O)N[C@@H](CCCN=C(N)N)C(=O)N[C@@H](/C=C/C(C)=C/[C@H](C)[C@H](Cc2ccccc2)OC)[C@H](C)C(=O)N[C@@H](C(=O)O)CCC(=O)N1C
REMARK SMILES IDX 39 1 38 2 37 3 36 4 28 6 27 7 25 8 26 9 23 11 24 12 19 13
REMARK SMILES IDX 18 14 16 15 17 16 11 18 10 19 8 20 9 21 12 24 13 25 14 26
REMARK SMILES IDX 15 27 20 28 21 29 22 30 29 32 30 33 31 34 32 35 33 36 34 37
REMARK SMILES IDX 35 38 57 43 58 44 59 45 60 46 61 47 62 49 66 50 67 51 68 52
REMARK SMILES IDX 69 53 70 54 71 55 2 56 1 57 3 58 4 59 5 60 6 62 7 63 63 65
REMARK SMILES IDX 64 66 65 67 40 69 41 70 42 71 44 72 43 73 45 74 46 75 47 76
REMARK SMILES IDX 55 77 56 78 48 79 49 80 50 81 54 82 51 83 53 84 52 85
REMARK H PARENT 38 5 27 10 18 17 10 22 22 31 34 39 34 40 35 41 35 42 61 48
REMARK H PARENT 5 61 65 68
REMARK Flexibility Score:  369.900
ROOT
ATOM      1  C   UNL     1       4.626   6.662   7.744  1.00  0.00     0.117 C 
ENDROOT
BRANCH   1   2
ATOM      2  N   UNL     1       6.033   6.274   7.650  1.00  0.00    -0.347 N 
ATOM      3  O   UNL     1       6.863   7.719   9.230  1.00  0.00    -0.273 OA
ATOM      4  C   UNL     1       7.029   6.771   8.469  1.00  0.00     0.243 C 
ATOM      5  H   UNL     1       6.308   5.565   6.987  1.00  0.00     0.164 HD
BRANCH   4   6
ATOM      6  C   UNL     1       8.418   6.131   8.220  1.00  0.00     0.171 C 
BRANCH   6   7
ATOM      7  N   UNL     1       9.064   5.790   9.497  1.00  0.00    -0.344 N 
ATOM      8  C   UNL     1       9.994   6.635  10.063  1.00  0.00     0.226 C 
ATOM      9  O   UNL     1      10.342   7.683   9.532  1.00  0.00    -0.275 OA
ATOM     10  H   UNL     1       8.852   4.900   9.932  1.00  0.00     0.164 HD
BRANCH   8  11
ATOM     11  C   UNL     1      10.527   6.169  11.406  1.00  0.00     0.109 C 
ATOM     12  C   UNL     1       9.851   4.861  11.816  1.00  0.00     0.021 C 
BRANCH  11  13
ATOM     13  C   UNL     1      12.068   6.118  11.366  1.00  0.00     0.204 C 
BRANCH  13  14
ATOM     14  N   UNL     1      12.582   6.060   9.994  1.00  0.00    -0.340 N 
ATOM     15  C   UNL     1      13.172   4.934   9.463  1.00  0.00     0.243 C 
ATOM     16  O   UNL     1      13.254   3.876  10.084  1.00  0.00    -0.273 OA
ATOM     17  H   UNL     1      12.683   6.941   9.482  1.00  0.00     0.164 HD
BRANCH  15  18
ATOM     18  C   UNL     1      13.823   5.171   8.078  1.00  0.00     0.171 C 
BRANCH  18  19
ATOM     19  N   UNL     1      15.108   4.474   8.095  1.00  0.00    -0.343 N 
ATOM     20  C   UNL     1      16.273   5.102   8.489  1.00  0.00     0.242 CG0
ATOM     21  O   UNL     1      16.308   6.309   8.716  1.00  0.00    -0.273 OA
ATOM     22  H   UNL     1      15.151   3.504   7.804  1.00  0.00     0.164 HD
ATOM     23  G   UNL     1      17.513   4.185   8.516  1.00  0.00     0.000 G0
ENDBRANCH  18  19
BRANCH  18  24
ATOM     24  C   UNL     1      12.916   4.652   6.957  1.00  0.00     0.038 C 
BRANCH  24  25
ATOM     25  C   UNL     1      13.217   5.237   5.561  1.00  0.00    -0.015 C 
ATOM     26  C   UNL     1      14.021   4.277   4.684  1.00  0.00     0.007 C 
ATOM     27  C   UNL     1      13.976   6.558   5.709  1.00  0.00     0.007 C 
ENDBRANCH  24  25
ENDBRANCH  18  24
ENDBRANCH  15  18
ENDBRANCH  13  14
BRANCH  13  28
ATOM     28  C   UNL     1      12.730   7.318  12.049  1.00  0.00     0.327 C 
ATOM     29  O   UNL     1      13.327   7.305  13.115  1.00  0.00    -0.250 OA
BRANCH  28  30
ATOM     30  O   UNL     1      12.498   8.484  11.411  1.00  0.00    -0.480 OA
ATOM     31  H   UNL     1      11.547   8.448  11.181  1.00  0.00     0.296 HD
ENDBRANCH  28  30
ENDBRANCH  13  28
ENDBRANCH  11  13
ENDBRANCH   8  11
ENDBRANCH   6   7
BRANCH   6  32
ATOM     32  C   UNL     1       8.249   4.886   7.342  1.00  0.00     0.037 C 
BRANCH  32  33
ATOM     33  C   UNL     1       8.970   5.025   5.994  1.00  0.00     0.026 C 
BRANCH  33  34
ATOM     34  C   UNL     1       8.000   5.212   4.827  1.00  0.00     0.146 C 
BRANCH  34  35
ATOM     35  N   UNL     1       7.375   6.522   4.941  1.00  0.00    -0.254 NA
ATOM     36  C   UNL     1       7.226   7.226   3.882  1.00  0.00     0.185 C 
ATOM     37  N   UNL     1       6.646   8.433   3.974  1.00  0.00    -0.370 N 
ATOM     38  N   UNL     1       7.576   6.933   2.617  1.00  0.00    -0.370 N 
ATOM     39  H   UNL     1       6.344   8.722   4.896  1.00  0.00     0.159 HD
ATOM     40  H   UNL     1       6.338   8.965   3.178  1.00  0.00     0.159 HD
ATOM     41  H   UNL     1       7.532   7.628   1.890  1.00  0.00     0.159 HD
ATOM     42  H   UNL     1       8.036   6.063   2.401  1.00  0.00     0.159 HD
ENDBRANCH  34  35
ENDBRANCH  33  34
ENDBRANCH  32  33
ENDBRANCH   6  32
ENDBRANCH   4   6
ENDBRANCH   1   2
BRANCH   1  43
ATOM     43  C   UNL     1       3.862   5.567   8.543  1.00  0.00     0.102 C 
ATOM     44  C   UNL     1       3.829   4.203   7.834  1.00  0.00     0.020 C 
BRANCH  43  45
ATOM     45  C   UNL     1       2.485   6.070   8.988  1.00  0.00     0.225 C 
ATOM     46  O   UNL     1       1.487   6.011   8.275  1.00  0.00    -0.275 OA
ATOM     47  N   UNL     1       2.449   6.688  10.217  1.00  0.00    -0.342 N 
ATOM     48  H   UNL     1       3.233   6.593  10.848  1.00  0.00     0.164 HD
BRANCH  47  49
ATOM     49  C   UNL     1       1.194   7.187  10.787  1.00  0.00     0.192 C 
BRANCH  49  50
ATOM     50  C   UNL     1       1.498   8.209  11.885  1.00  0.00     0.047 C 
BRANCH  50  51
ATOM     51  C   UNL     1       0.812   9.558  11.630  1.00  0.00     0.103 C 
BRANCH  51  52
ATOM     52  C   UNL     1      -0.494   9.694  12.410  1.00  0.00     0.226 C 
ATOM     53  O   UNL     1      -0.506  10.308  13.478  1.00  0.00    -0.275 OA
BRANCH  52  54
ATOM     54  N   UNL     1      -1.645   9.158  11.803  1.00  0.00    -0.311 N 
ATOM     55  C   UNL     1      -2.473   8.162  12.497  1.00  0.00     0.153 C 
BRANCH  54  56
ATOM     56  C   UNL     1      -2.049   9.558  10.518  1.00  0.00     0.102 C 
ATOM     57  C   UNL     1      -1.955  10.808  10.037  1.00  0.00     0.043 C 
BRANCH  56  58
ATOM     58  C   UNL     1      -2.598   8.554   9.531  1.00  0.00     0.268 C 
ATOM     59  O   UNL     1      -1.924   7.657   9.043  1.00  0.00    -0.268 OA
ATOM     60  N   UNL     1      -3.942   8.712   9.291  1.00  0.00    -0.339 N 
ATOM     61  H   UNL     1      -4.427   9.488   9.727  1.00  0.00     0.164 HD
BRANCH  60  62
ATOM     62  C   UNL     1      -4.689   7.810   8.416  1.00  0.00     0.168 CG0
ATOM     63  C   UNL     1      -5.511   8.591   7.398  1.00  0.00     0.041 C 
ATOM     64  G   UNL     1      -5.597   6.898   9.267  1.00  0.00     0.000 G0
ENDBRANCH  60  62
ENDBRANCH  56  58
ENDBRANCH  54  56
ENDBRANCH  52  54
ENDBRANCH  51  52
ENDBRANCH  50  51
ENDBRANCH  49  50
BRANCH  49  65
ATOM     65  C   UNL     1       0.345   6.047  11.373  1.00  0.00     0.326 C 
ATOM     66  O   UNL     1       0.524   5.514  12.458  1.00  0.00    -0.250 OA
BRANCH  65  67
ATOM     67  O   UNL     1      -0.634   5.597  10.558  1.00  0.00    -0.480 OA
ATOM     68  H   UNL     1      -1.215   6.379  10.441  1.00  0.00     0.296 HD
ENDBRANCH  65  67
ENDBRANCH  49  65
ENDBRANCH  47  49
ENDBRANCH  43  45
ENDBRANCH   1  43
BRANCH   1  69
ATOM     69  C   UNL     1       4.179   6.983   6.329  1.00  0.00    -0.001 C 
ATOM     70  C   UNL     1       3.864   6.112   5.355  1.00  0.00     0.001 C 
BRANCH  70  71
ATOM     71  C   UNL     1       3.414   6.434   3.999  1.00  0.00    -0.055 C 
ATOM     72  C   UNL     1       3.280   7.737   3.675  1.00  0.00    -0.018 C 
ATOM     73  C   UNL     1       3.140   5.289   3.060  1.00  0.00     0.044 C 
BRANCH  72  74
ATOM     74  C   UNL     1       2.839   8.362   2.359  1.00  0.00     0.038 C 
ATOM     75  C   UNL     1       3.762   9.558   2.095  1.00  0.00     0.015 C 
BRANCH  74  76
ATOM     76  C   UNL     1       1.325   8.714   2.454  1.00  0.00     0.128 C 
BRANCH  76  77
ATOM     77  O   UNL     1       0.537   7.635   1.922  1.00  0.00    -0.381 OA
ATOM     78  C   UNL     1       0.851   7.308   0.575  1.00  0.00     0.195 C 
ENDBRANCH  76  77
BRANCH  76  79
ATOM     79  C   UNL     1       0.868   9.151   3.868  1.00  0.00     0.068 C 
BRANCH  79  80
ATOM     80  C   UNL     1      -0.236   8.361   4.530  1.00  0.00    -0.045 A 
ATOM     81  C   UNL     1       0.036   7.161   5.199  1.00  0.00     0.004 A 
ATOM     82  C   UNL     1      -1.564   8.807   4.459  1.00  0.00     0.004 A 
ATOM     83  C   UNL     1      -0.992   6.429   5.796  1.00  0.00     0.000 A 
ATOM     84  C   UNL     1      -2.593   8.074   5.056  1.00  0.00     0.000 A 
ATOM     85  C   UNL     1      -2.306   6.887   5.725  1.00  0.00     0.000 A 
ENDBRANCH  79  80
ENDBRANCH  76  79
ENDBRANCH  74  76
ENDBRANCH  72  74
ENDBRANCH  70  71
ENDBRANCH   1  69
TORSDOF 17
ENDMDL
MODEL 44
REMARK VINA RESULT:    -6.375      6.908     14.914
REMARK INTER + INTRA:         -25.559
REMARK INTER:                 -19.587
REMARK INTRA:                  -5.972
REMARK UNBOUND:                -6.514
REMARK SMILES C=C1C(=O)N[C@H](C)C(=O)N[C@@H](CC(C)C)C(=O)N[C@@H](C(=O)O)[C@H](C)C(=O)N[C@@H](CCCN=C(N)N)C(=O)N[C@@H](/C=C/C(C)=C/[C@H](C)[C@H](Cc2ccccc2)OC)[C@H](C)C(=O)N[C@@H](C(=O)O)CCC(=O)N1C
REMARK SMILES IDX 39 1 38 2 37 3 36 4 28 6 27 7 25 8 26 9 23 11 24 12 19 13
REMARK SMILES IDX 18 14 16 15 17 16 11 18 10 19 8 20 9 21 12 24 13 25 14 26
REMARK SMILES IDX 15 27 20 28 21 29 22 30 29 32 30 33 31 34 32 35 33 36 34 37
REMARK SMILES IDX 35 38 57 43 58 44 59 45 60 46 61 47 62 49 66 50 67 51 68 52
REMARK SMILES IDX 69 53 70 54 71 55 2 56 1 57 3 58 4 59 5 60 6 62 7 63 63 65
REMARK SMILES IDX 64 66 65 67 40 69 41 70 42 71 44 72 43 73 45 74 46 75 47 76
REMARK SMILES IDX 55 77 56 78 48 79 49 80 50 81 54 82 51 83 53 84 52 85
REMARK H PARENT 38 5 27 10 18 17 10 22 22 31 34 39 34 40 35 41 35 42 61 48
REMARK H PARENT 5 61 65 68
REMARK Flexibility Score:  369.900
ROOT
ATOM      1  C   UNL     1      -1.892   1.060  -0.591  1.00  0.00     0.117 C 
ENDROOT
BRANCH   1   2
ATOM      2  N   UNL     1      -2.285   1.994   0.465  1.00  0.00    -0.347 N 
ATOM      3  O   UNL     1      -3.058   0.449   1.977  1.00  0.00    -0.273 OA
ATOM      4  C   UNL     1      -2.754   1.605   1.705  1.00  0.00     0.243 C 
ATOM      5  H   UNL     1      -2.169   2.985   0.318  1.00  0.00     0.164 HD
BRANCH   4   6
ATOM      6  C   UNL     1      -3.017   2.789   2.671  1.00  0.00     0.171 C 
BRANCH   6   7
ATOM      7  N   UNL     1      -4.097   2.454   3.613  1.00  0.00    -0.344 N 
ATOM      8  C   UNL     1      -5.405   2.776   3.325  1.00  0.00     0.226 C 
ATOM      9  O   UNL     1      -5.730   3.365   2.301  1.00  0.00    -0.275 OA
ATOM     10  H   UNL     1      -3.859   2.027   4.500  1.00  0.00     0.164 HD
BRANCH   8  11
ATOM     11  C   UNL     1      -6.407   2.315   4.370  1.00  0.00     0.109 C 
ATOM     12  C   UNL     1      -7.169   3.515   4.932  1.00  0.00     0.021 C 
BRANCH  11  13
ATOM     13  C   UNL     1      -7.295   1.199   3.785  1.00  0.00     0.204 C 
BRANCH  13  14
ATOM     14  N   UNL     1      -7.403   0.049   4.688  1.00  0.00    -0.340 N 
ATOM     15  C   UNL     1      -7.095  -1.237   4.302  1.00  0.00     0.243 C 
ATOM     16  O   UNL     1      -6.649  -1.504   3.188  1.00  0.00    -0.273 OA
ATOM     17  H   UNL     1      -7.907   0.177   5.570  1.00  0.00     0.164 HD
BRANCH  15  18
ATOM     18  C   UNL     1      -7.483  -2.307   5.352  1.00  0.00     0.171 C 
BRANCH  18  19
ATOM     19  N   UNL     1      -8.662  -2.997   4.832  1.00  0.00    -0.343 N 
ATOM     20  C   UNL     1      -9.925  -2.442   4.912  1.00  0.00     0.242 CG0
ATOM     21  O   UNL     1     -10.135  -1.408   5.542  1.00  0.00    -0.273 OA
ATOM     22  H   UNL     1      -8.556  -3.910   4.404  1.00  0.00     0.164 HD
ATOM     23  G   UNL     1     -11.032  -3.280   4.239  1.00  0.00     0.000 G0
ENDBRANCH  18  19
BRANCH  18  24
ATOM     24  C   UNL     1      -6.322  -3.281   5.588  1.00  0.00     0.038 C 
BRANCH  24  25
ATOM     25  C   UNL     1      -5.299  -2.819   6.647  1.00  0.00    -0.015 C 
ATOM     26  C   UNL     1      -4.359  -3.943   7.082  1.00  0.00     0.007 C 
ATOM     27  C   UNL     1      -6.037  -2.263   7.868  1.00  0.00     0.007 C 
ENDBRANCH  24  25
ENDBRANCH  18  24
ENDBRANCH  15  18
ENDBRANCH  13  14
BRANCH  13  28
ATOM     28  C   UNL     1      -8.720   1.664   3.469  1.00  0.00     0.327 C 
ATOM     29  O   UNL     1      -9.048   2.439   2.583  1.00  0.00    -0.250 OA
BRANCH  28  30
ATOM     30  O   UNL     1      -9.630   1.221   4.360  1.00  0.00    -0.480 OA
ATOM     31  H   UNL     1      -9.586   1.870   5.093  1.00  0.00     0.296 HD
ENDBRANCH  28  30
ENDBRANCH  13  28
ENDBRANCH  11  13
ENDBRANCH   8  11
ENDBRANCH   6   7
BRANCH   6  32
ATOM     32  C   UNL     1      -1.722   3.125   3.419  1.00  0.00     0.037 C 
BRANCH  32  33
ATOM     33  C   UNL     1      -0.889   1.873   3.727  1.00  0.00     0.026 C 
BRANCH  33  34
ATOM     34  C   UNL     1      -1.170   1.312   5.122  1.00  0.00     0.146 C 
BRANCH  34  35
ATOM     35  N   UNL     1      -0.667  -0.053   5.189  1.00  0.00    -0.254 NA
ATOM     36  C   UNL     1      -1.482  -1.019   4.977  1.00  0.00     0.185 C 
ATOM     37  N   UNL     1      -1.029  -2.281   5.032  1.00  0.00    -0.370 N 
ATOM     38  N   UNL     1      -2.796  -0.969   4.692  1.00  0.00    -0.370 N 
ATOM     39  H   UNL     1      -0.045  -2.402   5.232  1.00  0.00     0.159 HD
ATOM     40  H   UNL     1      -1.556  -3.075   4.711  1.00  0.00     0.159 HD
ATOM     41  H   UNL     1      -3.359  -1.803   4.685  1.00  0.00     0.159 HD
ATOM     42  H   UNL     1      -3.275  -0.083   4.636  1.00  0.00     0.159 HD
ENDBRANCH  34  35
ENDBRANCH  33  34
ENDBRANCH  32  33
ENDBRANCH   6  32
ENDBRANCH   4   6
ENDBRANCH   1   2
BRANCH   1  43
ATOM     43  C   UNL     1      -0.590   1.589  -1.259  1.00  0.00     0.102 C 
ATOM     44  C   UNL     1      -0.661   3.075  -1.648  1.00  0.00     0.020 C 
BRANCH  43  45
ATOM     45  C   UNL     1      -0.145   0.669  -2.400  1.00  0.00     0.225 C 
ATOM     46  O   UNL     1       0.623  -0.275  -2.240  1.00  0.00    -0.275 OA
ATOM     47  N   UNL     1      -0.588   1.023  -3.654  1.00  0.00    -0.342 N 
ATOM     48  H   UNL     1      -1.332   1.700  -3.748  1.00  0.00     0.164 HD
BRANCH  47  49
ATOM     49  C   UNL     1      -0.271   0.215  -4.835  1.00  0.00     0.192 C 
BRANCH  49  50
ATOM     50  C   UNL     1      -0.050   1.132  -6.041  1.00  0.00     0.047 C 
BRANCH  50  51
ATOM     51  C   UNL     1       1.269   0.833  -6.766  1.00  0.00     0.103 C 
BRANCH  51  52
ATOM     52  C   UNL     1       1.067   0.633  -8.266  1.00  0.00     0.226 C 
ATOM     53  O   UNL     1       0.294  -0.240  -8.667  1.00  0.00    -0.275 OA
BRANCH  52  54
ATOM     54  N   UNL     1       1.737   1.533  -9.115  1.00  0.00    -0.311 N 
ATOM     55  C   UNL     1       1.023   2.235 -10.189  1.00  0.00     0.153 C 
BRANCH  54  56
ATOM     56  C   UNL     1       3.109   1.799  -8.964  1.00  0.00     0.102 C 
ATOM     57  C   UNL     1       3.624   2.751  -8.169  1.00  0.00     0.043 C 
BRANCH  56  58
ATOM     58  C   UNL     1       4.143   0.965  -9.683  1.00  0.00     0.268 C 
ATOM     59  O   UNL     1       4.400  -0.192  -9.379  1.00  0.00    -0.268 OA
ATOM     60  N   UNL     1       4.715   1.616 -10.750  1.00  0.00    -0.339 N 
ATOM     61  H   UNL     1       4.455   2.579 -10.929  1.00  0.00     0.164 HD
BRANCH  60  62
ATOM     62  C   UNL     1       5.696   0.971 -11.622  1.00  0.00     0.168 CG0
ATOM     63  C   UNL     1       5.015   0.294 -12.804  1.00  0.00     0.041 C 
ATOM     64  G   UNL     1       6.518  -0.049 -10.808  1.00  0.00     0.000 G0
ENDBRANCH  60  62
ENDBRANCH  56  58
ENDBRANCH  54  56
ENDBRANCH  52  54
ENDBRANCH  51  52
ENDBRANCH  50  51
ENDBRANCH  49  50
BRANCH  49  65
ATOM     65  C   UNL     1      -1.392  -0.786  -5.155  1.00  0.00     0.326 C 
ATOM     66  O   UNL     1      -1.822  -1.639  -4.392  1.00  0.00    -0.250 OA
BRANCH  65  67
ATOM     67  O   UNL     1      -1.871  -0.712  -6.417  1.00  0.00    -0.480 OA
ATOM     68  H   UNL     1      -2.204  -1.618  -6.591  1.00  0.00     0.296 HD
ENDBRANCH  65  67
ENDBRANCH  49  65
ENDBRANCH  47  49
ENDBRANCH  43  45
ENDBRANCH   1  43
BRANCH   1  69
ATOM     69  C   UNL     1      -3.124   0.849  -1.451  1.00  0.00    -0.001 C 
ATOM     70  C   UNL     1      -4.005  -0.165  -1.382  1.00  0.00     0.001 C 
BRANCH  70  71
ATOM     71  C   UNL     1      -5.203  -0.346  -2.204  1.00  0.00    -0.055 C 
ATOM     72  C   UNL     1      -5.571  -1.609  -2.507  1.00  0.00    -0.018 C 
ATOM     73  C   UNL     1      -5.945   0.888  -2.646  1.00  0.00     0.044 C 
BRANCH  72  74
ATOM     74  C   UNL     1      -6.756  -2.096  -3.329  1.00  0.00     0.038 C 
ATOM     75  C   UNL     1      -7.269  -3.380  -2.666  1.00  0.00     0.015 C 
BRANCH  74  76
ATOM     76  C   UNL     1      -6.304  -2.261  -4.810  1.00  0.00     0.128 C 
BRANCH  76  77
ATOM     77  O   UNL     1      -6.597  -1.063  -5.548  1.00  0.00    -0.381 OA
ATOM     78  C   UNL     1      -5.452  -0.464  -6.142  1.00  0.00     0.195 C 
ENDBRANCH  76  77
BRANCH  76  79
ATOM     79  C   UNL     1      -4.833  -2.721  -4.972  1.00  0.00     0.068 C 
BRANCH  79  80
ATOM     80  C   UNL     1      -4.534  -4.194  -4.833  1.00  0.00    -0.045 A 
ATOM     81  C   UNL     1      -4.871  -5.098  -5.848  1.00  0.00     0.004 A 
ATOM     82  C   UNL     1      -3.935  -4.686  -3.663  1.00  0.00     0.004 A 
ATOM     83  C   UNL     1      -4.603  -6.462  -5.705  1.00  0.00     0.000 A 
ATOM     84  C   UNL     1      -3.668  -6.049  -3.521  1.00  0.00     0.000 A 
ATOM     85  C   UNL     1      -4.001  -6.936  -4.542  1.00  0.00     0.000 A 
ENDBRANCH  79  80
ENDBRANCH  76  79
ENDBRANCH  74  76
ENDBRANCH  72  74
ENDBRANCH  70  71
ENDBRANCH   1  69
TORSDOF 17
ENDMDL
MODEL 45
REMARK VINA RESULT:    -6.372      4.345     11.098
REMARK INTER + INTRA:         -25.550
REMARK INTER:                 -19.504
REMARK INTRA:                  -6.046
REMARK UNBOUND:                -6.514
REMARK SMILES C=C1C(=O)N[C@H](C)C(=O)N[C@@H](CC(C)C)C(=O)N[C@@H](C(=O)O)[C@H](C)C(=O)N[C@@H](CCCN=C(N)N)C(=O)N[C@@H](/C=C/C(C)=C/[C@H](C)[C@H](Cc2ccccc2)OC)[C@H](C)C(=O)N[C@@H](C(=O)O)CCC(=O)N1C
REMARK SMILES IDX 39 1 38 2 37 3 36 4 28 6 27 7 25 8 26 9 23 11 24 12 19 13
REMARK SMILES IDX 18 14 16 15 17 16 11 18 10 19 8 20 9 21 12 24 13 25 14 26
REMARK SMILES IDX 15 27 20 28 21 29 22 30 29 32 30 33 31 34 32 35 33 36 34 37
REMARK SMILES IDX 35 38 57 43 58 44 59 45 60 46 61 47 62 49 66 50 67 51 68 52
REMARK SMILES IDX 69 53 70 54 71 55 2 56 1 57 3 58 4 59 5 60 6 62 7 63 63 65
REMARK SMILES IDX 64 66 65 67 40 69 41 70 42 71 44 72 43 73 45 74 46 75 47 76
REMARK SMILES IDX 55 77 56 78 48 79 49 80 50 81 54 82 51 83 53 84 52 85
REMARK H PARENT 38 5 27 10 18 17 10 22 22 31 34 39 34 40 35 41 35 42 61 48
REMARK H PARENT 5 61 65 68
REMARK Flexibility Score:  369.900
ROOT
ATOM      1  C   UNL     1      -1.371   2.093  -5.414  1.00  0.00     0.117 C 
ENDROOT
BRANCH   1   2
ATOM      2  N   UNL     1      -2.720   1.775  -5.884  1.00  0.00    -0.347 N 
ATOM      3  O   UNL     1      -3.442   3.924  -6.241  1.00  0.00    -0.273 OA
ATOM      4  C   UNL     1      -3.619   2.715  -6.348  1.00  0.00     0.243 C 
ATOM      5  H   UNL     1      -3.015   0.811  -5.926  1.00  0.00     0.164 HD
BRANCH   4   6
ATOM      6  C   UNL     1      -4.946   2.106  -6.867  1.00  0.00     0.171 C 
BRANCH   6   7
ATOM      7  N   UNL     1      -5.949   2.064  -5.791  1.00  0.00    -0.344 N 
ATOM      8  C   UNL     1      -6.529   0.872  -5.416  1.00  0.00     0.226 C 
ATOM      9  O   UNL     1      -6.263  -0.192  -5.963  1.00  0.00    -0.275 OA
ATOM     10  H   UNL     1      -6.244   2.932  -5.362  1.00  0.00     0.164 HD
BRANCH   8  11
ATOM     11  C   UNL     1      -7.502   0.986  -4.256  1.00  0.00     0.109 C 
ATOM     12  C   UNL     1      -8.835   0.333  -4.621  1.00  0.00     0.021 C 
BRANCH  11  13
ATOM     13  C   UNL     1      -6.846   0.446  -2.970  1.00  0.00     0.204 C 
BRANCH  13  14
ATOM     14  N   UNL     1      -6.334  -0.917  -3.143  1.00  0.00    -0.340 N 
ATOM     15  C   UNL     1      -5.811  -1.657  -2.104  1.00  0.00     0.243 C 
ATOM     16  O   UNL     1      -5.793  -1.248  -0.945  1.00  0.00    -0.273 OA
ATOM     17  H   UNL     1      -6.180  -1.255  -4.097  1.00  0.00     0.164 HD
BRANCH  15  18
ATOM     18  C   UNL     1      -5.145  -2.979  -2.561  1.00  0.00     0.171 C 
BRANCH  18  19
ATOM     19  N   UNL     1      -5.669  -4.033  -1.695  1.00  0.00    -0.343 N 
ATOM     20  C   UNL     1      -7.010  -4.363  -1.679  1.00  0.00     0.242 CG0
ATOM     21  O   UNL     1      -7.843  -3.700  -2.291  1.00  0.00    -0.273 OA
ATOM     22  H   UNL     1      -5.035  -4.534  -1.082  1.00  0.00     0.164 HD
ATOM     23  G   UNL     1      -7.362  -5.552  -0.761  1.00  0.00     0.000 G0
ENDBRANCH  18  19
BRANCH  18  24
ATOM     24  C   UNL     1      -5.453  -3.259  -4.037  1.00  0.00     0.038 C 
BRANCH  24  25
ATOM     25  C   UNL     1      -4.212  -3.323  -4.953  1.00  0.00    -0.015 C 
ATOM     26  C   UNL     1      -3.238  -2.173  -4.700  1.00  0.00     0.007 C 
ATOM     27  C   UNL     1      -4.654  -3.312  -6.419  1.00  0.00     0.007 C 
ENDBRANCH  24  25
ENDBRANCH  18  24
ENDBRANCH  15  18
ENDBRANCH  13  14
BRANCH  13  28
ATOM     28  C   UNL     1      -5.681   1.310  -2.478  1.00  0.00     0.327 C 
ATOM     29  O   UNL     1      -4.603   1.454  -3.034  1.00  0.00    -0.250 OA
BRANCH  28  30
ATOM     30  O   UNL     1      -5.897   1.844  -1.259  1.00  0.00    -0.480 OA
ATOM     31  H   UNL     1      -5.168   1.490  -0.708  1.00  0.00     0.296 HD
ENDBRANCH  28  30
ENDBRANCH  13  28
ENDBRANCH  11  13
ENDBRANCH   8  11
ENDBRANCH   6   7
BRANCH   6  32
ATOM     32  C   UNL     1      -5.451   2.936  -8.054  1.00  0.00     0.037 C 
BRANCH  32  33
ATOM     33  C   UNL     1      -6.443   2.154  -8.926  1.00  0.00     0.026 C 
BRANCH  33  34
ATOM     34  C   UNL     1      -7.752   2.914  -9.147  1.00  0.00     0.146 C 
BRANCH  34  35
ATOM     35  N   UNL     1      -8.823   1.950  -9.365  1.00  0.00    -0.254 NA
ATOM     36  C   UNL     1      -9.731   1.828  -8.470  1.00  0.00     0.185 C 
ATOM     37  N   UNL     1     -10.725   0.947  -8.663  1.00  0.00    -0.370 N 
ATOM     38  N   UNL     1      -9.857   2.478  -7.300  1.00  0.00    -0.370 N 
ATOM     39  H   UNL     1     -10.706   0.424  -9.530  1.00  0.00     0.159 HD
ATOM     40  H   UNL     1     -11.557   0.916  -8.101  1.00  0.00     0.159 HD
ATOM     41  H   UNL     1     -10.539   2.193  -6.616  1.00  0.00     0.159 HD
ATOM     42  H   UNL     1      -9.171   3.160  -7.015  1.00  0.00     0.159 HD
ENDBRANCH  34  35
ENDBRANCH  33  34
ENDBRANCH  32  33
ENDBRANCH   6  32
ENDBRANCH   4   6
ENDBRANCH   1   2
BRANCH   1  43
ATOM     43  C   UNL     1      -0.410   0.954  -5.861  1.00  0.00     0.102 C 
ATOM     44  C   UNL     1       0.351   0.302  -4.694  1.00  0.00     0.020 C 
BRANCH  43  45
ATOM     45  C   UNL     1       0.491   1.414  -7.011  1.00  0.00     0.225 C 
ATOM     46  O   UNL     1       0.104   2.150  -7.913  1.00  0.00    -0.275 OA
ATOM     47  N   UNL     1       1.756   0.871  -7.026  1.00  0.00    -0.342 N 
ATOM     48  H   UNL     1       2.106   0.395  -6.206  1.00  0.00     0.164 HD
BRANCH  47  49
ATOM     49  C   UNL     1       2.739   1.247  -8.046  1.00  0.00     0.192 C 
BRANCH  49  50
ATOM     50  C   UNL     1       3.560   0.019  -8.447  1.00  0.00     0.047 C 
BRANCH  50  51
ATOM     51  C   UNL     1       3.613  -0.173  -9.969  1.00  0.00     0.103 C 
BRANCH  51  52
ATOM     52  C   UNL     1       4.800   0.554 -10.598  1.00  0.00     0.226 C 
ATOM     53  O   UNL     1       5.890   0.554 -10.022  1.00  0.00    -0.275 OA
BRANCH  52  54
ATOM     54  N   UNL     1       4.584   1.128 -11.864  1.00  0.00    -0.311 N 
ATOM     55  C   UNL     1       4.980   0.424 -13.091  1.00  0.00     0.153 C 
BRANCH  54  56
ATOM     56  C   UNL     1       3.978   2.388 -12.003  1.00  0.00     0.102 C 
ATOM     57  C   UNL     1       2.688   2.654 -11.741  1.00  0.00     0.043 C 
BRANCH  56  58
ATOM     58  C   UNL     1       4.783   3.592 -12.433  1.00  0.00     0.268 C 
ATOM     59  O   UNL     1       5.276   4.385 -11.642  1.00  0.00    -0.268 OA
ATOM     60  N   UNL     1       4.959   3.666 -13.794  1.00  0.00    -0.339 N 
ATOM     61  H   UNL     1       4.509   2.975 -14.382  1.00  0.00     0.164 HD
BRANCH  60  62
ATOM     62  C   UNL     1       5.760   4.718 -14.419  1.00  0.00     0.168 CG0
ATOM     63  C   UNL     1       4.972   5.427 -15.514  1.00  0.00     0.041 C 
ATOM     64  G   UNL     1       7.059   4.110 -14.988  1.00  0.00     0.000 G0
ENDBRANCH  60  62
ENDBRANCH  56  58
ENDBRANCH  54  56
ENDBRANCH  52  54
ENDBRANCH  51  52
ENDBRANCH  50  51
ENDBRANCH  49  50
BRANCH  49  65
ATOM     65  C   UNL     1       3.684   2.349  -7.543  1.00  0.00     0.326 C 
ATOM     66  O   UNL     1       4.863   2.198  -7.255  1.00  0.00    -0.250 OA
BRANCH  65  67
ATOM     67  O   UNL     1       3.102   3.556  -7.368  1.00  0.00    -0.480 OA
ATOM     68  H   UNL     1       2.756   3.515  -6.450  1.00  0.00     0.296 HD
ENDBRANCH  65  67
ENDBRANCH  49  65
ENDBRANCH  47  49
ENDBRANCH  43  45
ENDBRANCH   1  43
BRANCH   1  69
ATOM     69  C   UNL     1      -1.500   2.405  -3.935  1.00  0.00    -0.001 C 
ATOM     70  C   UNL     1      -1.266   3.580  -3.324  1.00  0.00     0.001 C 
BRANCH  70  71
ATOM     71  C   UNL     1      -1.415   3.876  -1.898  1.00  0.00    -0.055 C 
ATOM     72  C   UNL     1      -0.292   4.090  -1.181  1.00  0.00    -0.018 C 
ATOM     73  C   UNL     1      -2.811   3.928  -1.333  1.00  0.00     0.044 C 
BRANCH  72  74
ATOM     74  C   UNL     1      -0.141   4.416   0.298  1.00  0.00     0.038 C 
ATOM     75  C   UNL     1       1.137   5.251   0.449  1.00  0.00     0.015 C 
BRANCH  74  76
ATOM     76  C   UNL     1      -0.152   3.086   1.108  1.00  0.00     0.128 C 
BRANCH  76  77
ATOM     77  O   UNL     1      -1.505   2.708   1.412  1.00  0.00    -0.381 OA
ATOM     78  C   UNL     1      -1.845   2.860   2.784  1.00  0.00     0.195 C 
ENDBRANCH  76  77
BRANCH  76  79
ATOM     79  C   UNL     1       0.657   1.941   0.448  1.00  0.00     0.068 C 
BRANCH  79  80
ATOM     80  C   UNL     1      -0.067   0.653   0.137  1.00  0.00    -0.045 A 
ATOM     81  C   UNL     1      -0.502   0.366  -1.163  1.00  0.00     0.004 A 
ATOM     82  C   UNL     1      -0.340  -0.269   1.159  1.00  0.00     0.004 A 
ATOM     83  C   UNL     1      -1.183  -0.822  -1.440  1.00  0.00     0.000 A 
ATOM     84  C   UNL     1      -1.022  -1.456   0.881  1.00  0.00     0.000 A 
ATOM     85  C   UNL     1      -1.442  -1.732  -0.418  1.00  0.00     0.000 A 
ENDBRANCH  79  80
ENDBRANCH  76  79
ENDBRANCH  74  76
ENDBRANCH  72  74
ENDBRANCH  70  71
ENDBRANCH   1  69
TORSDOF 17
ENDMDL
MODEL 46
REMARK VINA RESULT:    -6.364      6.990     12.305
REMARK INTER + INTRA:         -25.526
REMARK INTER:                 -18.725
REMARK INTRA:                  -6.801
REMARK UNBOUND:                -6.514
REMARK SMILES C=C1C(=O)N[C@H](C)C(=O)N[C@@H](CC(C)C)C(=O)N[C@@H](C(=O)O)[C@H](C)C(=O)N[C@@H](CCCN=C(N)N)C(=O)N[C@@H](/C=C/C(C)=C/[C@H](C)[C@H](Cc2ccccc2)OC)[C@H](C)C(=O)N[C@@H](C(=O)O)CCC(=O)N1C
REMARK SMILES IDX 39 1 38 2 37 3 36 4 28 6 27 7 25 8 26 9 23 11 24 12 19 13
REMARK SMILES IDX 18 14 16 15 17 16 11 18 10 19 8 20 9 21 12 24 13 25 14 26
REMARK SMILES IDX 15 27 20 28 21 29 22 30 29 32 30 33 31 34 32 35 33 36 34 37
REMARK SMILES IDX 35 38 57 43 58 44 59 45 60 46 61 47 62 49 66 50 67 51 68 52
REMARK SMILES IDX 69 53 70 54 71 55 2 56 1 57 3 58 4 59 5 60 6 62 7 63 63 65
REMARK SMILES IDX 64 66 65 67 40 69 41 70 42 71 44 72 43 73 45 74 46 75 47 76
REMARK SMILES IDX 55 77 56 78 48 79 49 80 50 81 54 82 51 83 53 84 52 85
REMARK H PARENT 38 5 27 10 18 17 10 22 22 31 34 39 34 40 35 41 35 42 61 48
REMARK H PARENT 5 61 65 68
REMARK Flexibility Score:  369.900
ROOT
ATOM      1  C   UNL     1      -1.687   0.997   2.167  1.00  0.00     0.117 C 
ENDROOT
BRANCH   1   2
ATOM      2  N   UNL     1      -1.885   0.806   0.730  1.00  0.00    -0.347 N 
ATOM      3  O   UNL     1      -2.883   2.824   0.281  1.00  0.00    -0.273 OA
ATOM      4  C   UNL     1      -2.385   1.776  -0.117  1.00  0.00     0.243 C 
ATOM      5  H   UNL     1      -1.598  -0.061   0.302  1.00  0.00     0.164 HD
BRANCH   4   6
ATOM      6  C   UNL     1      -2.412   1.349  -1.607  1.00  0.00     0.171 C 
BRANCH   6   7
ATOM      7  N   UNL     1      -3.781   0.996  -2.016  1.00  0.00    -0.344 N 
ATOM      8  C   UNL     1      -4.362  -0.178  -1.589  1.00  0.00     0.226 C 
ATOM      9  O   UNL     1      -3.774  -0.985  -0.879  1.00  0.00    -0.275 OA
ATOM     10  H   UNL     1      -4.274   1.606  -2.657  1.00  0.00     0.164 HD
BRANCH   8  11
ATOM     11  C   UNL     1      -5.795  -0.371  -2.052  1.00  0.00     0.109 C 
ATOM     12  C   UNL     1      -6.257   0.844  -2.855  1.00  0.00     0.021 C 
BRANCH  11  13
ATOM     13  C   UNL     1      -5.929  -1.721  -2.784  1.00  0.00     0.204 C 
BRANCH  13  14
ATOM     14  N   UNL     1      -4.631  -2.236  -3.234  1.00  0.00    -0.340 N 
ATOM     15  C   UNL     1      -4.422  -2.731  -4.503  1.00  0.00     0.243 C 
ATOM     16  O   UNL     1      -5.295  -2.720  -5.369  1.00  0.00    -0.273 OA
ATOM     17  H   UNL     1      -3.913  -2.412  -2.527  1.00  0.00     0.164 HD
BRANCH  15  18
ATOM     18  C   UNL     1      -3.040  -3.406  -4.683  1.00  0.00     0.171 C 
BRANCH  18  19
ATOM     19  N   UNL     1      -3.289  -4.712  -5.291  1.00  0.00    -0.343 N 
ATOM     20  C   UNL     1      -3.648  -5.812  -4.536  1.00  0.00     0.242 CG0
ATOM     21  O   UNL     1      -3.645  -5.777  -3.307  1.00  0.00    -0.273 OA
ATOM     22  H   UNL     1      -3.190  -4.820  -6.294  1.00  0.00     0.164 HD
ATOM     23  G   UNL     1      -3.945  -7.081  -5.360  1.00  0.00     0.000 G0
ENDBRANCH  18  19
BRANCH  18  24
ATOM     24  C   UNL     1      -2.125  -2.543  -5.560  1.00  0.00     0.038 C 
BRANCH  24  25
ATOM     25  C   UNL     1      -1.800  -1.151  -4.977  1.00  0.00    -0.015 C 
ATOM     26  C   UNL     1      -1.026  -0.272  -5.959  1.00  0.00     0.007 C 
ATOM     27  C   UNL     1      -0.996  -1.311  -3.684  1.00  0.00     0.007 C 
ENDBRANCH  24  25
ENDBRANCH  18  24
ENDBRANCH  15  18
ENDBRANCH  13  14
BRANCH  13  28
ATOM     28  C   UNL     1      -6.577  -2.812  -1.926  1.00  0.00     0.327 C 
ATOM     29  O   UNL     1      -7.774  -3.031  -1.818  1.00  0.00    -0.250 OA
BRANCH  28  30
ATOM     30  O   UNL     1      -5.689  -3.484  -1.166  1.00  0.00    -0.480 OA
ATOM     31  H   UNL     1      -5.430  -2.842  -0.473  1.00  0.00     0.296 HD
ENDBRANCH  28  30
ENDBRANCH  13  28
ENDBRANCH  11  13
ENDBRANCH   8  11
ENDBRANCH   6   7
BRANCH   6  32
ATOM     32  C   UNL     1      -1.860   2.491  -2.468  1.00  0.00     0.037 C 
BRANCH  32  33
ATOM     33  C   UNL     1      -2.405   2.450  -3.903  1.00  0.00     0.026 C 
BRANCH  33  34
ATOM     34  C   UNL     1      -1.764   3.507  -4.802  1.00  0.00     0.146 C 
BRANCH  34  35
ATOM     35  N   UNL     1      -2.809   4.374  -5.328  1.00  0.00    -0.254 NA
ATOM     36  C   UNL     1      -2.903   4.524  -6.596  1.00  0.00     0.185 C 
ATOM     37  N   UNL     1      -3.867   5.317  -7.091  1.00  0.00    -0.370 N 
ATOM     38  N   UNL     1      -2.149   3.983  -7.569  1.00  0.00    -0.370 N 
ATOM     39  H   UNL     1      -4.485   5.754  -6.420  1.00  0.00     0.159 HD
ATOM     40  H   UNL     1      -4.115   5.349  -8.065  1.00  0.00     0.159 HD
ATOM     41  H   UNL     1      -2.234   4.288  -8.525  1.00  0.00     0.159 HD
ATOM     42  H   UNL     1      -1.376   3.377  -7.341  1.00  0.00     0.159 HD
ENDBRANCH  34  35
ENDBRANCH  33  34
ENDBRANCH  32  33
ENDBRANCH   6  32
ENDBRANCH   4   6
ENDBRANCH   1   2
BRANCH   1  43
ATOM     43  C   UNL     1      -0.258   0.508   2.540  1.00  0.00     0.102 C 
ATOM     44  C   UNL     1       0.109   0.755   4.013  1.00  0.00     0.020 C 
BRANCH  43  45
ATOM     45  C   UNL     1       0.780   1.034   1.544  1.00  0.00     0.225 C 
ATOM     46  O   UNL     1       0.993   0.508   0.456  1.00  0.00    -0.275 OA
ATOM     47  N   UNL     1       1.540   2.093   1.986  1.00  0.00    -0.342 N 
ATOM     48  H   UNL     1       1.255   2.605   2.809  1.00  0.00     0.164 HD
BRANCH  47  49
ATOM     49  C   UNL     1       2.548   2.723   1.127  1.00  0.00     0.192 C 
BRANCH  49  50
ATOM     50  C   UNL     1       3.684   3.278   1.990  1.00  0.00     0.047 C 
BRANCH  50  51
ATOM     51  C   UNL     1       3.386   3.160   3.491  1.00  0.00     0.103 C 
BRANCH  51  52
ATOM     52  C   UNL     1       3.287   4.527   4.165  1.00  0.00     0.226 C 
ATOM     53  O   UNL     1       2.198   4.922   4.586  1.00  0.00    -0.275 OA
BRANCH  52  54
ATOM     54  N   UNL     1       4.493   5.233   4.332  1.00  0.00    -0.311 N 
ATOM     55  C   UNL     1       5.625   4.636   5.052  1.00  0.00     0.153 C 
BRANCH  54  56
ATOM     56  C   UNL     1       4.661   6.528   3.814  1.00  0.00     0.102 C 
ATOM     57  C   UNL     1       5.122   6.809   2.584  1.00  0.00     0.043 C 
BRANCH  56  58
ATOM     58  C   UNL     1       4.277   7.743   4.624  1.00  0.00     0.268 C 
ATOM     59  O   UNL     1       5.091   8.434   5.222  1.00  0.00    -0.268 OA
ATOM     60  N   UNL     1       2.934   8.029   4.564  1.00  0.00    -0.339 N 
ATOM     61  H   UNL     1       2.324   7.401   4.055  1.00  0.00     0.164 HD
BRANCH  60  62
ATOM     62  C   UNL     1       2.356   9.199   5.225  1.00  0.00     0.168 CG0
ATOM     63  C   UNL     1       1.237   9.804   4.387  1.00  0.00     0.041 C 
ATOM     64  G   UNL     1       3.463  10.241   5.492  1.00  0.00     0.000 G0
ENDBRANCH  60  62
ENDBRANCH  56  58
ENDBRANCH  54  56
ENDBRANCH  52  54
ENDBRANCH  51  52
ENDBRANCH  50  51
ENDBRANCH  49  50
BRANCH  49  65
ATOM     65  C   UNL     1       1.946   3.859   0.286  1.00  0.00     0.326 C 
ATOM     66  O   UNL     1       1.392   3.725  -0.796  1.00  0.00    -0.250 OA
BRANCH  65  67
ATOM     67  O   UNL     1       2.118   5.096   0.803  1.00  0.00    -0.480 OA
ATOM     68  H   UNL     1       3.064   5.290   0.628  1.00  0.00     0.296 HD
ENDBRANCH  65  67
ENDBRANCH  49  65
ENDBRANCH  47  49
ENDBRANCH  43  45
ENDBRANCH   1  43
BRANCH   1  69
ATOM     69  C   UNL     1      -2.883   0.355   2.848  1.00  0.00    -0.001 C 
ATOM     70  C   UNL     1      -3.977   0.971   3.329  1.00  0.00     0.001 C 
BRANCH  70  71
ATOM     71  C   UNL     1      -5.135   0.339   3.964  1.00  0.00    -0.055 C 
ATOM     72  C   UNL     1      -4.899  -0.565   4.939  1.00  0.00    -0.018 C 
ATOM     73  C   UNL     1      -6.506   0.746   3.492  1.00  0.00     0.044 C 
BRANCH  72  74
ATOM     74  C   UNL     1      -5.892  -1.368   5.768  1.00  0.00     0.038 C 
ATOM     75  C   UNL     1      -6.162  -0.570   7.049  1.00  0.00     0.015 C 
BRANCH  74  76
ATOM     76  C   UNL     1      -5.313  -2.795   5.998  1.00  0.00     0.128 C 
BRANCH  76  77
ATOM     77  O   UNL     1      -5.664  -3.650   4.897  1.00  0.00    -0.381 OA
ATOM     78  C   UNL     1      -7.030  -3.556   4.514  1.00  0.00     0.195 C 
ENDBRANCH  76  77
BRANCH  76  79
ATOM     79  C   UNL     1      -3.796  -2.816   6.313  1.00  0.00     0.068 C 
BRANCH  79  80
ATOM     80  C   UNL     1      -3.364  -3.295   7.678  1.00  0.00    -0.045 A 
ATOM     81  C   UNL     1      -3.352  -2.427   8.777  1.00  0.00     0.004 A 
ATOM     82  C   UNL     1      -2.938  -4.620   7.860  1.00  0.00     0.004 A 
ATOM     83  C   UNL     1      -2.937  -2.875  10.033  1.00  0.00     0.000 A 
ATOM     84  C   UNL     1      -2.523  -5.066   9.117  1.00  0.00     0.000 A 
ATOM     85  C   UNL     1      -2.524  -4.194  10.203  1.00  0.00     0.000 A 
ENDBRANCH  79  80
ENDBRANCH  76  79
ENDBRANCH  74  76
ENDBRANCH  72  74
ENDBRANCH  70  71
ENDBRANCH   1  69
TORSDOF 17
ENDMDL
MODEL 47
REMARK VINA RESULT:    -6.319      5.943      9.757
REMARK INTER + INTRA:         -25.392
REMARK INTER:                 -19.383
REMARK INTRA:                  -6.009
REMARK UNBOUND:                -6.514
REMARK SMILES C=C1C(=O)N[C@H](C)C(=O)N[C@@H](CC(C)C)C(=O)N[C@@H](C(=O)O)[C@H](C)C(=O)N[C@@H](CCCN=C(N)N)C(=O)N[C@@H](/C=C/C(C)=C/[C@H](C)[C@H](Cc2ccccc2)OC)[C@H](C)C(=O)N[C@@H](C(=O)O)CCC(=O)N1C
REMARK SMILES IDX 39 1 38 2 37 3 36 4 28 6 27 7 25 8 26 9 23 11 24 12 19 13
REMARK SMILES IDX 18 14 16 15 17 16 11 18 10 19 8 20 9 21 12 24 13 25 14 26
REMARK SMILES IDX 15 27 20 28 21 29 22 30 29 32 30 33 31 34 32 35 33 36 34 37
REMARK SMILES IDX 35 38 57 43 58 44 59 45 60 46 61 47 62 49 66 50 67 51 68 52
REMARK SMILES IDX 69 53 70 54 71 55 2 56 1 57 3 58 4 59 5 60 6 62 7 63 63 65
REMARK SMILES IDX 64 66 65 67 40 69 41 70 42 71 44 72 43 73 45 74 46 75 47 76
REMARK SMILES IDX 55 77 56 78 48 79 49 80 50 81 54 82 51 83 53 84 52 85
REMARK H PARENT 38 5 27 10 18 17 10 22 22 31 34 39 34 40 35 41 35 42 61 48
REMARK H PARENT 5 61 65 68
REMARK Flexibility Score:  369.900
ROOT
ATOM      1  C   UNL     1      -2.539   1.152  -5.634  1.00  0.00     0.117 C 
ENDROOT
BRANCH   1   2
ATOM      2  N   UNL     1      -1.639   1.408  -4.508  1.00  0.00    -0.347 N 
ATOM      3  O   UNL     1      -3.182   2.325  -3.076  1.00  0.00    -0.273 OA
ATOM      4  C   UNL     1      -2.053   1.892  -3.282  1.00  0.00     0.243 C 
ATOM      5  H   UNL     1      -0.661   1.179  -4.595  1.00  0.00     0.164 HD
BRANCH   4   6
ATOM      6  C   UNL     1      -0.914   1.991  -2.235  1.00  0.00     0.171 C 
BRANCH   6   7
ATOM      7  N   UNL     1      -1.205   3.052  -1.258  1.00  0.00    -0.344 N 
ATOM      8  C   UNL     1      -0.854   4.360  -1.516  1.00  0.00     0.226 C 
ATOM      9  O   UNL     1      -0.273   4.698  -2.540  1.00  0.00    -0.275 OA
ATOM     10  H   UNL     1      -1.623   2.802  -0.371  1.00  0.00     0.164 HD
BRANCH   8  11
ATOM     11  C   UNL     1      -1.271   5.344  -0.436  1.00  0.00     0.109 C 
ATOM     12  C   UNL     1      -2.255   4.681   0.528  1.00  0.00     0.021 C 
BRANCH  11  13
ATOM     13  C   UNL     1      -0.018   5.948   0.229  1.00  0.00     0.204 C 
BRANCH  13  14
ATOM     14  N   UNL     1       1.126   5.033   0.185  1.00  0.00    -0.340 N 
ATOM     15  C   UNL     1       1.993   4.867   1.244  1.00  0.00     0.243 C 
ATOM     16  O   UNL     1       1.831   5.431   2.324  1.00  0.00    -0.273 OA
ATOM     17  H   UNL     1       1.403   4.653  -0.724  1.00  0.00     0.164 HD
BRANCH  15  18
ATOM     18  C   UNL     1       3.238   4.014   0.896  1.00  0.00     0.171 C 
BRANCH  18  19
ATOM     19  N   UNL     1       4.293   4.415   1.824  1.00  0.00    -0.343 N 
ATOM     20  C   UNL     1       5.626   4.405   1.460  1.00  0.00     0.242 CG0
ATOM     21  O   UNL     1       5.997   3.933   0.388  1.00  0.00    -0.273 OA
ATOM     22  H   UNL     1       4.046   4.704   2.763  1.00  0.00     0.164 HD
ATOM     23  G   UNL     1       6.586   4.936   2.545  1.00  0.00     0.000 G0
ENDBRANCH  18  19
BRANCH  18  24
ATOM     24  C   UNL     1       2.921   2.518   1.019  1.00  0.00     0.038 C 
BRANCH  24  25
ATOM     25  C   UNL     1       3.565   1.631  -0.068  1.00  0.00    -0.015 C 
ATOM     26  C   UNL     1       2.542   0.756  -0.791  1.00  0.00     0.007 C 
ATOM     27  C   UNL     1       4.645   0.748   0.562  1.00  0.00     0.007 C 
ENDBRANCH  24  25
ENDBRANCH  18  24
ENDBRANCH  15  18
ENDBRANCH  13  14
BRANCH  13  28
ATOM     28  C   UNL     1       0.429   7.266  -0.411  1.00  0.00     0.327 C 
ATOM     29  O   UNL     1       0.100   7.683  -1.511  1.00  0.00    -0.250 OA
BRANCH  28  30
ATOM     30  O   UNL     1       1.355   7.921   0.319  1.00  0.00    -0.480 OA
ATOM     31  H   UNL     1       1.696   8.611  -0.288  1.00  0.00     0.296 HD
ENDBRANCH  28  30
ENDBRANCH  13  28
ENDBRANCH  11  13
ENDBRANCH   8  11
ENDBRANCH   6   7
BRANCH   6  32
ATOM     32  C   UNL     1      -0.752   0.635  -1.538  1.00  0.00     0.037 C 
BRANCH  32  33
ATOM     33  C   UNL     1      -1.702  -0.427  -2.109  1.00  0.00     0.026 C 
BRANCH  33  34
ATOM     34  C   UNL     1      -2.098  -1.477  -1.070  1.00  0.00     0.146 C 
BRANCH  34  35
ATOM     35  N   UNL     1      -1.773  -0.971   0.257  1.00  0.00    -0.254 NA
ATOM     36  C   UNL     1      -0.959  -1.639   0.987  1.00  0.00     0.185 C 
ATOM     37  N   UNL     1      -0.649  -1.179   2.209  1.00  0.00    -0.370 N 
ATOM     38  N   UNL     1      -0.328  -2.794   0.709  1.00  0.00    -0.370 N 
ATOM     39  H   UNL     1      -1.078  -0.306   2.488  1.00  0.00     0.159 HD
ATOM     40  H   UNL     1       0.103  -1.546   2.766  1.00  0.00     0.159 HD
ATOM     41  H   UNL     1       0.180  -3.294   1.420  1.00  0.00     0.159 HD
ATOM     42  H   UNL     1      -0.480  -3.262  -0.170  1.00  0.00     0.159 HD
ENDBRANCH  34  35
ENDBRANCH  33  34
ENDBRANCH  32  33
ENDBRANCH   6  32
ENDBRANCH   4   6
ENDBRANCH   1   2
BRANCH   1  43
ATOM     43  C   UNL     1      -3.365   2.441  -5.910  1.00  0.00     0.102 C 
ATOM     44  C   UNL     1      -4.784   2.158  -6.431  1.00  0.00     0.020 C 
BRANCH  43  45
ATOM     45  C   UNL     1      -2.572   3.429  -6.772  1.00  0.00     0.225 C 
ATOM     46  O   UNL     1      -1.345   3.469  -6.789  1.00  0.00    -0.275 OA
ATOM     47  N   UNL     1      -3.326   4.346  -7.467  1.00  0.00    -0.342 N 
ATOM     48  H   UNL     1      -4.322   4.206  -7.562  1.00  0.00     0.164 HD
BRANCH  47  49
ATOM     49  C   UNL     1      -2.705   5.329  -8.359  1.00  0.00     0.192 C 
BRANCH  49  50
ATOM     50  C   UNL     1      -3.574   6.589  -8.422  1.00  0.00     0.047 C 
BRANCH  50  51
ATOM     51  C   UNL     1      -3.962   7.098  -7.027  1.00  0.00     0.103 C 
BRANCH  51  52
ATOM     52  C   UNL     1      -5.469   7.024  -6.788  1.00  0.00     0.226 C 
ATOM     53  O   UNL     1      -5.976   5.964  -6.416  1.00  0.00    -0.275 OA
BRANCH  52  54
ATOM     54  N   UNL     1      -6.187   8.224  -6.941  1.00  0.00    -0.311 N 
ATOM     55  C   UNL     1      -5.951   9.366  -6.047  1.00  0.00     0.153 C 
BRANCH  54  56
ATOM     56  C   UNL     1      -7.149   8.378  -7.953  1.00  0.00     0.102 C 
ATOM     57  C   UNL     1      -7.099   7.785  -9.157  1.00  0.00     0.043 C 
BRANCH  56  58
ATOM     58  C   UNL     1      -8.382   9.222  -7.729  1.00  0.00     0.268 C 
ATOM     59  O   UNL     1      -8.532  10.332  -8.221  1.00  0.00    -0.268 OA
ATOM     60  N   UNL     1      -9.339   8.589  -6.973  1.00  0.00    -0.339 N 
ATOM     61  H   UNL     1      -9.133   7.673  -6.593  1.00  0.00     0.164 HD
BRANCH  60  62
ATOM     62  C   UNL     1     -10.636   9.201  -6.687  1.00  0.00     0.168 CG0
ATOM     63  C   UNL     1     -11.375   8.433  -5.598  1.00  0.00     0.041 C 
ATOM     64  G   UNL     1     -11.476   9.261  -7.979  1.00  0.00     0.000 G0
ENDBRANCH  60  62
ENDBRANCH  56  58
ENDBRANCH  54  56
ENDBRANCH  52  54
ENDBRANCH  51  52
ENDBRANCH  50  51
ENDBRANCH  49  50
BRANCH  49  65
ATOM     65  C   UNL     1      -2.520   4.769  -9.778  1.00  0.00     0.326 C 
ATOM     66  O   UNL     1      -3.298   4.918 -10.709  1.00  0.00    -0.250 OA
BRANCH  65  67
ATOM     67  O   UNL     1      -1.415   4.008  -9.943  1.00  0.00    -0.480 OA
ATOM     68  H   UNL     1      -1.439   3.396  -9.176  1.00  0.00     0.296 HD
ENDBRANCH  65  67
ENDBRANCH  49  65
ENDBRANCH  47  49
ENDBRANCH  43  45
ENDBRANCH   1  43
BRANCH   1  69
ATOM     69  C   UNL     1      -3.274  -0.134  -5.304  1.00  0.00    -0.001 C 
ATOM     70  C   UNL     1      -3.090  -1.345  -5.858  1.00  0.00     0.001 C 
BRANCH  70  71
ATOM     71  C   UNL     1      -3.791  -2.585  -5.517  1.00  0.00    -0.055 C 
ATOM     72  C   UNL     1      -3.412  -3.231  -4.395  1.00  0.00    -0.018 C 
ATOM     73  C   UNL     1      -4.890  -3.046  -6.438  1.00  0.00     0.044 C 
BRANCH  72  74
ATOM     74  C   UNL     1      -3.955  -4.521  -3.797  1.00  0.00     0.038 C 
ATOM     75  C   UNL     1      -3.965  -5.570  -4.916  1.00  0.00     0.015 C 
BRANCH  74  76
ATOM     76  C   UNL     1      -5.346  -4.232  -3.160  1.00  0.00     0.128 C 
BRANCH  76  77
ATOM     77  O   UNL     1      -5.900  -5.443  -2.619  1.00  0.00    -0.381 OA
ATOM     78  C   UNL     1      -5.147  -5.983  -1.541  1.00  0.00     0.195 C 
ENDBRANCH  76  77
BRANCH  76  79
ATOM     79  C   UNL     1      -5.341  -3.066  -2.140  1.00  0.00     0.068 C 
BRANCH  79  80
ATOM     80  C   UNL     1      -5.855  -1.723  -2.598  1.00  0.00    -0.045 A 
ATOM     81  C   UNL     1      -6.729  -1.617  -3.688  1.00  0.00     0.004 A 
ATOM     82  C   UNL     1      -5.439  -0.548  -1.952  1.00  0.00     0.004 A 
ATOM     83  C   UNL     1      -7.188  -0.370  -4.115  1.00  0.00     0.000 A 
ATOM     84  C   UNL     1      -5.898   0.699  -2.380  1.00  0.00     0.000 A 
ATOM     85  C   UNL     1      -6.774   0.788  -3.460  1.00  0.00     0.000 A 
ENDBRANCH  79  80
ENDBRANCH  76  79
ENDBRANCH  74  76
ENDBRANCH  72  74
ENDBRANCH  70  71
ENDBRANCH   1  69
TORSDOF 17
ENDMDL
MODEL 48
REMARK VINA RESULT:    -6.293      5.031      8.012
REMARK INTER + INTRA:         -25.314
REMARK INTER:                 -19.358
REMARK INTRA:                  -5.956
REMARK UNBOUND:                -6.514
REMARK SMILES C=C1C(=O)N[C@H](C)C(=O)N[C@@H](CC(C)C)C(=O)N[C@@H](C(=O)O)[C@H](C)C(=O)N[C@@H](CCCN=C(N)N)C(=O)N[C@@H](/C=C/C(C)=C/[C@H](C)[C@H](Cc2ccccc2)OC)[C@H](C)C(=O)N[C@@H](C(=O)O)CCC(=O)N1C
REMARK SMILES IDX 39 1 38 2 37 3 36 4 28 6 27 7 25 8 26 9 23 11 24 12 19 13
REMARK SMILES IDX 18 14 16 15 17 16 11 18 10 19 8 20 9 21 12 24 13 25 14 26
REMARK SMILES IDX 15 27 20 28 21 29 22 30 29 32 30 33 31 34 32 35 33 36 34 37
REMARK SMILES IDX 35 38 57 43 58 44 59 45 60 46 61 47 62 49 66 50 67 51 68 52
REMARK SMILES IDX 69 53 70 54 71 55 2 56 1 57 3 58 4 59 5 60 6 62 7 63 63 65
REMARK SMILES IDX 64 66 65 67 40 69 41 70 42 71 44 72 43 73 45 74 46 75 47 76
REMARK SMILES IDX 55 77 56 78 48 79 49 80 50 81 54 82 51 83 53 84 52 85
REMARK H PARENT 38 5 27 10 18 17 10 22 22 31 34 39 34 40 35 41 35 42 61 48
REMARK H PARENT 5 61 65 68
REMARK Flexibility Score:  369.900
ROOT
ATOM      1  C   UNL     1       0.255   0.137  -0.632  1.00  0.00     0.117 C 
ENDROOT
BRANCH   1   2
ATOM      2  N   UNL     1      -0.354   0.434  -1.929  1.00  0.00    -0.347 N 
ATOM      3  O   UNL     1       1.231  -0.567  -3.255  1.00  0.00    -0.273 OA
ATOM      4  C   UNL     1       0.138  -0.023  -3.137  1.00  0.00     0.243 C 
ATOM      5  H   UNL     1      -1.213   0.962  -1.963  1.00  0.00     0.164 HD
BRANCH   4   6
ATOM      6  C   UNL     1      -0.742   0.361  -4.353  1.00  0.00     0.171 C 
BRANCH   6   7
ATOM      7  N   UNL     1      -0.068  -0.000  -5.610  1.00  0.00    -0.344 N 
ATOM      8  C   UNL     1       0.331   0.975  -6.499  1.00  0.00     0.226 C 
ATOM      9  O   UNL     1       0.130   2.167  -6.305  1.00  0.00    -0.275 OA
ATOM     10  H   UNL     1       0.056  -0.979  -5.837  1.00  0.00     0.164 HD
BRANCH   8  11
ATOM     11  C   UNL     1       1.061   0.446  -7.721  1.00  0.00     0.109 C 
ATOM     12  C   UNL     1       0.101  -0.354  -8.602  1.00  0.00     0.021 C 
BRANCH  11  13
ATOM     13  C   UNL     1       1.786   1.603  -8.437  1.00  0.00     0.204 C 
BRANCH  13  14
ATOM     14  N   UNL     1       3.075   1.184  -8.997  1.00  0.00    -0.340 N 
ATOM     15  C   UNL     1       4.112   2.062  -9.226  1.00  0.00     0.243 C 
ATOM     16  O   UNL     1       4.050   3.252  -8.919  1.00  0.00    -0.273 OA
ATOM     17  H   UNL     1       3.138   0.250  -9.410  1.00  0.00     0.164 HD
BRANCH  15  18
ATOM     18  C   UNL     1       5.291   1.436 -10.010  1.00  0.00     0.171 C 
BRANCH  18  19
ATOM     19  N   UNL     1       6.007   0.574  -9.073  1.00  0.00    -0.343 N 
ATOM     20  C   UNL     1       7.227   0.937  -8.534  1.00  0.00     0.242 CG0
ATOM     21  O   UNL     1       7.828   1.937  -8.920  1.00  0.00    -0.273 OA
ATOM     22  H   UNL     1       5.605  -0.319  -8.811  1.00  0.00     0.164 HD
ATOM     23  G   UNL     1       7.791  -0.064  -7.505  1.00  0.00     0.000 G0
ENDBRANCH  18  19
BRANCH  18  24
ATOM     24  C   UNL     1       4.777   0.646 -11.220  1.00  0.00     0.038 C 
BRANCH  24  25
ATOM     25  C   UNL     1       4.711   1.452 -12.535  1.00  0.00    -0.015 C 
ATOM     26  C   UNL     1       4.982   0.587 -13.766  1.00  0.00     0.007 C 
ATOM     27  C   UNL     1       5.717   2.605 -12.483  1.00  0.00     0.007 C 
ENDBRANCH  24  25
ENDBRANCH  18  24
ENDBRANCH  15  18
ENDBRANCH  13  14
BRANCH  13  28
ATOM     28  C   UNL     1       0.970   2.210  -9.582  1.00  0.00     0.327 C 
ATOM     29  O   UNL     1      -0.145   2.701  -9.494  1.00  0.00    -0.250 OA
BRANCH  28  30
ATOM     30  O   UNL     1       1.555   2.057 -10.788  1.00  0.00    -0.480 OA
ATOM     31  H   UNL     1       0.849   2.282 -11.428  1.00  0.00     0.296 HD
ENDBRANCH  28  30
ENDBRANCH  13  28
ENDBRANCH  11  13
ENDBRANCH   8  11
ENDBRANCH   6   7
BRANCH   6  32
ATOM     32  C   UNL     1      -2.098  -0.345  -4.237  1.00  0.00     0.037 C 
BRANCH  32  33
ATOM     33  C   UNL     1      -2.009  -1.833  -4.603  1.00  0.00     0.026 C 
BRANCH  33  34
ATOM     34  C   UNL     1      -3.378  -2.515  -4.616  1.00  0.00     0.146 C 
BRANCH  34  35
ATOM     35  N   UNL     1      -3.382  -3.579  -3.622  1.00  0.00    -0.254 NA
ATOM     36  C   UNL     1      -4.051  -3.409  -2.543  1.00  0.00     0.185 C 
ATOM     37  N   UNL     1      -4.067  -4.385  -1.622  1.00  0.00    -0.370 N 
ATOM     38  N   UNL     1      -4.785  -2.348  -2.163  1.00  0.00    -0.370 N 
ATOM     39  H   UNL     1      -3.544  -5.224  -1.841  1.00  0.00     0.159 HD
ATOM     40  H   UNL     1      -4.698  -4.402  -0.840  1.00  0.00     0.159 HD
ATOM     41  H   UNL     1      -5.152  -2.277  -1.228  1.00  0.00     0.159 HD
ATOM     42  H   UNL     1      -4.851  -1.532  -2.751  1.00  0.00     0.159 HD
ENDBRANCH  34  35
ENDBRANCH  33  34
ENDBRANCH  32  33
ENDBRANCH   6  32
ENDBRANCH   4   6
ENDBRANCH   1   2
BRANCH   1  43
ATOM     43  C   UNL     1      -0.816  -0.534   0.276  1.00  0.00     0.102 C 
ATOM     44  C   UNL     1      -0.687  -2.065   0.345  1.00  0.00     0.020 C 
BRANCH  43  45
ATOM     45  C   UNL     1      -2.223  -0.045  -0.080  1.00  0.00     0.225 C 
ATOM     46  O   UNL     1      -2.870  -0.490  -1.023  1.00  0.00    -0.275 OA
ATOM     47  N   UNL     1      -2.693   1.006   0.675  1.00  0.00    -0.342 N 
ATOM     48  H   UNL     1      -2.221   1.256   1.532  1.00  0.00     0.164 HD
BRANCH  47  49
ATOM     49  C   UNL     1      -4.037   1.555   0.471  1.00  0.00     0.192 C 
BRANCH  49  50
ATOM     50  C   UNL     1      -4.173   2.876   1.232  1.00  0.00     0.047 C 
BRANCH  50  51
ATOM     51  C   UNL     1      -5.463   3.626   0.869  1.00  0.00     0.103 C 
BRANCH  51  52
ATOM     52  C   UNL     1      -5.325   5.134   1.067  1.00  0.00     0.226 C 
ATOM     53  O   UNL     1      -4.570   5.779   0.337  1.00  0.00    -0.275 OA
BRANCH  52  54
ATOM     54  N   UNL     1      -6.148   5.715   2.049  1.00  0.00    -0.311 N 
ATOM     55  C   UNL     1      -5.706   6.894   2.806  1.00  0.00     0.153 C 
BRANCH  54  56
ATOM     56  C   UNL     1      -7.421   5.196   2.339  1.00  0.00     0.102 C 
ATOM     57  C   UNL     1      -7.729   4.481   3.433  1.00  0.00     0.043 C 
BRANCH  56  58
ATOM     58  C   UNL     1      -8.592   5.457   1.420  1.00  0.00     0.268 C 
ATOM     59  O   UNL     1      -8.728   4.905   0.336  1.00  0.00    -0.268 OA
ATOM     60  N   UNL     1      -9.515   6.324   1.954  1.00  0.00    -0.339 N 
ATOM     61  H   UNL     1      -9.323   6.747   2.854  1.00  0.00     0.164 HD
BRANCH  60  62
ATOM     62  C   UNL     1     -10.755   6.666   1.258  1.00  0.00     0.168 CG0
ATOM     63  C   UNL     1     -11.971   6.181   2.038  1.00  0.00     0.041 C 
ATOM     64  G   UNL     1     -10.738   6.058  -0.159  1.00  0.00     0.000 G0
ENDBRANCH  60  62
ENDBRANCH  56  58
ENDBRANCH  54  56
ENDBRANCH  52  54
ENDBRANCH  51  52
ENDBRANCH  50  51
ENDBRANCH  49  50
BRANCH  49  65
ATOM     65  C   UNL     1      -5.125   0.580   0.946  1.00  0.00     0.326 C 
ATOM     66  O   UNL     1      -5.433   0.371   2.110  1.00  0.00    -0.250 OA
BRANCH  65  67
ATOM     67  O   UNL     1      -5.724  -0.122  -0.042  1.00  0.00    -0.480 OA
ATOM     68  H   UNL     1      -5.369   0.284  -0.862  1.00  0.00     0.296 HD
ENDBRANCH  65  67
ENDBRANCH  49  65
ENDBRANCH  47  49
ENDBRANCH  43  45
ENDBRANCH   1  43
BRANCH   1  69
ATOM     69  C   UNL     1       0.908   1.425  -0.165  1.00  0.00    -0.001 C 
ATOM     70  C   UNL     1       2.178   1.818  -0.370  1.00  0.00     0.001 C 
BRANCH  70  71
ATOM     71  C   UNL     1       2.792   3.074   0.067  1.00  0.00    -0.055 C 
ATOM     72  C   UNL     1       1.977   4.037   0.544  1.00  0.00    -0.018 C 
ATOM     73  C   UNL     1       4.289   3.198  -0.040  1.00  0.00     0.044 C 
BRANCH  72  74
ATOM     74  C   UNL     1       2.327   5.424   1.066  1.00  0.00     0.038 C 
ATOM     75  C   UNL     1       3.147   5.231   2.347  1.00  0.00     0.015 C 
BRANCH  74  76
ATOM     76  C   UNL     1       1.012   6.237   1.249  1.00  0.00     0.128 C 
BRANCH  76  77
ATOM     77  O   UNL     1       1.172   7.198   2.306  1.00  0.00    -0.381 OA
ATOM     78  C   UNL     1       1.274   8.540   1.848  1.00  0.00     0.195 C 
ENDBRANCH  76  77
BRANCH  76  79
ATOM     79  C   UNL     1       0.476   6.870  -0.061  1.00  0.00     0.068 C 
BRANCH  79  80
ATOM     80  C   UNL     1      -0.341   6.000  -0.984  1.00  0.00    -0.045 A 
ATOM     81  C   UNL     1      -1.157   4.979  -0.479  1.00  0.00     0.004 A 
ATOM     82  C   UNL     1      -0.274   6.183  -2.373  1.00  0.00     0.004 A 
ATOM     83  C   UNL     1      -1.900   4.169  -1.340  1.00  0.00     0.000 A 
ATOM     84  C   UNL     1      -1.016   5.372  -3.234  1.00  0.00     0.000 A 
ATOM     85  C   UNL     1      -1.830   4.366  -2.717  1.00  0.00     0.000 A 
ENDBRANCH  79  80
ENDBRANCH  76  79
ENDBRANCH  74  76
ENDBRANCH  72  74
ENDBRANCH  70  71
ENDBRANCH   1  69
TORSDOF 17
ENDMDL
MODEL 49
REMARK VINA RESULT:    -6.283      4.504     11.761
REMARK INTER + INTRA:         -25.285
REMARK INTER:                 -17.815
REMARK INTRA:                  -7.470
REMARK UNBOUND:                -6.514
REMARK SMILES C=C1C(=O)N[C@H](C)C(=O)N[C@@H](CC(C)C)C(=O)N[C@@H](C(=O)O)[C@H](C)C(=O)N[C@@H](CCCN=C(N)N)C(=O)N[C@@H](/C=C/C(C)=C/[C@H](C)[C@H](Cc2ccccc2)OC)[C@H](C)C(=O)N[C@@H](C(=O)O)CCC(=O)N1C
REMARK SMILES IDX 39 1 38 2 37 3 36 4 28 6 27 7 25 8 26 9 23 11 24 12 19 13
REMARK SMILES IDX 18 14 16 15 17 16 11 18 10 19 8 20 9 21 12 24 13 25 14 26
REMARK SMILES IDX 15 27 20 28 21 29 22 30 29 32 30 33 31 34 32 35 33 36 34 37
REMARK SMILES IDX 35 38 57 43 58 44 59 45 60 46 61 47 62 49 66 50 67 51 68 52
REMARK SMILES IDX 69 53 70 54 71 55 2 56 1 57 3 58 4 59 5 60 6 62 7 63 63 65
REMARK SMILES IDX 64 66 65 67 40 69 41 70 42 71 44 72 43 73 45 74 46 75 47 76
REMARK SMILES IDX 55 77 56 78 48 79 49 80 50 81 54 82 51 83 53 84 52 85
REMARK H PARENT 38 5 27 10 18 17 10 22 22 31 34 39 34 40 35 41 35 42 61 48
REMARK H PARENT 5 61 65 68
REMARK Flexibility Score:  369.900
ROOT
ATOM      1  C   UNL     1      -1.579   2.065  -5.233  1.00  0.00     0.117 C 
ENDROOT
BRANCH   1   2
ATOM      2  N   UNL     1      -2.966   1.600  -5.287  1.00  0.00    -0.347 N 
ATOM      3  O   UNL     1      -3.660   2.892  -7.053  1.00  0.00    -0.273 OA
ATOM      4  C   UNL     1      -3.873   1.985  -6.255  1.00  0.00     0.243 C 
ATOM      5  H   UNL     1      -3.285   0.919  -4.615  1.00  0.00     0.164 HD
BRANCH   4   6
ATOM      6  C   UNL     1      -5.249   1.281  -6.134  1.00  0.00     0.171 C 
BRANCH   6   7
ATOM      7  N   UNL     1      -5.558   0.995  -4.725  1.00  0.00    -0.344 N 
ATOM      8  C   UNL     1      -6.002  -0.253  -4.342  1.00  0.00     0.226 C 
ATOM      9  O   UNL     1      -6.179  -1.164  -5.142  1.00  0.00    -0.275 OA
ATOM     10  H   UNL     1      -5.488   1.742  -4.045  1.00  0.00     0.164 HD
BRANCH   8  11
ATOM     11  C   UNL     1      -6.225  -0.406  -2.848  1.00  0.00     0.109 C 
ATOM     12  C   UNL     1      -6.561  -1.859  -2.513  1.00  0.00     0.021 C 
BRANCH  11  13
ATOM     13  C   UNL     1      -5.022   0.175  -2.078  1.00  0.00     0.204 C 
BRANCH  13  14
ATOM     14  N   UNL     1      -5.286   0.280  -0.640  1.00  0.00    -0.340 N 
ATOM     15  C   UNL     1      -5.384   1.488   0.016  1.00  0.00     0.243 C 
ATOM     16  O   UNL     1      -5.316   2.566  -0.572  1.00  0.00    -0.273 OA
ATOM     17  H   UNL     1      -5.201  -0.567  -0.073  1.00  0.00     0.164 HD
BRANCH  15  18
ATOM     18  C   UNL     1      -5.456   1.352   1.557  1.00  0.00     0.171 C 
BRANCH  18  19
ATOM     19  N   UNL     1      -6.290   0.184   1.834  1.00  0.00    -0.343 N 
ATOM     20  C   UNL     1      -7.119   0.125   2.938  1.00  0.00     0.242 CG0
ATOM     21  O   UNL     1      -7.095   0.994   3.807  1.00  0.00    -0.273 OA
ATOM     22  H   UNL     1      -6.258  -0.611   1.205  1.00  0.00     0.164 HD
ATOM     23  G   UNL     1      -7.980  -1.152   3.021  1.00  0.00     0.000 G0
ENDBRANCH  18  19
BRANCH  18  24
ATOM     24  C   UNL     1      -4.052   1.195   2.153  1.00  0.00     0.038 C 
BRANCH  24  25
ATOM     25  C   UNL     1      -3.684   2.247   3.220  1.00  0.00    -0.015 C 
ATOM     26  C   UNL     1      -3.665   1.665   4.634  1.00  0.00     0.007 C 
ATOM     27  C   UNL     1      -4.675   3.413   3.157  1.00  0.00     0.007 C 
ENDBRANCH  24  25
ENDBRANCH  18  24
ENDBRANCH  15  18
ENDBRANCH  13  14
BRANCH  13  28
ATOM     28  C   UNL     1      -3.743  -0.651  -2.245  1.00  0.00     0.327 C 
ATOM     29  O   UNL     1      -3.065  -0.737  -3.258  1.00  0.00    -0.250 OA
BRANCH  28  30
ATOM     30  O   UNL     1      -3.459  -1.411  -1.168  1.00  0.00    -0.480 OA
ATOM     31  H   UNL     1      -3.511  -0.788  -0.413  1.00  0.00     0.296 HD
ENDBRANCH  28  30
ENDBRANCH  13  28
ENDBRANCH  11  13
ENDBRANCH   8  11
ENDBRANCH   6   7
BRANCH   6  32
ATOM     32  C   UNL     1      -6.327   2.172  -6.762  1.00  0.00     0.037 C 
BRANCH  32  33
ATOM     33  C   UNL     1      -7.461   1.352  -7.392  1.00  0.00     0.026 C 
BRANCH  33  34
ATOM     34  C   UNL     1      -8.757   1.428  -6.583  1.00  0.00     0.146 C 
BRANCH  34  35
ATOM     35  N   UNL     1      -8.455   1.958  -5.261  1.00  0.00    -0.254 NA
ATOM     36  C   UNL     1      -9.172   1.580  -4.269  1.00  0.00     0.185 C 
ATOM     37  N   UNL     1      -8.900   2.058  -3.045  1.00  0.00    -0.370 N 
ATOM     38  N   UNL     1     -10.215   0.731  -4.255  1.00  0.00    -0.370 N 
ATOM     39  H   UNL     1      -8.119   2.698  -2.971  1.00  0.00     0.159 HD
ATOM     40  H   UNL     1      -9.296   1.683  -2.200  1.00  0.00     0.159 HD
ATOM     41  H   UNL     1     -10.787   0.621  -3.434  1.00  0.00     0.159 HD
ATOM     42  H   UNL     1     -10.542   0.307  -5.109  1.00  0.00     0.159 HD
ENDBRANCH  34  35
ENDBRANCH  33  34
ENDBRANCH  32  33
ENDBRANCH   6  32
ENDBRANCH   4   6
ENDBRANCH   1   2
BRANCH   1  43
ATOM     43  C   UNL     1      -0.648   0.896  -5.669  1.00  0.00     0.102 C 
ATOM     44  C   UNL     1       0.063   0.209  -4.491  1.00  0.00     0.020 C 
BRANCH  43  45
ATOM     45  C   UNL     1       0.294   1.334  -6.794  1.00  0.00     0.225 C 
ATOM     46  O   UNL     1       0.844   2.432  -6.820  1.00  0.00    -0.275 OA
ATOM     47  N   UNL     1       0.420   0.448  -7.840  1.00  0.00    -0.342 N 
ATOM     48  H   UNL     1       0.089  -0.500  -7.734  1.00  0.00     0.164 HD
BRANCH  47  49
ATOM     49  C   UNL     1       1.315   0.718  -8.969  1.00  0.00     0.192 C 
BRANCH  49  50
ATOM     50  C   UNL     1       2.766   0.738  -8.482  1.00  0.00     0.047 C 
BRANCH  50  51
ATOM     51  C   UNL     1       3.719   0.039  -9.461  1.00  0.00     0.103 C 
BRANCH  51  52
ATOM     52  C   UNL     1       5.007   0.832  -9.673  1.00  0.00     0.226 C 
ATOM     53  O   UNL     1       6.008   0.558  -9.008  1.00  0.00    -0.275 OA
BRANCH  52  54
ATOM     54  N   UNL     1       4.987   1.799 -10.695  1.00  0.00    -0.311 N 
ATOM     55  C   UNL     1       5.353   3.195 -10.421  1.00  0.00     0.153 C 
BRANCH  54  56
ATOM     56  C   UNL     1       4.623   1.468 -12.010  1.00  0.00     0.102 C 
ATOM     57  C   UNL     1       4.977   0.338 -12.644  1.00  0.00     0.043 C 
BRANCH  56  58
ATOM     58  C   UNL     1       3.732   2.380 -12.821  1.00  0.00     0.268 C 
ATOM     59  O   UNL     1       2.661   2.806 -12.412  1.00  0.00    -0.268 OA
ATOM     60  N   UNL     1       4.279   2.731 -14.032  1.00  0.00    -0.339 N 
ATOM     61  H   UNL     1       5.167   2.325 -14.302  1.00  0.00     0.164 HD
BRANCH  60  62
ATOM     62  C   UNL     1       3.613   3.656 -14.949  1.00  0.00     0.168 CG0
ATOM     63  C   UNL     1       4.601   4.663 -15.523  1.00  0.00     0.041 C 
ATOM     64  G   UNL     1       2.465   4.376 -14.212  1.00  0.00     0.000 G0
ENDBRANCH  60  62
ENDBRANCH  56  58
ENDBRANCH  54  56
ENDBRANCH  52  54
ENDBRANCH  51  52
ENDBRANCH  50  51
ENDBRANCH  49  50
BRANCH  49  65
ATOM     65  C   UNL     1       0.986   2.058  -9.645  1.00  0.00     0.326 C 
ATOM     66  O   UNL     1      -0.023   2.300 -10.291  1.00  0.00    -0.250 OA
BRANCH  65  67
ATOM     67  O   UNL     1       1.951   2.998  -9.532  1.00  0.00    -0.480 OA
ATOM     68  H   UNL     1       2.253   2.909  -8.603  1.00  0.00     0.296 HD
ENDBRANCH  65  67
ENDBRANCH  49  65
ENDBRANCH  47  49
ENDBRANCH  43  45
ENDBRANCH   1  43
BRANCH   1  69
ATOM     69  C   UNL     1      -1.391   2.679  -3.858  1.00  0.00    -0.001 C 
ATOM     70  C   UNL     1      -1.695   3.932  -3.475  1.00  0.00     0.001 C 
BRANCH  70  71
ATOM     71  C   UNL     1      -1.528   4.507  -2.138  1.00  0.00    -0.055 C 
ATOM     72  C   UNL     1      -2.168   3.907  -1.112  1.00  0.00    -0.018 C 
ATOM     73  C   UNL     1      -0.648   5.722  -2.002  1.00  0.00     0.044 C 
BRANCH  72  74
ATOM     74  C   UNL     1      -2.177   4.275   0.364  1.00  0.00     0.038 C 
ATOM     75  C   UNL     1      -3.168   5.432   0.536  1.00  0.00     0.015 C 
BRANCH  74  76
ATOM     76  C   UNL     1      -0.719   4.592   0.811  1.00  0.00     0.128 C 
BRANCH  76  77
ATOM     77  O   UNL     1      -0.704   5.769   1.637  1.00  0.00    -0.381 OA
ATOM     78  C   UNL     1       0.474   6.552   1.494  1.00  0.00     0.195 C 
ENDBRANCH  76  77
BRANCH  76  79
ATOM     79  C   UNL     1       0.016   3.393   1.461  1.00  0.00     0.068 C 
BRANCH  79  80
ATOM     80  C   UNL     1       0.188   2.139   0.638  1.00  0.00    -0.045 A 
ATOM     81  C   UNL     1       1.126   2.080  -0.401  1.00  0.00     0.004 A 
ATOM     82  C   UNL     1      -0.615   1.015   0.885  1.00  0.00     0.004 A 
ATOM     83  C   UNL     1       1.269   0.921  -1.166  1.00  0.00     0.000 A 
ATOM     84  C   UNL     1      -0.472  -0.143   0.119  1.00  0.00     0.000 A 
ATOM     85  C   UNL     1       0.471  -0.191  -0.906  1.00  0.00     0.000 A 
ENDBRANCH  79  80
ENDBRANCH  76  79
ENDBRANCH  74  76
ENDBRANCH  72  74
ENDBRANCH  70  71
ENDBRANCH   1  69
TORSDOF 17
ENDMDL
MODEL 50
REMARK VINA RESULT:    -6.273      8.124     12.316
REMARK INTER + INTRA:         -25.256
REMARK INTER:                 -18.496
REMARK INTRA:                  -6.760
REMARK UNBOUND:                -6.514
REMARK SMILES C=C1C(=O)N[C@H](C)C(=O)N[C@@H](CC(C)C)C(=O)N[C@@H](C(=O)O)[C@H](C)C(=O)N[C@@H](CCCN=C(N)N)C(=O)N[C@@H](/C=C/C(C)=C/[C@H](C)[C@H](Cc2ccccc2)OC)[C@H](C)C(=O)N[C@@H](C(=O)O)CCC(=O)N1C
REMARK SMILES IDX 39 1 38 2 37 3 36 4 28 6 27 7 25 8 26 9 23 11 24 12 19 13
REMARK SMILES IDX 18 14 16 15 17 16 11 18 10 19 8 20 9 21 12 24 13 25 14 26
REMARK SMILES IDX 15 27 20 28 21 29 22 30 29 32 30 33 31 34 32 35 33 36 34 37
REMARK SMILES IDX 35 38 57 43 58 44 59 45 60 46 61 47 62 49 66 50 67 51 68 52
REMARK SMILES IDX 69 53 70 54 71 55 2 56 1 57 3 58 4 59 5 60 6 62 7 63 63 65
REMARK SMILES IDX 64 66 65 67 40 69 41 70 42 71 44 72 43 73 45 74 46 75 47 76
REMARK SMILES IDX 55 77 56 78 48 79 49 80 50 81 54 82 51 83 53 84 52 85
REMARK H PARENT 38 5 27 10 18 17 10 22 22 31 34 39 34 40 35 41 35 42 61 48
REMARK H PARENT 5 61 65 68
REMARK Flexibility Score:  369.900
ROOT
ATOM      1  C   UNL     1      -3.567   2.069   2.218  1.00  0.00     0.117 C 
ENDROOT
BRANCH   1   2
ATOM      2  N   UNL     1      -2.626   1.436   1.293  1.00  0.00    -0.347 N 
ATOM      3  O   UNL     1      -2.000  -0.317   2.636  1.00  0.00    -0.273 OA
ATOM      4  C   UNL     1      -1.984   0.238   1.542  1.00  0.00     0.243 C 
ATOM      5  H   UNL     1      -2.459   1.857   0.392  1.00  0.00     0.164 HD
BRANCH   4   6
ATOM      6  C   UNL     1      -1.108  -0.257   0.364  1.00  0.00     0.171 C 
BRANCH   6   7
ATOM      7  N   UNL     1      -1.644   0.232  -0.916  1.00  0.00    -0.344 N 
ATOM      8  C   UNL     1      -2.495  -0.550  -1.666  1.00  0.00     0.226 C 
ATOM      9  O   UNL     1      -2.826  -1.680  -1.325  1.00  0.00    -0.275 OA
ATOM     10  H   UNL     1      -1.340   1.133  -1.264  1.00  0.00     0.164 HD
BRANCH   8  11
ATOM     11  C   UNL     1      -3.005   0.116  -2.932  1.00  0.00     0.109 C 
ATOM     12  C   UNL     1      -2.521   1.564  -2.996  1.00  0.00     0.021 C 
BRANCH  11  13
ATOM     13  C   UNL     1      -2.638  -0.745  -4.158  1.00  0.00     0.204 C 
BRANCH  13  14
ATOM     14  N   UNL     1      -3.513  -1.913  -4.294  1.00  0.00    -0.340 N 
ATOM     15  C   UNL     1      -3.055  -3.149  -4.695  1.00  0.00     0.243 C 
ATOM     16  O   UNL     1      -1.866  -3.374  -4.911  1.00  0.00    -0.273 OA
ATOM     17  H   UNL     1      -4.525  -1.760  -4.278  1.00  0.00     0.164 HD
BRANCH  15  18
ATOM     18  C   UNL     1      -4.187  -4.170  -4.967  1.00  0.00     0.171 C 
BRANCH  18  19
ATOM     19  N   UNL     1      -4.399  -4.185  -6.413  1.00  0.00    -0.343 N 
ATOM     20  C   UNL     1      -5.127  -3.201  -7.053  1.00  0.00     0.242 CG0
ATOM     21  O   UNL     1      -5.741  -2.342  -6.423  1.00  0.00    -0.273 OA
ATOM     22  H   UNL     1      -4.008  -4.940  -6.965  1.00  0.00     0.164 HD
ATOM     23  G   UNL     1      -5.177  -3.342  -8.588  1.00  0.00     0.000 G0
ENDBRANCH  18  19
BRANCH  18  24
ATOM     24  C   UNL     1      -3.802  -5.558  -4.441  1.00  0.00     0.038 C 
BRANCH  24  25
ATOM     25  C   UNL     1      -4.829  -6.191  -3.478  1.00  0.00    -0.015 C 
ATOM     26  C   UNL     1      -6.264  -5.767  -3.792  1.00  0.00     0.007 C 
ATOM     27  C   UNL     1      -4.483  -5.812  -2.036  1.00  0.00     0.007 C 
ENDBRANCH  24  25
ENDBRANCH  18  24
ENDBRANCH  15  18
ENDBRANCH  13  14
BRANCH  13  28
ATOM     28  C   UNL     1      -2.704   0.027  -5.479  1.00  0.00     0.327 C 
ATOM     29  O   UNL     1      -3.718   0.399  -6.050  1.00  0.00    -0.250 OA
BRANCH  28  30
ATOM     30  O   UNL     1      -1.498   0.181  -6.062  1.00  0.00    -0.480 OA
ATOM     31  H   UNL     1      -1.380   1.152  -6.120  1.00  0.00     0.296 HD
ENDBRANCH  28  30
ENDBRANCH  13  28
ENDBRANCH  11  13
ENDBRANCH   8  11
ENDBRANCH   6   7
BRANCH   6  32
ATOM     32  C   UNL     1       0.333   0.223   0.573  1.00  0.00     0.037 C 
BRANCH  32  33
ATOM     33  C   UNL     1       0.751   1.271  -0.468  1.00  0.00     0.026 C 
BRANCH  33  34
ATOM     34  C   UNL     1       0.737   2.693   0.095  1.00  0.00     0.146 C 
BRANCH  34  35
ATOM     35  N   UNL     1      -0.600   3.248  -0.064  1.00  0.00    -0.254 NA
ATOM     36  C   UNL     1      -0.719   4.458  -0.465  1.00  0.00     0.185 C 
ATOM     37  N   UNL     1      -1.946   4.978  -0.620  1.00  0.00    -0.370 N 
ATOM     38  N   UNL     1       0.244   5.344  -0.775  1.00  0.00    -0.370 N 
ATOM     39  H   UNL     1      -2.727   4.368  -0.415  1.00  0.00     0.159 HD
ATOM     40  H   UNL     1      -2.126   5.849  -1.090  1.00  0.00     0.159 HD
ATOM     41  H   UNL     1       0.027   6.313  -0.944  1.00  0.00     0.159 HD
ATOM     42  H   UNL     1       1.217   5.095  -0.689  1.00  0.00     0.159 HD
ENDBRANCH  34  35
ENDBRANCH  33  34
ENDBRANCH  32  33
ENDBRANCH   6  32
ENDBRANCH   4   6
ENDBRANCH   1   2
BRANCH   1  43
ATOM     43  C   UNL     1      -2.756   2.831   3.305  1.00  0.00     0.102 C 
ATOM     44  C   UNL     1      -3.288   2.612   4.731  1.00  0.00     0.020 C 
BRANCH  43  45
ATOM     45  C   UNL     1      -2.578   4.304   2.928  1.00  0.00     0.225 C 
ATOM     46  O   UNL     1      -3.294   4.879   2.112  1.00  0.00    -0.275 OA
ATOM     47  N   UNL     1      -1.494   4.934   3.494  1.00  0.00    -0.342 N 
ATOM     48  H   UNL     1      -1.011   4.501   4.269  1.00  0.00     0.164 HD
BRANCH  47  49
ATOM     49  C   UNL     1      -1.219   6.354   3.251  1.00  0.00     0.192 C 
BRANCH  49  50
ATOM     50  C   UNL     1       0.286   6.563   3.069  1.00  0.00     0.047 C 
BRANCH  50  51
ATOM     51  C   UNL     1       0.613   7.930   2.453  1.00  0.00     0.103 C 
BRANCH  51  52
ATOM     52  C   UNL     1       1.653   7.824   1.339  1.00  0.00     0.226 C 
ATOM     53  O   UNL     1       1.325   8.059   0.175  1.00  0.00    -0.275 OA
BRANCH  52  54
ATOM     54  N   UNL     1       2.970   7.528   1.737  1.00  0.00    -0.311 N 
ATOM     55  C   UNL     1       3.561   6.209   1.473  1.00  0.00     0.153 C 
BRANCH  54  56
ATOM     56  C   UNL     1       3.768   8.479   2.394  1.00  0.00     0.102 C 
ATOM     57  C   UNL     1       4.242   9.603   1.833  1.00  0.00     0.043 C 
BRANCH  56  58
ATOM     58  C   UNL     1       4.124   8.317   3.853  1.00  0.00     0.268 C 
ATOM     59  O   UNL     1       3.310   8.440   4.759  1.00  0.00    -0.268 OA
ATOM     60  N   UNL     1       5.435   7.954   4.052  1.00  0.00    -0.339 N 
ATOM     61  H   UNL     1       6.048   7.883   3.249  1.00  0.00     0.164 HD
BRANCH  60  62
ATOM     62  C   UNL     1       5.975   7.683   5.384  1.00  0.00     0.168 CG0
ATOM     63  C   UNL     1       5.557   6.302   5.874  1.00  0.00     0.041 C 
ATOM     64  G   UNL     1       5.502   8.776   6.365  1.00  0.00     0.000 G0
ENDBRANCH  60  62
ENDBRANCH  56  58
ENDBRANCH  54  56
ENDBRANCH  52  54
ENDBRANCH  51  52
ENDBRANCH  50  51
ENDBRANCH  49  50
BRANCH  49  65
ATOM     65  C   UNL     1      -1.719   7.233   4.408  1.00  0.00     0.326 C 
ATOM     66  O   UNL     1      -2.414   8.233   4.292  1.00  0.00    -0.250 OA
BRANCH  65  67
ATOM     67  O   UNL     1      -1.281   6.860   5.630  1.00  0.00    -0.480 OA
ATOM     68  H   UNL     1      -1.731   6.001   5.785  1.00  0.00     0.296 HD
ENDBRANCH  65  67
ENDBRANCH  49  65
ENDBRANCH  47  49
ENDBRANCH  43  45
ENDBRANCH   1  43
BRANCH   1  69
ATOM     69  C   UNL     1      -4.533   0.981   2.651  1.00  0.00    -0.001 C 
ATOM     70  C   UNL     1      -5.868   1.078   2.782  1.00  0.00     0.001 C 
BRANCH  70  71
ATOM     71  C   UNL     1      -6.792   0.015   3.180  1.00  0.00    -0.055 C 
ATOM     72  C   UNL     1      -7.385   0.119   4.388  1.00  0.00    -0.018 C 
ATOM     73  C   UNL     1      -7.023  -1.115   2.210  1.00  0.00     0.044 C 
BRANCH  72  74
ATOM     74  C   UNL     1      -8.379  -0.820   5.057  1.00  0.00     0.038 C 
ATOM     75  C   UNL     1      -9.568   0.033   5.516  1.00  0.00     0.015 C 
BRANCH  74  76
ATOM     76  C   UNL     1      -7.651  -1.592   6.196  1.00  0.00     0.128 C 
BRANCH  76  77
ATOM     77  O   UNL     1      -8.583  -1.920   7.240  1.00  0.00    -0.381 OA
ATOM     78  C   UNL     1      -8.083  -1.677   8.548  1.00  0.00     0.195 C 
ENDBRANCH  76  77
BRANCH  76  79
ATOM     79  C   UNL     1      -6.841  -2.819   5.707  1.00  0.00     0.068 C 
BRANCH  79  80
ATOM     80  C   UNL     1      -5.392  -2.919   6.116  1.00  0.00    -0.045 A 
ATOM     81  C   UNL     1      -4.972  -3.866   7.059  1.00  0.00     0.004 A 
ATOM     82  C   UNL     1      -4.442  -2.040   5.575  1.00  0.00     0.004 A 
ATOM     83  C   UNL     1      -3.631  -3.943   7.443  1.00  0.00     0.000 A 
ATOM     84  C   UNL     1      -3.102  -2.117   5.960  1.00  0.00     0.000 A 
ATOM     85  C   UNL     1      -2.697  -3.069   6.893  1.00  0.00     0.000 A 
ENDBRANCH  79  80
ENDBRANCH  76  79
ENDBRANCH  74  76
ENDBRANCH  72  74
ENDBRANCH  70  71
ENDBRANCH   1  69
TORSDOF 17
ENDMDL
