MODEL 1
REMARK VINA RESULT:    -5.839      0.000      0.000
REMARK INTER + INTRA:         -20.701
REMARK INTER:                 -14.544
REMARK INTRA:                  -6.157
REMARK UNBOUND:                -6.157
REMARK SMILES CCCCCCC[C@H](N)[C@H](O)C(=O)N[C@H](C)C(=O)N(C)[C@H](CC(C)C)C(=O)N[C@@H](Cc1ccc(O)cc1)C(=O)N[C@@H](Cc1ccc(O)cc1)C(=O)O
REMARK SMILES IDX 18 1 17 2 15 3 16 4 14 5 12 6 13 7 10 9 11 10 8 12 9 13 7 16
REMARK SMILES IDX 6 17 5 18 4 19 3 20 2 21 1 22 19 23 20 24 21 25 22 26 23 27
REMARK SMILES IDX 24 28 25 29 26 30 27 31 28 32 29 34 30 35 31 36 32 37 37 38
REMARK SMILES IDX 33 39 36 40 34 41 35 42 38 44 39 45 40 46 41 48 42 49 43 50
REMARK SMILES IDX 44 51 49 52 45 53 48 54 46 55 47 56 50 58 51 59 52 60
REMARK H PARENT 14 8 11 11 9 14 9 15 28 33 35 43 40 47 47 57 52 61
ROOT
ATOM      1  O   UNL     1      -6.724  -7.972  -2.019  1.00  0.00    -0.272 OA
ATOM      2  C   UNL     1      -5.837  -7.229  -1.573  1.00  0.00     0.245 C 
ENDROOT
BRANCH   2   3
ATOM      3  C   UNL     1      -5.127  -6.255  -2.546  1.00  0.00     0.168 C 
ATOM      4  C   UNL     1      -3.938  -6.932  -3.219  1.00  0.00     0.041 C 
BRANCH   3   5
ATOM      5  N   UNL     1      -6.003  -5.612  -3.514  1.00  0.00    -0.342 N 
ATOM      6  C   UNL     1      -6.347  -4.281  -3.412  1.00  0.00     0.251 C 
ATOM      7  O   UNL     1      -5.984  -3.557  -2.491  1.00  0.00    -0.272 OA
ATOM      8  H   UNL     1      -6.395  -6.120  -4.303  1.00  0.00     0.164 HD
BRANCH   6   9
ATOM      9  C   UNL     1      -7.161  -3.783  -4.617  1.00  0.00     0.219 C 
BRANCH   9  10
ATOM     10  O   UNL     1      -7.736  -2.489  -4.399  1.00  0.00    -0.382 OA
ATOM     11  H   UNL     1      -7.708  -2.385  -3.423  1.00  0.00     0.211 HD
ENDBRANCH   9  10
BRANCH   9  12
ATOM     12  C   UNL     1      -6.362  -3.814  -5.946  1.00  0.00     0.089 C 
BRANCH  12  13
ATOM     13  N   UNL     1      -4.918  -3.878  -5.622  1.00  0.00    -0.325 NA
ATOM     14  H   UNL     1      -4.768  -4.582  -4.896  1.00  0.00     0.119 HD
ATOM     15  H   UNL     1      -4.635  -2.992  -5.197  1.00  0.00     0.119 HD
ENDBRANCH  12  13
BRANCH  12  16
ATOM     16  C   UNL     1      -6.735  -4.944  -6.935  1.00  0.00     0.022 C 
BRANCH  16  17
ATOM     17  C   UNL     1      -7.830  -4.690  -7.981  1.00  0.00     0.002 C 
BRANCH  17  18
ATOM     18  C   UNL     1      -7.452  -5.064  -9.412  1.00  0.00     0.000 C 
BRANCH  18  19
ATOM     19  C   UNL     1      -6.154  -4.412  -9.907  1.00  0.00    -0.000 C 
BRANCH  19  20
ATOM     20  C   UNL     1      -6.208  -2.889 -10.057  1.00  0.00    -0.000 C 
BRANCH  20  21
ATOM     21  C   UNL     1      -6.767  -2.439 -11.410  1.00  0.00    -0.003 C 
ATOM     22  C   UNL     1      -5.992  -1.254 -11.964  1.00  0.00     0.004 C 
ENDBRANCH  20  21
ENDBRANCH  19  20
ENDBRANCH  18  19
ENDBRANCH  17  18
ENDBRANCH  16  17
ENDBRANCH  12  16
ENDBRANCH   9  12
ENDBRANCH   6   9
ENDBRANCH   3   5
ENDBRANCH   2   3
BRANCH   2  23
ATOM     23  N   UNL     1      -5.581  -7.193  -0.206  1.00  0.00    -0.332 N 
ATOM     24  C   UNL     1      -5.140  -8.335   0.581  1.00  0.00     0.147 C 
BRANCH  23  25
ATOM     25  C   UNL     1      -5.626  -5.902   0.533  1.00  0.00     0.174 C 
BRANCH  25  26
ATOM     26  C   UNL     1      -4.926  -5.972   1.910  1.00  0.00     0.038 C 
BRANCH  26  27
ATOM     27  C   UNL     1      -5.645  -5.293   3.097  1.00  0.00    -0.015 C 
ATOM     28  C   UNL     1      -6.126  -6.299   4.142  1.00  0.00     0.007 C 
ATOM     29  C   UNL     1      -4.823  -4.187   3.754  1.00  0.00     0.007 C 
ENDBRANCH  26  27
ENDBRANCH  25  26
BRANCH  25  30
ATOM     30  C   UNL     1      -7.079  -5.377   0.600  1.00  0.00     0.243 C 
ATOM     31  O   UNL     1      -8.040  -6.137   0.705  1.00  0.00    -0.273 OA
ATOM     32  N   UNL     1      -7.221  -4.015   0.529  1.00  0.00    -0.342 N 
ATOM     33  H   UNL     1      -6.373  -3.447   0.585  1.00  0.00     0.164 HD
BRANCH  32  34
ATOM     34  C   UNL     1      -8.524  -3.344   0.550  1.00  0.00     0.175 C 
BRANCH  34  35
ATOM     35  C   UNL     1      -8.709  -2.524   1.836  1.00  0.00     0.070 C 
BRANCH  35  36
ATOM     36  C   UNL     1      -8.985  -3.389   3.046  1.00  0.00    -0.045 A 
ATOM     37  C   UNL     1      -9.872  -4.471   2.947  1.00  0.00     0.007 A 
ATOM     38  C   UNL     1      -8.382  -3.112   4.280  1.00  0.00     0.007 A 
ATOM     39  C   UNL     1     -10.143  -5.266   4.061  1.00  0.00     0.046 A 
ATOM     40  C   UNL     1      -8.654  -3.906   5.396  1.00  0.00     0.046 A 
ATOM     41  C   UNL     1      -9.532  -4.978   5.276  1.00  0.00     0.115 A 
BRANCH  41  42
ATOM     42  O   UNL     1      -9.827  -5.777   6.340  1.00  0.00    -0.508 OA
ATOM     43  H   UNL     1      -9.869  -5.221   7.136  1.00  0.00     0.293 HD
ENDBRANCH  41  42
ENDBRANCH  35  36
ENDBRANCH  34  35
BRANCH  34  44
ATOM     44  C   UNL     1      -8.629  -2.463  -0.716  1.00  0.00     0.243 C 
ATOM     45  O   UNL     1      -9.122  -2.832  -1.778  1.00  0.00    -0.273 OA
ATOM     46  N   UNL     1      -7.993  -1.246  -0.592  1.00  0.00    -0.341 N 
ATOM     47  H   UNL     1      -7.497  -1.033   0.270  1.00  0.00     0.164 HD
BRANCH  46  48
ATOM     48  C   UNL     1      -7.900  -0.271  -1.681  1.00  0.00     0.196 C 
BRANCH  48  49
ATOM     49  C   UNL     1      -8.617   1.041  -1.320  1.00  0.00     0.072 C 
BRANCH  49  50
ATOM     50  C   UNL     1      -9.037   1.095   0.131  1.00  0.00    -0.045 A 
ATOM     51  C   UNL     1      -8.165   1.627   1.092  1.00  0.00     0.007 A 
ATOM     52  C   UNL     1     -10.282   0.600   0.540  1.00  0.00     0.007 A 
ATOM     53  C   UNL     1      -8.536   1.669   2.436  1.00  0.00     0.046 A 
ATOM     54  C   UNL     1     -10.654   0.642   1.886  1.00  0.00     0.046 A 
ATOM     55  C   UNL     1      -9.777   1.177   2.823  1.00  0.00     0.115 A 
BRANCH  55  56
ATOM     56  O   UNL     1     -10.101   1.236   4.146  1.00  0.00    -0.508 OA
ATOM     57  H   UNL     1      -9.621   0.531   4.610  1.00  0.00     0.293 HD
ENDBRANCH  55  56
ENDBRANCH  49  50
ENDBRANCH  48  49
BRANCH  48  58
ATOM     58  C   UNL     1      -6.420   0.014  -1.971  1.00  0.00     0.326 C 
ATOM     59  O   UNL     1      -5.673   0.749  -1.346  1.00  0.00    -0.250 OA
BRANCH  58  60
ATOM     60  O   UNL     1      -5.939  -0.663  -3.043  1.00  0.00    -0.480 OA
ATOM     61  H   UNL     1      -6.086  -1.603  -2.802  1.00  0.00     0.296 HD
ENDBRANCH  58  60
ENDBRANCH  48  58
ENDBRANCH  46  48
ENDBRANCH  34  44
ENDBRANCH  32  34
ENDBRANCH  25  30
ENDBRANCH  23  25
ENDBRANCH   2  23
TORSDOF 28
ENDMDL
MODEL 2
REMARK VINA RESULT:    -5.708      4.529     10.051
REMARK INTER + INTRA:         -20.373
REMARK INTER:                 -14.270
REMARK INTRA:                  -6.103
REMARK UNBOUND:                -6.157
REMARK SMILES CCCCCCC[C@H](N)[C@H](O)C(=O)N[C@H](C)C(=O)N(C)[C@H](CC(C)C)C(=O)N[C@@H](Cc1ccc(O)cc1)C(=O)N[C@@H](Cc1ccc(O)cc1)C(=O)O
REMARK SMILES IDX 18 1 17 2 15 3 16 4 14 5 12 6 13 7 10 9 11 10 8 12 9 13 7 16
REMARK SMILES IDX 6 17 5 18 4 19 3 20 2 21 1 22 19 23 20 24 21 25 22 26 23 27
REMARK SMILES IDX 24 28 25 29 26 30 27 31 28 32 29 34 30 35 31 36 32 37 37 38
REMARK SMILES IDX 33 39 36 40 34 41 35 42 38 44 39 45 40 46 41 48 42 49 43 50
REMARK SMILES IDX 44 51 49 52 45 53 48 54 46 55 47 56 50 58 51 59 52 60
REMARK H PARENT 14 8 11 11 9 14 9 15 28 33 35 43 40 47 47 57 52 61
ROOT
ATOM      1  O   UNL     1      -8.367  -4.794  -1.379  1.00  0.00    -0.272 OA
ATOM      2  C   UNL     1      -8.106  -4.856  -0.169  1.00  0.00     0.245 C 
ENDROOT
BRANCH   2   3
ATOM      3  C   UNL     1      -8.613  -3.723   0.758  1.00  0.00     0.168 C 
ATOM      4  C   UNL     1      -8.410  -2.360   0.107  1.00  0.00     0.041 C 
BRANCH   3   5
ATOM      5  N   UNL     1      -9.973  -3.895   1.245  1.00  0.00    -0.342 N 
ATOM      6  C   UNL     1     -10.271  -4.749   2.285  1.00  0.00     0.251 C 
ATOM      7  O   UNL     1      -9.436  -5.452   2.844  1.00  0.00    -0.272 OA
ATOM      8  H   UNL     1     -10.756  -3.391   0.836  1.00  0.00     0.164 HD
BRANCH   6   9
ATOM      9  C   UNL     1     -11.742  -4.662   2.722  1.00  0.00     0.219 C 
BRANCH   9  10
ATOM     10  O   UNL     1     -12.097  -5.672   3.674  1.00  0.00    -0.382 OA
ATOM     11  H   UNL     1     -11.237  -5.915   4.084  1.00  0.00     0.211 HD
ENDBRANCH   9  10
BRANCH   9  12
ATOM     12  C   UNL     1     -12.142  -3.255   3.238  1.00  0.00     0.089 C 
BRANCH  12  13
ATOM     13  N   UNL     1     -12.932  -2.578   2.183  1.00  0.00    -0.325 NA
ATOM     14  H   UNL     1     -13.750  -3.147   1.958  1.00  0.00     0.119 HD
ATOM     15  H   UNL     1     -12.380  -2.551   1.323  1.00  0.00     0.119 HD
ENDBRANCH  12  13
BRANCH  12  16
ATOM     16  C   UNL     1     -12.907  -3.217   4.582  1.00  0.00     0.022 C 
BRANCH  16  17
ATOM     17  C   UNL     1     -12.243  -2.563   5.801  1.00  0.00     0.002 C 
BRANCH  17  18
ATOM     18  C   UNL     1     -12.008  -3.498   6.986  1.00  0.00     0.000 C 
BRANCH  18  19
ATOM     19  C   UNL     1     -13.256  -3.743   7.846  1.00  0.00    -0.000 C 
BRANCH  19  20
ATOM     20  C   UNL     1     -12.992  -3.885   9.347  1.00  0.00    -0.000 C 
BRANCH  20  21
ATOM     21  C   UNL     1     -14.218  -4.368  10.128  1.00  0.00    -0.003 C 
ATOM     22  C   UNL     1     -15.429  -3.489   9.859  1.00  0.00     0.004 C 
ENDBRANCH  20  21
ENDBRANCH  19  20
ENDBRANCH  18  19
ENDBRANCH  17  18
ENDBRANCH  16  17
ENDBRANCH  12  16
ENDBRANCH   9  12
ENDBRANCH   6   9
ENDBRANCH   3   5
ENDBRANCH   2   3
BRANCH   2  23
ATOM     23  N   UNL     1      -7.478  -5.984   0.350  1.00  0.00    -0.332 N 
ATOM     24  C   UNL     1      -8.106  -7.291   0.483  1.00  0.00     0.147 C 
BRANCH  23  25
ATOM     25  C   UNL     1      -6.031  -5.946   0.697  1.00  0.00     0.174 C 
BRANCH  25  26
ATOM     26  C   UNL     1      -5.391  -7.352   0.764  1.00  0.00     0.038 C 
BRANCH  26  27
ATOM     27  C   UNL     1      -4.647  -7.844  -0.498  1.00  0.00    -0.015 C 
ATOM     28  C   UNL     1      -5.016  -9.280  -0.871  1.00  0.00     0.007 C 
ATOM     29  C   UNL     1      -4.811  -6.918  -1.699  1.00  0.00     0.007 C 
ENDBRANCH  26  27
ENDBRANCH  25  26
BRANCH  25  30
ATOM     30  C   UNL     1      -5.812  -5.101   1.973  1.00  0.00     0.243 C 
ATOM     31  O   UNL     1      -5.028  -4.153   1.998  1.00  0.00    -0.273 OA
ATOM     32  N   UNL     1      -6.541  -5.482   3.069  1.00  0.00    -0.342 N 
ATOM     33  H   UNL     1      -7.271  -6.185   2.931  1.00  0.00     0.164 HD
BRANCH  32  34
ATOM     34  C   UNL     1      -6.441  -4.815   4.370  1.00  0.00     0.175 C 
BRANCH  34  35
ATOM     35  C   UNL     1      -7.230  -3.497   4.384  1.00  0.00     0.070 C 
BRANCH  35  36
ATOM     36  C   UNL     1      -7.194  -2.808   5.729  1.00  0.00    -0.045 A 
ATOM     37  C   UNL     1      -6.013  -2.191   6.171  1.00  0.00     0.007 A 
ATOM     38  C   UNL     1      -8.322  -2.793   6.560  1.00  0.00     0.007 A 
ATOM     39  C   UNL     1      -5.966  -1.565   7.416  1.00  0.00     0.046 A 
ATOM     40  C   UNL     1      -8.275  -2.167   7.808  1.00  0.00     0.046 A 
ATOM     41  C   UNL     1      -7.097  -1.557   8.224  1.00  0.00     0.115 A 
BRANCH  41  42
ATOM     42  O   UNL     1      -7.008  -0.937   9.436  1.00  0.00    -0.508 OA
ATOM     43  H   UNL     1      -7.696  -0.253   9.478  1.00  0.00     0.293 HD
ENDBRANCH  41  42
ENDBRANCH  35  36
ENDBRANCH  34  35
BRANCH  34  44
ATOM     44  C   UNL     1      -6.941  -5.798   5.452  1.00  0.00     0.243 C 
ATOM     45  O   UNL     1      -6.218  -6.345   6.280  1.00  0.00    -0.273 OA
ATOM     46  N   UNL     1      -8.276  -6.118   5.328  1.00  0.00    -0.341 N 
ATOM     47  H   UNL     1      -8.808  -5.729   4.553  1.00  0.00     0.164 HD
BRANCH  46  48
ATOM     48  C   UNL     1      -8.958  -7.081   6.196  1.00  0.00     0.196 C 
BRANCH  48  49
ATOM     49  C   UNL     1     -10.096  -6.414   6.987  1.00  0.00     0.072 C 
BRANCH  49  50
ATOM     50  C   UNL     1      -9.762  -6.236   8.450  1.00  0.00    -0.045 A 
ATOM     51  C   UNL     1      -8.502  -5.746   8.825  1.00  0.00     0.007 A 
ATOM     52  C   UNL     1     -10.686  -6.575   9.447  1.00  0.00     0.007 A 
ATOM     53  C   UNL     1      -8.178  -5.591  10.173  1.00  0.00     0.046 A 
ATOM     54  C   UNL     1     -10.360  -6.420  10.797  1.00  0.00     0.046 A 
ATOM     55  C   UNL     1      -9.108  -5.928  11.148  1.00  0.00     0.115 A 
BRANCH  55  56
ATOM     56  O   UNL     1      -8.751  -5.763  12.453  1.00  0.00    -0.508 OA
ATOM     57  H   UNL     1      -8.860  -6.613  12.910  1.00  0.00     0.293 HD
ENDBRANCH  55  56
ENDBRANCH  49  50
ENDBRANCH  48  49
BRANCH  48  58
ATOM     58  C   UNL     1      -9.527  -8.216   5.333  1.00  0.00     0.326 C 
ATOM     59  O   UNL     1      -9.751  -9.365   5.677  1.00  0.00    -0.250 OA
BRANCH  58  60
ATOM     60  O   UNL     1      -9.807  -7.839   4.060  1.00  0.00    -0.480 OA
ATOM     61  H   UNL     1      -9.664  -6.868   4.075  1.00  0.00     0.296 HD
ENDBRANCH  58  60
ENDBRANCH  48  58
ENDBRANCH  46  48
ENDBRANCH  34  44
ENDBRANCH  32  34
ENDBRANCH  25  30
ENDBRANCH  23  25
ENDBRANCH   2  23
TORSDOF 28
ENDMDL
MODEL 3
REMARK VINA RESULT:    -5.511      3.092     10.058
REMARK INTER + INTRA:         -19.883
REMARK INTER:                 -15.392
REMARK INTRA:                  -4.490
REMARK UNBOUND:                -6.157
REMARK SMILES CCCCCCC[C@H](N)[C@H](O)C(=O)N[C@H](C)C(=O)N(C)[C@H](CC(C)C)C(=O)N[C@@H](Cc1ccc(O)cc1)C(=O)N[C@@H](Cc1ccc(O)cc1)C(=O)O
REMARK SMILES IDX 18 1 17 2 15 3 16 4 14 5 12 6 13 7 10 9 11 10 8 12 9 13 7 16
REMARK SMILES IDX 6 17 5 18 4 19 3 20 2 21 1 22 19 23 20 24 21 25 22 26 23 27
REMARK SMILES IDX 24 28 25 29 26 30 27 31 28 32 29 34 30 35 31 36 32 37 37 38
REMARK SMILES IDX 33 39 36 40 34 41 35 42 38 44 39 45 40 46 41 48 42 49 43 50
REMARK SMILES IDX 44 51 49 52 45 53 48 54 46 55 47 56 50 58 51 59 52 60
REMARK H PARENT 14 8 11 11 9 14 9 15 28 33 35 43 40 47 47 57 52 61
ROOT
ATOM      1  O   UNL     1      -9.949  -3.660  -0.879  1.00  0.00    -0.272 OA
ATOM      2  C   UNL     1      -9.242  -2.642  -0.913  1.00  0.00     0.245 C 
ENDROOT
BRANCH   2   3
ATOM      3  C   UNL     1      -8.682  -2.083   0.419  1.00  0.00     0.168 C 
ATOM      4  C   UNL     1      -9.403  -0.799   0.813  1.00  0.00     0.041 C 
BRANCH   3   5
ATOM      5  N   UNL     1      -8.641  -3.040   1.514  1.00  0.00    -0.342 N 
ATOM      6  C   UNL     1      -7.563  -3.878   1.709  1.00  0.00     0.251 C 
ATOM      7  O   UNL     1      -6.589  -3.911   0.965  1.00  0.00    -0.272 OA
ATOM      8  H   UNL     1      -9.408  -3.129   2.177  1.00  0.00     0.164 HD
BRANCH   6   9
ATOM      9  C   UNL     1      -7.676  -4.699   3.004  1.00  0.00     0.219 C 
BRANCH   9  10
ATOM     10  O   UNL     1      -8.189  -3.934   4.101  1.00  0.00    -0.382 OA
ATOM     11  H   UNL     1      -7.527  -4.078   4.812  1.00  0.00     0.211 HD
ENDBRANCH   9  10
BRANCH   9  12
ATOM     12  C   UNL     1      -8.480  -6.013   2.824  1.00  0.00     0.089 C 
BRANCH  12  13
ATOM     13  N   UNL     1      -9.542  -5.776   1.819  1.00  0.00    -0.325 NA
ATOM     14  H   UNL     1      -9.669  -4.770   1.694  1.00  0.00     0.119 HD
ATOM     15  H   UNL     1     -10.432  -6.113   2.192  1.00  0.00     0.119 HD
ENDBRANCH  12  13
BRANCH  12  16
ATOM     16  C   UNL     1      -7.656  -7.266   2.442  1.00  0.00     0.022 C 
BRANCH  16  17
ATOM     17  C   UNL     1      -7.477  -7.618   0.958  1.00  0.00     0.002 C 
BRANCH  17  18
ATOM     18  C   UNL     1      -6.123  -8.227   0.600  1.00  0.00     0.000 C 
BRANCH  18  19
ATOM     19  C   UNL     1      -5.683  -7.966  -0.846  1.00  0.00    -0.000 C 
BRANCH  19  20
ATOM     20  C   UNL     1      -6.106  -6.610  -1.419  1.00  0.00    -0.000 C 
BRANCH  20  21
ATOM     21  C   UNL     1      -4.924  -5.671  -1.674  1.00  0.00    -0.003 C 
ATOM     22  C   UNL     1      -4.543  -5.646  -3.146  1.00  0.00     0.004 C 
ENDBRANCH  20  21
ENDBRANCH  19  20
ENDBRANCH  18  19
ENDBRANCH  17  18
ENDBRANCH  16  17
ENDBRANCH  12  16
ENDBRANCH   9  12
ENDBRANCH   6   9
ENDBRANCH   3   5
ENDBRANCH   2   3
BRANCH   2  23
ATOM     23  N   UNL     1      -8.867  -2.097  -2.136  1.00  0.00    -0.332 N 
ATOM     24  C   UNL     1      -9.773  -1.420  -3.052  1.00  0.00     0.147 C 
BRANCH  23  25
ATOM     25  C   UNL     1      -7.433  -2.063  -2.535  1.00  0.00     0.174 C 
BRANCH  25  26
ATOM     26  C   UNL     1      -6.925  -0.634  -2.838  1.00  0.00     0.038 C 
BRANCH  26  27
ATOM     27  C   UNL     1      -7.047   0.407  -1.703  1.00  0.00    -0.015 C 
ATOM     28  C   UNL     1      -5.687   0.812  -1.134  1.00  0.00     0.007 C 
ATOM     29  C   UNL     1      -7.854   1.642  -2.095  1.00  0.00     0.007 C 
ENDBRANCH  26  27
ENDBRANCH  25  26
BRANCH  25  30
ATOM     30  C   UNL     1      -7.176  -3.070  -3.680  1.00  0.00     0.243 C 
ATOM     31  O   UNL     1      -7.711  -4.177  -3.705  1.00  0.00    -0.273 OA
ATOM     32  N   UNL     1      -6.311  -2.648  -4.658  1.00  0.00    -0.342 N 
ATOM     33  H   UNL     1      -6.020  -1.667  -4.642  1.00  0.00     0.164 HD
BRANCH  32  34
ATOM     34  C   UNL     1      -5.930  -3.478  -5.803  1.00  0.00     0.175 C 
BRANCH  34  35
ATOM     35  C   UNL     1      -7.020  -3.472  -6.886  1.00  0.00     0.070 C 
BRANCH  35  36
ATOM     36  C   UNL     1      -6.881  -4.618  -7.863  1.00  0.00    -0.045 A 
ATOM     37  C   UNL     1      -7.116  -4.407  -9.230  1.00  0.00     0.007 A 
ATOM     38  C   UNL     1      -6.542  -5.903  -7.420  1.00  0.00     0.007 A 
ATOM     39  C   UNL     1      -7.003  -5.461 -10.137  1.00  0.00     0.046 A 
ATOM     40  C   UNL     1      -6.430  -6.959  -8.327  1.00  0.00     0.046 A 
ATOM     41  C   UNL     1      -6.661  -6.728  -9.679  1.00  0.00     0.115 A 
BRANCH  41  42
ATOM     42  O   UNL     1      -6.565  -7.731 -10.597  1.00  0.00    -0.508 OA
ATOM     43  H   UNL     1      -6.019  -8.439 -10.219  1.00  0.00     0.293 HD
ENDBRANCH  41  42
ENDBRANCH  35  36
ENDBRANCH  34  35
BRANCH  34  44
ATOM     44  C   UNL     1      -4.578  -2.959  -6.342  1.00  0.00     0.243 C 
ATOM     45  O   UNL     1      -4.324  -1.776  -6.554  1.00  0.00    -0.273 OA
ATOM     46  N   UNL     1      -3.705  -3.966  -6.695  1.00  0.00    -0.341 N 
ATOM     47  H   UNL     1      -4.006  -4.933  -6.610  1.00  0.00     0.164 HD
BRANCH  46  48
ATOM     48  C   UNL     1      -2.390  -3.719  -7.292  1.00  0.00     0.196 C 
BRANCH  48  49
ATOM     49  C   UNL     1      -1.374  -4.794  -6.871  1.00  0.00     0.072 C 
BRANCH  49  50
ATOM     50  C   UNL     1      -1.991  -6.171  -6.771  1.00  0.00    -0.045 A 
ATOM     51  C   UNL     1      -2.116  -6.791  -5.520  1.00  0.00     0.007 A 
ATOM     52  C   UNL     1      -2.424  -6.852  -7.916  1.00  0.00     0.007 A 
ATOM     53  C   UNL     1      -2.672  -8.067  -5.416  1.00  0.00     0.046 A 
ATOM     54  C   UNL     1      -2.980  -8.129  -7.813  1.00  0.00     0.046 A 
ATOM     55  C   UNL     1      -3.100  -8.725  -6.562  1.00  0.00     0.115 A 
BRANCH  55  56
ATOM     56  O   UNL     1      -3.635  -9.971  -6.418  1.00  0.00    -0.508 OA
ATOM     57  H   UNL     1      -2.912 -10.600  -6.267  1.00  0.00     0.293 HD
ENDBRANCH  55  56
ENDBRANCH  49  50
ENDBRANCH  48  49
BRANCH  48  58
ATOM     58  C   UNL     1      -2.529  -3.712  -8.821  1.00  0.00     0.326 C 
ATOM     59  O   UNL     1      -3.550  -3.868  -9.471  1.00  0.00    -0.250 OA
BRANCH  58  60
ATOM     60  O   UNL     1      -1.358  -3.491  -9.469  1.00  0.00    -0.480 OA
ATOM     61  H   UNL     1      -1.174  -2.544  -9.287  1.00  0.00     0.296 HD
ENDBRANCH  58  60
ENDBRANCH  48  58
ENDBRANCH  46  48
ENDBRANCH  34  44
ENDBRANCH  32  34
ENDBRANCH  25  30
ENDBRANCH  23  25
ENDBRANCH   2  23
TORSDOF 28
ENDMDL
MODEL 4
REMARK VINA RESULT:    -5.477      3.841      8.517
REMARK INTER + INTRA:         -19.799
REMARK INTER:                 -14.192
REMARK INTRA:                  -5.606
REMARK UNBOUND:                -6.157
REMARK SMILES CCCCCCC[C@H](N)[C@H](O)C(=O)N[C@H](C)C(=O)N(C)[C@H](CC(C)C)C(=O)N[C@@H](Cc1ccc(O)cc1)C(=O)N[C@@H](Cc1ccc(O)cc1)C(=O)O
REMARK SMILES IDX 18 1 17 2 15 3 16 4 14 5 12 6 13 7 10 9 11 10 8 12 9 13 7 16
REMARK SMILES IDX 6 17 5 18 4 19 3 20 2 21 1 22 19 23 20 24 21 25 22 26 23 27
REMARK SMILES IDX 24 28 25 29 26 30 27 31 28 32 29 34 30 35 31 36 32 37 37 38
REMARK SMILES IDX 33 39 36 40 34 41 35 42 38 44 39 45 40 46 41 48 42 49 43 50
REMARK SMILES IDX 44 51 49 52 45 53 48 54 46 55 47 56 50 58 51 59 52 60
REMARK H PARENT 14 8 11 11 9 14 9 15 28 33 35 43 40 47 47 57 52 61
ROOT
ATOM      1  O   UNL     1     -12.832  -5.932   4.016  1.00  0.00    -0.272 OA
ATOM      2  C   UNL     1     -12.112  -4.944   3.810  1.00  0.00     0.245 C 
ENDROOT
BRANCH   2   3
ATOM      3  C   UNL     1     -12.475  -3.606   4.500  1.00  0.00     0.168 C 
ATOM      4  C   UNL     1     -13.166  -3.856   5.836  1.00  0.00     0.041 C 
BRANCH   3   5
ATOM      5  N   UNL     1     -11.373  -2.665   4.628  1.00  0.00    -0.342 N 
ATOM      6  C   UNL     1     -11.395  -1.430   4.015  1.00  0.00     0.251 C 
ATOM      7  O   UNL     1     -12.310  -1.050   3.292  1.00  0.00    -0.272 OA
ATOM      8  H   UNL     1     -10.543  -2.883   5.174  1.00  0.00     0.164 HD
BRANCH   6   9
ATOM      9  C   UNL     1     -10.195  -0.552   4.403  1.00  0.00     0.219 C 
BRANCH   9  10
ATOM     10  O   UNL     1      -9.466  -1.076   5.520  1.00  0.00    -0.382 OA
ATOM     11  H   UNL     1      -8.571  -0.682   5.417  1.00  0.00     0.211 HD
ENDBRANCH   9  10
BRANCH   9  12
ATOM     12  C   UNL     1      -9.244  -0.260   3.213  1.00  0.00     0.089 C 
BRANCH  12  13
ATOM     13  N   UNL     1      -9.234  -1.441   2.321  1.00  0.00    -0.325 NA
ATOM     14  H   UNL     1      -8.274  -1.773   2.213  1.00  0.00     0.119 HD
ATOM     15  H   UNL     1      -9.523  -1.151   1.384  1.00  0.00     0.119 HD
ENDBRANCH  12  13
BRANCH  12  16
ATOM     16  C   UNL     1      -9.551   1.019   2.398  1.00  0.00     0.022 C 
BRANCH  16  17
ATOM     17  C   UNL     1      -8.406   1.731   1.665  1.00  0.00     0.002 C 
BRANCH  17  18
ATOM     18  C   UNL     1      -8.217   1.316   0.207  1.00  0.00     0.000 C 
BRANCH  18  19
ATOM     19  C   UNL     1      -8.766   2.329  -0.806  1.00  0.00    -0.000 C 
BRANCH  19  20
ATOM     20  C   UNL     1      -9.778   3.330  -0.242  1.00  0.00    -0.000 C 
BRANCH  20  21
ATOM     21  C   UNL     1      -9.482   4.776  -0.650  1.00  0.00    -0.003 C 
ATOM     22  C   UNL     1     -10.129   5.766   0.306  1.00  0.00     0.004 C 
ENDBRANCH  20  21
ENDBRANCH  19  20
ENDBRANCH  18  19
ENDBRANCH  17  18
ENDBRANCH  16  17
ENDBRANCH  12  16
ENDBRANCH   9  12
ENDBRANCH   6   9
ENDBRANCH   3   5
ENDBRANCH   2   3
BRANCH   2  23
ATOM     23  N   UNL     1     -10.941  -5.079   3.073  1.00  0.00    -0.332 N 
ATOM     24  C   UNL     1     -10.736  -4.533   1.739  1.00  0.00     0.147 C 
BRANCH  23  25
ATOM     25  C   UNL     1      -9.737  -5.707   3.684  1.00  0.00     0.174 C 
BRANCH  25  26
ATOM     26  C   UNL     1     -10.007  -6.278   5.096  1.00  0.00     0.038 C 
BRANCH  26  27
ATOM     27  C   UNL     1      -9.085  -7.420   5.578  1.00  0.00    -0.015 C 
ATOM     28  C   UNL     1      -8.938  -7.450   7.099  1.00  0.00     0.007 C 
ATOM     29  C   UNL     1      -9.493  -8.793   5.050  1.00  0.00     0.007 C 
ENDBRANCH  26  27
ENDBRANCH  25  26
BRANCH  25  30
ATOM     30  C   UNL     1      -8.540  -4.731   3.627  1.00  0.00     0.243 C 
ATOM     31  O   UNL     1      -8.539  -3.667   4.244  1.00  0.00    -0.273 OA
ATOM     32  N   UNL     1      -7.489  -5.127   2.841  1.00  0.00    -0.342 N 
ATOM     33  H   UNL     1      -7.504  -6.082   2.475  1.00  0.00     0.164 HD
BRANCH  32  34
ATOM     34  C   UNL     1      -6.283  -4.317   2.647  1.00  0.00     0.175 C 
BRANCH  34  35
ATOM     35  C   UNL     1      -5.077  -4.926   3.379  1.00  0.00     0.070 C 
BRANCH  35  36
ATOM     36  C   UNL     1      -5.136  -6.435   3.448  1.00  0.00    -0.045 A 
ATOM     37  C   UNL     1      -5.621  -7.066   4.603  1.00  0.00     0.007 A 
ATOM     38  C   UNL     1      -4.690  -7.222   2.377  1.00  0.00     0.007 A 
ATOM     39  C   UNL     1      -5.666  -8.459   4.681  1.00  0.00     0.046 A 
ATOM     40  C   UNL     1      -4.734  -8.616   2.456  1.00  0.00     0.046 A 
ATOM     41  C   UNL     1      -5.223  -9.222   3.608  1.00  0.00     0.115 A 
BRANCH  41  42
ATOM     42  O   UNL     1      -5.282 -10.579   3.726  1.00  0.00    -0.508 OA
ATOM     43  H   UNL     1      -6.039 -10.897   3.207  1.00  0.00     0.293 HD
ENDBRANCH  41  42
ENDBRANCH  35  36
ENDBRANCH  34  35
BRANCH  34  44
ATOM     44  C   UNL     1      -6.032  -4.188   1.128  1.00  0.00     0.243 C 
ATOM     45  O   UNL     1      -5.015  -3.712   0.630  1.00  0.00    -0.273 OA
ATOM     46  N   UNL     1      -7.121  -4.541   0.359  1.00  0.00    -0.341 N 
ATOM     47  H   UNL     1      -7.983  -4.819   0.823  1.00  0.00     0.164 HD
BRANCH  46  48
ATOM     48  C   UNL     1      -7.144  -4.438  -1.101  1.00  0.00     0.196 C 
BRANCH  48  49
ATOM     49  C   UNL     1      -7.379  -5.809  -1.756  1.00  0.00     0.072 C 
BRANCH  49  50
ATOM     50  C   UNL     1      -6.148  -6.687  -1.726  1.00  0.00    -0.045 A 
ATOM     51  C   UNL     1      -6.207  -7.953  -1.125  1.00  0.00     0.007 A 
ATOM     52  C   UNL     1      -4.936  -6.247  -2.273  1.00  0.00     0.007 A 
ATOM     53  C   UNL     1      -5.074  -8.766  -1.079  1.00  0.00     0.046 A 
ATOM     54  C   UNL     1      -3.802  -7.061  -2.227  1.00  0.00     0.046 A 
ATOM     55  C   UNL     1      -3.881  -8.314  -1.631  1.00  0.00     0.115 A 
BRANCH  55  56
ATOM     56  O   UNL     1      -2.797  -9.139  -1.564  1.00  0.00    -0.508 OA
ATOM     57  H   UNL     1      -2.475  -9.294  -2.466  1.00  0.00     0.293 HD
ENDBRANCH  55  56
ENDBRANCH  49  50
ENDBRANCH  48  49
BRANCH  48  58
ATOM     58  C   UNL     1      -8.262  -3.471  -1.516  1.00  0.00     0.326 C 
ATOM     59  O   UNL     1      -8.769  -3.357  -2.620  1.00  0.00    -0.250 OA
BRANCH  58  60
ATOM     60  O   UNL     1      -8.707  -2.690  -0.499  1.00  0.00    -0.480 OA
ATOM     61  H   UNL     1      -9.626  -2.472  -0.767  1.00  0.00     0.296 HD
ENDBRANCH  58  60
ENDBRANCH  48  58
ENDBRANCH  46  48
ENDBRANCH  34  44
ENDBRANCH  32  34
ENDBRANCH  25  30
ENDBRANCH  23  25
ENDBRANCH   2  23
TORSDOF 28
ENDMDL
MODEL 5
REMARK VINA RESULT:    -5.437      3.499      7.636
REMARK INTER + INTRA:         -19.698
REMARK INTER:                 -13.901
REMARK INTRA:                  -5.797
REMARK UNBOUND:                -6.157
REMARK SMILES CCCCCCC[C@H](N)[C@H](O)C(=O)N[C@H](C)C(=O)N(C)[C@H](CC(C)C)C(=O)N[C@@H](Cc1ccc(O)cc1)C(=O)N[C@@H](Cc1ccc(O)cc1)C(=O)O
REMARK SMILES IDX 18 1 17 2 15 3 16 4 14 5 12 6 13 7 10 9 11 10 8 12 9 13 7 16
REMARK SMILES IDX 6 17 5 18 4 19 3 20 2 21 1 22 19 23 20 24 21 25 22 26 23 27
REMARK SMILES IDX 24 28 25 29 26 30 27 31 28 32 29 34 30 35 31 36 32 37 37 38
REMARK SMILES IDX 33 39 36 40 34 41 35 42 38 44 39 45 40 46 41 48 42 49 43 50
REMARK SMILES IDX 44 51 49 52 45 53 48 54 46 55 47 56 50 58 51 59 52 60
REMARK H PARENT 14 8 11 11 9 14 9 15 28 33 35 43 40 47 47 57 52 61
ROOT
ATOM      1  O   UNL     1      -9.482  -0.010   0.346  1.00  0.00    -0.272 OA
ATOM      2  C   UNL     1     -10.554  -0.569   0.072  1.00  0.00     0.245 C 
ENDROOT
BRANCH   2   3
ATOM      3  C   UNL     1     -10.786  -1.055  -1.380  1.00  0.00     0.168 C 
ATOM      4  C   UNL     1     -11.584  -0.027  -2.175  1.00  0.00     0.041 C 
BRANCH   3   5
ATOM      5  N   UNL     1      -9.583  -1.470  -2.085  1.00  0.00    -0.342 N 
ATOM      6  C   UNL     1      -9.060  -2.738  -1.948  1.00  0.00     0.251 C 
ATOM      7  O   UNL     1      -9.533  -3.588  -1.201  1.00  0.00    -0.272 OA
ATOM      8  H   UNL     1      -9.082  -0.840  -2.707  1.00  0.00     0.164 HD
BRANCH   6   9
ATOM      9  C   UNL     1      -7.875  -2.997  -2.892  1.00  0.00     0.219 C 
BRANCH   9  10
ATOM     10  O   UNL     1      -7.665  -1.928  -3.822  1.00  0.00    -0.382 OA
ATOM     11  H   UNL     1      -7.514  -2.390  -4.675  1.00  0.00     0.211 HD
ENDBRANCH   9  10
BRANCH   9  12
ATOM     12  C   UNL     1      -6.562  -3.340  -2.141  1.00  0.00     0.089 C 
BRANCH  12  13
ATOM     13  N   UNL     1      -6.548  -2.598  -0.860  1.00  0.00    -0.325 NA
ATOM     14  H   UNL     1      -6.761  -3.243  -0.096  1.00  0.00     0.119 HD
ATOM     15  H   UNL     1      -7.315  -1.922  -0.861  1.00  0.00     0.119 HD
ENDBRANCH  12  13
BRANCH  12  16
ATOM     16  C   UNL     1      -6.299  -4.844  -1.887  1.00  0.00     0.022 C 
BRANCH  16  17
ATOM     17  C   UNL     1      -5.054  -5.261  -1.092  1.00  0.00     0.002 C 
BRANCH  17  18
ATOM     18  C   UNL     1      -3.827  -5.589  -1.940  1.00  0.00     0.000 C 
BRANCH  18  19
ATOM     19  C   UNL     1      -4.146  -6.361  -3.228  1.00  0.00    -0.000 C 
BRANCH  19  20
ATOM     20  C   UNL     1      -3.099  -7.400  -3.639  1.00  0.00    -0.000 C 
BRANCH  20  21
ATOM     21  C   UNL     1      -2.582  -7.198  -5.066  1.00  0.00    -0.003 C 
ATOM     22  C   UNL     1      -2.327  -5.728  -5.361  1.00  0.00     0.004 C 
ENDBRANCH  20  21
ENDBRANCH  19  20
ENDBRANCH  18  19
ENDBRANCH  17  18
ENDBRANCH  16  17
ENDBRANCH  12  16
ENDBRANCH   9  12
ENDBRANCH   6   9
ENDBRANCH   3   5
ENDBRANCH   2   3
BRANCH   2  23
ATOM     23  N   UNL     1     -11.466  -0.856   1.082  1.00  0.00    -0.332 N 
ATOM     24  C   UNL     1     -11.794   0.041   2.179  1.00  0.00     0.147 C 
BRANCH  23  25
ATOM     25  C   UNL     1     -12.285  -2.098   1.023  1.00  0.00     0.174 C 
BRANCH  25  26
ATOM     26  C   UNL     1     -13.687  -1.926   1.653  1.00  0.00     0.038 C 
BRANCH  26  27
ATOM     27  C   UNL     1     -14.804  -1.380   0.736  1.00  0.00    -0.015 C 
ATOM     28  C   UNL     1     -14.727  -1.948  -0.681  1.00  0.00     0.007 C 
ATOM     29  C   UNL     1     -16.206  -1.562   1.312  1.00  0.00     0.007 C 
ENDBRANCH  26  27
ENDBRANCH  25  26
BRANCH  25  30
ATOM     30  C   UNL     1     -11.487  -3.290   1.600  1.00  0.00     0.243 C 
ATOM     31  O   UNL     1     -11.720  -4.451   1.267  1.00  0.00    -0.273 OA
ATOM     32  N   UNL     1     -10.511  -2.966   2.507  1.00  0.00    -0.342 N 
ATOM     33  H   UNL     1     -10.283  -1.976   2.624  1.00  0.00     0.164 HD
BRANCH  32  34
ATOM     34  C   UNL     1      -9.675  -3.966   3.176  1.00  0.00     0.175 C 
BRANCH  34  35
ATOM     35  C   UNL     1     -10.530  -5.052   3.847  1.00  0.00     0.070 C 
BRANCH  35  36
ATOM     36  C   UNL     1     -11.359  -4.517   4.994  1.00  0.00    -0.045 A 
ATOM     37  C   UNL     1     -12.758  -4.617   4.955  1.00  0.00     0.007 A 
ATOM     38  C   UNL     1     -10.750  -3.897   6.093  1.00  0.00     0.007 A 
ATOM     39  C   UNL     1     -13.532  -4.115   6.002  1.00  0.00     0.046 A 
ATOM     40  C   UNL     1     -11.524  -3.392   7.141  1.00  0.00     0.046 A 
ATOM     41  C   UNL     1     -12.909  -3.507   7.086  1.00  0.00     0.115 A 
BRANCH  41  42
ATOM     42  O   UNL     1     -13.702  -3.026   8.086  1.00  0.00    -0.508 OA
ATOM     43  H   UNL     1     -13.286  -3.246   8.936  1.00  0.00     0.293 HD
ENDBRANCH  41  42
ENDBRANCH  35  36
ENDBRANCH  34  35
BRANCH  34  44
ATOM     44  C   UNL     1      -8.707  -4.560   2.127  1.00  0.00     0.243 C 
ATOM     45  O   UNL     1      -7.797  -3.935   1.590  1.00  0.00    -0.273 OA
ATOM     46  N   UNL     1      -9.038  -5.842   1.740  1.00  0.00    -0.341 N 
ATOM     47  H   UNL     1      -9.871  -6.276   2.129  1.00  0.00     0.164 HD
BRANCH  46  48
ATOM     48  C   UNL     1      -8.309  -6.586   0.710  1.00  0.00     0.196 C 
BRANCH  48  49
ATOM     49  C   UNL     1      -7.811  -7.939   1.244  1.00  0.00     0.072 C 
BRANCH  49  50
ATOM     50  C   UNL     1      -6.399  -8.255   0.804  1.00  0.00    -0.045 A 
ATOM     51  C   UNL     1      -6.175  -8.881  -0.431  1.00  0.00     0.007 A 
ATOM     52  C   UNL     1      -5.304  -7.950   1.622  1.00  0.00     0.007 A 
ATOM     53  C   UNL     1      -4.878  -9.188  -0.842  1.00  0.00     0.046 A 
ATOM     54  C   UNL     1      -4.005  -8.259   1.212  1.00  0.00     0.046 A 
ATOM     55  C   UNL     1      -3.803  -8.875  -0.019  1.00  0.00     0.115 A 
BRANCH  55  56
ATOM     56  O   UNL     1      -2.552  -9.194  -0.456  1.00  0.00    -0.508 OA
ATOM     57  H   UNL     1      -1.925  -9.037   0.268  1.00  0.00     0.293 HD
ENDBRANCH  55  56
ENDBRANCH  49  50
ENDBRANCH  48  49
BRANCH  48  58
ATOM     58  C   UNL     1      -9.236  -6.815  -0.491  1.00  0.00     0.326 C 
ATOM     59  O   UNL     1      -8.932  -7.259  -1.586  1.00  0.00    -0.250 OA
BRANCH  58  60
ATOM     60  O   UNL     1     -10.529  -6.484  -0.247  1.00  0.00    -0.480 OA
ATOM     61  H   UNL     1     -10.950  -7.348  -0.047  1.00  0.00     0.296 HD
ENDBRANCH  58  60
ENDBRANCH  48  58
ENDBRANCH  46  48
ENDBRANCH  34  44
ENDBRANCH  32  34
ENDBRANCH  25  30
ENDBRANCH  23  25
ENDBRANCH   2  23
TORSDOF 28
ENDMDL
MODEL 6
REMARK VINA RESULT:    -5.436      2.709      8.227
REMARK INTER + INTRA:         -19.695
REMARK INTER:                 -14.748
REMARK INTRA:                  -4.947
REMARK UNBOUND:                -6.157
REMARK SMILES CCCCCCC[C@H](N)[C@H](O)C(=O)N[C@H](C)C(=O)N(C)[C@H](CC(C)C)C(=O)N[C@@H](Cc1ccc(O)cc1)C(=O)N[C@@H](Cc1ccc(O)cc1)C(=O)O
REMARK SMILES IDX 18 1 17 2 15 3 16 4 14 5 12 6 13 7 10 9 11 10 8 12 9 13 7 16
REMARK SMILES IDX 6 17 5 18 4 19 3 20 2 21 1 22 19 23 20 24 21 25 22 26 23 27
REMARK SMILES IDX 24 28 25 29 26 30 27 31 28 32 29 34 30 35 31 36 32 37 37 38
REMARK SMILES IDX 33 39 36 40 34 41 35 42 38 44 39 45 40 46 41 48 42 49 43 50
REMARK SMILES IDX 44 51 49 52 45 53 48 54 46 55 47 56 50 58 51 59 52 60
REMARK H PARENT 14 8 11 11 9 14 9 15 28 33 35 43 40 47 47 57 52 61
ROOT
ATOM      1  O   UNL     1      -7.383  -3.180   2.251  1.00  0.00    -0.272 OA
ATOM      2  C   UNL     1      -7.750  -4.333   2.519  1.00  0.00     0.245 C 
ENDROOT
BRANCH   2   3
ATOM      3  C   UNL     1      -8.652  -4.555   3.759  1.00  0.00     0.168 C 
ATOM      4  C   UNL     1      -7.994  -5.518   4.741  1.00  0.00     0.041 C 
BRANCH   3   5
ATOM      5  N   UNL     1      -9.101  -3.336   4.413  1.00  0.00    -0.342 N 
ATOM      6  C   UNL     1     -10.421  -2.937   4.381  1.00  0.00     0.251 C 
ATOM      7  O   UNL     1     -11.297  -3.544   3.775  1.00  0.00    -0.272 OA
ATOM      8  H   UNL     1      -8.459  -2.731   4.919  1.00  0.00     0.164 HD
BRANCH   6   9
ATOM      9  C   UNL     1     -10.689  -1.702   5.256  1.00  0.00     0.219 C 
BRANCH   9  10
ATOM     10  O   UNL     1      -9.556  -1.329   6.050  1.00  0.00    -0.382 OA
ATOM     11  H   UNL     1      -8.871  -1.987   5.797  1.00  0.00     0.211 HD
ENDBRANCH   9  10
BRANCH   9  12
ATOM     12  C   UNL     1     -11.219  -0.487   4.450  1.00  0.00     0.089 C 
BRANCH  12  13
ATOM     13  N   UNL     1     -11.079   0.727   5.286  1.00  0.00    -0.325 NA
ATOM     14  H   UNL     1     -10.198   1.192   5.057  1.00  0.00     0.119 HD
ATOM     15  H   UNL     1     -10.985   0.445   6.265  1.00  0.00     0.119 HD
ENDBRANCH  12  13
BRANCH  12  16
ATOM     16  C   UNL     1     -10.568  -0.257   3.065  1.00  0.00     0.022 C 
BRANCH  16  17
ATOM     17  C   UNL     1      -9.064   0.040   2.987  1.00  0.00     0.002 C 
BRANCH  17  18
ATOM     18  C   UNL     1      -8.709   1.442   2.494  1.00  0.00     0.000 C 
BRANCH  18  19
ATOM     19  C   UNL     1      -9.924   2.352   2.270  1.00  0.00    -0.000 C 
BRANCH  19  20
ATOM     20  C   UNL     1      -9.884   3.185   0.986  1.00  0.00    -0.000 C 
BRANCH  20  21
ATOM     21  C   UNL     1     -10.328   4.635   1.199  1.00  0.00    -0.003 C 
ATOM     22  C   UNL     1      -9.911   5.519   0.034  1.00  0.00     0.004 C 
ENDBRANCH  20  21
ENDBRANCH  19  20
ENDBRANCH  18  19
ENDBRANCH  17  18
ENDBRANCH  16  17
ENDBRANCH  12  16
ENDBRANCH   9  12
ENDBRANCH   6   9
ENDBRANCH   3   5
ENDBRANCH   2   3
BRANCH   2  23
ATOM     23  N   UNL     1      -7.455  -5.377   1.648  1.00  0.00    -0.332 N 
ATOM     24  C   UNL     1      -8.447  -6.256   1.046  1.00  0.00     0.147 C 
BRANCH  23  25
ATOM     25  C   UNL     1      -6.062  -5.582   1.166  1.00  0.00     0.174 C 
BRANCH  25  26
ATOM     26  C   UNL     1      -5.010  -5.454   2.293  1.00  0.00     0.038 C 
BRANCH  26  27
ATOM     27  C   UNL     1      -4.822  -6.678   3.217  1.00  0.00    -0.015 C 
ATOM     28  C   UNL     1      -3.951  -7.762   2.581  1.00  0.00     0.007 C 
ATOM     29  C   UNL     1      -4.301  -6.317   4.605  1.00  0.00     0.007 C 
ENDBRANCH  26  27
ENDBRANCH  25  26
BRANCH  25  30
ATOM     30  C   UNL     1      -5.781  -4.672  -0.052  1.00  0.00     0.243 C 
ATOM     31  O   UNL     1      -5.119  -3.640   0.046  1.00  0.00    -0.273 OA
ATOM     32  N   UNL     1      -6.322  -5.089  -1.241  1.00  0.00    -0.342 N 
ATOM     33  H   UNL     1      -6.736  -6.025  -1.271  1.00  0.00     0.164 HD
BRANCH  32  34
ATOM     34  C   UNL     1      -6.182  -4.340  -2.492  1.00  0.00     0.175 C 
BRANCH  34  35
ATOM     35  C   UNL     1      -6.195  -5.277  -3.710  1.00  0.00     0.070 C 
BRANCH  35  36
ATOM     36  C   UNL     1      -4.845  -5.381  -4.383  1.00  0.00    -0.045 A 
ATOM     37  C   UNL     1      -4.645  -4.804  -5.646  1.00  0.00     0.007 A 
ATOM     38  C   UNL     1      -3.788  -6.068  -3.772  1.00  0.00     0.007 A 
ATOM     39  C   UNL     1      -3.407  -4.906  -6.281  1.00  0.00     0.046 A 
ATOM     40  C   UNL     1      -2.548  -6.172  -4.408  1.00  0.00     0.046 A 
ATOM     41  C   UNL     1      -2.369  -5.588  -5.657  1.00  0.00     0.115 A 
BRANCH  41  42
ATOM     42  O   UNL     1      -1.176  -5.667  -6.313  1.00  0.00    -0.508 OA
ATOM     43  H   UNL     1      -0.465  -5.496  -5.673  1.00  0.00     0.293 HD
ENDBRANCH  41  42
ENDBRANCH  35  36
ENDBRANCH  34  35
BRANCH  34  44
ATOM     44  C   UNL     1      -7.320  -3.296  -2.555  1.00  0.00     0.243 C 
ATOM     45  O   UNL     1      -8.398  -3.478  -3.113  1.00  0.00    -0.273 OA
ATOM     46  N   UNL     1      -6.968  -2.069  -2.034  1.00  0.00    -0.341 N 
ATOM     47  H   UNL     1      -6.021  -1.932  -1.688  1.00  0.00     0.164 HD
BRANCH  46  48
ATOM     48  C   UNL     1      -7.856  -0.905  -2.044  1.00  0.00     0.196 C 
BRANCH  48  49
ATOM     49  C   UNL     1      -8.419  -0.618  -0.641  1.00  0.00     0.072 C 
BRANCH  49  50
ATOM     50  C   UNL     1      -9.813  -1.171  -0.449  1.00  0.00    -0.045 A 
ATOM     51  C   UNL     1     -10.928  -0.348  -0.666  1.00  0.00     0.007 A 
ATOM     52  C   UNL     1     -10.012  -2.494  -0.036  1.00  0.00     0.007 A 
ATOM     53  C   UNL     1     -12.218  -0.844  -0.480  1.00  0.00     0.046 A 
ATOM     54  C   UNL     1     -11.305  -2.990   0.153  1.00  0.00     0.046 A 
ATOM     55  C   UNL     1     -12.397  -2.160  -0.072  1.00  0.00     0.115 A 
BRANCH  55  56
ATOM     56  O   UNL     1     -13.674  -2.605   0.101  1.00  0.00    -0.508 OA
ATOM     57  H   UNL     1     -14.008  -2.257   0.942  1.00  0.00     0.293 HD
ENDBRANCH  55  56
ENDBRANCH  49  50
ENDBRANCH  48  49
BRANCH  48  58
ATOM     58  C   UNL     1      -7.073   0.317  -2.544  1.00  0.00     0.326 C 
ATOM     59  O   UNL     1      -6.235   0.959  -1.931  1.00  0.00    -0.250 OA
BRANCH  58  60
ATOM     60  O   UNL     1      -7.376   0.670  -3.819  1.00  0.00    -0.480 OA
ATOM     61  H   UNL     1      -7.242   1.642  -3.822  1.00  0.00     0.296 HD
ENDBRANCH  58  60
ENDBRANCH  48  58
ENDBRANCH  46  48
ENDBRANCH  34  44
ENDBRANCH  32  34
ENDBRANCH  25  30
ENDBRANCH  23  25
ENDBRANCH   2  23
TORSDOF 28
ENDMDL
MODEL 7
REMARK VINA RESULT:    -5.425      4.402      9.285
REMARK INTER + INTRA:         -19.669
REMARK INTER:                 -13.849
REMARK INTRA:                  -5.821
REMARK UNBOUND:                -6.157
REMARK SMILES CCCCCCC[C@H](N)[C@H](O)C(=O)N[C@H](C)C(=O)N(C)[C@H](CC(C)C)C(=O)N[C@@H](Cc1ccc(O)cc1)C(=O)N[C@@H](Cc1ccc(O)cc1)C(=O)O
REMARK SMILES IDX 18 1 17 2 15 3 16 4 14 5 12 6 13 7 10 9 11 10 8 12 9 13 7 16
REMARK SMILES IDX 6 17 5 18 4 19 3 20 2 21 1 22 19 23 20 24 21 25 22 26 23 27
REMARK SMILES IDX 24 28 25 29 26 30 27 31 28 32 29 34 30 35 31 36 32 37 37 38
REMARK SMILES IDX 33 39 36 40 34 41 35 42 38 44 39 45 40 46 41 48 42 49 43 50
REMARK SMILES IDX 44 51 49 52 45 53 48 54 46 55 47 56 50 58 51 59 52 60
REMARK H PARENT 14 8 11 11 9 14 9 15 28 33 35 43 40 47 47 57 52 61
ROOT
ATOM      1  O   UNL     1     -11.810  -4.859   1.649  1.00  0.00    -0.272 OA
ATOM      2  C   UNL     1     -11.239  -4.235   2.556  1.00  0.00     0.245 C 
ENDROOT
BRANCH   2   3
ATOM      3  C   UNL     1     -11.130  -4.894   3.953  1.00  0.00     0.168 C 
ATOM      4  C   UNL     1     -12.478  -4.882   4.665  1.00  0.00     0.041 C 
BRANCH   3   5
ATOM      5  N   UNL     1     -10.525  -6.217   3.959  1.00  0.00    -0.342 N 
ATOM      6  C   UNL     1      -9.424  -6.511   4.735  1.00  0.00     0.251 C 
ATOM      7  O   UNL     1      -8.851  -5.684   5.437  1.00  0.00    -0.272 OA
ATOM      8  H   UNL     1     -10.891  -6.977   3.390  1.00  0.00     0.164 HD
BRANCH   6   9
ATOM      9  C   UNL     1      -9.046  -8.000   4.692  1.00  0.00     0.219 C 
BRANCH   9  10
ATOM     10  O   UNL     1     -10.192  -8.860   4.676  1.00  0.00    -0.382 OA
ATOM     11  H   UNL     1     -10.875  -8.344   5.157  1.00  0.00     0.211 HD
ENDBRANCH   9  10
BRANCH   9  12
ATOM     12  C   UNL     1      -8.078  -8.350   3.531  1.00  0.00     0.089 C 
BRANCH  12  13
ATOM     13  N   UNL     1      -8.701  -7.919   2.258  1.00  0.00    -0.325 NA
ATOM     14  H   UNL     1      -9.716  -7.892   2.373  1.00  0.00     0.119 HD
ATOM     15  H   UNL     1      -8.531  -8.636   1.548  1.00  0.00     0.119 HD
ENDBRANCH  12  13
BRANCH  12  16
ATOM     16  C   UNL     1      -6.647  -7.773   3.645  1.00  0.00     0.022 C 
BRANCH  16  17
ATOM     17  C   UNL     1      -5.908  -7.869   4.987  1.00  0.00     0.002 C 
BRANCH  17  18
ATOM     18  C   UNL     1      -4.391  -8.006   4.879  1.00  0.00     0.000 C 
BRANCH  18  19
ATOM     19  C   UNL     1      -3.874  -8.112   3.438  1.00  0.00    -0.000 C 
BRANCH  19  20
ATOM     20  C   UNL     1      -2.426  -8.589   3.300  1.00  0.00    -0.000 C 
BRANCH  20  21
ATOM     21  C   UNL     1      -2.120  -9.185   1.923  1.00  0.00    -0.003 C 
ATOM     22  C   UNL     1      -3.391  -9.625   1.214  1.00  0.00     0.004 C 
ENDBRANCH  20  21
ENDBRANCH  19  20
ENDBRANCH  18  19
ENDBRANCH  17  18
ENDBRANCH  16  17
ENDBRANCH  12  16
ENDBRANCH   9  12
ENDBRANCH   6   9
ENDBRANCH   3   5
ENDBRANCH   2   3
BRANCH   2  23
ATOM     23  N   UNL     1     -10.608  -3.027   2.278  1.00  0.00    -0.332 N 
ATOM     24  C   UNL     1     -10.923  -1.763   2.927  1.00  0.00     0.147 C 
BRANCH  23  25
ATOM     25  C   UNL     1      -9.441  -2.984   1.355  1.00  0.00     0.174 C 
BRANCH  25  26
ATOM     26  C   UNL     1      -9.847  -3.098  -0.134  1.00  0.00     0.038 C 
BRANCH  26  27
ATOM     27  C   UNL     1     -10.538  -1.870  -0.767  1.00  0.00    -0.015 C 
ATOM     28  C   UNL     1      -9.996  -1.548  -2.160  1.00  0.00     0.007 C 
ATOM     29  C   UNL     1     -12.060  -1.976  -0.794  1.00  0.00     0.007 C 
ENDBRANCH  26  27
ENDBRANCH  25  26
BRANCH  25  30
ATOM     30  C   UNL     1      -8.379  -4.019   1.790  1.00  0.00     0.243 C 
ATOM     31  O   UNL     1      -8.506  -5.220   1.553  1.00  0.00    -0.273 OA
ATOM     32  N   UNL     1      -7.297  -3.512   2.462  1.00  0.00    -0.342 N 
ATOM     33  H   UNL     1      -7.195  -2.495   2.496  1.00  0.00     0.164 HD
BRANCH  32  34
ATOM     34  C   UNL     1      -6.207  -4.348   2.973  1.00  0.00     0.175 C 
BRANCH  34  35
ATOM     35  C   UNL     1      -4.953  -4.232   2.092  1.00  0.00     0.070 C 
BRANCH  35  36
ATOM     36  C   UNL     1      -5.099  -4.950   0.769  1.00  0.00    -0.045 A 
ATOM     37  C   UNL     1      -5.027  -4.229  -0.432  1.00  0.00     0.007 A 
ATOM     38  C   UNL     1      -5.331  -6.331   0.723  1.00  0.00     0.007 A 
ATOM     39  C   UNL     1      -5.174  -4.881  -1.657  1.00  0.00     0.046 A 
ATOM     40  C   UNL     1      -5.480  -6.984  -0.503  1.00  0.00     0.046 A 
ATOM     41  C   UNL     1      -5.399  -6.252  -1.683  1.00  0.00     0.115 A 
BRANCH  41  42
ATOM     42  O   UNL     1      -5.540  -6.851  -2.900  1.00  0.00    -0.508 OA
ATOM     43  H   UNL     1      -4.833  -7.509  -3.000  1.00  0.00     0.293 HD
ENDBRANCH  41  42
ENDBRANCH  35  36
ENDBRANCH  34  35
BRANCH  34  44
ATOM     44  C   UNL     1      -5.927  -3.928   4.434  1.00  0.00     0.243 C 
ATOM     45  O   UNL     1      -4.899  -4.199   5.048  1.00  0.00    -0.273 OA
ATOM     46  N   UNL     1      -7.003  -3.322   5.046  1.00  0.00    -0.341 N 
ATOM     47  H   UNL     1      -7.874  -3.225   4.531  1.00  0.00     0.164 HD
BRANCH  46  48
ATOM     48  C   UNL     1      -6.999  -2.899   6.448  1.00  0.00     0.196 C 
BRANCH  48  49
ATOM     49  C   UNL     1      -6.197  -1.600   6.639  1.00  0.00     0.072 C 
BRANCH  49  50
ATOM     50  C   UNL     1      -5.505  -1.535   7.982  1.00  0.00    -0.045 A 
ATOM     51  C   UNL     1      -4.609  -2.548   8.356  1.00  0.00     0.007 A 
ATOM     52  C   UNL     1      -5.759  -0.486   8.874  1.00  0.00     0.007 A 
ATOM     53  C   UNL     1      -3.975  -2.505   9.597  1.00  0.00     0.046 A 
ATOM     54  C   UNL     1      -5.125  -0.444  10.117  1.00  0.00     0.046 A 
ATOM     55  C   UNL     1      -4.237  -1.455  10.468  1.00  0.00     0.115 A 
BRANCH  55  56
ATOM     56  O   UNL     1      -3.597  -1.452  11.673  1.00  0.00    -0.508 OA
ATOM     57  H   UNL     1      -2.641  -1.480  11.512  1.00  0.00     0.293 HD
ENDBRANCH  55  56
ENDBRANCH  49  50
ENDBRANCH  48  49
BRANCH  48  58
ATOM     58  C   UNL     1      -8.447  -2.682   6.909  1.00  0.00     0.326 C 
ATOM     59  O   UNL     1      -8.837  -2.467   8.045  1.00  0.00    -0.250 OA
BRANCH  58  60
ATOM     60  O   UNL     1      -9.350  -2.733   5.898  1.00  0.00    -0.480 OA
ATOM     61  H   UNL     1      -9.424  -3.693   5.709  1.00  0.00     0.296 HD
ENDBRANCH  58  60
ENDBRANCH  48  58
ENDBRANCH  46  48
ENDBRANCH  34  44
ENDBRANCH  32  34
ENDBRANCH  25  30
ENDBRANCH  23  25
ENDBRANCH   2  23
TORSDOF 28
ENDMDL
MODEL 8
REMARK VINA RESULT:    -5.396      3.247     11.341
REMARK INTER + INTRA:         -19.596
REMARK INTER:                 -15.541
REMARK INTRA:                  -4.055
REMARK UNBOUND:                -6.157
REMARK SMILES CCCCCCC[C@H](N)[C@H](O)C(=O)N[C@H](C)C(=O)N(C)[C@H](CC(C)C)C(=O)N[C@@H](Cc1ccc(O)cc1)C(=O)N[C@@H](Cc1ccc(O)cc1)C(=O)O
REMARK SMILES IDX 18 1 17 2 15 3 16 4 14 5 12 6 13 7 10 9 11 10 8 12 9 13 7 16
REMARK SMILES IDX 6 17 5 18 4 19 3 20 2 21 1 22 19 23 20 24 21 25 22 26 23 27
REMARK SMILES IDX 24 28 25 29 26 30 27 31 28 32 29 34 30 35 31 36 32 37 37 38
REMARK SMILES IDX 33 39 36 40 34 41 35 42 38 44 39 45 40 46 41 48 42 49 43 50
REMARK SMILES IDX 44 51 49 52 45 53 48 54 46 55 47 56 50 58 51 59 52 60
REMARK H PARENT 14 8 11 11 9 14 9 15 28 33 35 43 40 47 47 57 52 61
ROOT
ATOM      1  O   UNL     1      -5.963  -2.261  -0.902  1.00  0.00    -0.272 OA
ATOM      2  C   UNL     1      -6.513  -2.927  -1.792  1.00  0.00     0.245 C 
ENDROOT
BRANCH   2   3
ATOM      3  C   UNL     1      -6.395  -4.471  -1.741  1.00  0.00     0.168 C 
ATOM      4  C   UNL     1      -4.981  -4.894  -1.357  1.00  0.00     0.041 C 
BRANCH   3   5
ATOM      5  N   UNL     1      -7.399  -5.134  -0.924  1.00  0.00    -0.342 N 
ATOM      6  C   UNL     1      -8.121  -6.212  -1.391  1.00  0.00     0.251 C 
ATOM      7  O   UNL     1      -8.006  -6.664  -2.525  1.00  0.00    -0.272 OA
ATOM      8  H   UNL     1      -7.608  -4.827   0.023  1.00  0.00     0.164 HD
BRANCH   6   9
ATOM      9  C   UNL     1      -9.019  -6.839  -0.312  1.00  0.00     0.219 C 
BRANCH   9  10
ATOM     10  O   UNL     1     -10.086  -7.619  -0.865  1.00  0.00    -0.382 OA
ATOM     11  H   UNL     1     -10.836  -7.451  -0.253  1.00  0.00     0.211 HD
ENDBRANCH   9  10
BRANCH   9  12
ATOM     12  C   UNL     1      -8.226  -7.658   0.740  1.00  0.00     0.089 C 
BRANCH  12  13
ATOM     13  N   UNL     1      -6.845  -7.848   0.240  1.00  0.00    -0.325 NA
ATOM     14  H   UNL     1      -6.213  -7.235   0.758  1.00  0.00     0.119 HD
ATOM     15  H   UNL     1      -6.796  -7.525  -0.729  1.00  0.00     0.119 HD
ENDBRANCH  12  13
BRANCH  12  16
ATOM     16  C   UNL     1      -8.196  -7.073   2.173  1.00  0.00     0.022 C 
BRANCH  16  17
ATOM     17  C   UNL     1      -8.320  -8.025   3.371  1.00  0.00     0.002 C 
BRANCH  17  18
ATOM     18  C   UNL     1      -9.145  -7.488   4.538  1.00  0.00     0.000 C 
BRANCH  18  19
ATOM     19  C   UNL     1      -9.262  -8.459   5.720  1.00  0.00    -0.000 C 
BRANCH  19  20
ATOM     20  C   UNL     1     -10.242  -8.034   6.817  1.00  0.00    -0.000 C 
BRANCH  20  21
ATOM     21  C   UNL     1      -9.553  -7.731   8.151  1.00  0.00    -0.003 C 
ATOM     22  C   UNL     1      -9.164  -6.265   8.254  1.00  0.00     0.004 C 
ENDBRANCH  20  21
ENDBRANCH  19  20
ENDBRANCH  18  19
ENDBRANCH  17  18
ENDBRANCH  16  17
ENDBRANCH  12  16
ENDBRANCH   9  12
ENDBRANCH   6   9
ENDBRANCH   3   5
ENDBRANCH   2   3
BRANCH   2  23
ATOM     23  N   UNL     1      -7.316  -2.298  -2.736  1.00  0.00    -0.332 N 
ATOM     24  C   UNL     1      -8.646  -2.747  -3.120  1.00  0.00     0.147 C 
BRANCH  23  25
ATOM     25  C   UNL     1      -6.894  -1.005  -3.340  1.00  0.00     0.174 C 
BRANCH  25  26
ATOM     26  C   UNL     1      -7.956   0.109  -3.185  1.00  0.00     0.038 C 
BRANCH  26  27
ATOM     27  C   UNL     1      -7.955   0.898  -1.857  1.00  0.00    -0.015 C 
ATOM     28  C   UNL     1      -8.764   0.202  -0.763  1.00  0.00     0.007 C 
ATOM     29  C   UNL     1      -6.554   1.238  -1.354  1.00  0.00     0.007 C 
ENDBRANCH  26  27
ENDBRANCH  25  26
BRANCH  25  30
ATOM     30  C   UNL     1      -6.432  -1.224  -4.799  1.00  0.00     0.243 C 
ATOM     31  O   UNL     1      -6.405  -0.306  -5.618  1.00  0.00    -0.273 OA
ATOM     32  N   UNL     1      -6.064  -2.506  -5.119  1.00  0.00    -0.342 N 
ATOM     33  H   UNL     1      -5.979  -3.179  -4.353  1.00  0.00     0.164 HD
BRANCH  32  34
ATOM     34  C   UNL     1      -5.626  -2.904  -6.459  1.00  0.00     0.175 C 
BRANCH  34  35
ATOM     35  C   UNL     1      -4.212  -3.503  -6.430  1.00  0.00     0.070 C 
BRANCH  35  36
ATOM     36  C   UNL     1      -3.277  -2.843  -7.418  1.00  0.00    -0.045 A 
ATOM     37  C   UNL     1      -2.140  -3.528  -7.874  1.00  0.00     0.007 A 
ATOM     38  C   UNL     1      -3.515  -1.539  -7.873  1.00  0.00     0.007 A 
ATOM     39  C   UNL     1      -1.264  -2.921  -8.775  1.00  0.00     0.046 A 
ATOM     40  C   UNL     1      -2.638  -0.931  -8.774  1.00  0.00     0.046 A 
ATOM     41  C   UNL     1      -1.520  -1.629  -9.218  1.00  0.00     0.115 A 
BRANCH  41  42
ATOM     42  O   UNL     1      -0.638  -1.072 -10.096  1.00  0.00    -0.508 OA
ATOM     43  H   UNL     1      -0.553  -0.127  -9.885  1.00  0.00     0.293 HD
ENDBRANCH  41  42
ENDBRANCH  35  36
ENDBRANCH  34  35
BRANCH  34  44
ATOM     44  C   UNL     1      -6.664  -3.900  -7.025  1.00  0.00     0.243 C 
ATOM     45  O   UNL     1      -7.814  -4.014  -6.611  1.00  0.00    -0.273 OA
ATOM     46  N   UNL     1      -6.142  -4.758  -7.970  1.00  0.00    -0.341 N 
ATOM     47  H   UNL     1      -5.152  -4.701  -8.196  1.00  0.00     0.164 HD
BRANCH  46  48
ATOM     48  C   UNL     1      -6.915  -5.831  -8.598  1.00  0.00     0.196 C 
BRANCH  48  49
ATOM     49  C   UNL     1      -6.808  -5.775 -10.131  1.00  0.00     0.072 C 
BRANCH  49  50
ATOM     50  C   UNL     1      -6.045  -4.563 -10.617  1.00  0.00    -0.045 A 
ATOM     51  C   UNL     1      -6.725  -3.360 -10.857  1.00  0.00     0.007 A 
ATOM     52  C   UNL     1      -4.666  -4.626 -10.853  1.00  0.00     0.007 A 
ATOM     53  C   UNL     1      -6.034  -2.239 -11.318  1.00  0.00     0.046 A 
ATOM     54  C   UNL     1      -3.975  -3.504 -11.316  1.00  0.00     0.046 A 
ATOM     55  C   UNL     1      -4.665  -2.319 -11.543  1.00  0.00     0.115 A 
BRANCH  55  56
ATOM     56  O   UNL     1      -4.028  -1.201 -11.995  1.00  0.00    -0.508 OA
ATOM     57  H   UNL     1      -3.483  -0.848 -11.275  1.00  0.00     0.293 HD
ENDBRANCH  55  56
ENDBRANCH  49  50
ENDBRANCH  48  49
BRANCH  48  58
ATOM     58  C   UNL     1      -6.393  -7.184  -8.095  1.00  0.00     0.326 C 
ATOM     59  O   UNL     1      -6.813  -8.293  -8.384  1.00  0.00    -0.250 OA
BRANCH  58  60
ATOM     60  O   UNL     1      -5.338  -7.076  -7.248  1.00  0.00    -0.480 OA
ATOM     61  H   UNL     1      -5.556  -7.713  -6.534  1.00  0.00     0.296 HD
ENDBRANCH  58  60
ENDBRANCH  48  58
ENDBRANCH  46  48
ENDBRANCH  34  44
ENDBRANCH  32  34
ENDBRANCH  25  30
ENDBRANCH  23  25
ENDBRANCH   2  23
TORSDOF 28
ENDMDL
MODEL 9
REMARK VINA RESULT:    -5.347      4.023      8.044
REMARK INTER + INTRA:         -19.475
REMARK INTER:                 -13.426
REMARK INTRA:                  -6.049
REMARK UNBOUND:                -6.157
REMARK SMILES CCCCCCC[C@H](N)[C@H](O)C(=O)N[C@H](C)C(=O)N(C)[C@H](CC(C)C)C(=O)N[C@@H](Cc1ccc(O)cc1)C(=O)N[C@@H](Cc1ccc(O)cc1)C(=O)O
REMARK SMILES IDX 18 1 17 2 15 3 16 4 14 5 12 6 13 7 10 9 11 10 8 12 9 13 7 16
REMARK SMILES IDX 6 17 5 18 4 19 3 20 2 21 1 22 19 23 20 24 21 25 22 26 23 27
REMARK SMILES IDX 24 28 25 29 26 30 27 31 28 32 29 34 30 35 31 36 32 37 37 38
REMARK SMILES IDX 33 39 36 40 34 41 35 42 38 44 39 45 40 46 41 48 42 49 43 50
REMARK SMILES IDX 44 51 49 52 45 53 48 54 46 55 47 56 50 58 51 59 52 60
REMARK H PARENT 14 8 11 11 9 14 9 15 28 33 35 43 40 47 47 57 52 61
ROOT
ATOM      1  O   UNL     1     -12.007  -4.964   2.800  1.00  0.00    -0.272 OA
ATOM      2  C   UNL     1     -11.924  -3.730   2.703  1.00  0.00     0.245 C 
ENDROOT
BRANCH   2   3
ATOM      3  C   UNL     1     -12.068  -3.086   1.301  1.00  0.00     0.168 C 
ATOM      4  C   UNL     1     -13.103  -1.967   1.323  1.00  0.00     0.041 C 
BRANCH   3   5
ATOM      5  N   UNL     1     -10.818  -2.656   0.695  1.00  0.00    -0.342 N 
ATOM      6  C   UNL     1     -10.019  -3.523  -0.020  1.00  0.00     0.251 C 
ATOM      7  O   UNL     1     -10.273  -4.715  -0.164  1.00  0.00    -0.272 OA
ATOM      8  H   UNL     1     -10.484  -1.698   0.776  1.00  0.00     0.164 HD
BRANCH   6   9
ATOM      9  C   UNL     1      -8.826  -2.820  -0.688  1.00  0.00     0.219 C 
BRANCH   9  10
ATOM     10  O   UNL     1      -8.215  -1.842   0.163  1.00  0.00    -0.382 OA
ATOM     11  H   UNL     1      -8.609  -2.024   1.044  1.00  0.00     0.211 HD
ENDBRANCH   9  10
BRANCH   9  12
ATOM     12  C   UNL     1      -7.767  -3.809  -1.239  1.00  0.00     0.089 C 
BRANCH  12  13
ATOM     13  N   UNL     1      -8.150  -4.183  -2.620  1.00  0.00    -0.325 NA
ATOM     14  H   UNL     1      -8.774  -3.468  -3.000  1.00  0.00     0.119 HD
ATOM     15  H   UNL     1      -8.711  -5.037  -2.588  1.00  0.00     0.119 HD
ENDBRANCH  12  13
BRANCH  12  16
ATOM     16  C   UNL     1      -6.300  -3.317  -1.210  1.00  0.00     0.022 C 
BRANCH  16  17
ATOM     17  C   UNL     1      -5.332  -3.916  -0.180  1.00  0.00     0.002 C 
BRANCH  17  18
ATOM     18  C   UNL     1      -5.986  -4.789   0.888  1.00  0.00     0.000 C 
BRANCH  18  19
ATOM     19  C   UNL     1      -5.075  -5.896   1.435  1.00  0.00    -0.000 C 
BRANCH  19  20
ATOM     20  C   UNL     1      -5.108  -6.074   2.955  1.00  0.00    -0.000 C 
BRANCH  20  21
ATOM     21  C   UNL     1      -5.717  -4.874   3.686  1.00  0.00    -0.003 C 
ATOM     22  C   UNL     1      -4.647  -3.874   4.095  1.00  0.00     0.004 C 
ENDBRANCH  20  21
ENDBRANCH  19  20
ENDBRANCH  18  19
ENDBRANCH  17  18
ENDBRANCH  16  17
ENDBRANCH  12  16
ENDBRANCH   9  12
ENDBRANCH   6   9
ENDBRANCH   3   5
ENDBRANCH   2   3
BRANCH   2  23
ATOM     23  N   UNL     1     -11.826  -2.947   3.848  1.00  0.00    -0.332 N 
ATOM     24  C   UNL     1     -12.960  -2.515   4.651  1.00  0.00     0.147 C 
BRANCH  23  25
ATOM     25  C   UNL     1     -10.492  -2.599   4.409  1.00  0.00     0.174 C 
BRANCH  25  26
ATOM     26  C   UNL     1     -10.557  -2.162   5.891  1.00  0.00     0.038 C 
BRANCH  26  27
ATOM     27  C   UNL     1      -9.724  -2.982   6.900  1.00  0.00    -0.015 C 
ATOM     28  C   UNL     1      -9.526  -4.431   6.454  1.00  0.00     0.007 C 
ATOM     29  C   UNL     1      -8.383  -2.339   7.246  1.00  0.00     0.007 C 
ENDBRANCH  26  27
ENDBRANCH  25  26
BRANCH  25  30
ATOM     30  C   UNL     1      -9.779  -1.580   3.491  1.00  0.00     0.243 C 
ATOM     31  O   UNL     1      -8.732  -1.854   2.905  1.00  0.00    -0.273 OA
ATOM     32  N   UNL     1     -10.385  -0.355   3.380  1.00  0.00    -0.342 N 
ATOM     33  H   UNL     1     -11.320  -0.252   3.782  1.00  0.00     0.164 HD
BRANCH  32  34
ATOM     34  C   UNL     1      -9.837   0.741   2.577  1.00  0.00     0.175 C 
BRANCH  34  35
ATOM     35  C   UNL     1     -10.672   0.975   1.308  1.00  0.00     0.070 C 
BRANCH  35  36
ATOM     36  C   UNL     1      -9.819   1.183   0.077  1.00  0.00    -0.045 A 
ATOM     37  C   UNL     1      -8.542   1.753   0.195  1.00  0.00     0.007 A 
ATOM     38  C   UNL     1     -10.294   0.833  -1.194  1.00  0.00     0.007 A 
ATOM     39  C   UNL     1      -7.753   1.961  -0.937  1.00  0.00     0.046 A 
ATOM     40  C   UNL     1      -9.505   1.042  -2.328  1.00  0.00     0.046 A 
ATOM     41  C   UNL     1      -8.240   1.604  -2.188  1.00  0.00     0.115 A 
BRANCH  41  42
ATOM     42  O   UNL     1      -7.439   1.826  -3.269  1.00  0.00    -0.508 OA
ATOM     43  H   UNL     1      -6.544   2.025  -2.949  1.00  0.00     0.293 HD
ENDBRANCH  41  42
ENDBRANCH  35  36
ENDBRANCH  34  35
BRANCH  34  44
ATOM     44  C   UNL     1      -9.773   2.002   3.467  1.00  0.00     0.243 C 
ATOM     45  O   UNL     1      -8.997   2.150   4.407  1.00  0.00    -0.273 OA
ATOM     46  N   UNL     1     -10.769   2.916   3.196  1.00  0.00    -0.341 N 
ATOM     47  H   UNL     1     -11.462   2.696   2.484  1.00  0.00     0.164 HD
BRANCH  46  48
ATOM     48  C   UNL     1     -10.954   4.156   3.954  1.00  0.00     0.196 C 
BRANCH  48  49
ATOM     49  C   UNL     1     -11.497   5.283   3.060  1.00  0.00     0.072 C 
BRANCH  49  50
ATOM     50  C   UNL     1     -11.243   5.034   1.590  1.00  0.00    -0.045 A 
ATOM     51  C   UNL     1     -10.036   5.446   1.009  1.00  0.00     0.007 A 
ATOM     52  C   UNL     1     -12.209   4.412   0.788  1.00  0.00     0.007 A 
ATOM     53  C   UNL     1      -9.796   5.233  -0.349  1.00  0.00     0.046 A 
ATOM     54  C   UNL     1     -11.969   4.200  -0.572  1.00  0.00     0.046 A 
ATOM     55  C   UNL     1     -10.764   4.611  -1.128  1.00  0.00     0.115 A 
BRANCH  55  56
ATOM     56  O   UNL     1     -10.491   4.423  -2.451  1.00  0.00    -0.508 OA
ATOM     57  H   UNL     1     -11.333   4.355  -2.930  1.00  0.00     0.293 HD
ENDBRANCH  55  56
ENDBRANCH  49  50
ENDBRANCH  48  49
BRANCH  48  58
ATOM     58  C   UNL     1     -11.933   3.896   5.106  1.00  0.00     0.326 C 
ATOM     59  O   UNL     1     -13.136   4.100   5.114  1.00  0.00    -0.250 OA
BRANCH  58  60
ATOM     60  O   UNL     1     -11.344   3.368   6.209  1.00  0.00    -0.480 OA
ATOM     61  H   UNL     1     -11.933   3.656   6.939  1.00  0.00     0.296 HD
ENDBRANCH  58  60
ENDBRANCH  48  58
ENDBRANCH  46  48
ENDBRANCH  34  44
ENDBRANCH  32  34
ENDBRANCH  25  30
ENDBRANCH  23  25
ENDBRANCH   2  23
TORSDOF 28
ENDMDL
MODEL 10
REMARK VINA RESULT:    -5.205      2.728      6.872
REMARK INTER + INTRA:         -19.121
REMARK INTER:                 -14.305
REMARK INTRA:                  -4.816
REMARK UNBOUND:                -6.157
REMARK SMILES CCCCCCC[C@H](N)[C@H](O)C(=O)N[C@H](C)C(=O)N(C)[C@H](CC(C)C)C(=O)N[C@@H](Cc1ccc(O)cc1)C(=O)N[C@@H](Cc1ccc(O)cc1)C(=O)O
REMARK SMILES IDX 18 1 17 2 15 3 16 4 14 5 12 6 13 7 10 9 11 10 8 12 9 13 7 16
REMARK SMILES IDX 6 17 5 18 4 19 3 20 2 21 1 22 19 23 20 24 21 25 22 26 23 27
REMARK SMILES IDX 24 28 25 29 26 30 27 31 28 32 29 34 30 35 31 36 32 37 37 38
REMARK SMILES IDX 33 39 36 40 34 41 35 42 38 44 39 45 40 46 41 48 42 49 43 50
REMARK SMILES IDX 44 51 49 52 45 53 48 54 46 55 47 56 50 58 51 59 52 60
REMARK H PARENT 14 8 11 11 9 14 9 15 28 33 35 43 40 47 47 57 52 61
ROOT
ATOM      1  O   UNL     1      -8.708  -2.997  -3.383  1.00  0.00    -0.272 OA
ATOM      2  C   UNL     1      -8.609  -1.785  -3.136  1.00  0.00     0.245 C 
ENDROOT
BRANCH   2   3
ATOM      3  C   UNL     1      -7.344  -1.032  -3.616  1.00  0.00     0.168 C 
ATOM      4  C   UNL     1      -6.503  -0.574  -2.430  1.00  0.00     0.041 C 
BRANCH   3   5
ATOM      5  N   UNL     1      -6.547  -1.743  -4.603  1.00  0.00    -0.342 N 
ATOM      6  C   UNL     1      -6.121  -1.140  -5.768  1.00  0.00     0.251 C 
ATOM      7  O   UNL     1      -6.412   0.011  -6.079  1.00  0.00    -0.272 OA
ATOM      8  H   UNL     1      -6.273  -2.714  -4.473  1.00  0.00     0.164 HD
BRANCH   6   9
ATOM      9  C   UNL     1      -5.177  -2.032  -6.590  1.00  0.00     0.219 C 
BRANCH   9  10
ATOM     10  O   UNL     1      -3.796  -1.712  -6.384  1.00  0.00    -0.382 OA
ATOM     11  H   UNL     1      -3.364  -2.009  -7.215  1.00  0.00     0.211 HD
ENDBRANCH   9  10
BRANCH   9  12
ATOM     12  C   UNL     1      -5.430  -3.547  -6.373  1.00  0.00     0.089 C 
BRANCH  12  13
ATOM     13  N   UNL     1      -6.277  -4.043  -7.482  1.00  0.00    -0.325 NA
ATOM     14  H   UNL     1      -5.828  -4.856  -7.910  1.00  0.00     0.119 HD
ATOM     15  H   UNL     1      -6.304  -3.335  -8.220  1.00  0.00     0.119 HD
ENDBRANCH  12  13
BRANCH  12  16
ATOM     16  C   UNL     1      -4.167  -4.431  -6.232  1.00  0.00     0.022 C 
BRANCH  16  17
ATOM     17  C   UNL     1      -3.551  -5.059  -7.490  1.00  0.00     0.002 C 
BRANCH  17  18
ATOM     18  C   UNL     1      -2.042  -4.872  -7.630  1.00  0.00     0.000 C 
BRANCH  18  19
ATOM     19  C   UNL     1      -1.210  -5.970  -6.954  1.00  0.00    -0.000 C 
BRANCH  19  20
ATOM     20  C   UNL     1      -1.681  -7.402  -7.226  1.00  0.00    -0.000 C 
BRANCH  20  21
ATOM     21  C   UNL     1      -1.720  -8.270  -5.966  1.00  0.00    -0.003 C 
ATOM     22  C   UNL     1      -2.686  -7.707  -4.934  1.00  0.00     0.004 C 
ENDBRANCH  20  21
ENDBRANCH  19  20
ENDBRANCH  18  19
ENDBRANCH  17  18
ENDBRANCH  16  17
ENDBRANCH  12  16
ENDBRANCH   9  12
ENDBRANCH   6   9
ENDBRANCH   3   5
ENDBRANCH   2   3
BRANCH   2  23
ATOM     23  N   UNL     1      -9.672  -1.106  -2.550  1.00  0.00    -0.332 N 
ATOM     24  C   UNL     1     -10.372   0.015  -3.160  1.00  0.00     0.147 C 
BRANCH  23  25
ATOM     25  C   UNL     1     -10.257  -1.589  -1.269  1.00  0.00     0.174 C 
BRANCH  25  26
ATOM     26  C   UNL     1     -11.446  -0.725  -0.787  1.00  0.00     0.038 C 
BRANCH  26  27
ATOM     27  C   UNL     1     -12.737  -1.472  -0.386  1.00  0.00    -0.015 C 
ATOM     28  C   UNL     1     -13.690  -1.667  -1.565  1.00  0.00     0.007 C 
ATOM     29  C   UNL     1     -12.477  -2.801   0.319  1.00  0.00     0.007 C 
ENDBRANCH  26  27
ENDBRANCH  25  26
BRANCH  25  30
ATOM     30  C   UNL     1      -9.146  -1.765  -0.209  1.00  0.00     0.243 C 
ATOM     31  O   UNL     1      -8.610  -0.802   0.336  1.00  0.00    -0.273 OA
ATOM     32  N   UNL     1      -8.797  -3.060   0.075  1.00  0.00    -0.342 N 
ATOM     33  H   UNL     1      -9.382  -3.805  -0.313  1.00  0.00     0.164 HD
BRANCH  32  34
ATOM     34  C   UNL     1      -7.746  -3.416   1.032  1.00  0.00     0.175 C 
BRANCH  34  35
ATOM     35  C   UNL     1      -8.277  -4.363   2.119  1.00  0.00     0.070 C 
BRANCH  35  36
ATOM     36  C   UNL     1      -9.157  -3.660   3.128  1.00  0.00    -0.045 A 
ATOM     37  C   UNL     1     -10.417  -4.188   3.449  1.00  0.00     0.007 A 
ATOM     38  C   UNL     1      -8.741  -2.469   3.737  1.00  0.00     0.007 A 
ATOM     39  C   UNL     1     -11.241  -3.539   4.368  1.00  0.00     0.046 A 
ATOM     40  C   UNL     1      -9.567  -1.818   4.657  1.00  0.00     0.046 A 
ATOM     41  C   UNL     1     -10.810  -2.360   4.965  1.00  0.00     0.115 A 
BRANCH  41  42
ATOM     42  O   UNL     1     -11.647  -1.756   5.856  1.00  0.00    -0.508 OA
ATOM     43  H   UNL     1     -11.773  -2.355   6.611  1.00  0.00     0.293 HD
ENDBRANCH  41  42
ENDBRANCH  35  36
ENDBRANCH  34  35
BRANCH  34  44
ATOM     44  C   UNL     1      -6.572  -4.041   0.244  1.00  0.00     0.243 C 
ATOM     45  O   UNL     1      -5.433  -3.585   0.219  1.00  0.00    -0.273 OA
ATOM     46  N   UNL     1      -6.949  -5.104  -0.549  1.00  0.00    -0.341 N 
ATOM     47  H   UNL     1      -7.929  -5.372  -0.584  1.00  0.00     0.164 HD
BRANCH  46  48
ATOM     48  C   UNL     1      -6.025  -5.814  -1.437  1.00  0.00     0.196 C 
BRANCH  48  49
ATOM     49  C   UNL     1      -6.296  -7.328  -1.433  1.00  0.00     0.072 C 
BRANCH  49  50
ATOM     50  C   UNL     1      -5.243  -8.105  -0.677  1.00  0.00    -0.045 A 
ATOM     51  C   UNL     1      -4.038  -8.447  -1.308  1.00  0.00     0.007 A 
ATOM     52  C   UNL     1      -5.458  -8.512   0.646  1.00  0.00     0.007 A 
ATOM     53  C   UNL     1      -3.065  -9.176  -0.625  1.00  0.00     0.046 A 
ATOM     54  C   UNL     1      -4.484  -9.243   1.330  1.00  0.00     0.046 A 
ATOM     55  C   UNL     1      -3.294  -9.568   0.688  1.00  0.00     0.115 A 
BRANCH  55  56
ATOM     56  O   UNL     1      -2.318 -10.280   1.320  1.00  0.00    -0.508 OA
ATOM     57  H   UNL     1      -2.637 -11.188   1.448  1.00  0.00     0.293 HD
ENDBRANCH  55  56
ENDBRANCH  49  50
ENDBRANCH  48  49
BRANCH  48  58
ATOM     58  C   UNL     1      -6.182  -5.266  -2.862  1.00  0.00     0.326 C 
ATOM     59  O   UNL     1      -6.658  -5.842  -3.827  1.00  0.00    -0.250 OA
BRANCH  58  60
ATOM     60  O   UNL     1      -5.739  -3.992  -3.004  1.00  0.00    -0.480 OA
ATOM     61  H   UNL     1      -4.799  -4.107  -3.262  1.00  0.00     0.296 HD
ENDBRANCH  58  60
ENDBRANCH  48  58
ENDBRANCH  46  48
ENDBRANCH  34  44
ENDBRANCH  32  34
ENDBRANCH  25  30
ENDBRANCH  23  25
ENDBRANCH   2  23
TORSDOF 28
ENDMDL
