MODEL 1
REMARK VINA RESULT:    -6.809      0.000      0.000
REMARK INTER + INTRA:         -21.982
REMARK INTER:                 -16.959
REMARK INTRA:                  -5.023
REMARK UNBOUND:                -5.023
REMARK SMILES CCCCCCC[C@H](N)[C@H](O)C(=O)N[C@H](C)C(=O)N(C)[C@H](CC(C)C)C(=O)N[C@@H](Cc1ccc(O)cc1)C(=O)N[C@@H](Cc1ccc(O)cc1)C(=O)O
REMARK SMILES IDX 18 1 17 2 15 3 16 4 14 5 12 6 13 7 10 9 11 10 8 12 9 13 7 16
REMARK SMILES IDX 6 17 5 18 4 19 3 20 2 21 1 22 19 23 20 24 21 25 22 26 23 27
REMARK SMILES IDX 24 28 25 29 26 30 27 31 28 32 29 34 30 35 31 36 32 37 37 38
REMARK SMILES IDX 33 39 36 40 34 41 35 42 38 44 39 45 40 46 41 48 42 49 43 50
REMARK SMILES IDX 44 51 49 52 45 53 48 54 46 55 47 56 50 58 51 59 52 60
REMARK H PARENT 14 8 11 11 9 14 9 15 28 33 35 43 40 47 47 57 52 61
ROOT
ATOM      1  O   UNL     1      -8.824  -7.606   6.018  1.00  0.00    -0.272 OA
ATOM      2  C   UNL     1      -9.686  -6.755   5.752  1.00  0.00     0.245 C 
ENDROOT
BRANCH   2   3
ATOM      3  C   UNL     1     -10.864  -6.560   6.739  1.00  0.00     0.168 C 
ATOM      4  C   UNL     1     -10.538  -7.169   8.098  1.00  0.00     0.041 C 
BRANCH   3   5
ATOM      5  N   UNL     1     -11.341  -5.191   6.858  1.00  0.00    -0.342 N 
ATOM      6  C   UNL     1     -10.558  -4.191   7.396  1.00  0.00     0.251 C 
ATOM      7  O   UNL     1      -9.434  -4.382   7.847  1.00  0.00    -0.272 OA
ATOM      8  H   UNL     1     -12.272  -4.919   6.550  1.00  0.00     0.164 HD
BRANCH   6   9
ATOM      9  C   UNL     1     -11.211  -2.804   7.291  1.00  0.00     0.219 C 
BRANCH   9  10
ATOM     10  O   UNL     1     -12.030  -2.666   6.124  1.00  0.00    -0.382 OA
ATOM     11  H   UNL     1     -11.384  -2.685   5.384  1.00  0.00     0.211 HD
ENDBRANCH   9  10
BRANCH   9  12
ATOM     12  C   UNL     1     -11.996  -2.402   8.566  1.00  0.00     0.089 C 
BRANCH  12  13
ATOM     13  N   UNL     1     -11.831  -3.474   9.575  1.00  0.00    -0.325 NA
ATOM     14  H   UNL     1     -12.579  -4.160   9.461  1.00  0.00     0.119 HD
ATOM     15  H   UNL     1     -11.972  -3.076  10.506  1.00  0.00     0.119 HD
ENDBRANCH  12  13
BRANCH  12  16
ATOM     16  C   UNL     1     -11.631  -1.030   9.184  1.00  0.00     0.022 C 
BRANCH  16  17
ATOM     17  C   UNL     1     -10.869  -0.007   8.331  1.00  0.00     0.002 C 
BRANCH  17  18
ATOM     18  C   UNL     1      -9.434   0.264   8.779  1.00  0.00     0.000 C 
BRANCH  18  19
ATOM     19  C   UNL     1      -8.672  -0.990   9.226  1.00  0.00    -0.000 C 
BRANCH  19  20
ATOM     20  C   UNL     1      -7.488  -0.732  10.163  1.00  0.00    -0.000 C 
BRANCH  20  21
ATOM     21  C   UNL     1      -7.654   0.537  11.003  1.00  0.00    -0.003 C 
ATOM     22  C   UNL     1      -6.313   1.201  11.274  1.00  0.00     0.004 C 
ENDBRANCH  20  21
ENDBRANCH  19  20
ENDBRANCH  18  19
ENDBRANCH  17  18
ENDBRANCH  16  17
ENDBRANCH  12  16
ENDBRANCH   9  12
ENDBRANCH   6   9
ENDBRANCH   3   5
ENDBRANCH   2   3
BRANCH   2  23
ATOM     23  N   UNL     1      -9.520  -5.916   4.655  1.00  0.00    -0.332 N 
ATOM     24  C   UNL     1      -8.359  -5.068   4.431  1.00  0.00     0.147 C 
BRANCH  23  25
ATOM     25  C   UNL     1     -10.506  -5.936   3.539  1.00  0.00     0.174 C 
BRANCH  25  26
ATOM     26  C   UNL     1      -9.915  -6.492   2.223  1.00  0.00     0.038 C 
BRANCH  26  27
ATOM     27  C   UNL     1     -10.682  -7.649   1.545  1.00  0.00    -0.015 C 
ATOM     28  C   UNL     1     -12.134  -7.286   1.235  1.00  0.00     0.007 C 
ATOM     29  C   UNL     1      -9.986  -8.191   0.298  1.00  0.00     0.007 C 
ENDBRANCH  26  27
ENDBRANCH  25  26
BRANCH  25  30
ATOM     30  C   UNL     1     -11.164  -4.545   3.386  1.00  0.00     0.243 C 
ATOM     31  O   UNL     1     -12.230  -4.267   3.933  1.00  0.00    -0.273 OA
ATOM     32  N   UNL     1     -10.485  -3.651   2.600  1.00  0.00    -0.342 N 
ATOM     33  H   UNL     1      -9.541  -3.906   2.298  1.00  0.00     0.164 HD
BRANCH  32  34
ATOM     34  C   UNL     1     -10.972  -2.297   2.321  1.00  0.00     0.175 C 
BRANCH  34  35
ATOM     35  C   UNL     1      -9.808  -1.322   2.085  1.00  0.00     0.070 C 
BRANCH  35  36
ATOM     36  C   UNL     1      -8.795  -1.337   3.207  1.00  0.00    -0.045 A 
ATOM     37  C   UNL     1      -7.431  -1.499   2.919  1.00  0.00     0.007 A 
ATOM     38  C   UNL     1      -9.200  -1.214   4.543  1.00  0.00     0.007 A 
ATOM     39  C   UNL     1      -6.490  -1.528   3.949  1.00  0.00     0.046 A 
ATOM     40  C   UNL     1      -8.259  -1.245   5.575  1.00  0.00     0.046 A 
ATOM     41  C   UNL     1      -6.911  -1.400   5.268  1.00  0.00     0.115 A 
BRANCH  41  42
ATOM     42  O   UNL     1      -5.960  -1.437   6.244  1.00  0.00    -0.508 OA
ATOM     43  H   UNL     1      -5.729  -0.523   6.478  1.00  0.00     0.293 HD
ENDBRANCH  41  42
ENDBRANCH  35  36
ENDBRANCH  34  35
BRANCH  34  44
ATOM     44  C   UNL     1     -11.920  -2.370   1.103  1.00  0.00     0.243 C 
ATOM     45  O   UNL     1     -13.144  -2.297   1.171  1.00  0.00    -0.273 OA
ATOM     46  N   UNL     1     -11.273  -2.661  -0.079  1.00  0.00    -0.341 N 
ATOM     47  H   UNL     1     -10.270  -2.829  -0.065  1.00  0.00     0.164 HD
BRANCH  46  48
ATOM     48  C   UNL     1     -11.969  -2.847  -1.354  1.00  0.00     0.196 C 
BRANCH  48  49
ATOM     49  C   UNL     1     -12.903  -4.069  -1.309  1.00  0.00     0.072 C 
BRANCH  49  50
ATOM     50  C   UNL     1     -12.291  -5.293  -1.952  1.00  0.00    -0.045 A 
ATOM     51  C   UNL     1     -10.943  -5.279  -2.340  1.00  0.00     0.007 A 
ATOM     52  C   UNL     1     -13.056  -6.442  -2.188  1.00  0.00     0.007 A 
ATOM     53  C   UNL     1     -10.371  -6.397  -2.946  1.00  0.00     0.046 A 
ATOM     54  C   UNL     1     -12.484  -7.562  -2.796  1.00  0.00     0.046 A 
ATOM     55  C   UNL     1     -11.145  -7.530  -3.169  1.00  0.00     0.115 A 
BRANCH  55  56
ATOM     56  O   UNL     1     -10.548  -8.601  -3.765  1.00  0.00    -0.508 OA
ATOM     57  H   UNL     1     -10.930  -8.710  -4.651  1.00  0.00     0.293 HD
ENDBRANCH  55  56
ENDBRANCH  49  50
ENDBRANCH  48  49
BRANCH  48  58
ATOM     58  C   UNL     1     -12.787  -1.586  -1.666  1.00  0.00     0.326 C 
ATOM     59  O   UNL     1     -12.359  -0.468  -1.904  1.00  0.00    -0.250 OA
BRANCH  58  60
ATOM     60  O   UNL     1     -14.127  -1.799  -1.677  1.00  0.00    -0.480 OA
ATOM     61  H   UNL     1     -14.202  -2.773  -1.583  1.00  0.00     0.296 HD
ENDBRANCH  58  60
ENDBRANCH  48  58
ENDBRANCH  46  48
ENDBRANCH  34  44
ENDBRANCH  32  34
ENDBRANCH  25  30
ENDBRANCH  23  25
ENDBRANCH   2  23
TORSDOF 28
ENDMDL
MODEL 2
REMARK VINA RESULT:    -6.790      2.218      4.683
REMARK INTER + INTRA:         -21.934
REMARK INTER:                 -16.017
REMARK INTRA:                  -5.917
REMARK UNBOUND:                -5.023
REMARK SMILES CCCCCCC[C@H](N)[C@H](O)C(=O)N[C@H](C)C(=O)N(C)[C@H](CC(C)C)C(=O)N[C@@H](Cc1ccc(O)cc1)C(=O)N[C@@H](Cc1ccc(O)cc1)C(=O)O
REMARK SMILES IDX 18 1 17 2 15 3 16 4 14 5 12 6 13 7 10 9 11 10 8 12 9 13 7 16
REMARK SMILES IDX 6 17 5 18 4 19 3 20 2 21 1 22 19 23 20 24 21 25 22 26 23 27
REMARK SMILES IDX 24 28 25 29 26 30 27 31 28 32 29 34 30 35 31 36 32 37 37 38
REMARK SMILES IDX 33 39 36 40 34 41 35 42 38 44 39 45 40 46 41 48 42 49 43 50
REMARK SMILES IDX 44 51 49 52 45 53 48 54 46 55 47 56 50 58 51 59 52 60
REMARK H PARENT 14 8 11 11 9 14 9 15 28 33 35 43 40 47 47 57 52 61
ROOT
ATOM      1  O   UNL     1      -5.666  -5.499   2.577  1.00  0.00    -0.272 OA
ATOM      2  C   UNL     1      -6.873  -5.466   2.295  1.00  0.00     0.245 C 
ENDROOT
BRANCH   2   3
ATOM      3  C   UNL     1      -7.349  -4.492   1.188  1.00  0.00     0.168 C 
ATOM      4  C   UNL     1      -8.356  -5.171   0.265  1.00  0.00     0.041 C 
BRANCH   3   5
ATOM      5  N   UNL     1      -7.836  -3.209   1.671  1.00  0.00    -0.342 N 
ATOM      6  C   UNL     1      -6.986  -2.147   1.899  1.00  0.00     0.251 C 
ATOM      7  O   UNL     1      -5.770  -2.211   1.756  1.00  0.00    -0.272 OA
ATOM      8  H   UNL     1      -8.822  -3.046   1.859  1.00  0.00     0.164 HD
BRANCH   6   9
ATOM      9  C   UNL     1      -7.734  -0.856   2.266  1.00  0.00     0.219 C 
BRANCH   9  10
ATOM     10  O   UNL     1      -8.774  -0.535   1.334  1.00  0.00    -0.382 OA
ATOM     11  H   UNL     1      -8.477   0.315   0.941  1.00  0.00     0.211 HD
ENDBRANCH   9  10
BRANCH   9  12
ATOM     12  C   UNL     1      -8.279  -0.860   3.719  1.00  0.00     0.089 C 
BRANCH  12  13
ATOM     13  N   UNL     1      -9.494  -1.705   3.760  1.00  0.00    -0.325 NA
ATOM     14  H   UNL     1     -10.170  -1.354   3.078  1.00  0.00     0.119 HD
ATOM     15  H   UNL     1      -9.948  -1.589   4.669  1.00  0.00     0.119 HD
ENDBRANCH  12  13
BRANCH  12  16
ATOM     16  C   UNL     1      -7.283  -1.308   4.815  1.00  0.00     0.022 C 
BRANCH  16  17
ATOM     17  C   UNL     1      -7.821  -1.700   6.198  1.00  0.00     0.002 C 
BRANCH  17  18
ATOM     18  C   UNL     1      -8.850  -0.738   6.786  1.00  0.00     0.000 C 
BRANCH  18  19
ATOM     19  C   UNL     1      -9.215  -1.029   8.248  1.00  0.00    -0.000 C 
BRANCH  19  20
ATOM     20  C   UNL     1     -10.033   0.062   8.944  1.00  0.00    -0.000 C 
BRANCH  20  21
ATOM     21  C   UNL     1     -11.532  -0.247   8.986  1.00  0.00    -0.003 C 
ATOM     22  C   UNL     1     -11.853  -1.292  10.043  1.00  0.00     0.004 C 
ENDBRANCH  20  21
ENDBRANCH  19  20
ENDBRANCH  18  19
ENDBRANCH  17  18
ENDBRANCH  16  17
ENDBRANCH  12  16
ENDBRANCH   9  12
ENDBRANCH   6   9
ENDBRANCH   3   5
ENDBRANCH   2   3
BRANCH   2  23
ATOM     23  N   UNL     1      -7.749  -6.375   2.879  1.00  0.00    -0.332 N 
ATOM     24  C   UNL     1      -7.760  -7.804   2.605  1.00  0.00     0.147 C 
BRANCH  23  25
ATOM     25  C   UNL     1      -8.680  -5.936   3.955  1.00  0.00     0.174 C 
BRANCH  25  26
ATOM     26  C   UNL     1      -8.602  -6.826   5.218  1.00  0.00     0.038 C 
BRANCH  26  27
ATOM     27  C   UNL     1      -9.359  -6.331   6.470  1.00  0.00    -0.015 C 
ATOM     28  C   UNL     1      -9.684  -7.465   7.443  1.00  0.00     0.007 C 
ATOM     29  C   UNL     1      -8.653  -5.188   7.194  1.00  0.00     0.007 C 
ENDBRANCH  26  27
ENDBRANCH  25  26
BRANCH  25  30
ATOM     30  C   UNL     1     -10.110  -5.780   3.391  1.00  0.00     0.243 C 
ATOM     31  O   UNL     1     -10.789  -6.752   3.064  1.00  0.00    -0.273 OA
ATOM     32  N   UNL     1     -10.566  -4.492   3.275  1.00  0.00    -0.342 N 
ATOM     33  H   UNL     1     -10.002  -3.750   3.698  1.00  0.00     0.164 HD
BRANCH  32  34
ATOM     34  C   UNL     1     -11.885  -4.153   2.736  1.00  0.00     0.175 C 
BRANCH  34  35
ATOM     35  C   UNL     1     -12.721  -3.365   3.756  1.00  0.00     0.070 C 
BRANCH  35  36
ATOM     36  C   UNL     1     -12.629  -3.936   5.153  1.00  0.00    -0.045 A 
ATOM     37  C   UNL     1     -13.180  -5.195   5.434  1.00  0.00     0.007 A 
ATOM     38  C   UNL     1     -12.018  -3.213   6.186  1.00  0.00     0.007 A 
ATOM     39  C   UNL     1     -13.112  -5.725   6.723  1.00  0.00     0.046 A 
ATOM     40  C   UNL     1     -11.951  -3.742   7.478  1.00  0.00     0.046 A 
ATOM     41  C   UNL     1     -12.498  -4.995   7.734  1.00  0.00     0.115 A 
BRANCH  41  42
ATOM     42  O   UNL     1     -12.456  -5.546   8.980  1.00  0.00    -0.508 OA
ATOM     43  H   UNL     1     -11.760  -6.224   8.990  1.00  0.00     0.293 HD
ENDBRANCH  41  42
ENDBRANCH  35  36
ENDBRANCH  34  35
BRANCH  34  44
ATOM     44  C   UNL     1     -11.678  -3.362   1.424  1.00  0.00     0.243 C 
ATOM     45  O   UNL     1     -10.701  -2.658   1.186  1.00  0.00    -0.273 OA
ATOM     46  N   UNL     1     -12.765  -3.411   0.577  1.00  0.00    -0.341 N 
ATOM     47  H   UNL     1     -13.598  -3.913   0.871  1.00  0.00     0.164 HD
BRANCH  46  48
ATOM     48  C   UNL     1     -12.828  -2.684  -0.693  1.00  0.00     0.196 C 
BRANCH  48  49
ATOM     49  C   UNL     1     -13.725  -3.411  -1.710  1.00  0.00     0.072 C 
BRANCH  49  50
ATOM     50  C   UNL     1     -13.138  -4.728  -2.165  1.00  0.00    -0.045 A 
ATOM     51  C   UNL     1     -12.604  -5.619  -1.223  1.00  0.00     0.007 A 
ATOM     52  C   UNL     1     -13.099  -5.069  -3.523  1.00  0.00     0.007 A 
ATOM     53  C   UNL     1     -12.048  -6.831  -1.632  1.00  0.00     0.046 A 
ATOM     54  C   UNL     1     -12.541  -6.282  -3.934  1.00  0.00     0.046 A 
ATOM     55  C   UNL     1     -12.021  -7.154  -2.983  1.00  0.00     0.115 A 
BRANCH  55  56
ATOM     56  O   UNL     1     -11.467  -8.347  -3.342  1.00  0.00    -0.508 OA
ATOM     57  H   UNL     1     -10.589  -8.412  -2.933  1.00  0.00     0.293 HD
ENDBRANCH  55  56
ENDBRANCH  49  50
ENDBRANCH  48  49
BRANCH  48  58
ATOM     58  C   UNL     1     -13.381  -1.275  -0.436  1.00  0.00     0.326 C 
ATOM     59  O   UNL     1     -13.438  -0.688   0.633  1.00  0.00    -0.250 OA
BRANCH  58  60
ATOM     60  O   UNL     1     -13.828  -0.656  -1.557  1.00  0.00    -0.480 OA
ATOM     61  H   UNL     1     -14.791  -0.849  -1.552  1.00  0.00     0.296 HD
ENDBRANCH  58  60
ENDBRANCH  48  58
ENDBRANCH  46  48
ENDBRANCH  34  44
ENDBRANCH  32  34
ENDBRANCH  25  30
ENDBRANCH  23  25
ENDBRANCH   2  23
TORSDOF 28
ENDMDL
MODEL 3
REMARK VINA RESULT:    -6.699      2.388      8.191
REMARK INTER + INTRA:         -21.709
REMARK INTER:                 -15.524
REMARK INTRA:                  -6.185
REMARK UNBOUND:                -5.023
REMARK SMILES CCCCCCC[C@H](N)[C@H](O)C(=O)N[C@H](C)C(=O)N(C)[C@H](CC(C)C)C(=O)N[C@@H](Cc1ccc(O)cc1)C(=O)N[C@@H](Cc1ccc(O)cc1)C(=O)O
REMARK SMILES IDX 18 1 17 2 15 3 16 4 14 5 12 6 13 7 10 9 11 10 8 12 9 13 7 16
REMARK SMILES IDX 6 17 5 18 4 19 3 20 2 21 1 22 19 23 20 24 21 25 22 26 23 27
REMARK SMILES IDX 24 28 25 29 26 30 27 31 28 32 29 34 30 35 31 36 32 37 37 38
REMARK SMILES IDX 33 39 36 40 34 41 35 42 38 44 39 45 40 46 41 48 42 49 43 50
REMARK SMILES IDX 44 51 49 52 45 53 48 54 46 55 47 56 50 58 51 59 52 60
REMARK H PARENT 14 8 11 11 9 14 9 15 28 33 35 43 40 47 47 57 52 61
ROOT
ATOM      1  O   UNL     1      -9.718   0.379   2.474  1.00  0.00    -0.272 OA
ATOM      2  C   UNL     1      -9.269  -0.773   2.384  1.00  0.00     0.245 C 
ENDROOT
BRANCH   2   3
ATOM      3  C   UNL     1      -9.683  -1.637   1.167  1.00  0.00     0.168 C 
ATOM      4  C   UNL     1      -8.658  -2.736   0.909  1.00  0.00     0.041 C 
BRANCH   3   5
ATOM      5  N   UNL     1     -11.039  -2.163   1.224  1.00  0.00    -0.342 N 
ATOM      6  C   UNL     1     -11.996  -1.810   0.296  1.00  0.00     0.251 C 
ATOM      7  O   UNL     1     -11.797  -1.007  -0.609  1.00  0.00    -0.272 OA
ATOM      8  H   UNL     1     -11.332  -2.811   1.951  1.00  0.00     0.164 HD
BRANCH   6   9
ATOM      9  C   UNL     1     -13.307  -2.594   0.468  1.00  0.00     0.219 C 
BRANCH   9  10
ATOM     10  O   UNL     1     -14.377  -1.779   0.964  1.00  0.00    -0.382 OA
ATOM     11  H   UNL     1     -15.007  -1.743   0.211  1.00  0.00     0.211 HD
ENDBRANCH   9  10
BRANCH   9  12
ATOM     12  C   UNL     1     -13.739  -3.347  -0.817  1.00  0.00     0.089 C 
BRANCH  12  13
ATOM     13  N   UNL     1     -14.155  -2.348  -1.827  1.00  0.00    -0.325 NA
ATOM     14  H   UNL     1     -13.620  -1.489  -1.690  1.00  0.00     0.119 HD
ATOM     15  H   UNL     1     -15.129  -2.087  -1.653  1.00  0.00     0.119 HD
ENDBRANCH  12  13
BRANCH  12  16
ATOM     16  C   UNL     1     -12.690  -4.311  -1.423  1.00  0.00     0.022 C 
BRANCH  16  17
ATOM     17  C   UNL     1     -12.756  -4.641  -2.920  1.00  0.00     0.002 C 
BRANCH  17  18
ATOM     18  C   UNL     1     -12.759  -6.132  -3.251  1.00  0.00     0.000 C 
BRANCH  18  19
ATOM     19  C   UNL     1     -12.157  -7.017  -2.152  1.00  0.00    -0.000 C 
BRANCH  19  20
ATOM     20  C   UNL     1     -11.674  -8.394  -2.618  1.00  0.00    -0.000 C 
BRANCH  20  21
ATOM     21  C   UNL     1     -10.156  -8.564  -2.514  1.00  0.00    -0.003 C 
ATOM     22  C   UNL     1      -9.479  -8.335  -3.857  1.00  0.00     0.004 C 
ENDBRANCH  20  21
ENDBRANCH  19  20
ENDBRANCH  18  19
ENDBRANCH  17  18
ENDBRANCH  16  17
ENDBRANCH  12  16
ENDBRANCH   9  12
ENDBRANCH   6   9
ENDBRANCH   3   5
ENDBRANCH   2   3
BRANCH   2  23
ATOM     23  N   UNL     1      -8.319  -1.222   3.295  1.00  0.00    -0.332 N 
ATOM     24  C   UNL     1      -6.880  -1.118   3.107  1.00  0.00     0.147 C 
BRANCH  23  25
ATOM     25  C   UNL     1      -8.741  -1.743   4.625  1.00  0.00     0.174 C 
BRANCH  25  26
ATOM     26  C   UNL     1      -7.704  -1.463   5.737  1.00  0.00     0.038 C 
BRANCH  26  27
ATOM     27  C   UNL     1      -8.239  -1.354   7.183  1.00  0.00    -0.015 C 
ATOM     28  C   UNL     1      -9.596  -0.653   7.252  1.00  0.00     0.007 C 
ATOM     29  C   UNL     1      -8.289  -2.693   7.914  1.00  0.00     0.007 C 
ENDBRANCH  26  27
ENDBRANCH  25  26
BRANCH  25  30
ATOM     30  C   UNL     1      -9.144  -3.231   4.510  1.00  0.00     0.243 C 
ATOM     31  O   UNL     1      -8.305  -4.126   4.415  1.00  0.00    -0.273 OA
ATOM     32  N   UNL     1     -10.492  -3.483   4.516  1.00  0.00    -0.342 N 
ATOM     33  H   UNL     1     -11.118  -2.705   4.741  1.00  0.00     0.164 HD
BRANCH  32  34
ATOM     34  C   UNL     1     -11.056  -4.829   4.390  1.00  0.00     0.175 C 
BRANCH  34  35
ATOM     35  C   UNL     1     -12.457  -4.908   5.015  1.00  0.00     0.070 C 
BRANCH  35  36
ATOM     36  C   UNL     1     -12.430  -4.822   6.525  1.00  0.00    -0.045 A 
ATOM     37  C   UNL     1     -12.757  -5.946   7.298  1.00  0.00     0.007 A 
ATOM     38  C   UNL     1     -12.103  -3.622   7.170  1.00  0.00     0.007 A 
ATOM     39  C   UNL     1     -12.748  -5.872   8.691  1.00  0.00     0.046 A 
ATOM     40  C   UNL     1     -12.094  -3.547   8.565  1.00  0.00     0.046 A 
ATOM     41  C   UNL     1     -12.416  -4.674   9.313  1.00  0.00     0.115 A 
BRANCH  41  42
ATOM     42  O   UNL     1     -12.422  -4.643  10.676  1.00  0.00    -0.508 OA
ATOM     43  H   UNL     1     -12.166  -3.750  10.962  1.00  0.00     0.293 HD
ENDBRANCH  41  42
ENDBRANCH  35  36
ENDBRANCH  34  35
BRANCH  34  44
ATOM     44  C   UNL     1     -11.071  -5.203   2.890  1.00  0.00     0.243 C 
ATOM     45  O   UNL     1     -11.956  -4.879   2.103  1.00  0.00    -0.273 OA
ATOM     46  N   UNL     1     -10.052  -6.058   2.528  1.00  0.00    -0.341 N 
ATOM     47  H   UNL     1      -9.410  -6.393   3.242  1.00  0.00     0.164 HD
BRANCH  46  48
ATOM     48  C   UNL     1      -9.900  -6.604   1.177  1.00  0.00     0.196 C 
BRANCH  48  49
ATOM     49  C   UNL     1      -8.418  -6.718   0.783  1.00  0.00     0.072 C 
BRANCH  49  50
ATOM     50  C   UNL     1      -8.139  -6.164  -0.596  1.00  0.00    -0.045 A 
ATOM     51  C   UNL     1      -9.100  -5.371  -1.238  1.00  0.00     0.007 A 
ATOM     52  C   UNL     1      -6.937  -6.448  -1.257  1.00  0.00     0.007 A 
ATOM     53  C   UNL     1      -8.859  -4.865  -2.516  1.00  0.00     0.046 A 
ATOM     54  C   UNL     1      -6.696  -5.943  -2.536  1.00  0.00     0.046 A 
ATOM     55  C   UNL     1      -7.659  -5.154  -3.155  1.00  0.00     0.115 A 
BRANCH  55  56
ATOM     56  O   UNL     1      -7.463  -4.642  -4.403  1.00  0.00    -0.508 OA
ATOM     57  H   UNL     1      -8.261  -4.806  -4.930  1.00  0.00     0.293 HD
ENDBRANCH  55  56
ENDBRANCH  49  50
ENDBRANCH  48  49
BRANCH  48  58
ATOM     58  C   UNL     1     -10.556  -7.991   1.122  1.00  0.00     0.326 C 
ATOM     59  O   UNL     1     -11.749  -8.242   1.068  1.00  0.00    -0.250 OA
BRANCH  58  60
ATOM     60  O   UNL     1      -9.663  -9.012   1.123  1.00  0.00    -0.480 OA
ATOM     61  H   UNL     1      -8.814  -8.569   1.338  1.00  0.00     0.296 HD
ENDBRANCH  58  60
ENDBRANCH  48  58
ENDBRANCH  46  48
ENDBRANCH  34  44
ENDBRANCH  32  34
ENDBRANCH  25  30
ENDBRANCH  23  25
ENDBRANCH   2  23
TORSDOF 28
ENDMDL
MODEL 4
REMARK VINA RESULT:    -6.631      2.083      2.877
REMARK INTER + INTRA:         -21.538
REMARK INTER:                 -17.568
REMARK INTRA:                  -3.970
REMARK UNBOUND:                -5.023
REMARK SMILES CCCCCCC[C@H](N)[C@H](O)C(=O)N[C@H](C)C(=O)N(C)[C@H](CC(C)C)C(=O)N[C@@H](Cc1ccc(O)cc1)C(=O)N[C@@H](Cc1ccc(O)cc1)C(=O)O
REMARK SMILES IDX 18 1 17 2 15 3 16 4 14 5 12 6 13 7 10 9 11 10 8 12 9 13 7 16
REMARK SMILES IDX 6 17 5 18 4 19 3 20 2 21 1 22 19 23 20 24 21 25 22 26 23 27
REMARK SMILES IDX 24 28 25 29 26 30 27 31 28 32 29 34 30 35 31 36 32 37 37 38
REMARK SMILES IDX 33 39 36 40 34 41 35 42 38 44 39 45 40 46 41 48 42 49 43 50
REMARK SMILES IDX 44 51 49 52 45 53 48 54 46 55 47 56 50 58 51 59 52 60
REMARK H PARENT 14 8 11 11 9 14 9 15 28 33 35 43 40 47 47 57 52 61
ROOT
ATOM      1  O   UNL     1     -13.676  -5.525   5.633  1.00  0.00    -0.272 OA
ATOM      2  C   UNL     1     -12.633  -5.261   6.250  1.00  0.00     0.245 C 
ENDROOT
BRANCH   2   3
ATOM      3  C   UNL     1     -12.302  -6.074   7.526  1.00  0.00     0.168 C 
ATOM      4  C   UNL     1     -10.794  -6.178   7.725  1.00  0.00     0.041 C 
BRANCH   3   5
ATOM      5  N   UNL     1     -12.978  -5.620   8.732  1.00  0.00    -0.342 N 
ATOM      6  C   UNL     1     -13.292  -6.484   9.759  1.00  0.00     0.251 C 
ATOM      7  O   UNL     1     -13.070  -7.690   9.721  1.00  0.00    -0.272 OA
ATOM      8  H   UNL     1     -13.245  -4.647   8.863  1.00  0.00     0.164 HD
BRANCH   6   9
ATOM      9  C   UNL     1     -13.871  -5.763  10.987  1.00  0.00     0.219 C 
BRANCH   9  10
ATOM     10  O   UNL     1     -14.603  -6.642  11.850  1.00  0.00    -0.382 OA
ATOM     11  H   UNL     1     -14.555  -6.199  12.725  1.00  0.00     0.211 HD
ENDBRANCH   9  10
BRANCH   9  12
ATOM     12  C   UNL     1     -12.805  -4.969  11.785  1.00  0.00     0.089 C 
BRANCH  12  13
ATOM     13  N   UNL     1     -11.466  -5.484  11.417  1.00  0.00    -0.325 NA
ATOM     14  H   UNL     1     -11.310  -5.330  10.419  1.00  0.00     0.119 HD
ATOM     15  H   UNL     1     -11.458  -6.500  11.535  1.00  0.00     0.119 HD
ENDBRANCH  12  13
BRANCH  12  16
ATOM     16  C   UNL     1     -12.845  -3.430  11.626  1.00  0.00     0.022 C 
BRANCH  16  17
ATOM     17  C   UNL     1     -11.598  -2.700  11.109  1.00  0.00     0.002 C 
BRANCH  17  18
ATOM     18  C   UNL     1     -11.717  -2.146   9.691  1.00  0.00     0.000 C 
BRANCH  18  19
ATOM     19  C   UNL     1     -11.837  -0.617   9.626  1.00  0.00    -0.000 C 
BRANCH  19  20
ATOM     20  C   UNL     1     -10.703   0.093   8.881  1.00  0.00    -0.000 C 
BRANCH  20  21
ATOM     21  C   UNL     1      -9.356  -0.622   9.018  1.00  0.00    -0.003 C 
ATOM     22  C   UNL     1      -8.511  -0.007  10.124  1.00  0.00     0.004 C 
ENDBRANCH  20  21
ENDBRANCH  19  20
ENDBRANCH  18  19
ENDBRANCH  17  18
ENDBRANCH  16  17
ENDBRANCH  12  16
ENDBRANCH   9  12
ENDBRANCH   6   9
ENDBRANCH   3   5
ENDBRANCH   2   3
BRANCH   2  23
ATOM     23  N   UNL     1     -11.731  -4.340   5.728  1.00  0.00    -0.332 N 
ATOM     24  C   UNL     1     -11.194  -3.204   6.462  1.00  0.00     0.147 C 
BRANCH  23  25
ATOM     25  C   UNL     1     -11.144  -4.547   4.376  1.00  0.00     0.174 C 
BRANCH  25  26
ATOM     26  C   UNL     1      -9.644  -4.922   4.421  1.00  0.00     0.038 C 
BRANCH  26  27
ATOM     27  C   UNL     1      -9.238  -6.267   3.778  1.00  0.00    -0.015 C 
ATOM     28  C   UNL     1      -8.951  -7.349   4.819  1.00  0.00     0.007 C 
ATOM     29  C   UNL     1     -10.239  -6.771   2.742  1.00  0.00     0.007 C 
ENDBRANCH  26  27
ENDBRANCH  25  26
BRANCH  25  30
ATOM     30  C   UNL     1     -11.454  -3.334   3.470  1.00  0.00     0.243 C 
ATOM     31  O   UNL     1     -12.608  -3.003   3.199  1.00  0.00    -0.273 OA
ATOM     32  N   UNL     1     -10.362  -2.659   2.987  1.00  0.00    -0.342 N 
ATOM     33  H   UNL     1      -9.446  -2.906   3.369  1.00  0.00     0.164 HD
BRANCH  32  34
ATOM     34  C   UNL     1     -10.465  -1.503   2.093  1.00  0.00     0.175 C 
BRANCH  34  35
ATOM     35  C   UNL     1      -9.251  -0.573   2.240  1.00  0.00     0.070 C 
BRANCH  35  36
ATOM     36  C   UNL     1      -8.385  -0.925   3.429  1.00  0.00    -0.045 A 
ATOM     37  C   UNL     1      -8.914  -0.858   4.727  1.00  0.00     0.007 A 
ATOM     38  C   UNL     1      -7.046  -1.299   3.257  1.00  0.00     0.007 A 
ATOM     39  C   UNL     1      -8.119  -1.168   5.830  1.00  0.00     0.046 A 
ATOM     40  C   UNL     1      -6.249  -1.608   4.362  1.00  0.00     0.046 A 
ATOM     41  C   UNL     1      -6.794  -1.541   5.639  1.00  0.00     0.115 A 
BRANCH  41  42
ATOM     42  O   UNL     1      -6.051  -1.833   6.744  1.00  0.00    -0.508 OA
ATOM     43  H   UNL     1      -6.161  -2.777   6.945  1.00  0.00     0.293 HD
ENDBRANCH  41  42
ENDBRANCH  35  36
ENDBRANCH  34  35
BRANCH  34  44
ATOM     44  C   UNL     1     -10.619  -2.027   0.647  1.00  0.00     0.243 C 
ATOM     45  O   UNL     1      -9.680  -2.267  -0.107  1.00  0.00    -0.273 OA
ATOM     46  N   UNL     1     -11.928  -2.083   0.220  1.00  0.00    -0.341 N 
ATOM     47  H   UNL     1     -12.665  -1.763   0.843  1.00  0.00     0.164 HD
BRANCH  46  48
ATOM     48  C   UNL     1     -12.318  -2.484  -1.134  1.00  0.00     0.196 C 
BRANCH  48  49
ATOM     49  C   UNL     1     -13.390  -3.586  -1.105  1.00  0.00     0.072 C 
BRANCH  49  50
ATOM     50  C   UNL     1     -12.911  -4.880  -1.723  1.00  0.00    -0.045 A 
ATOM     51  C   UNL     1     -12.387  -5.893  -0.906  1.00  0.00     0.007 A 
ATOM     52  C   UNL     1     -12.962  -5.080  -3.109  1.00  0.00     0.007 A 
ATOM     53  C   UNL     1     -11.930  -7.086  -1.466  1.00  0.00     0.046 A 
ATOM     54  C   UNL     1     -12.503  -6.274  -3.670  1.00  0.00     0.046 A 
ATOM     55  C   UNL     1     -11.991  -7.268  -2.842  1.00  0.00     0.115 A 
BRANCH  55  56
ATOM     56  O   UNL     1     -11.533  -8.447  -3.350  1.00  0.00    -0.508 OA
ATOM     57  H   UNL     1     -12.273  -9.073  -3.387  1.00  0.00     0.293 HD
ENDBRANCH  55  56
ENDBRANCH  49  50
ENDBRANCH  48  49
BRANCH  48  58
ATOM     58  C   UNL     1     -12.860  -1.258  -1.881  1.00  0.00     0.326 C 
ATOM     59  O   UNL     1     -13.065  -0.145  -1.424  1.00  0.00    -0.250 OA
BRANCH  58  60
ATOM     60  O   UNL     1     -13.109  -1.490  -3.195  1.00  0.00    -0.480 OA
ATOM     61  H   UNL     1     -12.874  -0.639  -3.623  1.00  0.00     0.296 HD
ENDBRANCH  58  60
ENDBRANCH  48  58
ENDBRANCH  46  48
ENDBRANCH  34  44
ENDBRANCH  32  34
ENDBRANCH  25  30
ENDBRANCH  23  25
ENDBRANCH   2  23
TORSDOF 28
ENDMDL
MODEL 5
REMARK VINA RESULT:    -6.590      1.601      2.864
REMARK INTER + INTRA:         -21.436
REMARK INTER:                 -16.814
REMARK INTRA:                  -4.622
REMARK UNBOUND:                -5.023
REMARK SMILES CCCCCCC[C@H](N)[C@H](O)C(=O)N[C@H](C)C(=O)N(C)[C@H](CC(C)C)C(=O)N[C@@H](Cc1ccc(O)cc1)C(=O)N[C@@H](Cc1ccc(O)cc1)C(=O)O
REMARK SMILES IDX 18 1 17 2 15 3 16 4 14 5 12 6 13 7 10 9 11 10 8 12 9 13 7 16
REMARK SMILES IDX 6 17 5 18 4 19 3 20 2 21 1 22 19 23 20 24 21 25 22 26 23 27
REMARK SMILES IDX 24 28 25 29 26 30 27 31 28 32 29 34 30 35 31 36 32 37 37 38
REMARK SMILES IDX 33 39 36 40 34 41 35 42 38 44 39 45 40 46 41 48 42 49 43 50
REMARK SMILES IDX 44 51 49 52 45 53 48 54 46 55 47 56 50 58 51 59 52 60
REMARK H PARENT 14 8 11 11 9 14 9 15 28 33 35 43 40 47 47 57 52 61
ROOT
ATOM      1  O   UNL     1      -8.188  -5.441   2.783  1.00  0.00    -0.272 OA
ATOM      2  C   UNL     1      -9.014  -5.955   3.551  1.00  0.00     0.245 C 
ENDROOT
BRANCH   2   3
ATOM      3  C   UNL     1      -8.504  -6.608   4.859  1.00  0.00     0.168 C 
ATOM      4  C   UNL     1      -7.126  -7.228   4.653  1.00  0.00     0.041 C 
BRANCH   3   5
ATOM      5  N   UNL     1      -8.540  -5.743   6.029  1.00  0.00    -0.342 N 
ATOM      6  C   UNL     1      -9.278  -6.063   7.148  1.00  0.00     0.251 C 
ATOM      7  O   UNL     1      -9.984  -7.063   7.230  1.00  0.00    -0.272 OA
ATOM      8  H   UNL     1      -8.022  -4.869   6.065  1.00  0.00     0.164 HD
BRANCH   6   9
ATOM      9  C   UNL     1      -9.054  -5.081   8.309  1.00  0.00     0.219 C 
BRANCH   9  10
ATOM     10  O   UNL     1      -8.721  -3.762   7.860  1.00  0.00    -0.382 OA
ATOM     11  H   UNL     1      -8.348  -3.910   6.963  1.00  0.00     0.211 HD
ENDBRANCH   9  10
BRANCH   9  12
ATOM     12  C   UNL     1     -10.239  -5.039   9.309  1.00  0.00     0.089 C 
BRANCH  12  13
ATOM     13  N   UNL     1     -10.145  -6.222  10.195  1.00  0.00    -0.325 NA
ATOM     14  H   UNL     1      -9.178  -6.552  10.213  1.00  0.00     0.119 HD
ATOM     15  H   UNL     1     -10.681  -6.989   9.782  1.00  0.00     0.119 HD
ENDBRANCH  12  13
BRANCH  12  16
ATOM     16  C   UNL     1     -10.367  -3.750  10.155  1.00  0.00     0.022 C 
BRANCH  16  17
ATOM     17  C   UNL     1     -11.689  -2.970  10.132  1.00  0.00     0.002 C 
BRANCH  17  18
ATOM     18  C   UNL     1     -11.784  -1.894   9.053  1.00  0.00     0.000 C 
BRANCH  18  19
ATOM     19  C   UNL     1     -11.647  -0.461   9.584  1.00  0.00    -0.000 C 
BRANCH  19  20
ATOM     20  C   UNL     1     -10.510   0.356   8.964  1.00  0.00    -0.000 C 
BRANCH  20  21
ATOM     21  C   UNL     1      -9.137  -0.297   9.141  1.00  0.00    -0.003 C 
ATOM     22  C   UNL     1      -8.530   0.046  10.492  1.00  0.00     0.004 C 
ENDBRANCH  20  21
ENDBRANCH  19  20
ENDBRANCH  18  19
ENDBRANCH  17  18
ENDBRANCH  16  17
ENDBRANCH  12  16
ENDBRANCH   9  12
ENDBRANCH   6   9
ENDBRANCH   3   5
ENDBRANCH   2   3
BRANCH   2  23
ATOM     23  N   UNL     1     -10.375  -5.832   3.292  1.00  0.00    -0.332 N 
ATOM     24  C   UNL     1     -11.138  -6.731   2.440  1.00  0.00     0.147 C 
BRANCH  23  25
ATOM     25  C   UNL     1     -11.185  -4.803   4.002  1.00  0.00     0.174 C 
BRANCH  25  26
ATOM     26  C   UNL     1     -12.516  -5.363   4.556  1.00  0.00     0.038 C 
BRANCH  26  27
ATOM     27  C   UNL     1     -12.981  -4.830   5.929  1.00  0.00    -0.015 C 
ATOM     28  C   UNL     1     -13.074  -5.933   6.983  1.00  0.00     0.007 C 
ATOM     29  C   UNL     1     -12.141  -3.664   6.445  1.00  0.00     0.007 C 
ENDBRANCH  26  27
ENDBRANCH  25  26
BRANCH  25  30
ATOM     30  C   UNL     1     -11.359  -3.554   3.109  1.00  0.00     0.243 C 
ATOM     31  O   UNL     1     -12.469  -3.098   2.838  1.00  0.00    -0.273 OA
ATOM     32  N   UNL     1     -10.199  -2.995   2.636  1.00  0.00    -0.342 N 
ATOM     33  H   UNL     1      -9.316  -3.344   3.018  1.00  0.00     0.164 HD
BRANCH  32  34
ATOM     34  C   UNL     1     -10.173  -1.825   1.755  1.00  0.00     0.175 C 
BRANCH  34  35
ATOM     35  C   UNL     1      -8.853  -1.052   1.892  1.00  0.00     0.070 C 
BRANCH  35  36
ATOM     36  C   UNL     1      -8.223  -1.207   3.257  1.00  0.00    -0.045 A 
ATOM     37  C   UNL     1      -8.978  -0.950   4.412  1.00  0.00     0.007 A 
ATOM     38  C   UNL     1      -6.880  -1.584   3.391  1.00  0.00     0.007 A 
ATOM     39  C   UNL     1      -8.401  -1.078   5.676  1.00  0.00     0.046 A 
ATOM     40  C   UNL     1      -6.301  -1.710   4.656  1.00  0.00     0.046 A 
ATOM     41  C   UNL     1      -7.069  -1.457   5.788  1.00  0.00     0.115 A 
BRANCH  41  42
ATOM     42  O   UNL     1      -6.543  -1.566   7.041  1.00  0.00    -0.508 OA
ATOM     43  H   UNL     1      -7.251  -1.845   7.646  1.00  0.00     0.293 HD
ENDBRANCH  41  42
ENDBRANCH  35  36
ENDBRANCH  34  35
BRANCH  34  44
ATOM     44  C   UNL     1     -10.411  -2.310   0.307  1.00  0.00     0.243 C 
ATOM     45  O   UNL     1      -9.518  -2.623  -0.475  1.00  0.00    -0.273 OA
ATOM     46  N   UNL     1     -11.731  -2.239  -0.085  1.00  0.00    -0.341 N 
ATOM     47  H   UNL     1     -12.419  -1.862   0.562  1.00  0.00     0.164 HD
BRANCH  46  48
ATOM     48  C   UNL     1     -12.190  -2.580  -1.433  1.00  0.00     0.196 C 
BRANCH  48  49
ATOM     49  C   UNL     1     -13.296  -3.649  -1.394  1.00  0.00     0.072 C 
BRANCH  49  50
ATOM     50  C   UNL     1     -12.821  -4.996  -1.889  1.00  0.00    -0.045 A 
ATOM     51  C   UNL     1     -12.388  -5.965  -0.971  1.00  0.00     0.007 A 
ATOM     52  C   UNL     1     -12.785  -5.290  -3.258  1.00  0.00     0.007 A 
ATOM     53  C   UNL     1     -11.935  -7.207  -1.417  1.00  0.00     0.046 A 
ATOM     54  C   UNL     1     -12.330  -6.533  -3.704  1.00  0.00     0.046 A 
ATOM     55  C   UNL     1     -11.910  -7.482  -2.779  1.00  0.00     0.115 A 
BRANCH  55  56
ATOM     56  O   UNL     1     -11.459  -8.706  -3.173  1.00  0.00    -0.508 OA
ATOM     57  H   UNL     1     -11.847  -9.378  -2.590  1.00  0.00     0.293 HD
ENDBRANCH  55  56
ENDBRANCH  49  50
ENDBRANCH  48  49
BRANCH  48  58
ATOM     58  C   UNL     1     -12.723  -1.313  -2.116  1.00  0.00     0.326 C 
ATOM     59  O   UNL     1     -12.737  -0.180  -1.663  1.00  0.00    -0.250 OA
BRANCH  58  60
ATOM     60  O   UNL     1     -13.208  -1.533  -3.364  1.00  0.00    -0.480 OA
ATOM     61  H   UNL     1     -13.093  -0.665  -3.807  1.00  0.00     0.296 HD
ENDBRANCH  58  60
ENDBRANCH  48  58
ENDBRANCH  46  48
ENDBRANCH  34  44
ENDBRANCH  32  34
ENDBRANCH  25  30
ENDBRANCH  23  25
ENDBRANCH   2  23
TORSDOF 28
ENDMDL
MODEL 6
REMARK VINA RESULT:    -6.443      1.562      2.213
REMARK INTER + INTRA:         -21.070
REMARK INTER:                 -17.132
REMARK INTRA:                  -3.938
REMARK UNBOUND:                -5.023
REMARK SMILES CCCCCCC[C@H](N)[C@H](O)C(=O)N[C@H](C)C(=O)N(C)[C@H](CC(C)C)C(=O)N[C@@H](Cc1ccc(O)cc1)C(=O)N[C@@H](Cc1ccc(O)cc1)C(=O)O
REMARK SMILES IDX 18 1 17 2 15 3 16 4 14 5 12 6 13 7 10 9 11 10 8 12 9 13 7 16
REMARK SMILES IDX 6 17 5 18 4 19 3 20 2 21 1 22 19 23 20 24 21 25 22 26 23 27
REMARK SMILES IDX 24 28 25 29 26 30 27 31 28 32 29 34 30 35 31 36 32 37 37 38
REMARK SMILES IDX 33 39 36 40 34 41 35 42 38 44 39 45 40 46 41 48 42 49 43 50
REMARK SMILES IDX 44 51 49 52 45 53 48 54 46 55 47 56 50 58 51 59 52 60
REMARK H PARENT 14 8 11 11 9 14 9 15 28 33 35 43 40 47 47 57 52 61
ROOT
ATOM      1  O   UNL     1     -11.709  -6.343   6.267  1.00  0.00    -0.272 OA
ATOM      2  C   UNL     1     -10.911  -5.425   6.507  1.00  0.00     0.245 C 
ENDROOT
BRANCH   2   3
ATOM      3  C   UNL     1     -11.016  -4.688   7.865  1.00  0.00     0.168 C 
ATOM      4  C   UNL     1     -10.218  -5.417   8.941  1.00  0.00     0.041 C 
BRANCH   3   5
ATOM      5  N   UNL     1     -10.693  -3.270   7.818  1.00  0.00    -0.342 N 
ATOM      6  C   UNL     1     -11.418  -2.335   8.526  1.00  0.00     0.251 C 
ATOM      7  O   UNL     1     -12.400  -2.613   9.206  1.00  0.00    -0.272 OA
ATOM      8  H   UNL     1      -9.921  -2.915   7.260  1.00  0.00     0.164 HD
BRANCH   6   9
ATOM      9  C   UNL     1     -10.812  -0.925   8.440  1.00  0.00     0.219 C 
BRANCH   9  10
ATOM     10  O   UNL     1     -11.786   0.077   8.122  1.00  0.00    -0.382 OA
ATOM     11  H   UNL     1     -11.362   0.913   8.417  1.00  0.00     0.211 HD
ENDBRANCH   9  10
BRANCH   9  12
ATOM     12  C   UNL     1     -10.009  -0.529   9.707  1.00  0.00     0.089 C 
BRANCH  12  13
ATOM     13  N   UNL     1     -10.201  -1.582  10.730  1.00  0.00    -0.325 NA
ATOM     14  H   UNL     1     -11.194  -1.644  10.966  1.00  0.00     0.119 HD
ATOM     15  H   UNL     1      -9.740  -1.291  11.595  1.00  0.00     0.119 HD
ENDBRANCH  12  13
BRANCH  12  16
ATOM     16  C   UNL     1      -8.499  -0.262   9.496  1.00  0.00     0.022 C 
BRANCH  16  17
ATOM     17  C   UNL     1      -7.533  -0.466  10.672  1.00  0.00     0.002 C 
BRANCH  17  18
ATOM     18  C   UNL     1      -7.389   0.736  11.603  1.00  0.00     0.000 C 
BRANCH  18  19
ATOM     19  C   UNL     1      -5.946   1.013  12.046  1.00  0.00    -0.000 C 
BRANCH  19  20
ATOM     20  C   UNL     1      -5.121   1.866  11.078  1.00  0.00    -0.000 C 
BRANCH  20  21
ATOM     21  C   UNL     1      -3.699   2.133  11.578  1.00  0.00    -0.003 C 
ATOM     22  C   UNL     1      -3.708   2.868  12.909  1.00  0.00     0.004 C 
ENDBRANCH  20  21
ENDBRANCH  19  20
ENDBRANCH  18  19
ENDBRANCH  17  18
ENDBRANCH  16  17
ENDBRANCH  12  16
ENDBRANCH   9  12
ENDBRANCH   6   9
ENDBRANCH   3   5
ENDBRANCH   2   3
BRANCH   2  23
ATOM     23  N   UNL     1      -9.873  -5.156   5.621  1.00  0.00    -0.332 N 
ATOM     24  C   UNL     1      -8.516  -4.809   6.019  1.00  0.00     0.147 C 
BRANCH  23  25
ATOM     25  C   UNL     1     -10.068  -5.339   4.157  1.00  0.00     0.174 C 
BRANCH  25  26
ATOM     26  C   UNL     1      -8.765  -5.726   3.419  1.00  0.00     0.038 C 
BRANCH  26  27
ATOM     27  C   UNL     1      -8.915  -6.554   2.123  1.00  0.00    -0.015 C 
ATOM     28  C   UNL     1     -10.200  -7.381   2.102  1.00  0.00     0.007 C 
ATOM     29  C   UNL     1      -8.793  -5.718   0.851  1.00  0.00     0.007 C 
ENDBRANCH  26  27
ENDBRANCH  25  26
BRANCH  25  30
ATOM     30  C   UNL     1     -10.779  -4.104   3.557  1.00  0.00     0.243 C 
ATOM     31  O   UNL     1     -12.005  -4.025   3.496  1.00  0.00    -0.273 OA
ATOM     32  N   UNL     1      -9.954  -3.111   3.094  1.00  0.00    -0.342 N 
ATOM     33  H   UNL     1      -8.956  -3.187   3.307  1.00  0.00     0.164 HD
BRANCH  32  34
ATOM     34  C   UNL     1     -10.450  -1.882   2.469  1.00  0.00     0.175 C 
BRANCH  34  35
ATOM     35  C   UNL     1      -9.464  -0.720   2.662  1.00  0.00     0.070 C 
BRANCH  35  36
ATOM     36  C   UNL     1      -8.470  -0.975   3.773  1.00  0.00    -0.045 A 
ATOM     37  C   UNL     1      -7.115  -1.176   3.469  1.00  0.00     0.007 A 
ATOM     38  C   UNL     1      -8.885  -1.036   5.110  1.00  0.00     0.007 A 
ATOM     39  C   UNL     1      -6.193  -1.425   4.486  1.00  0.00     0.046 A 
ATOM     40  C   UNL     1      -7.963  -1.287   6.128  1.00  0.00     0.046 A 
ATOM     41  C   UNL     1      -6.623  -1.478   5.806  1.00  0.00     0.115 A 
BRANCH  41  42
ATOM     42  O   UNL     1      -5.691  -1.727   6.769  1.00  0.00    -0.508 OA
ATOM     43  H   UNL     1      -5.345  -0.876   7.086  1.00  0.00     0.293 HD
ENDBRANCH  41  42
ENDBRANCH  35  36
ENDBRANCH  34  35
BRANCH  34  44
ATOM     44  C   UNL     1     -10.711  -2.176   0.975  1.00  0.00     0.243 C 
ATOM     45  O   UNL     1      -9.841  -2.189   0.108  1.00  0.00    -0.273 OA
ATOM     46  N   UNL     1     -12.049  -2.299   0.665  1.00  0.00    -0.341 N 
ATOM     47  H   UNL     1     -12.740  -2.164   1.398  1.00  0.00     0.164 HD
BRANCH  46  48
ATOM     48  C   UNL     1     -12.544  -2.511  -0.697  1.00  0.00     0.196 C 
BRANCH  48  49
ATOM     49  C   UNL     1     -13.553  -3.671  -0.751  1.00  0.00     0.072 C 
BRANCH  49  50
ATOM     50  C   UNL     1     -12.993  -4.898  -1.434  1.00  0.00    -0.045 A 
ATOM     51  C   UNL     1     -13.008  -4.988  -2.833  1.00  0.00     0.007 A 
ATOM     52  C   UNL     1     -12.475  -5.964  -0.688  1.00  0.00     0.007 A 
ATOM     53  C   UNL     1     -12.506  -6.121  -3.474  1.00  0.00     0.046 A 
ATOM     54  C   UNL     1     -11.973  -7.099  -1.329  1.00  0.00     0.046 A 
ATOM     55  C   UNL     1     -11.993  -7.167  -2.718  1.00  0.00     0.115 A 
BRANCH  55  56
ATOM     56  O   UNL     1     -11.514  -8.257  -3.382  1.00  0.00    -0.508 OA
ATOM     57  H   UNL     1     -10.550  -8.169  -3.460  1.00  0.00     0.293 HD
ENDBRANCH  55  56
ENDBRANCH  49  50
ENDBRANCH  48  49
BRANCH  48  58
ATOM     58  C   UNL     1     -13.214  -1.222  -1.191  1.00  0.00     0.326 C 
ATOM     59  O   UNL     1     -13.600  -0.283  -0.514  1.00  0.00    -0.250 OA
BRANCH  58  60
ATOM     60  O   UNL     1     -13.356  -1.168  -2.539  1.00  0.00    -0.480 OA
ATOM     61  H   UNL     1     -14.097  -0.535  -2.664  1.00  0.00     0.296 HD
ENDBRANCH  58  60
ENDBRANCH  48  58
ENDBRANCH  46  48
ENDBRANCH  34  44
ENDBRANCH  32  34
ENDBRANCH  25  30
ENDBRANCH  23  25
ENDBRANCH   2  23
TORSDOF 28
ENDMDL
MODEL 7
REMARK VINA RESULT:    -6.418      2.343      9.316
REMARK INTER + INTRA:         -21.007
REMARK INTER:                 -15.657
REMARK INTRA:                  -5.351
REMARK UNBOUND:                -5.023
REMARK SMILES CCCCCCC[C@H](N)[C@H](O)C(=O)N[C@H](C)C(=O)N(C)[C@H](CC(C)C)C(=O)N[C@@H](Cc1ccc(O)cc1)C(=O)N[C@@H](Cc1ccc(O)cc1)C(=O)O
REMARK SMILES IDX 18 1 17 2 15 3 16 4 14 5 12 6 13 7 10 9 11 10 8 12 9 13 7 16
REMARK SMILES IDX 6 17 5 18 4 19 3 20 2 21 1 22 19 23 20 24 21 25 22 26 23 27
REMARK SMILES IDX 24 28 25 29 26 30 27 31 28 32 29 34 30 35 31 36 32 37 37 38
REMARK SMILES IDX 33 39 36 40 34 41 35 42 38 44 39 45 40 46 41 48 42 49 43 50
REMARK SMILES IDX 44 51 49 52 45 53 48 54 46 55 47 56 50 58 51 59 52 60
REMARK H PARENT 14 8 11 11 9 14 9 15 28 33 35 43 40 47 47 57 52 61
ROOT
ATOM      1  O   UNL     1      -7.503  -3.774   1.599  1.00  0.00    -0.272 OA
ATOM      2  C   UNL     1      -8.082  -2.762   1.177  1.00  0.00     0.245 C 
ENDROOT
BRANCH   2   3
ATOM      3  C   UNL     1      -8.964  -2.887  -0.090  1.00  0.00     0.168 C 
ATOM      4  C   UNL     1      -8.254  -3.703  -1.165  1.00  0.00     0.041 C 
BRANCH   3   5
ATOM      5  N   UNL     1     -10.316  -3.368   0.151  1.00  0.00    -0.342 N 
ATOM      6  C   UNL     1     -11.412  -2.792  -0.454  1.00  0.00     0.251 C 
ATOM      7  O   UNL     1     -11.341  -1.818  -1.197  1.00  0.00    -0.272 OA
ATOM      8  H   UNL     1     -10.504  -4.148   0.776  1.00  0.00     0.164 HD
BRANCH   6   9
ATOM      9  C   UNL     1     -12.718  -3.550  -0.166  1.00  0.00     0.219 C 
BRANCH   9  10
ATOM     10  O   UNL     1     -13.821  -2.674   0.095  1.00  0.00    -0.382 OA
ATOM     11  H   UNL     1     -14.030  -2.841   1.041  1.00  0.00     0.211 HD
ENDBRANCH   9  10
BRANCH   9  12
ATOM     12  C   UNL     1     -13.081  -4.578  -1.269  1.00  0.00     0.089 C 
BRANCH  12  13
ATOM     13  N   UNL     1     -12.227  -4.317  -2.451  1.00  0.00    -0.325 NA
ATOM     14  H   UNL     1     -12.119  -5.181  -2.985  1.00  0.00     0.119 HD
ATOM     15  H   UNL     1     -11.284  -4.081  -2.132  1.00  0.00     0.119 HD
ENDBRANCH  12  13
BRANCH  12  16
ATOM     16  C   UNL     1     -12.987  -6.069  -0.865  1.00  0.00     0.022 C 
BRANCH  16  17
ATOM     17  C   UNL     1     -11.906  -6.505   0.135  1.00  0.00     0.002 C 
BRANCH  17  18
ATOM     18  C   UNL     1     -11.693  -8.014   0.236  1.00  0.00     0.000 C 
BRANCH  18  19
ATOM     19  C   UNL     1     -10.635  -8.561  -0.732  1.00  0.00    -0.000 C 
BRANCH  19  20
ATOM     20  C   UNL     1     -11.179  -9.063  -2.073  1.00  0.00    -0.000 C 
BRANCH  20  21
ATOM     21  C   UNL     1     -10.308  -8.656  -3.264  1.00  0.00    -0.003 C 
ATOM     22  C   UNL     1     -10.246  -7.144  -3.415  1.00  0.00     0.004 C 
ENDBRANCH  20  21
ENDBRANCH  19  20
ENDBRANCH  18  19
ENDBRANCH  17  18
ENDBRANCH  16  17
ENDBRANCH  12  16
ENDBRANCH   9  12
ENDBRANCH   6   9
ENDBRANCH   3   5
ENDBRANCH   2   3
BRANCH   2  23
ATOM     23  N   UNL     1      -8.033  -1.578   1.905  1.00  0.00    -0.332 N 
ATOM     24  C   UNL     1      -7.528  -0.313   1.391  1.00  0.00     0.147 C 
BRANCH  23  25
ATOM     25  C   UNL     1      -8.635  -1.506   3.265  1.00  0.00     0.174 C 
BRANCH  25  26
ATOM     26  C   UNL     1      -7.806  -2.261   4.331  1.00  0.00     0.038 C 
BRANCH  26  27
ATOM     27  C   UNL     1      -7.095  -1.403   5.401  1.00  0.00    -0.015 C 
ATOM     28  C   UNL     1      -7.677  -1.612   6.799  1.00  0.00     0.007 C 
ATOM     29  C   UNL     1      -5.580  -1.585   5.418  1.00  0.00     0.007 C 
ENDBRANCH  26  27
ENDBRANCH  25  26
BRANCH  25  30
ATOM     30  C   UNL     1     -10.119  -1.936   3.213  1.00  0.00     0.243 C 
ATOM     31  O   UNL     1     -10.914  -1.433   2.420  1.00  0.00    -0.273 OA
ATOM     32  N   UNL     1     -10.488  -2.904   4.111  1.00  0.00    -0.342 N 
ATOM     33  H   UNL     1      -9.744  -3.371   4.636  1.00  0.00     0.164 HD
BRANCH  32  34
ATOM     34  C   UNL     1     -11.857  -3.414   4.223  1.00  0.00     0.175 C 
BRANCH  34  35
ATOM     35  C   UNL     1     -12.010  -4.768   3.513  1.00  0.00     0.070 C 
BRANCH  35  36
ATOM     36  C   UNL     1     -10.876  -5.720   3.819  1.00  0.00    -0.045 A 
ATOM     37  C   UNL     1     -10.774  -6.305   5.090  1.00  0.00     0.007 A 
ATOM     38  C   UNL     1      -9.903  -6.013   2.854  1.00  0.00     0.007 A 
ATOM     39  C   UNL     1      -9.724  -7.174   5.387  1.00  0.00     0.046 A 
ATOM     40  C   UNL     1      -8.850  -6.882   3.150  1.00  0.00     0.046 A 
ATOM     41  C   UNL     1      -8.771  -7.456   4.415  1.00  0.00     0.115 A 
BRANCH  41  42
ATOM     42  O   UNL     1      -7.759  -8.308   4.746  1.00  0.00    -0.508 OA
ATOM     43  H   UNL     1      -7.029  -8.172   4.119  1.00  0.00     0.293 HD
ENDBRANCH  41  42
ENDBRANCH  35  36
ENDBRANCH  34  35
BRANCH  34  44
ATOM     44  C   UNL     1     -12.212  -3.506   5.724  1.00  0.00     0.243 C 
ATOM     45  O   UNL     1     -13.115  -4.200   6.182  1.00  0.00    -0.273 OA
ATOM     46  N   UNL     1     -11.499  -2.627   6.512  1.00  0.00    -0.341 N 
ATOM     47  H   UNL     1     -10.843  -1.988   6.069  1.00  0.00     0.164 HD
BRANCH  46  48
ATOM     48  C   UNL     1     -11.709  -2.485   7.954  1.00  0.00     0.196 C 
BRANCH  48  49
ATOM     49  C   UNL     1     -10.763  -3.399   8.751  1.00  0.00     0.072 C 
BRANCH  49  50
ATOM     50  C   UNL     1     -11.394  -4.729   9.097  1.00  0.00    -0.045 A 
ATOM     51  C   UNL     1     -10.706  -5.920   8.824  1.00  0.00     0.007 A 
ATOM     52  C   UNL     1     -12.671  -4.794   9.670  1.00  0.00     0.007 A 
ATOM     53  C   UNL     1     -11.284  -7.154   9.127  1.00  0.00     0.046 A 
ATOM     54  C   UNL     1     -13.249  -6.029   9.971  1.00  0.00     0.046 A 
ATOM     55  C   UNL     1     -12.549  -7.199   9.698  1.00  0.00     0.115 A 
BRANCH  55  56
ATOM     56  O   UNL     1     -13.079  -8.424   9.977  1.00  0.00    -0.508 OA
ATOM     57  H   UNL     1     -12.794  -9.045   9.288  1.00  0.00     0.293 HD
ENDBRANCH  55  56
ENDBRANCH  49  50
ENDBRANCH  48  49
BRANCH  48  58
ATOM     58  C   UNL     1     -11.468  -1.022   8.352  1.00  0.00     0.326 C 
ATOM     59  O   UNL     1     -11.757  -0.486   9.410  1.00  0.00    -0.250 OA
BRANCH  58  60
ATOM     60  O   UNL     1     -10.850  -0.294   7.388  1.00  0.00    -0.480 OA
ATOM     61  H   UNL     1     -10.105  -0.870   7.112  1.00  0.00     0.296 HD
ENDBRANCH  58  60
ENDBRANCH  48  58
ENDBRANCH  46  48
ENDBRANCH  34  44
ENDBRANCH  32  34
ENDBRANCH  25  30
ENDBRANCH  23  25
ENDBRANCH   2  23
TORSDOF 28
ENDMDL
MODEL 8
REMARK VINA RESULT:    -6.333      2.068      3.848
REMARK INTER + INTRA:         -20.796
REMARK INTER:                 -15.859
REMARK INTRA:                  -4.936
REMARK UNBOUND:                -5.023
REMARK SMILES CCCCCCC[C@H](N)[C@H](O)C(=O)N[C@H](C)C(=O)N(C)[C@H](CC(C)C)C(=O)N[C@@H](Cc1ccc(O)cc1)C(=O)N[C@@H](Cc1ccc(O)cc1)C(=O)O
REMARK SMILES IDX 18 1 17 2 15 3 16 4 14 5 12 6 13 7 10 9 11 10 8 12 9 13 7 16
REMARK SMILES IDX 6 17 5 18 4 19 3 20 2 21 1 22 19 23 20 24 21 25 22 26 23 27
REMARK SMILES IDX 24 28 25 29 26 30 27 31 28 32 29 34 30 35 31 36 32 37 37 38
REMARK SMILES IDX 33 39 36 40 34 41 35 42 38 44 39 45 40 46 41 48 42 49 43 50
REMARK SMILES IDX 44 51 49 52 45 53 48 54 46 55 47 56 50 58 51 59 52 60
REMARK H PARENT 14 8 11 11 9 14 9 15 28 33 35 43 40 47 47 57 52 61
ROOT
ATOM      1  O   UNL     1      -7.400  -4.844   7.443  1.00  0.00    -0.272 OA
ATOM      2  C   UNL     1      -7.454  -3.890   6.651  1.00  0.00     0.245 C 
ENDROOT
BRANCH   2   3
ATOM      3  C   UNL     1      -7.461  -2.451   7.225  1.00  0.00     0.168 C 
ATOM      4  C   UNL     1      -6.572  -1.533   6.393  1.00  0.00     0.041 C 
BRANCH   3   5
ATOM      5  N   UNL     1      -8.784  -1.883   7.433  1.00  0.00    -0.342 N 
ATOM      6  C   UNL     1      -9.161  -1.342   8.644  1.00  0.00     0.251 C 
ATOM      7  O   UNL     1      -8.439  -1.334   9.635  1.00  0.00    -0.272 OA
ATOM      8  H   UNL     1      -9.482  -1.864   6.693  1.00  0.00     0.164 HD
BRANCH   6   9
ATOM      9  C   UNL     1     -10.545  -0.674   8.591  1.00  0.00     0.219 C 
BRANCH   9  10
ATOM     10  O   UNL     1     -10.612   0.383   7.627  1.00  0.00    -0.382 OA
ATOM     11  H   UNL     1      -9.888   0.990   7.898  1.00  0.00     0.211 HD
ENDBRANCH   9  10
BRANCH   9  12
ATOM     12  C   UNL     1     -11.701  -1.686   8.380  1.00  0.00     0.089 C 
BRANCH  12  13
ATOM     13  N   UNL     1     -11.752  -2.045   6.945  1.00  0.00    -0.325 NA
ATOM     14  H   UNL     1     -12.686  -1.847   6.581  1.00  0.00     0.119 HD
ATOM     15  H   UNL     1     -11.638  -3.058   6.852  1.00  0.00     0.119 HD
ENDBRANCH  12  13
BRANCH  12  16
ATOM     16  C   UNL     1     -11.648  -2.967   9.247  1.00  0.00     0.022 C 
BRANCH  16  17
ATOM     17  C   UNL     1     -12.349  -4.237   8.747  1.00  0.00     0.002 C 
BRANCH  17  18
ATOM     18  C   UNL     1     -11.414  -5.383   8.367  1.00  0.00     0.000 C 
BRANCH  18  19
ATOM     19  C   UNL     1     -11.082  -5.449   6.870  1.00  0.00    -0.000 C 
BRANCH  19  20
ATOM     20  C   UNL     1     -12.124  -6.163   6.004  1.00  0.00    -0.000 C 
BRANCH  20  21
ATOM     21  C   UNL     1     -13.233  -5.231   5.509  1.00  0.00    -0.003 C 
ATOM     22  C   UNL     1     -12.746  -4.344   4.373  1.00  0.00     0.004 C 
ENDBRANCH  20  21
ENDBRANCH  19  20
ENDBRANCH  18  19
ENDBRANCH  17  18
ENDBRANCH  16  17
ENDBRANCH  12  16
ENDBRANCH   9  12
ENDBRANCH   6   9
ENDBRANCH   3   5
ENDBRANCH   2   3
BRANCH   2  23
ATOM     23  N   UNL     1      -7.384  -4.119   5.281  1.00  0.00    -0.332 N 
ATOM     24  C   UNL     1      -6.147  -4.193   4.519  1.00  0.00     0.147 C 
BRANCH  23  25
ATOM     25  C   UNL     1      -8.616  -4.438   4.509  1.00  0.00     0.174 C 
BRANCH  25  26
ATOM     26  C   UNL     1      -8.385  -5.517   3.426  1.00  0.00     0.038 C 
BRANCH  26  27
ATOM     27  C   UNL     1      -9.301  -6.761   3.469  1.00  0.00    -0.015 C 
ATOM     28  C   UNL     1     -10.508  -6.630   2.541  1.00  0.00     0.007 C 
ATOM     29  C   UNL     1      -8.561  -8.070   3.206  1.00  0.00     0.007 C 
ENDBRANCH  26  27
ENDBRANCH  25  26
BRANCH  25  30
ATOM     30  C   UNL     1      -9.256  -3.140   3.967  1.00  0.00     0.243 C 
ATOM     31  O   UNL     1      -9.848  -2.351   4.701  1.00  0.00    -0.273 OA
ATOM     32  N   UNL     1      -9.124  -2.932   2.618  1.00  0.00    -0.342 N 
ATOM     33  H   UNL     1      -8.499  -3.557   2.101  1.00  0.00     0.164 HD
BRANCH  32  34
ATOM     34  C   UNL     1      -9.689  -1.770   1.926  1.00  0.00     0.175 C 
BRANCH  34  35
ATOM     35  C   UNL     1      -8.652  -0.646   1.783  1.00  0.00     0.070 C 
BRANCH  35  36
ATOM     36  C   UNL     1      -7.228  -1.153   1.837  1.00  0.00    -0.045 A 
ATOM     37  C   UNL     1      -6.386  -0.767   2.890  1.00  0.00     0.007 A 
ATOM     38  C   UNL     1      -6.725  -1.991   0.833  1.00  0.00     0.007 A 
ATOM     39  C   UNL     1      -5.066  -1.218   2.942  1.00  0.00     0.046 A 
ATOM     40  C   UNL     1      -5.404  -2.442   0.883  1.00  0.00     0.046 A 
ATOM     41  C   UNL     1      -4.586  -2.052   1.939  1.00  0.00     0.115 A 
BRANCH  41  42
ATOM     42  O   UNL     1      -3.291  -2.468   2.025  1.00  0.00    -0.508 OA
ATOM     43  H   UNL     1      -3.019  -2.799   1.153  1.00  0.00     0.293 HD
ENDBRANCH  41  42
ENDBRANCH  35  36
ENDBRANCH  34  35
BRANCH  34  44
ATOM     44  C   UNL     1     -10.222  -2.242   0.555  1.00  0.00     0.243 C 
ATOM     45  O   UNL     1      -9.546  -2.822  -0.290  1.00  0.00    -0.273 OA
ATOM     46  N   UNL     1     -11.515  -1.836   0.299  1.00  0.00    -0.341 N 
ATOM     47  H   UNL     1     -11.995  -1.257   0.984  1.00  0.00     0.164 HD
BRANCH  46  48
ATOM     48  C   UNL     1     -12.210  -2.106  -0.961  1.00  0.00     0.196 C 
BRANCH  48  49
ATOM     49  C   UNL     1     -13.284  -3.192  -0.787  1.00  0.00     0.072 C 
BRANCH  49  50
ATOM     50  C   UNL     1     -12.885  -4.511  -1.410  1.00  0.00    -0.045 A 
ATOM     51  C   UNL     1     -12.926  -4.667  -2.803  1.00  0.00     0.007 A 
ATOM     52  C   UNL     1     -12.491  -5.594  -0.613  1.00  0.00     0.007 A 
ATOM     53  C   UNL     1     -12.572  -5.883  -3.387  1.00  0.00     0.046 A 
ATOM     54  C   UNL     1     -12.138  -6.812  -1.198  1.00  0.00     0.046 A 
ATOM     55  C   UNL     1     -12.180  -6.946  -2.582  1.00  0.00     0.115 A 
BRANCH  55  56
ATOM     56  O   UNL     1     -11.844  -8.118  -3.192  1.00  0.00    -0.508 OA
ATOM     57  H   UNL     1     -11.075  -7.957  -3.761  1.00  0.00     0.293 HD
ENDBRANCH  55  56
ENDBRANCH  49  50
ENDBRANCH  48  49
BRANCH  48  58
ATOM     58  C   UNL     1     -12.864  -0.809  -1.458  1.00  0.00     0.326 C 
ATOM     59  O   UNL     1     -12.315   0.256  -1.685  1.00  0.00    -0.250 OA
BRANCH  58  60
ATOM     60  O   UNL     1     -14.201  -0.921  -1.662  1.00  0.00    -0.480 OA
ATOM     61  H   UNL     1     -14.359  -1.888  -1.600  1.00  0.00     0.296 HD
ENDBRANCH  58  60
ENDBRANCH  48  58
ENDBRANCH  46  48
ENDBRANCH  34  44
ENDBRANCH  32  34
ENDBRANCH  25  30
ENDBRANCH  23  25
ENDBRANCH   2  23
TORSDOF 28
ENDMDL
MODEL 9
REMARK VINA RESULT:    -6.318      2.932      5.459
REMARK INTER + INTRA:         -20.760
REMARK INTER:                 -17.506
REMARK INTRA:                  -3.254
REMARK UNBOUND:                -5.023
REMARK SMILES CCCCCCC[C@H](N)[C@H](O)C(=O)N[C@H](C)C(=O)N(C)[C@H](CC(C)C)C(=O)N[C@@H](Cc1ccc(O)cc1)C(=O)N[C@@H](Cc1ccc(O)cc1)C(=O)O
REMARK SMILES IDX 18 1 17 2 15 3 16 4 14 5 12 6 13 7 10 9 11 10 8 12 9 13 7 16
REMARK SMILES IDX 6 17 5 18 4 19 3 20 2 21 1 22 19 23 20 24 21 25 22 26 23 27
REMARK SMILES IDX 24 28 25 29 26 30 27 31 28 32 29 34 30 35 31 36 32 37 37 38
REMARK SMILES IDX 33 39 36 40 34 41 35 42 38 44 39 45 40 46 41 48 42 49 43 50
REMARK SMILES IDX 44 51 49 52 45 53 48 54 46 55 47 56 50 58 51 59 52 60
REMARK H PARENT 14 8 11 11 9 14 9 15 28 33 35 43 40 47 47 57 52 61
ROOT
ATOM      1  O   UNL     1     -11.953  -2.387   6.605  1.00  0.00    -0.272 OA
ATOM      2  C   UNL     1     -11.862  -3.613   6.760  1.00  0.00     0.245 C 
ENDROOT
BRANCH   2   3
ATOM      3  C   UNL     1     -11.530  -4.159   8.171  1.00  0.00     0.168 C 
ATOM      4  C   UNL     1     -11.954  -3.168   9.249  1.00  0.00     0.041 C 
BRANCH   3   5
ATOM      5  N   UNL     1     -12.028  -5.499   8.441  1.00  0.00    -0.342 N 
ATOM      6  C   UNL     1     -11.446  -6.315   9.388  1.00  0.00     0.251 C 
ATOM      7  O   UNL     1     -10.455  -5.998  10.037  1.00  0.00    -0.272 OA
ATOM      8  H   UNL     1     -12.825  -5.886   7.940  1.00  0.00     0.164 HD
BRANCH   6   9
ATOM      9  C   UNL     1     -12.223  -7.624   9.603  1.00  0.00     0.219 C 
BRANCH   9  10
ATOM     10  O   UNL     1     -11.381  -8.703  10.027  1.00  0.00    -0.382 OA
ATOM     11  H   UNL     1     -10.545  -8.551   9.533  1.00  0.00     0.211 HD
ENDBRANCH   9  10
BRANCH   9  12
ATOM     12  C   UNL     1     -13.434  -7.463  10.558  1.00  0.00     0.089 C 
BRANCH  12  13
ATOM     13  N   UNL     1     -13.373  -6.116  11.169  1.00  0.00    -0.325 NA
ATOM     14  H   UNL     1     -14.124  -5.539  10.787  1.00  0.00     0.119 HD
ATOM     15  H   UNL     1     -12.508  -5.657  10.872  1.00  0.00     0.119 HD
ENDBRANCH  12  13
BRANCH  12  16
ATOM     16  C   UNL     1     -14.829  -7.698   9.929  1.00  0.00     0.022 C 
BRANCH  16  17
ATOM     17  C   UNL     1     -15.259  -9.130   9.580  1.00  0.00     0.002 C 
BRANCH  17  18
ATOM     18  C   UNL     1     -14.666 -10.217  10.473  1.00  0.00     0.000 C 
BRANCH  18  19
ATOM     19  C   UNL     1     -14.394 -11.542   9.748  1.00  0.00    -0.000 C 
BRANCH  19  20
ATOM     20  C   UNL     1     -14.558 -12.799  10.608  1.00  0.00    -0.000 C 
BRANCH  20  21
ATOM     21  C   UNL     1     -14.861 -12.486  12.076  1.00  0.00    -0.003 C 
ATOM     22  C   UNL     1     -14.190 -13.485  13.006  1.00  0.00     0.004 C 
ENDBRANCH  20  21
ENDBRANCH  19  20
ENDBRANCH  18  19
ENDBRANCH  17  18
ENDBRANCH  16  17
ENDBRANCH  12  16
ENDBRANCH   9  12
ENDBRANCH   6   9
ENDBRANCH   3   5
ENDBRANCH   2   3
BRANCH   2  23
ATOM     23  N   UNL     1     -12.174  -4.472   5.712  1.00  0.00    -0.332 N 
ATOM     24  C   UNL     1     -13.408  -5.237   5.611  1.00  0.00     0.147 C 
BRANCH  23  25
ATOM     25  C   UNL     1     -11.282  -4.564   4.524  1.00  0.00     0.174 C 
BRANCH  25  26
ATOM     26  C   UNL     1      -9.795  -4.766   4.902  1.00  0.00     0.038 C 
BRANCH  26  27
ATOM     27  C   UNL     1      -9.253  -6.212   4.861  1.00  0.00    -0.015 C 
ATOM     28  C   UNL     1      -9.645  -7.018   6.100  1.00  0.00     0.007 C 
ATOM     29  C   UNL     1      -9.630  -6.966   3.589  1.00  0.00     0.007 C 
ENDBRANCH  26  27
ENDBRANCH  25  26
BRANCH  25  30
ATOM     30  C   UNL     1     -11.525  -3.363   3.582  1.00  0.00     0.243 C 
ATOM     31  O   UNL     1     -12.658  -3.006   3.263  1.00  0.00    -0.273 OA
ATOM     32  N   UNL     1     -10.398  -2.730   3.124  1.00  0.00    -0.342 N 
ATOM     33  H   UNL     1      -9.503  -2.994   3.544  1.00  0.00     0.164 HD
BRANCH  32  34
ATOM     34  C   UNL     1     -10.436  -1.591   2.202  1.00  0.00     0.175 C 
BRANCH  34  35
ATOM     35  C   UNL     1      -9.187  -0.710   2.351  1.00  0.00     0.070 C 
BRANCH  35  36
ATOM     36  C   UNL     1      -8.426  -0.984   3.628  1.00  0.00    -0.045 A 
ATOM     37  C   UNL     1      -9.064  -0.842   4.869  1.00  0.00     0.007 A 
ATOM     38  C   UNL     1      -7.076  -1.360   3.595  1.00  0.00     0.007 A 
ATOM     39  C   UNL     1      -8.366  -1.080   6.054  1.00  0.00     0.046 A 
ATOM     40  C   UNL     1      -6.377  -1.597   4.780  1.00  0.00     0.046 A 
ATOM     41  C   UNL     1      -7.030  -1.455   6.000  1.00  0.00     0.115 A 
BRANCH  41  42
ATOM     42  O   UNL     1      -6.383  -1.675   7.181  1.00  0.00    -0.508 OA
ATOM     43  H   UNL     1      -7.010  -1.516   7.905  1.00  0.00     0.293 HD
ENDBRANCH  41  42
ENDBRANCH  35  36
ENDBRANCH  34  35
BRANCH  34  44
ATOM     44  C   UNL     1     -10.587  -2.143   0.766  1.00  0.00     0.243 C 
ATOM     45  O   UNL     1      -9.650  -2.510   0.063  1.00  0.00    -0.273 OA
ATOM     46  N   UNL     1     -11.875  -2.066   0.281  1.00  0.00    -0.341 N 
ATOM     47  H   UNL     1     -12.597  -1.644   0.861  1.00  0.00     0.164 HD
BRANCH  46  48
ATOM     48  C   UNL     1     -12.250  -2.465  -1.078  1.00  0.00     0.196 C 
BRANCH  48  49
ATOM     49  C   UNL     1     -13.351  -3.537  -1.062  1.00  0.00     0.072 C 
BRANCH  49  50
ATOM     50  C   UNL     1     -12.884  -4.860  -1.626  1.00  0.00    -0.045 A 
ATOM     51  C   UNL     1     -12.932  -5.086  -3.010  1.00  0.00     0.007 A 
ATOM     52  C   UNL     1     -12.419  -5.879  -0.785  1.00  0.00     0.007 A 
ATOM     53  C   UNL     1     -12.515  -6.307  -3.540  1.00  0.00     0.046 A 
ATOM     54  C   UNL     1     -12.003  -7.102  -1.316  1.00  0.00     0.046 A 
ATOM     55  C   UNL     1     -12.054  -7.305  -2.690  1.00  0.00     0.115 A 
BRANCH  55  56
ATOM     56  O   UNL     1     -11.658  -8.484  -3.249  1.00  0.00    -0.508 OA
ATOM     57  H   UNL     1     -11.937  -8.492  -4.178  1.00  0.00     0.293 HD
ENDBRANCH  55  56
ENDBRANCH  49  50
ENDBRANCH  48  49
BRANCH  48  58
ATOM     58  C   UNL     1     -12.744  -1.229  -1.842  1.00  0.00     0.326 C 
ATOM     59  O   UNL     1     -12.620  -0.060  -1.516  1.00  0.00    -0.250 OA
BRANCH  58  60
ATOM     60  O   UNL     1     -13.370  -1.529  -3.008  1.00  0.00    -0.480 OA
ATOM     61  H   UNL     1     -12.653  -1.918  -3.556  1.00  0.00     0.296 HD
ENDBRANCH  58  60
ENDBRANCH  48  58
ENDBRANCH  46  48
ENDBRANCH  34  44
ENDBRANCH  32  34
ENDBRANCH  25  30
ENDBRANCH  23  25
ENDBRANCH   2  23
TORSDOF 28
ENDMDL
MODEL 10
REMARK VINA RESULT:    -6.313      2.270      8.917
REMARK INTER + INTRA:         -20.747
REMARK INTER:                 -15.475
REMARK INTRA:                  -5.272
REMARK UNBOUND:                -5.023
REMARK SMILES CCCCCCC[C@H](N)[C@H](O)C(=O)N[C@H](C)C(=O)N(C)[C@H](CC(C)C)C(=O)N[C@@H](Cc1ccc(O)cc1)C(=O)N[C@@H](Cc1ccc(O)cc1)C(=O)O
REMARK SMILES IDX 18 1 17 2 15 3 16 4 14 5 12 6 13 7 10 9 11 10 8 12 9 13 7 16
REMARK SMILES IDX 6 17 5 18 4 19 3 20 2 21 1 22 19 23 20 24 21 25 22 26 23 27
REMARK SMILES IDX 24 28 25 29 26 30 27 31 28 32 29 34 30 35 31 36 32 37 37 38
REMARK SMILES IDX 33 39 36 40 34 41 35 42 38 44 39 45 40 46 41 48 42 49 43 50
REMARK SMILES IDX 44 51 49 52 45 53 48 54 46 55 47 56 50 58 51 59 52 60
REMARK H PARENT 14 8 11 11 9 14 9 15 28 33 35 43 40 47 47 57 52 61
ROOT
ATOM      1  O   UNL     1      -9.865  -2.186   4.158  1.00  0.00    -0.272 OA
ATOM      2  C   UNL     1      -9.215  -2.943   3.421  1.00  0.00     0.245 C 
ENDROOT
BRANCH   2   3
ATOM      3  C   UNL     1      -9.611  -3.039   1.926  1.00  0.00     0.168 C 
ATOM      4  C   UNL     1      -8.857  -4.172   1.239  1.00  0.00     0.041 C 
BRANCH   3   5
ATOM      5  N   UNL     1     -11.042  -3.111   1.676  1.00  0.00    -0.342 N 
ATOM      6  C   UNL     1     -11.695  -2.168   0.911  1.00  0.00     0.251 C 
ATOM      7  O   UNL     1     -11.140  -1.189   0.424  1.00  0.00    -0.272 OA
ATOM      8  H   UNL     1     -11.616  -3.859   2.057  1.00  0.00     0.164 HD
BRANCH   6   9
ATOM      9  C   UNL     1     -13.170  -2.522   0.663  1.00  0.00     0.219 C 
BRANCH   9  10
ATOM     10  O   UNL     1     -14.014  -1.365   0.604  1.00  0.00    -0.382 OA
ATOM     11  H   UNL     1     -14.562  -1.520  -0.196  1.00  0.00     0.211 HD
ENDBRANCH   9  10
BRANCH   9  12
ATOM     12  C   UNL     1     -13.380  -3.421  -0.583  1.00  0.00     0.089 C 
BRANCH  12  13
ATOM     13  N   UNL     1     -14.194  -2.672  -1.568  1.00  0.00    -0.325 NA
ATOM     14  H   UNL     1     -13.663  -2.570  -2.434  1.00  0.00     0.119 HD
ATOM     15  H   UNL     1     -14.332  -1.718  -1.226  1.00  0.00     0.119 HD
ENDBRANCH  12  13
BRANCH  12  16
ATOM     16  C   UNL     1     -12.094  -3.958  -1.255  1.00  0.00     0.022 C 
BRANCH  16  17
ATOM     17  C   UNL     1     -11.696  -5.425  -1.040  1.00  0.00     0.002 C 
BRANCH  17  18
ATOM     18  C   UNL     1     -12.731  -6.448  -1.504  1.00  0.00     0.000 C 
BRANCH  18  19
ATOM     19  C   UNL     1     -12.286  -7.283  -2.713  1.00  0.00    -0.000 C 
BRANCH  19  20
ATOM     20  C   UNL     1     -11.543  -8.577  -2.371  1.00  0.00    -0.000 C 
BRANCH  20  21
ATOM     21  C   UNL     1     -10.022  -8.444  -2.489  1.00  0.00    -0.003 C 
ATOM     22  C   UNL     1      -9.622  -7.821  -3.817  1.00  0.00     0.004 C 
ENDBRANCH  20  21
ENDBRANCH  19  20
ENDBRANCH  18  19
ENDBRANCH  17  18
ENDBRANCH  16  17
ENDBRANCH  12  16
ENDBRANCH   9  12
ENDBRANCH   6   9
ENDBRANCH   3   5
ENDBRANCH   2   3
BRANCH   2  23
ATOM     23  N   UNL     1      -8.084  -3.588   3.909  1.00  0.00    -0.332 N 
ATOM     24  C   UNL     1      -6.744  -3.021   3.907  1.00  0.00     0.147 C 
BRANCH  23  25
ATOM     25  C   UNL     1      -8.209  -4.899   4.604  1.00  0.00     0.174 C 
BRANCH  25  26
ATOM     26  C   UNL     1      -9.678  -5.349   4.781  1.00  0.00     0.038 C 
BRANCH  26  27
ATOM     27  C   UNL     1     -10.099  -6.659   4.079  1.00  0.00    -0.015 C 
ATOM     28  C   UNL     1     -11.162  -6.431   3.005  1.00  0.00     0.007 C 
ATOM     29  C   UNL     1      -8.922  -7.448   3.510  1.00  0.00     0.007 C 
ENDBRANCH  26  27
ENDBRANCH  25  26
BRANCH  25  30
ATOM     30  C   UNL     1      -7.401  -4.882   5.922  1.00  0.00     0.243 C 
ATOM     31  O   UNL     1      -6.273  -5.366   5.999  1.00  0.00    -0.273 OA
ATOM     32  N   UNL     1      -8.027  -4.299   6.994  1.00  0.00    -0.342 N 
ATOM     33  H   UNL     1      -8.900  -3.795   6.816  1.00  0.00     0.164 HD
BRANCH  32  34
ATOM     34  C   UNL     1      -7.424  -4.217   8.327  1.00  0.00     0.175 C 
BRANCH  34  35
ATOM     35  C   UNL     1      -7.088  -2.765   8.700  1.00  0.00     0.070 C 
BRANCH  35  36
ATOM     36  C   UNL     1      -8.303  -1.864   8.698  1.00  0.00    -0.045 A 
ATOM     37  C   UNL     1      -8.653  -1.160   7.536  1.00  0.00     0.007 A 
ATOM     38  C   UNL     1      -9.080  -1.702   9.853  1.00  0.00     0.007 A 
ATOM     39  C   UNL     1      -9.764  -0.317   7.528  1.00  0.00     0.046 A 
ATOM     40  C   UNL     1     -10.192  -0.857   9.846  1.00  0.00     0.046 A 
ATOM     41  C   UNL     1     -10.525  -0.172   8.682  1.00  0.00     0.115 A 
BRANCH  41  42
ATOM     42  O   UNL     1     -11.600   0.664   8.633  1.00  0.00    -0.508 OA
ATOM     43  H   UNL     1     -11.323   1.536   8.961  1.00  0.00     0.293 HD
ENDBRANCH  41  42
ENDBRANCH  35  36
ENDBRANCH  34  35
BRANCH  34  44
ATOM     44  C   UNL     1      -8.402  -4.861   9.335  1.00  0.00     0.243 C 
ATOM     45  O   UNL     1      -8.127  -5.112  10.505  1.00  0.00    -0.273 OA
ATOM     46  N   UNL     1      -9.594  -5.258   8.767  1.00  0.00    -0.341 N 
ATOM     47  H   UNL     1      -9.729  -5.134   7.766  1.00  0.00     0.164 HD
BRANCH  46  48
ATOM     48  C   UNL     1     -10.648  -5.952   9.508  1.00  0.00     0.196 C 
BRANCH  48  49
ATOM     49  C   UNL     1     -12.002  -5.239   9.356  1.00  0.00     0.072 C 
BRANCH  49  50
ATOM     50  C   UNL     1     -12.236  -4.728   7.952  1.00  0.00    -0.045 A 
ATOM     51  C   UNL     1     -11.818  -3.436   7.600  1.00  0.00     0.007 A 
ATOM     52  C   UNL     1     -12.886  -5.519   6.996  1.00  0.00     0.007 A 
ATOM     53  C   UNL     1     -12.040  -2.949   6.312  1.00  0.00     0.046 A 
ATOM     54  C   UNL     1     -13.109  -5.030   5.707  1.00  0.00     0.046 A 
ATOM     55  C   UNL     1     -12.683  -3.749   5.375  1.00  0.00     0.115 A 
BRANCH  55  56
ATOM     56  O   UNL     1     -12.882  -3.235   4.128  1.00  0.00    -0.508 OA
ATOM     57  H   UNL     1     -12.039  -3.260   3.649  1.00  0.00     0.293 HD
ENDBRANCH  55  56
ENDBRANCH  49  50
ENDBRANCH  48  49
BRANCH  48  58
ATOM     58  C   UNL     1     -10.763  -7.391   8.985  1.00  0.00     0.326 C 
ATOM     59  O   UNL     1     -11.360  -8.320   9.503  1.00  0.00    -0.250 OA
BRANCH  58  60
ATOM     60  O   UNL     1     -10.120  -7.591   7.807  1.00  0.00    -0.480 OA
ATOM     61  H   UNL     1     -10.225  -8.555   7.654  1.00  0.00     0.296 HD
ENDBRANCH  58  60
ENDBRANCH  48  58
ENDBRANCH  46  48
ENDBRANCH  34  44
ENDBRANCH  32  34
ENDBRANCH  25  30
ENDBRANCH  23  25
ENDBRANCH   2  23
TORSDOF 28
ENDMDL
MODEL 11
REMARK VINA RESULT:    -6.283      2.398      8.855
REMARK INTER + INTRA:         -20.672
REMARK INTER:                 -15.680
REMARK INTRA:                  -4.992
REMARK UNBOUND:                -5.023
REMARK SMILES CCCCCCC[C@H](N)[C@H](O)C(=O)N[C@H](C)C(=O)N(C)[C@H](CC(C)C)C(=O)N[C@@H](Cc1ccc(O)cc1)C(=O)N[C@@H](Cc1ccc(O)cc1)C(=O)O
REMARK SMILES IDX 18 1 17 2 15 3 16 4 14 5 12 6 13 7 10 9 11 10 8 12 9 13 7 16
REMARK SMILES IDX 6 17 5 18 4 19 3 20 2 21 1 22 19 23 20 24 21 25 22 26 23 27
REMARK SMILES IDX 24 28 25 29 26 30 27 31 28 32 29 34 30 35 31 36 32 37 37 38
REMARK SMILES IDX 33 39 36 40 34 41 35 42 38 44 39 45 40 46 41 48 42 49 43 50
REMARK SMILES IDX 44 51 49 52 45 53 48 54 46 55 47 56 50 58 51 59 52 60
REMARK H PARENT 14 8 11 11 9 14 9 15 28 33 35 43 40 47 47 57 52 61
ROOT
ATOM      1  O   UNL     1     -10.612  -7.557   2.132  1.00  0.00    -0.272 OA
ATOM      2  C   UNL     1      -9.437  -7.898   1.933  1.00  0.00     0.245 C 
ENDROOT
BRANCH   2   3
ATOM      3  C   UNL     1      -9.125  -8.813   0.722  1.00  0.00     0.168 C 
ATOM      4  C   UNL     1      -9.008 -10.269   1.159  1.00  0.00     0.041 C 
BRANCH   3   5
ATOM      5  N   UNL     1     -10.027  -8.657  -0.409  1.00  0.00    -0.342 N 
ATOM      6  C   UNL     1      -9.613  -8.093  -1.597  1.00  0.00     0.251 C 
ATOM      7  O   UNL     1      -8.485  -7.647  -1.778  1.00  0.00    -0.272 OA
ATOM      8  H   UNL     1     -10.998  -8.958  -0.366  1.00  0.00     0.164 HD
BRANCH   6   9
ATOM      9  C   UNL     1     -10.688  -8.161  -2.694  1.00  0.00     0.219 C 
BRANCH   9  10
ATOM     10  O   UNL     1     -11.620  -9.230  -2.488  1.00  0.00    -0.382 OA
ATOM     11  H   UNL     1     -12.496  -8.799  -2.604  1.00  0.00     0.211 HD
ENDBRANCH   9  10
BRANCH   9  12
ATOM     12  C   UNL     1     -11.431  -6.816  -2.904  1.00  0.00     0.089 C 
BRANCH  12  13
ATOM     13  N   UNL     1     -11.624  -6.611  -4.358  1.00  0.00    -0.325 NA
ATOM     14  H   UNL     1     -11.983  -7.472  -4.774  1.00  0.00     0.119 HD
ATOM     15  H   UNL     1     -10.712  -6.463  -4.795  1.00  0.00     0.119 HD
ENDBRANCH  12  13
BRANCH  12  16
ATOM     16  C   UNL     1     -12.780  -6.663  -2.162  1.00  0.00     0.022 C 
BRANCH  16  17
ATOM     17  C   UNL     1     -12.775  -6.402  -0.649  1.00  0.00     0.002 C 
BRANCH  17  18
ATOM     18  C   UNL     1     -11.854  -5.272  -0.193  1.00  0.00     0.000 C 
BRANCH  18  19
ATOM     19  C   UNL     1     -11.895  -4.030  -1.093  1.00  0.00    -0.000 C 
BRANCH  19  20
ATOM     20  C   UNL     1     -11.454  -2.726  -0.423  1.00  0.00    -0.000 C 
BRANCH  20  21
ATOM     21  C   UNL     1     -12.585  -1.701  -0.303  1.00  0.00    -0.003 C 
ATOM     22  C   UNL     1     -13.689  -2.198   0.617  1.00  0.00     0.004 C 
ENDBRANCH  20  21
ENDBRANCH  19  20
ENDBRANCH  18  19
ENDBRANCH  17  18
ENDBRANCH  16  17
ENDBRANCH  12  16
ENDBRANCH   9  12
ENDBRANCH   6   9
ENDBRANCH   3   5
ENDBRANCH   2   3
BRANCH   2  23
ATOM     23  N   UNL     1      -8.416  -7.365   2.713  1.00  0.00    -0.332 N 
ATOM     24  C   UNL     1      -7.000  -7.643   2.523  1.00  0.00     0.147 C 
BRANCH  23  25
ATOM     25  C   UNL     1      -8.720  -6.339   3.748  1.00  0.00     0.174 C 
BRANCH  25  26
ATOM     26  C   UNL     1      -9.490  -6.916   4.960  1.00  0.00     0.038 C 
BRANCH  26  27
ATOM     27  C   UNL     1      -8.888  -6.659   6.359  1.00  0.00    -0.015 C 
ATOM     28  C   UNL     1      -8.834  -5.172   6.708  1.00  0.00     0.007 C 
ATOM     29  C   UNL     1      -9.577  -7.447   7.471  1.00  0.00     0.007 C 
ENDBRANCH  26  27
ENDBRANCH  25  26
BRANCH  25  30
ATOM     30  C   UNL     1      -9.408  -5.116   3.100  1.00  0.00     0.243 C 
ATOM     31  O   UNL     1      -8.930  -4.544   2.122  1.00  0.00    -0.273 OA
ATOM     32  N   UNL     1     -10.577  -4.711   3.691  1.00  0.00    -0.342 N 
ATOM     33  H   UNL     1     -10.982  -5.319   4.407  1.00  0.00     0.164 HD
BRANCH  32  34
ATOM     34  C   UNL     1     -11.350  -3.555   3.228  1.00  0.00     0.175 C 
BRANCH  34  35
ATOM     35  C   UNL     1     -12.658  -3.405   4.020  1.00  0.00     0.070 C 
BRANCH  35  36
ATOM     36  C   UNL     1     -12.565  -3.973   5.418  1.00  0.00    -0.045 A 
ATOM     37  C   UNL     1     -12.971  -5.292   5.668  1.00  0.00     0.007 A 
ATOM     38  C   UNL     1     -12.096  -3.191   6.482  1.00  0.00     0.007 A 
ATOM     39  C   UNL     1     -12.901  -5.821   6.957  1.00  0.00     0.046 A 
ATOM     40  C   UNL     1     -12.027  -3.719   7.774  1.00  0.00     0.046 A 
ATOM     41  C   UNL     1     -12.429  -5.031   7.999  1.00  0.00     0.115 A 
BRANCH  41  42
ATOM     42  O   UNL     1     -12.380  -5.584   9.244  1.00  0.00    -0.508 OA
ATOM     43  H   UNL     1     -11.447  -5.718   9.481  1.00  0.00     0.293 HD
ENDBRANCH  41  42
ENDBRANCH  35  36
ENDBRANCH  34  35
BRANCH  34  44
ATOM     44  C   UNL     1     -10.455  -2.301   3.350  1.00  0.00     0.243 C 
ATOM     45  O   UNL     1     -10.515  -1.331   2.599  1.00  0.00    -0.273 OA
ATOM     46  N   UNL     1      -9.475  -2.417   4.312  1.00  0.00    -0.341 N 
ATOM     47  H   UNL     1      -9.392  -3.289   4.830  1.00  0.00     0.164 HD
BRANCH  46  48
ATOM     48  C   UNL     1      -8.466  -1.386   4.563  1.00  0.00     0.196 C 
BRANCH  48  49
ATOM     49  C   UNL     1      -7.785  -1.589   5.927  1.00  0.00     0.072 C 
BRANCH  49  50
ATOM     50  C   UNL     1      -8.667  -1.179   7.085  1.00  0.00    -0.045 A 
ATOM     51  C   UNL     1      -9.595  -0.139   6.922  1.00  0.00     0.007 A 
ATOM     52  C   UNL     1      -8.560  -1.808   8.331  1.00  0.00     0.007 A 
ATOM     53  C   UNL     1     -10.405   0.257   7.986  1.00  0.00     0.046 A 
ATOM     54  C   UNL     1      -9.371  -1.411   9.397  1.00  0.00     0.046 A 
ATOM     55  C   UNL     1     -10.288  -0.381   9.215  1.00  0.00     0.115 A 
BRANCH  55  56
ATOM     56  O   UNL     1     -11.096   0.037  10.230  1.00  0.00    -0.508 OA
ATOM     57  H   UNL     1     -11.988  -0.315  10.076  1.00  0.00     0.293 HD
ENDBRANCH  55  56
ENDBRANCH  49  50
ENDBRANCH  48  49
BRANCH  48  58
ATOM     58  C   UNL     1      -7.411  -1.437   3.449  1.00  0.00     0.326 C 
ATOM     59  O   UNL     1      -6.487  -2.226   3.342  1.00  0.00    -0.250 OA
BRANCH  58  60
ATOM     60  O   UNL     1      -7.582  -0.484   2.498  1.00  0.00    -0.480 OA
ATOM     61  H   UNL     1      -7.512  -0.988   1.658  1.00  0.00     0.296 HD
ENDBRANCH  58  60
ENDBRANCH  48  58
ENDBRANCH  46  48
ENDBRANCH  34  44
ENDBRANCH  32  34
ENDBRANCH  25  30
ENDBRANCH  23  25
ENDBRANCH   2  23
TORSDOF 28
ENDMDL
MODEL 12
REMARK VINA RESULT:    -6.269      3.660      6.998
REMARK INTER + INTRA:         -20.637
REMARK INTER:                 -16.159
REMARK INTRA:                  -4.477
REMARK UNBOUND:                -5.023
REMARK SMILES CCCCCCC[C@H](N)[C@H](O)C(=O)N[C@H](C)C(=O)N(C)[C@H](CC(C)C)C(=O)N[C@@H](Cc1ccc(O)cc1)C(=O)N[C@@H](Cc1ccc(O)cc1)C(=O)O
REMARK SMILES IDX 18 1 17 2 15 3 16 4 14 5 12 6 13 7 10 9 11 10 8 12 9 13 7 16
REMARK SMILES IDX 6 17 5 18 4 19 3 20 2 21 1 22 19 23 20 24 21 25 22 26 23 27
REMARK SMILES IDX 24 28 25 29 26 30 27 31 28 32 29 34 30 35 31 36 32 37 37 38
REMARK SMILES IDX 33 39 36 40 34 41 35 42 38 44 39 45 40 46 41 48 42 49 43 50
REMARK SMILES IDX 44 51 49 52 45 53 48 54 46 55 47 56 50 58 51 59 52 60
REMARK H PARENT 14 8 11 11 9 14 9 15 28 33 35 43 40 47 47 57 52 61
ROOT
ATOM      1  O   UNL     1     -10.228  -6.538   6.835  1.00  0.00    -0.272 OA
ATOM      2  C   UNL     1     -10.788  -5.527   7.284  1.00  0.00     0.245 C 
ENDROOT
BRANCH   2   3
ATOM      3  C   UNL     1     -12.281  -5.624   7.686  1.00  0.00     0.168 C 
ATOM      4  C   UNL     1     -13.173  -5.664   6.450  1.00  0.00     0.041 C 
BRANCH   3   5
ATOM      5  N   UNL     1     -12.595  -6.697   8.616  1.00  0.00    -0.342 N 
ATOM      6  C   UNL     1     -13.146  -6.449   9.855  1.00  0.00     0.251 C 
ATOM      7  O   UNL     1     -13.371  -5.321  10.281  1.00  0.00    -0.272 OA
ATOM      8  H   UNL     1     -12.420  -7.673   8.387  1.00  0.00     0.164 HD
BRANCH   6   9
ATOM      9  C   UNL     1     -13.525  -7.736  10.606  1.00  0.00     0.219 C 
BRANCH   9  10
ATOM     10  O   UNL     1     -13.161  -7.695  11.991  1.00  0.00    -0.382 OA
ATOM     11  H   UNL     1     -14.016  -7.818  12.458  1.00  0.00     0.211 HD
ENDBRANCH   9  10
BRANCH   9  12
ATOM     12  C   UNL     1     -15.018  -8.121  10.440  1.00  0.00     0.089 C 
BRANCH  12  13
ATOM     13  N   UNL     1     -15.307  -8.256   8.994  1.00  0.00    -0.325 NA
ATOM     14  H   UNL     1     -15.938  -7.505   8.706  1.00  0.00     0.119 HD
ATOM     15  H   UNL     1     -15.834  -9.119   8.841  1.00  0.00     0.119 HD
ENDBRANCH  12  13
BRANCH  12  16
ATOM     16  C   UNL     1     -15.479  -9.390  11.195  1.00  0.00     0.022 C 
BRANCH  16  17
ATOM     17  C   UNL     1     -14.663 -10.683  11.051  1.00  0.00     0.002 C 
BRANCH  17  18
ATOM     18  C   UNL     1     -14.236 -11.325  12.368  1.00  0.00     0.000 C 
BRANCH  18  19
ATOM     19  C   UNL     1     -12.929 -12.124  12.279  1.00  0.00    -0.000 C 
BRANCH  19  20
ATOM     20  C   UNL     1     -13.062 -13.623  12.559  1.00  0.00    -0.000 C 
BRANCH  20  21
ATOM     21  C   UNL     1     -14.512 -14.067  12.770  1.00  0.00    -0.003 C 
ATOM     22  C   UNL     1     -14.609 -15.167  13.815  1.00  0.00     0.004 C 
ENDBRANCH  20  21
ENDBRANCH  19  20
ENDBRANCH  18  19
ENDBRANCH  17  18
ENDBRANCH  16  17
ENDBRANCH  12  16
ENDBRANCH   9  12
ENDBRANCH   6   9
ENDBRANCH   3   5
ENDBRANCH   2   3
BRANCH   2  23
ATOM     23  N   UNL     1     -10.050  -4.375   7.532  1.00  0.00    -0.332 N 
ATOM     24  C   UNL     1      -9.031  -4.253   8.565  1.00  0.00     0.147 C 
BRANCH  23  25
ATOM     25  C   UNL     1     -10.178  -3.193   6.636  1.00  0.00     0.174 C 
BRANCH  25  26
ATOM     26  C   UNL     1     -11.515  -2.439   6.821  1.00  0.00     0.038 C 
BRANCH  26  27
ATOM     27  C   UNL     1     -11.590  -1.420   7.980  1.00  0.00    -0.015 C 
ATOM     28  C   UNL     1     -11.956  -2.076   9.311  1.00  0.00     0.007 C 
ATOM     29  C   UNL     1     -10.328  -0.574   8.127  1.00  0.00     0.007 C 
ENDBRANCH  26  27
ENDBRANCH  25  26
BRANCH  25  30
ATOM     30  C   UNL     1      -9.892  -3.602   5.172  1.00  0.00     0.243 C 
ATOM     31  O   UNL     1      -8.798  -4.044   4.823  1.00  0.00    -0.273 OA
ATOM     32  N   UNL     1     -10.932  -3.433   4.295  1.00  0.00    -0.342 N 
ATOM     33  H   UNL     1     -11.848  -3.196   4.686  1.00  0.00     0.164 HD
BRANCH  32  34
ATOM     34  C   UNL     1     -10.834  -3.741   2.866  1.00  0.00     0.175 C 
BRANCH  34  35
ATOM     35  C   UNL     1     -11.879  -4.787   2.447  1.00  0.00     0.070 C 
BRANCH  35  36
ATOM     36  C   UNL     1     -11.262  -5.998   1.784  1.00  0.00    -0.045 A 
ATOM     37  C   UNL     1     -12.046  -7.132   1.526  1.00  0.00     0.007 A 
ATOM     38  C   UNL     1      -9.903  -6.016   1.442  1.00  0.00     0.007 A 
ATOM     39  C   UNL     1     -11.482  -8.259   0.928  1.00  0.00     0.046 A 
ATOM     40  C   UNL     1      -9.338  -7.144   0.844  1.00  0.00     0.046 A 
ATOM     41  C   UNL     1     -10.134  -8.257   0.591  1.00  0.00     0.115 A 
BRANCH  41  42
ATOM     42  O   UNL     1      -9.621  -9.379   0.011  1.00  0.00    -0.508 OA
ATOM     43  H   UNL     1     -10.268 -10.097   0.111  1.00  0.00     0.293 HD
ENDBRANCH  41  42
ENDBRANCH  35  36
ENDBRANCH  34  35
BRANCH  34  44
ATOM     44  C   UNL     1     -10.991  -2.420   2.080  1.00  0.00     0.243 C 
ATOM     45  O   UNL     1     -10.668  -1.316   2.507  1.00  0.00    -0.273 OA
ATOM     46  N   UNL     1     -11.656  -2.571   0.882  1.00  0.00    -0.341 N 
ATOM     47  H   UNL     1     -12.008  -3.489   0.624  1.00  0.00     0.164 HD
BRANCH  46  48
ATOM     48  C   UNL     1     -11.982  -1.452  -0.005  1.00  0.00     0.196 C 
BRANCH  48  49
ATOM     49  C   UNL     1     -11.842  -1.849  -1.484  1.00  0.00     0.072 C 
BRANCH  49  50
ATOM     50  C   UNL     1     -11.833  -3.348  -1.685  1.00  0.00    -0.045 A 
ATOM     51  C   UNL     1     -10.630  -4.007  -1.976  1.00  0.00     0.007 A 
ATOM     52  C   UNL     1     -13.017  -4.092  -1.607  1.00  0.00     0.007 A 
ATOM     53  C   UNL     1     -10.612  -5.387  -2.177  1.00  0.00     0.046 A 
ATOM     54  C   UNL     1     -12.999  -5.474  -1.809  1.00  0.00     0.046 A 
ATOM     55  C   UNL     1     -11.795  -6.110  -2.091  1.00  0.00     0.115 A 
BRANCH  55  56
ATOM     56  O   UNL     1     -11.735  -7.457  -2.296  1.00  0.00    -0.508 OA
ATOM     57  H   UNL     1     -11.516  -7.885  -1.453  1.00  0.00     0.293 HD
ENDBRANCH  55  56
ENDBRANCH  49  50
ENDBRANCH  48  49
BRANCH  48  58
ATOM     58  C   UNL     1     -13.423  -0.999   0.272  1.00  0.00     0.326 C 
ATOM     59  O   UNL     1     -13.931   0.070  -0.025  1.00  0.00    -0.250 OA
BRANCH  58  60
ATOM     60  O   UNL     1     -14.172  -1.935   0.906  1.00  0.00    -0.480 OA
ATOM     61  H   UNL     1     -15.082  -1.570   0.854  1.00  0.00     0.296 HD
ENDBRANCH  58  60
ENDBRANCH  48  58
ENDBRANCH  46  48
ENDBRANCH  34  44
ENDBRANCH  32  34
ENDBRANCH  25  30
ENDBRANCH  23  25
ENDBRANCH   2  23
TORSDOF 28
ENDMDL
MODEL 13
REMARK VINA RESULT:    -6.262      2.189      9.628
REMARK INTER + INTRA:         -20.620
REMARK INTER:                 -15.378
REMARK INTRA:                  -5.242
REMARK UNBOUND:                -5.023
REMARK SMILES CCCCCCC[C@H](N)[C@H](O)C(=O)N[C@H](C)C(=O)N(C)[C@H](CC(C)C)C(=O)N[C@@H](Cc1ccc(O)cc1)C(=O)N[C@@H](Cc1ccc(O)cc1)C(=O)O
REMARK SMILES IDX 18 1 17 2 15 3 16 4 14 5 12 6 13 7 10 9 11 10 8 12 9 13 7 16
REMARK SMILES IDX 6 17 5 18 4 19 3 20 2 21 1 22 19 23 20 24 21 25 22 26 23 27
REMARK SMILES IDX 24 28 25 29 26 30 27 31 28 32 29 34 30 35 31 36 32 37 37 38
REMARK SMILES IDX 33 39 36 40 34 41 35 42 38 44 39 45 40 46 41 48 42 49 43 50
REMARK SMILES IDX 44 51 49 52 45 53 48 54 46 55 47 56 50 58 51 59 52 60
REMARK H PARENT 14 8 11 11 9 14 9 15 28 33 35 43 40 47 47 57 52 61
ROOT
ATOM      1  O   UNL     1      -8.016  -3.544   2.283  1.00  0.00    -0.272 OA
ATOM      2  C   UNL     1      -8.720  -2.548   2.060  1.00  0.00     0.245 C 
ENDROOT
BRANCH   2   3
ATOM      3  C   UNL     1      -9.359  -2.392   0.658  1.00  0.00     0.168 C 
ATOM      4  C   UNL     1      -8.502  -3.068  -0.407  1.00  0.00     0.041 C 
BRANCH   3   5
ATOM      5  N   UNL     1     -10.753  -2.801   0.573  1.00  0.00    -0.342 N 
ATOM      6  C   UNL     1     -11.785  -1.891   0.661  1.00  0.00     0.251 C 
ATOM      7  O   UNL     1     -11.616  -0.692   0.857  1.00  0.00    -0.272 OA
ATOM      8  H   UNL     1     -11.019  -3.774   0.445  1.00  0.00     0.164 HD
BRANCH   6   9
ATOM      9  C   UNL     1     -13.161  -2.526   0.402  1.00  0.00     0.219 C 
BRANCH   9  10
ATOM     10  O   UNL     1     -14.216  -1.867   1.111  1.00  0.00    -0.382 OA
ATOM     11  H   UNL     1     -14.721  -2.607   1.515  1.00  0.00     0.211 HD
ENDBRANCH   9  10
BRANCH   9  12
ATOM     12  C   UNL     1     -13.502  -2.646  -1.107  1.00  0.00     0.089 C 
BRANCH  12  13
ATOM     13  N   UNL     1     -12.639  -1.705  -1.857  1.00  0.00    -0.325 NA
ATOM     14  H   UNL     1     -11.774  -2.181  -2.122  1.00  0.00     0.119 HD
ATOM     15  H   UNL     1     -12.348  -0.951  -1.230  1.00  0.00     0.119 HD
ENDBRANCH  12  13
BRANCH  12  16
ATOM     16  C   UNL     1     -13.396  -4.065  -1.715  1.00  0.00     0.022 C 
BRANCH  16  17
ATOM     17  C   UNL     1     -12.737  -5.183  -0.894  1.00  0.00     0.002 C 
BRANCH  17  18
ATOM     18  C   UNL     1     -13.158  -6.599  -1.279  1.00  0.00     0.000 C 
BRANCH  18  19
ATOM     19  C   UNL     1     -12.031  -7.441  -1.891  1.00  0.00    -0.000 C 
BRANCH  19  20
ATOM     20  C   UNL     1     -11.641  -7.064  -3.323  1.00  0.00    -0.000 C 
BRANCH  20  21
ATOM     21  C   UNL     1     -10.201  -7.445  -3.673  1.00  0.00    -0.003 C 
ATOM     22  C   UNL     1      -9.651  -8.482  -2.705  1.00  0.00     0.004 C 
ENDBRANCH  20  21
ENDBRANCH  19  20
ENDBRANCH  18  19
ENDBRANCH  17  18
ENDBRANCH  16  17
ENDBRANCH  12  16
ENDBRANCH   9  12
ENDBRANCH   6   9
ENDBRANCH   3   5
ENDBRANCH   2   3
BRANCH   2  23
ATOM     23  N   UNL     1      -9.021  -1.664   3.091  1.00  0.00    -0.332 N 
ATOM     24  C   UNL     1      -9.109  -0.219   2.940  1.00  0.00     0.147 C 
BRANCH  23  25
ATOM     25  C   UNL     1      -9.409  -2.179   4.433  1.00  0.00     0.174 C 
BRANCH  25  26
ATOM     26  C   UNL     1      -8.195  -2.632   5.278  1.00  0.00     0.038 C 
BRANCH  26  27
ATOM     27  C   UNL     1      -7.218  -1.531   5.747  1.00  0.00    -0.015 C 
ATOM     28  C   UNL     1      -6.964  -1.578   7.253  1.00  0.00     0.007 C 
ATOM     29  C   UNL     1      -5.898  -1.523   4.979  1.00  0.00     0.007 C 
ENDBRANCH  26  27
ENDBRANCH  25  26
BRANCH  25  30
ATOM     30  C   UNL     1     -10.506  -3.259   4.291  1.00  0.00     0.243 C 
ATOM     31  O   UNL     1     -11.612  -3.004   3.819  1.00  0.00    -0.273 OA
ATOM     32  N   UNL     1     -10.165  -4.512   4.732  1.00  0.00    -0.342 N 
ATOM     33  H   UNL     1      -9.185  -4.678   4.978  1.00  0.00     0.164 HD
BRANCH  32  34
ATOM     34  C   UNL     1     -11.086  -5.651   4.701  1.00  0.00     0.175 C 
BRANCH  34  35
ATOM     35  C   UNL     1     -10.362  -6.945   4.297  1.00  0.00     0.070 C 
BRANCH  35  36
ATOM     36  C   UNL     1      -9.627  -6.818   2.982  1.00  0.00    -0.045 A 
ATOM     37  C   UNL     1     -10.328  -6.468   1.817  1.00  0.00     0.007 A 
ATOM     38  C   UNL     1      -8.251  -7.068   2.900  1.00  0.00     0.007 A 
ATOM     39  C   UNL     1      -9.661  -6.361   0.597  1.00  0.00     0.046 A 
ATOM     40  C   UNL     1      -7.583  -6.963   1.677  1.00  0.00     0.046 A 
ATOM     41  C   UNL     1      -8.295  -6.609   0.536  1.00  0.00     0.115 A 
BRANCH  41  42
ATOM     42  O   UNL     1      -7.682  -6.498  -0.677  1.00  0.00    -0.508 OA
ATOM     43  H   UNL     1      -7.742  -7.356  -1.129  1.00  0.00     0.293 HD
ENDBRANCH  41  42
ENDBRANCH  35  36
ENDBRANCH  34  35
BRANCH  34  44
ATOM     44  C   UNL     1     -11.748  -5.770   6.092  1.00  0.00     0.243 C 
ATOM     45  O   UNL     1     -12.951  -5.933   6.277  1.00  0.00    -0.273 OA
ATOM     46  N   UNL     1     -10.875  -5.544   7.136  1.00  0.00    -0.341 N 
ATOM     47  H   UNL     1      -9.911  -5.297   6.928  1.00  0.00     0.164 HD
BRANCH  46  48
ATOM     48  C   UNL     1     -11.286  -5.536   8.542  1.00  0.00     0.196 C 
BRANCH  48  49
ATOM     49  C   UNL     1     -12.492  -4.609   8.768  1.00  0.00     0.072 C 
BRANCH  49  50
ATOM     50  C   UNL     1     -12.104  -3.148   8.798  1.00  0.00    -0.045 A 
ATOM     51  C   UNL     1     -11.783  -2.485   7.605  1.00  0.00     0.007 A 
ATOM     52  C   UNL     1     -12.039  -2.444  10.008  1.00  0.00     0.007 A 
ATOM     53  C   UNL     1     -11.412  -1.140   7.622  1.00  0.00     0.046 A 
ATOM     54  C   UNL     1     -11.666  -1.098  10.025  1.00  0.00     0.046 A 
ATOM     55  C   UNL     1     -11.356  -0.457   8.831  1.00  0.00     0.115 A 
BRANCH  55  56
ATOM     56  O   UNL     1     -10.986   0.855   8.805  1.00  0.00    -0.508 OA
ATOM     57  H   UNL     1     -10.756   1.126   9.707  1.00  0.00     0.293 HD
ENDBRANCH  55  56
ENDBRANCH  49  50
ENDBRANCH  48  49
BRANCH  48  58
ATOM     58  C   UNL     1     -11.650  -6.967   8.963  1.00  0.00     0.326 C 
ATOM     59  O   UNL     1     -10.882  -7.886   9.197  1.00  0.00    -0.250 OA
BRANCH  58  60
ATOM     60  O   UNL     1     -12.986  -7.171   9.087  1.00  0.00    -0.480 OA
ATOM     61  H   UNL     1     -13.106  -8.085   8.751  1.00  0.00     0.296 HD
ENDBRANCH  58  60
ENDBRANCH  48  58
ENDBRANCH  46  48
ENDBRANCH  34  44
ENDBRANCH  32  34
ENDBRANCH  25  30
ENDBRANCH  23  25
ENDBRANCH   2  23
TORSDOF 28
ENDMDL
MODEL 14
REMARK VINA RESULT:    -6.260      2.540      7.578
REMARK INTER + INTRA:         -20.614
REMARK INTER:                 -14.364
REMARK INTRA:                  -6.250
REMARK UNBOUND:                -5.023
REMARK SMILES CCCCCCC[C@H](N)[C@H](O)C(=O)N[C@H](C)C(=O)N(C)[C@H](CC(C)C)C(=O)N[C@@H](Cc1ccc(O)cc1)C(=O)N[C@@H](Cc1ccc(O)cc1)C(=O)O
REMARK SMILES IDX 18 1 17 2 15 3 16 4 14 5 12 6 13 7 10 9 11 10 8 12 9 13 7 16
REMARK SMILES IDX 6 17 5 18 4 19 3 20 2 21 1 22 19 23 20 24 21 25 22 26 23 27
REMARK SMILES IDX 24 28 25 29 26 30 27 31 28 32 29 34 30 35 31 36 32 37 37 38
REMARK SMILES IDX 33 39 36 40 34 41 35 42 38 44 39 45 40 46 41 48 42 49 43 50
REMARK SMILES IDX 44 51 49 52 45 53 48 54 46 55 47 56 50 58 51 59 52 60
REMARK H PARENT 14 8 11 11 9 14 9 15 28 33 35 43 40 47 47 57 52 61
ROOT
ATOM      1  O   UNL     1      -9.549   0.249   2.759  1.00  0.00    -0.272 OA
ATOM      2  C   UNL     1      -8.624  -0.576   2.730  1.00  0.00     0.245 C 
ENDROOT
BRANCH   2   3
ATOM      3  C   UNL     1      -7.825  -0.747   1.414  1.00  0.00     0.168 C 
ATOM      4  C   UNL     1      -6.706   0.285   1.321  1.00  0.00     0.041 C 
BRANCH   3   5
ATOM      5  N   UNL     1      -7.340  -2.096   1.164  1.00  0.00    -0.342 N 
ATOM      6  C   UNL     1      -8.046  -2.992   0.390  1.00  0.00     0.251 C 
ATOM      7  O   UNL     1      -9.139  -2.742  -0.107  1.00  0.00    -0.272 OA
ATOM      8  H   UNL     1      -6.461  -2.430   1.553  1.00  0.00     0.164 HD
BRANCH   6   9
ATOM      9  C   UNL     1      -7.279  -4.301   0.146  1.00  0.00     0.219 C 
BRANCH   9  10
ATOM     10  O   UNL     1      -7.549  -5.294   1.142  1.00  0.00    -0.382 OA
ATOM     11  H   UNL     1      -7.269  -4.864   1.980  1.00  0.00     0.211 HD
ENDBRANCH   9  10
BRANCH   9  12
ATOM     12  C   UNL     1      -7.494  -4.877  -1.278  1.00  0.00     0.089 C 
BRANCH  12  13
ATOM     13  N   UNL     1      -6.169  -5.196  -1.858  1.00  0.00    -0.325 NA
ATOM     14  H   UNL     1      -6.143  -4.880  -2.829  1.00  0.00     0.119 HD
ATOM     15  H   UNL     1      -6.064  -6.212  -1.905  1.00  0.00     0.119 HD
ENDBRANCH  12  13
BRANCH  12  16
ATOM     16  C   UNL     1      -8.428  -6.106  -1.379  1.00  0.00     0.022 C 
BRANCH  16  17
ATOM     17  C   UNL     1      -7.958  -7.340  -2.162  1.00  0.00     0.002 C 
BRANCH  17  18
ATOM     18  C   UNL     1      -7.820  -8.615  -1.334  1.00  0.00     0.000 C 
BRANCH  18  19
ATOM     19  C   UNL     1      -7.961  -8.396   0.178  1.00  0.00    -0.000 C 
BRANCH  19  20
ATOM     20  C   UNL     1      -8.988  -9.296   0.872  1.00  0.00    -0.000 C 
BRANCH  20  21
ATOM     21  C   UNL     1      -8.527 -10.751   0.990  1.00  0.00    -0.003 C 
ATOM     22  C   UNL     1      -8.665 -11.263   2.416  1.00  0.00     0.004 C 
ENDBRANCH  20  21
ENDBRANCH  19  20
ENDBRANCH  18  19
ENDBRANCH  17  18
ENDBRANCH  16  17
ENDBRANCH  12  16
ENDBRANCH   9  12
ENDBRANCH   6   9
ENDBRANCH   3   5
ENDBRANCH   2   3
BRANCH   2  23
ATOM     23  N   UNL     1      -8.243  -1.235   3.894  1.00  0.00    -0.332 N 
ATOM     24  C   UNL     1      -6.940  -1.102   4.529  1.00  0.00     0.147 C 
BRANCH  23  25
ATOM     25  C   UNL     1      -9.231  -2.049   4.654  1.00  0.00     0.174 C 
BRANCH  25  26
ATOM     26  C   UNL     1      -8.985  -2.024   6.180  1.00  0.00     0.038 C 
BRANCH  26  27
ATOM     27  C   UNL     1      -9.841  -2.977   7.043  1.00  0.00    -0.015 C 
ATOM     28  C   UNL     1      -9.127  -3.406   8.325  1.00  0.00     0.007 C 
ATOM     29  C   UNL     1     -11.229  -2.427   7.361  1.00  0.00     0.007 C 
ENDBRANCH  26  27
ENDBRANCH  25  26
BRANCH  25  30
ATOM     30  C   UNL     1      -9.314  -3.475   4.061  1.00  0.00     0.243 C 
ATOM     31  O   UNL     1      -8.307  -4.103   3.736  1.00  0.00    -0.273 OA
ATOM     32  N   UNL     1     -10.578  -3.985   3.918  1.00  0.00    -0.342 N 
ATOM     33  H   UNL     1     -11.350  -3.462   4.340  1.00  0.00     0.164 HD
BRANCH  32  34
ATOM     34  C   UNL     1     -10.849  -5.308   3.349  1.00  0.00     0.175 C 
BRANCH  34  35
ATOM     35  C   UNL     1     -12.088  -5.949   3.992  1.00  0.00     0.070 C 
BRANCH  35  36
ATOM     36  C   UNL     1     -11.968  -6.076   5.494  1.00  0.00    -0.045 A 
ATOM     37  C   UNL     1     -13.006  -5.621   6.322  1.00  0.00     0.007 A 
ATOM     38  C   UNL     1     -10.819  -6.624   6.080  1.00  0.00     0.007 A 
ATOM     39  C   UNL     1     -12.898  -5.722   7.709  1.00  0.00     0.046 A 
ATOM     40  C   UNL     1     -10.710  -6.723   7.469  1.00  0.00     0.046 A 
ATOM     41  C   UNL     1     -11.753  -6.272   8.271  1.00  0.00     0.115 A 
BRANCH  41  42
ATOM     42  O   UNL     1     -11.686  -6.349   9.631  1.00  0.00    -0.508 OA
ATOM     43  H   UNL     1     -12.439  -6.878   9.944  1.00  0.00     0.293 HD
ENDBRANCH  41  42
ENDBRANCH  35  36
ENDBRANCH  34  35
BRANCH  34  44
ATOM     44  C   UNL     1     -11.009  -5.148   1.820  1.00  0.00     0.243 C 
ATOM     45  O   UNL     1     -10.337  -5.747   0.986  1.00  0.00    -0.273 OA
ATOM     46  N   UNL     1     -11.902  -4.160   1.462  1.00  0.00    -0.341 N 
ATOM     47  H   UNL     1     -12.348  -3.610   2.192  1.00  0.00     0.164 HD
BRANCH  46  48
ATOM     48  C   UNL     1     -12.169  -3.780   0.073  1.00  0.00     0.196 C 
BRANCH  48  49
ATOM     49  C   UNL     1     -13.227  -4.696  -0.564  1.00  0.00     0.072 C 
BRANCH  49  50
ATOM     50  C   UNL     1     -12.618  -5.754  -1.457  1.00  0.00    -0.045 A 
ATOM     51  C   UNL     1     -12.383  -7.042  -0.954  1.00  0.00     0.007 A 
ATOM     52  C   UNL     1     -12.264  -5.463  -2.781  1.00  0.00     0.007 A 
ATOM     53  C   UNL     1     -11.810  -8.022  -1.764  1.00  0.00     0.046 A 
ATOM     54  C   UNL     1     -11.689  -6.445  -3.592  1.00  0.00     0.046 A 
ATOM     55  C   UNL     1     -11.468  -7.717  -3.076  1.00  0.00     0.115 A 
BRANCH  55  56
ATOM     56  O   UNL     1     -10.909  -8.703  -3.834  1.00  0.00    -0.508 OA
ATOM     57  H   UNL     1     -10.205  -8.311  -4.374  1.00  0.00     0.293 HD
ENDBRANCH  55  56
ENDBRANCH  49  50
ENDBRANCH  48  49
BRANCH  48  58
ATOM     58  C   UNL     1     -12.658  -2.326   0.039  1.00  0.00     0.326 C 
ATOM     59  O   UNL     1     -13.814  -1.934   0.054  1.00  0.00    -0.250 OA
BRANCH  58  60
ATOM     60  O   UNL     1     -11.652  -1.416   0.000  1.00  0.00    -0.480 OA
ATOM     61  H   UNL     1     -11.882  -0.794   0.724  1.00  0.00     0.296 HD
ENDBRANCH  58  60
ENDBRANCH  48  58
ENDBRANCH  46  48
ENDBRANCH  34  44
ENDBRANCH  32  34
ENDBRANCH  25  30
ENDBRANCH  23  25
ENDBRANCH   2  23
TORSDOF 28
ENDMDL
MODEL 15
REMARK VINA RESULT:    -6.251      1.767      3.121
REMARK INTER + INTRA:         -20.592
REMARK INTER:                 -16.228
REMARK INTRA:                  -4.364
REMARK UNBOUND:                -5.023
REMARK SMILES CCCCCCC[C@H](N)[C@H](O)C(=O)N[C@H](C)C(=O)N(C)[C@H](CC(C)C)C(=O)N[C@@H](Cc1ccc(O)cc1)C(=O)N[C@@H](Cc1ccc(O)cc1)C(=O)O
REMARK SMILES IDX 18 1 17 2 15 3 16 4 14 5 12 6 13 7 10 9 11 10 8 12 9 13 7 16
REMARK SMILES IDX 6 17 5 18 4 19 3 20 2 21 1 22 19 23 20 24 21 25 22 26 23 27
REMARK SMILES IDX 24 28 25 29 26 30 27 31 28 32 29 34 30 35 31 36 32 37 37 38
REMARK SMILES IDX 33 39 36 40 34 41 35 42 38 44 39 45 40 46 41 48 42 49 43 50
REMARK SMILES IDX 44 51 49 52 45 53 48 54 46 55 47 56 50 58 51 59 52 60
REMARK H PARENT 14 8 11 11 9 14 9 15 28 33 35 43 40 47 47 57 52 61
ROOT
ATOM      1  O   UNL     1      -8.152  -4.573   4.217  1.00  0.00    -0.272 OA
ATOM      2  C   UNL     1      -8.994  -5.344   4.699  1.00  0.00     0.245 C 
ENDROOT
BRANCH   2   3
ATOM      3  C   UNL     1      -8.590  -6.219   5.912  1.00  0.00     0.168 C 
ATOM      4  C   UNL     1      -7.168  -6.746   5.749  1.00  0.00     0.041 C 
BRANCH   3   5
ATOM      5  N   UNL     1      -8.791  -5.594   7.210  1.00  0.00    -0.342 N 
ATOM      6  C   UNL     1      -7.884  -4.698   7.735  1.00  0.00     0.251 C 
ATOM      7  O   UNL     1      -6.835  -4.393   7.178  1.00  0.00    -0.272 OA
ATOM      8  H   UNL     1      -9.608  -5.796   7.781  1.00  0.00     0.164 HD
BRANCH   6   9
ATOM      9  C   UNL     1      -8.370  -4.059   9.046  1.00  0.00     0.219 C 
BRANCH   9  10
ATOM     10  O   UNL     1      -9.418  -4.811   9.671  1.00  0.00    -0.382 OA
ATOM     11  H   UNL     1      -9.969  -5.112   8.916  1.00  0.00     0.211 HD
ENDBRANCH   9  10
BRANCH   9  12
ATOM     12  C   UNL     1      -7.221  -3.776  10.048  1.00  0.00     0.089 C 
BRANCH  12  13
ATOM     13  N   UNL     1      -6.239  -4.881   9.957  1.00  0.00    -0.325 NA
ATOM     14  H   UNL     1      -6.384  -5.387   9.082  1.00  0.00     0.119 HD
ATOM     15  H   UNL     1      -6.436  -5.561  10.695  1.00  0.00     0.119 HD
ENDBRANCH  12  13
BRANCH  12  16
ATOM     16  C   UNL     1      -6.505  -2.414   9.892  1.00  0.00     0.022 C 
BRANCH  16  17
ATOM     17  C   UNL     1      -7.319  -1.188   9.456  1.00  0.00     0.002 C 
BRANCH  17  18
ATOM     18  C   UNL     1      -7.851  -0.327  10.600  1.00  0.00     0.000 C 
BRANCH  18  19
ATOM     19  C   UNL     1      -9.321   0.083  10.441  1.00  0.00    -0.000 C 
BRANCH  19  20
ATOM     20  C   UNL     1     -10.312  -1.079  10.332  1.00  0.00    -0.000 C 
BRANCH  20  21
ATOM     21  C   UNL     1     -11.596  -0.703   9.588  1.00  0.00    -0.003 C 
ATOM     22  C   UNL     1     -11.290  -0.033   8.258  1.00  0.00     0.004 C 
ENDBRANCH  20  21
ENDBRANCH  19  20
ENDBRANCH  18  19
ENDBRANCH  17  18
ENDBRANCH  16  17
ENDBRANCH  12  16
ENDBRANCH   9  12
ENDBRANCH   6   9
ENDBRANCH   3   5
ENDBRANCH   2   3
BRANCH   2  23
ATOM     23  N   UNL     1     -10.304  -5.324   4.232  1.00  0.00    -0.332 N 
ATOM     24  C   UNL     1     -10.861  -6.287   3.293  1.00  0.00     0.147 C 
BRANCH  23  25
ATOM     25  C   UNL     1     -11.284  -4.350   4.786  1.00  0.00     0.174 C 
BRANCH  25  26
ATOM     26  C   UNL     1     -12.540  -5.031   5.380  1.00  0.00     0.038 C 
BRANCH  26  27
ATOM     27  C   UNL     1     -12.715  -4.961   6.913  1.00  0.00    -0.015 C 
ATOM     28  C   UNL     1     -12.322  -6.265   7.607  1.00  0.00     0.007 C 
ATOM     29  C   UNL     1     -11.998  -3.775   7.553  1.00  0.00     0.007 C 
ENDBRANCH  26  27
ENDBRANCH  25  26
BRANCH  25  30
ATOM     30  C   UNL     1     -11.605  -3.262   3.736  1.00  0.00     0.243 C 
ATOM     31  O   UNL     1     -12.752  -3.063   3.336  1.00  0.00    -0.273 OA
ATOM     32  N   UNL     1     -10.531  -2.544   3.278  1.00  0.00    -0.342 N 
ATOM     33  H   UNL     1      -9.637  -2.671   3.760  1.00  0.00     0.164 HD
BRANCH  32  34
ATOM     34  C   UNL     1     -10.643  -1.493   2.263  1.00  0.00     0.175 C 
BRANCH  34  35
ATOM     35  C   UNL     1      -9.491  -0.483   2.376  1.00  0.00     0.070 C 
BRANCH  35  36
ATOM     36  C   UNL     1      -8.512  -0.832   3.474  1.00  0.00    -0.045 A 
ATOM     37  C   UNL     1      -7.180  -1.140   3.156  1.00  0.00     0.007 A 
ATOM     38  C   UNL     1      -8.920  -0.876   4.814  1.00  0.00     0.007 A 
ATOM     39  C   UNL     1      -6.273  -1.476   4.161  1.00  0.00     0.046 A 
ATOM     40  C   UNL     1      -8.013  -1.214   5.821  1.00  0.00     0.046 A 
ATOM     41  C   UNL     1      -6.696  -1.510   5.484  1.00  0.00     0.115 A 
BRANCH  41  42
ATOM     42  O   UNL     1      -5.779  -1.847   6.436  1.00  0.00    -0.508 OA
ATOM     43  H   UNL     1      -4.892  -1.736   6.056  1.00  0.00     0.293 HD
ENDBRANCH  41  42
ENDBRANCH  35  36
ENDBRANCH  34  35
BRANCH  34  44
ATOM     44  C   UNL     1     -10.683  -2.171   0.875  1.00  0.00     0.243 C 
ATOM     45  O   UNL     1      -9.699  -2.354   0.164  1.00  0.00    -0.273 OA
ATOM     46  N   UNL     1     -11.961  -2.443   0.434  1.00  0.00    -0.341 N 
ATOM     47  H   UNL     1     -12.752  -2.166   1.010  1.00  0.00     0.164 HD
BRANCH  46  48
ATOM     48  C   UNL     1     -12.254  -3.021  -0.879  1.00  0.00     0.196 C 
BRANCH  48  49
ATOM     49  C   UNL     1     -13.194  -4.233  -0.760  1.00  0.00     0.072 C 
BRANCH  49  50
ATOM     50  C   UNL     1     -12.676  -5.446  -1.498  1.00  0.00    -0.045 A 
ATOM     51  C   UNL     1     -12.114  -6.513  -0.781  1.00  0.00     0.007 A 
ATOM     52  C   UNL     1     -12.728  -5.517  -2.896  1.00  0.00     0.007 A 
ATOM     53  C   UNL     1     -11.620  -7.632  -1.451  1.00  0.00     0.046 A 
ATOM     54  C   UNL     1     -12.233  -6.637  -3.567  1.00  0.00     0.046 A 
ATOM     55  C   UNL     1     -11.684  -7.686  -2.838  1.00  0.00     0.115 A 
BRANCH  55  56
ATOM     56  O   UNL     1     -11.188  -8.797  -3.456  1.00  0.00    -0.508 OA
ATOM     57  H   UNL     1     -10.925  -9.434  -2.773  1.00  0.00     0.293 HD
ENDBRANCH  55  56
ENDBRANCH  49  50
ENDBRANCH  48  49
BRANCH  48  58
ATOM     58  C   UNL     1     -12.905  -1.949  -1.763  1.00  0.00     0.326 C 
ATOM     59  O   UNL     1     -12.360  -0.988  -2.283  1.00  0.00    -0.250 OA
BRANCH  58  60
ATOM     60  O   UNL     1     -14.232  -2.147  -1.966  1.00  0.00    -0.480 OA
ATOM     61  H   UNL     1     -14.431  -2.931  -1.409  1.00  0.00     0.296 HD
ENDBRANCH  58  60
ENDBRANCH  48  58
ENDBRANCH  46  48
ENDBRANCH  34  44
ENDBRANCH  32  34
ENDBRANCH  25  30
ENDBRANCH  23  25
ENDBRANCH   2  23
TORSDOF 28
ENDMDL
MODEL 16
REMARK VINA RESULT:    -6.249      2.464      7.663
REMARK INTER + INTRA:         -20.587
REMARK INTER:                 -15.160
REMARK INTRA:                  -5.427
REMARK UNBOUND:                -5.023
REMARK SMILES CCCCCCC[C@H](N)[C@H](O)C(=O)N[C@H](C)C(=O)N(C)[C@H](CC(C)C)C(=O)N[C@@H](Cc1ccc(O)cc1)C(=O)N[C@@H](Cc1ccc(O)cc1)C(=O)O
REMARK SMILES IDX 18 1 17 2 15 3 16 4 14 5 12 6 13 7 10 9 11 10 8 12 9 13 7 16
REMARK SMILES IDX 6 17 5 18 4 19 3 20 2 21 1 22 19 23 20 24 21 25 22 26 23 27
REMARK SMILES IDX 24 28 25 29 26 30 27 31 28 32 29 34 30 35 31 36 32 37 37 38
REMARK SMILES IDX 33 39 36 40 34 41 35 42 38 44 39 45 40 46 41 48 42 49 43 50
REMARK SMILES IDX 44 51 49 52 45 53 48 54 46 55 47 56 50 58 51 59 52 60
REMARK H PARENT 14 8 11 11 9 14 9 15 28 33 35 43 40 47 47 57 52 61
ROOT
ATOM      1  O   UNL     1      -9.641  -3.467  -0.346  1.00  0.00    -0.272 OA
ATOM      2  C   UNL     1     -10.706  -3.535   0.285  1.00  0.00     0.245 C 
ENDROOT
BRANCH   2   3
ATOM      3  C   UNL     1     -10.812  -2.797   1.643  1.00  0.00     0.168 C 
ATOM      4  C   UNL     1     -11.942  -3.376   2.487  1.00  0.00     0.041 C 
BRANCH   3   5
ATOM      5  N   UNL     1      -9.566  -2.711   2.390  1.00  0.00    -0.342 N 
ATOM      6  C   UNL     1      -8.773  -1.584   2.355  1.00  0.00     0.251 C 
ATOM      7  O   UNL     1      -9.028  -0.599   1.671  1.00  0.00    -0.272 OA
ATOM      8  H   UNL     1      -9.233  -3.480   2.967  1.00  0.00     0.164 HD
BRANCH   6   9
ATOM      9  C   UNL     1      -7.586  -1.663   3.328  1.00  0.00     0.219 C 
BRANCH   9  10
ATOM     10  O   UNL     1      -6.396  -1.067   2.798  1.00  0.00    -0.382 OA
ATOM     11  H   UNL     1      -6.455  -1.250   1.834  1.00  0.00     0.211 HD
ENDBRANCH   9  10
BRANCH   9  12
ATOM     12  C   UNL     1      -7.910  -1.089   4.732  1.00  0.00     0.089 C 
BRANCH  12  13
ATOM     13  N   UNL     1      -9.313  -0.613   4.729  1.00  0.00    -0.325 NA
ATOM     14  H   UNL     1      -9.368   0.267   4.212  1.00  0.00     0.119 HD
ATOM     15  H   UNL     1      -9.584  -0.376   5.687  1.00  0.00     0.119 HD
ENDBRANCH  12  13
BRANCH  12  16
ATOM     16  C   UNL     1      -7.676  -2.045   5.926  1.00  0.00     0.022 C 
BRANCH  16  17
ATOM     17  C   UNL     1      -7.586  -1.461   7.343  1.00  0.00     0.002 C 
BRANCH  17  18
ATOM     18  C   UNL     1      -7.818  -2.466   8.470  1.00  0.00     0.000 C 
BRANCH  18  19
ATOM     19  C   UNL     1      -8.358  -1.841   9.763  1.00  0.00    -0.000 C 
BRANCH  19  20
ATOM     20  C   UNL     1      -8.641  -0.338   9.689  1.00  0.00    -0.000 C 
BRANCH  20  21
ATOM     21  C   UNL     1      -8.228   0.413  10.958  1.00  0.00    -0.003 C 
ATOM     22  C   UNL     1      -6.715   0.508  11.079  1.00  0.00     0.004 C 
ENDBRANCH  20  21
ENDBRANCH  19  20
ENDBRANCH  18  19
ENDBRANCH  17  18
ENDBRANCH  16  17
ENDBRANCH  12  16
ENDBRANCH   9  12
ENDBRANCH   6   9
ENDBRANCH   3   5
ENDBRANCH   2   3
BRANCH   2  23
ATOM     23  N   UNL     1     -11.812  -4.160  -0.283  1.00  0.00    -0.332 N 
ATOM     24  C   UNL     1     -12.989  -3.463  -0.779  1.00  0.00     0.147 C 
BRANCH  23  25
ATOM     25  C   UNL     1     -11.797  -5.626  -0.538  1.00  0.00     0.174 C 
BRANCH  25  26
ATOM     26  C   UNL     1     -13.090  -6.131  -1.221  1.00  0.00     0.038 C 
BRANCH  26  27
ATOM     27  C   UNL     1     -12.938  -6.776  -2.617  1.00  0.00    -0.015 C 
ATOM     28  C   UNL     1     -12.955  -5.742  -3.743  1.00  0.00     0.007 C 
ATOM     29  C   UNL     1     -11.715  -7.681  -2.738  1.00  0.00     0.007 C 
ENDBRANCH  26  27
ENDBRANCH  25  26
BRANCH  25  30
ATOM     30  C   UNL     1     -11.441  -6.389   0.759  1.00  0.00     0.243 C 
ATOM     31  O   UNL     1     -12.307  -6.832   1.511  1.00  0.00    -0.273 OA
ATOM     32  N   UNL     1     -10.101  -6.530   1.014  1.00  0.00    -0.342 N 
ATOM     33  H   UNL     1      -9.447  -6.261   0.275  1.00  0.00     0.164 HD
BRANCH  32  34
ATOM     34  C   UNL     1      -9.580  -7.200   2.209  1.00  0.00     0.175 C 
BRANCH  34  35
ATOM     35  C   UNL     1      -8.259  -7.926   1.911  1.00  0.00     0.070 C 
BRANCH  35  36
ATOM     36  C   UNL     1      -8.177  -9.285   2.568  1.00  0.00    -0.045 A 
ATOM     37  C   UNL     1      -7.478  -9.439   3.775  1.00  0.00     0.007 A 
ATOM     38  C   UNL     1      -8.773 -10.407   1.977  1.00  0.00     0.007 A 
ATOM     39  C   UNL     1      -7.385 -10.692   4.383  1.00  0.00     0.046 A 
ATOM     40  C   UNL     1      -8.679 -11.662   2.584  1.00  0.00     0.046 A 
ATOM     41  C   UNL     1      -7.987 -11.792   3.783  1.00  0.00     0.115 A 
BRANCH  41  42
ATOM     42  O   UNL     1      -7.870 -12.999   4.407  1.00  0.00    -0.508 OA
ATOM     43  H   UNL     1      -8.039 -13.698   3.754  1.00  0.00     0.293 HD
ENDBRANCH  41  42
ENDBRANCH  35  36
ENDBRANCH  34  35
BRANCH  34  44
ATOM     44  C   UNL     1      -9.417  -6.138   3.320  1.00  0.00     0.243 C 
ATOM     45  O   UNL     1      -8.477  -5.352   3.396  1.00  0.00    -0.273 OA
ATOM     46  N   UNL     1     -10.368  -6.234   4.314  1.00  0.00    -0.341 N 
ATOM     47  H   UNL     1     -11.059  -6.979   4.266  1.00  0.00     0.164 HD
BRANCH  46  48
ATOM     48  C   UNL     1     -10.379  -5.381   5.504  1.00  0.00     0.196 C 
BRANCH  48  49
ATOM     49  C   UNL     1     -11.810  -5.153   6.017  1.00  0.00     0.072 C 
BRANCH  49  50
ATOM     50  C   UNL     1     -11.874  -4.135   7.133  1.00  0.00    -0.045 A 
ATOM     51  C   UNL     1     -11.526  -2.799   6.881  1.00  0.00     0.007 A 
ATOM     52  C   UNL     1     -12.256  -4.507   8.428  1.00  0.00     0.007 A 
ATOM     53  C   UNL     1     -11.568  -1.853   7.905  1.00  0.00     0.046 A 
ATOM     54  C   UNL     1     -12.296  -3.560   9.454  1.00  0.00     0.046 A 
ATOM     55  C   UNL     1     -11.953  -2.240   9.183  1.00  0.00     0.115 A 
BRANCH  55  56
ATOM     56  O   UNL     1     -11.978  -1.285  10.156  1.00  0.00    -0.508 OA
ATOM     57  H   UNL     1     -11.111  -0.852  10.183  1.00  0.00     0.293 HD
ENDBRANCH  55  56
ENDBRANCH  49  50
ENDBRANCH  48  49
BRANCH  48  58
ATOM     58  C   UNL     1      -9.537  -6.045   6.603  1.00  0.00     0.326 C 
ATOM     59  O   UNL     1      -8.759  -5.501   7.368  1.00  0.00    -0.250 OA
BRANCH  58  60
ATOM     60  O   UNL     1      -9.731  -7.385   6.696  1.00  0.00    -0.480 OA
ATOM     61  H   UNL     1     -10.564  -7.528   6.198  1.00  0.00     0.296 HD
ENDBRANCH  58  60
ENDBRANCH  48  58
ENDBRANCH  46  48
ENDBRANCH  34  44
ENDBRANCH  32  34
ENDBRANCH  25  30
ENDBRANCH  23  25
ENDBRANCH   2  23
TORSDOF 28
ENDMDL
MODEL 17
REMARK VINA RESULT:    -6.230      2.168     10.007
REMARK INTER + INTRA:         -20.541
REMARK INTER:                 -17.005
REMARK INTRA:                  -3.536
REMARK UNBOUND:                -5.023
REMARK SMILES CCCCCCC[C@H](N)[C@H](O)C(=O)N[C@H](C)C(=O)N(C)[C@H](CC(C)C)C(=O)N[C@@H](Cc1ccc(O)cc1)C(=O)N[C@@H](Cc1ccc(O)cc1)C(=O)O
REMARK SMILES IDX 18 1 17 2 15 3 16 4 14 5 12 6 13 7 10 9 11 10 8 12 9 13 7 16
REMARK SMILES IDX 6 17 5 18 4 19 3 20 2 21 1 22 19 23 20 24 21 25 22 26 23 27
REMARK SMILES IDX 24 28 25 29 26 30 27 31 28 32 29 34 30 35 31 36 32 37 37 38
REMARK SMILES IDX 33 39 36 40 34 41 35 42 38 44 39 45 40 46 41 48 42 49 43 50
REMARK SMILES IDX 44 51 49 52 45 53 48 54 46 55 47 56 50 58 51 59 52 60
REMARK H PARENT 14 8 11 11 9 14 9 15 28 33 35 43 40 47 47 57 52 61
ROOT
ATOM      1  O   UNL     1      -9.611  -3.420   1.297  1.00  0.00    -0.272 OA
ATOM      2  C   UNL     1     -10.507  -2.905   1.982  1.00  0.00     0.245 C 
ENDROOT
BRANCH   2   3
ATOM      3  C   UNL     1     -11.032  -1.504   1.584  1.00  0.00     0.168 C 
ATOM      4  C   UNL     1      -9.988  -0.431   1.875  1.00  0.00     0.041 C 
BRANCH   3   5
ATOM      5  N   UNL     1     -11.545  -1.406   0.226  1.00  0.00    -0.342 N 
ATOM      6  C   UNL     1     -12.882  -1.581  -0.062  1.00  0.00     0.251 C 
ATOM      7  O   UNL     1     -13.723  -1.868   0.782  1.00  0.00    -0.272 OA
ATOM      8  H   UNL     1     -10.935  -1.206  -0.564  1.00  0.00     0.164 HD
BRANCH   6   9
ATOM      9  C   UNL     1     -13.215  -1.292  -1.534  1.00  0.00     0.219 C 
BRANCH   9  10
ATOM     10  O   UNL     1     -12.289  -0.383  -2.143  1.00  0.00    -0.382 OA
ATOM     11  H   UNL     1     -12.326  -0.620  -3.096  1.00  0.00     0.211 HD
ENDBRANCH   9  10
BRANCH   9  12
ATOM     12  C   UNL     1     -13.367  -2.578  -2.388  1.00  0.00     0.089 C 
BRANCH  12  13
ATOM     13  N   UNL     1     -13.375  -2.192  -3.818  1.00  0.00    -0.325 NA
ATOM     14  H   UNL     1     -14.058  -2.765  -4.316  1.00  0.00     0.119 HD
ATOM     15  H   UNL     1     -12.471  -2.433  -4.231  1.00  0.00     0.119 HD
ENDBRANCH  12  13
BRANCH  12  16
ATOM     16  C   UNL     1     -12.312  -3.683  -2.142  1.00  0.00     0.022 C 
BRANCH  16  17
ATOM     17  C   UNL     1     -12.765  -5.036  -1.576  1.00  0.00     0.002 C 
BRANCH  17  18
ATOM     18  C   UNL     1     -12.439  -5.258  -0.100  1.00  0.00     0.000 C 
BRANCH  18  19
ATOM     19  C   UNL     1     -11.427  -6.383   0.153  1.00  0.00    -0.000 C 
BRANCH  19  20
ATOM     20  C   UNL     1     -10.817  -7.005  -1.107  1.00  0.00    -0.000 C 
BRANCH  20  21
ATOM     21  C   UNL     1     -11.263  -8.452  -1.337  1.00  0.00    -0.003 C 
ATOM     22  C   UNL     1     -10.842  -8.950  -2.711  1.00  0.00     0.004 C 
ENDBRANCH  20  21
ENDBRANCH  19  20
ENDBRANCH  18  19
ENDBRANCH  17  18
ENDBRANCH  16  17
ENDBRANCH  12  16
ENDBRANCH   9  12
ENDBRANCH   6   9
ENDBRANCH   3   5
ENDBRANCH   2   3
BRANCH   2  23
ATOM     23  N   UNL     1     -11.104  -3.633   3.007  1.00  0.00    -0.332 N 
ATOM     24  C   UNL     1     -12.456  -3.409   3.499  1.00  0.00     0.147 C 
BRANCH  23  25
ATOM     25  C   UNL     1     -10.410  -4.811   3.595  1.00  0.00     0.174 C 
BRANCH  25  26
ATOM     26  C   UNL     1     -11.378  -5.791   4.298  1.00  0.00     0.038 C 
BRANCH  26  27
ATOM     27  C   UNL     1     -11.418  -5.748   5.842  1.00  0.00    -0.015 C 
ATOM     28  C   UNL     1     -12.845  -5.715   6.389  1.00  0.00     0.007 C 
ATOM     29  C   UNL     1     -10.615  -6.866   6.502  1.00  0.00     0.007 C 
ENDBRANCH  26  27
ENDBRANCH  25  26
BRANCH  25  30
ATOM     30  C   UNL     1      -9.237  -4.346   4.488  1.00  0.00     0.243 C 
ATOM     31  O   UNL     1      -8.162  -4.943   4.512  1.00  0.00    -0.273 OA
ATOM     32  N   UNL     1      -9.479  -3.234   5.253  1.00  0.00    -0.342 N 
ATOM     33  H   UNL     1     -10.342  -2.714   5.074  1.00  0.00     0.164 HD
BRANCH  32  34
ATOM     34  C   UNL     1      -8.494  -2.668   6.179  1.00  0.00     0.175 C 
BRANCH  34  35
ATOM     35  C   UNL     1      -8.019  -1.284   5.712  1.00  0.00     0.070 C 
BRANCH  35  36
ATOM     36  C   UNL     1      -6.726  -1.342   4.931  1.00  0.00    -0.045 A 
ATOM     37  C   UNL     1      -6.742  -1.199   3.535  1.00  0.00     0.007 A 
ATOM     38  C   UNL     1      -5.504  -1.560   5.580  1.00  0.00     0.007 A 
ATOM     39  C   UNL     1      -5.555  -1.265   2.804  1.00  0.00     0.046 A 
ATOM     40  C   UNL     1      -4.315  -1.627   4.849  1.00  0.00     0.046 A 
ATOM     41  C   UNL     1      -4.352  -1.477   3.466  1.00  0.00     0.115 A 
BRANCH  41  42
ATOM     42  O   UNL     1      -3.216  -1.538   2.715  1.00  0.00    -0.508 OA
ATOM     43  H   UNL     1      -2.458  -1.636   3.316  1.00  0.00     0.293 HD
ENDBRANCH  41  42
ENDBRANCH  35  36
ENDBRANCH  34  35
BRANCH  34  44
ATOM     44  C   UNL     1      -9.133  -2.616   7.585  1.00  0.00     0.243 C 
ATOM     45  O   UNL     1      -9.641  -3.579   8.153  1.00  0.00    -0.273 OA
ATOM     46  N   UNL     1      -9.203  -1.342   8.109  1.00  0.00    -0.341 N 
ATOM     47  H   UNL     1      -8.874  -0.559   7.549  1.00  0.00     0.164 HD
BRANCH  46  48
ATOM     48  C   UNL     1      -9.828  -1.034   9.397  1.00  0.00     0.196 C 
BRANCH  48  49
ATOM     49  C   UNL     1      -9.242   0.249  10.011  1.00  0.00     0.072 C 
BRANCH  49  50
ATOM     50  C   UNL     1      -8.060  -0.025  10.913  1.00  0.00    -0.045 A 
ATOM     51  C   UNL     1      -7.047   0.936  11.050  1.00  0.00     0.007 A 
ATOM     52  C   UNL     1      -7.945  -1.239  11.603  1.00  0.00     0.007 A 
ATOM     53  C   UNL     1      -5.946   0.689  11.869  1.00  0.00     0.046 A 
ATOM     54  C   UNL     1      -6.842  -1.487  12.422  1.00  0.00     0.046 A 
ATOM     55  C   UNL     1      -5.851  -0.519  12.549  1.00  0.00     0.115 A 
BRANCH  55  56
ATOM     56  O   UNL     1      -4.757  -0.722  13.337  1.00  0.00    -0.508 OA
ATOM     57  H   UNL     1      -4.762  -0.058  14.044  1.00  0.00     0.293 HD
ENDBRANCH  55  56
ENDBRANCH  49  50
ENDBRANCH  48  49
BRANCH  48  58
ATOM     58  C   UNL     1     -11.339  -0.862   9.191  1.00  0.00     0.326 C 
ATOM     59  O   UNL     1     -12.229  -1.150   9.974  1.00  0.00    -0.250 OA
BRANCH  58  60
ATOM     60  O   UNL     1     -11.663  -0.312   7.993  1.00  0.00    -0.480 OA
ATOM     61  H   UNL     1     -10.842  -0.420   7.466  1.00  0.00     0.296 HD
ENDBRANCH  58  60
ENDBRANCH  48  58
ENDBRANCH  46  48
ENDBRANCH  34  44
ENDBRANCH  32  34
ENDBRANCH  25  30
ENDBRANCH  23  25
ENDBRANCH   2  23
TORSDOF 28
ENDMDL
MODEL 18
REMARK VINA RESULT:    -6.217      2.954     10.121
REMARK INTER + INTRA:         -20.507
REMARK INTER:                 -16.655
REMARK INTRA:                  -3.852
REMARK UNBOUND:                -5.023
REMARK SMILES CCCCCCC[C@H](N)[C@H](O)C(=O)N[C@H](C)C(=O)N(C)[C@H](CC(C)C)C(=O)N[C@@H](Cc1ccc(O)cc1)C(=O)N[C@@H](Cc1ccc(O)cc1)C(=O)O
REMARK SMILES IDX 18 1 17 2 15 3 16 4 14 5 12 6 13 7 10 9 11 10 8 12 9 13 7 16
REMARK SMILES IDX 6 17 5 18 4 19 3 20 2 21 1 22 19 23 20 24 21 25 22 26 23 27
REMARK SMILES IDX 24 28 25 29 26 30 27 31 28 32 29 34 30 35 31 36 32 37 37 38
REMARK SMILES IDX 33 39 36 40 34 41 35 42 38 44 39 45 40 46 41 48 42 49 43 50
REMARK SMILES IDX 44 51 49 52 45 53 48 54 46 55 47 56 50 58 51 59 52 60
REMARK H PARENT 14 8 11 11 9 14 9 15 28 33 35 43 40 47 47 57 52 61
ROOT
ATOM      1  O   UNL     1      -8.992  -3.417   1.678  1.00  0.00    -0.272 OA
ATOM      2  C   UNL     1     -10.122  -3.022   2.002  1.00  0.00     0.245 C 
ENDROOT
BRANCH   2   3
ATOM      3  C   UNL     1     -10.660  -1.714   1.370  1.00  0.00     0.168 C 
ATOM      4  C   UNL     1      -9.605  -0.614   1.420  1.00  0.00     0.041 C 
BRANCH   3   5
ATOM      5  N   UNL     1     -11.221  -1.866   0.037  1.00  0.00    -0.342 N 
ATOM      6  C   UNL     1     -12.514  -1.486  -0.256  1.00  0.00     0.251 C 
ATOM      7  O   UNL     1     -13.293  -1.037   0.578  1.00  0.00    -0.272 OA
ATOM      8  H   UNL     1     -10.681  -2.259  -0.731  1.00  0.00     0.164 HD
BRANCH   6   9
ATOM      9  C   UNL     1     -12.843  -1.604  -1.753  1.00  0.00     0.219 C 
BRANCH   9  10
ATOM     10  O   UNL     1     -11.672  -1.601  -2.579  1.00  0.00    -0.382 OA
ATOM     11  H   UNL     1     -11.200  -2.420  -2.313  1.00  0.00     0.211 HD
ENDBRANCH   9  10
BRANCH   9  12
ATOM     12  C   UNL     1     -13.747  -2.821  -2.084  1.00  0.00     0.089 C 
BRANCH  12  13
ATOM     13  N   UNL     1     -13.698  -3.056  -3.545  1.00  0.00    -0.325 NA
ATOM     14  H   UNL     1     -14.145  -2.274  -4.026  1.00  0.00     0.119 HD
ATOM     15  H   UNL     1     -14.273  -3.872  -3.768  1.00  0.00     0.119 HD
ENDBRANCH  12  13
BRANCH  12  16
ATOM     16  C   UNL     1     -13.426  -4.130  -1.323  1.00  0.00     0.022 C 
BRANCH  16  17
ATOM     17  C   UNL     1     -12.364  -5.082  -1.890  1.00  0.00     0.002 C 
BRANCH  17  18
ATOM     18  C   UNL     1     -12.858  -6.497  -2.184  1.00  0.00     0.000 C 
BRANCH  18  19
ATOM     19  C   UNL     1     -11.958  -7.285  -3.145  1.00  0.00    -0.000 C 
BRANCH  19  20
ATOM     20  C   UNL     1     -10.972  -8.244  -2.472  1.00  0.00    -0.000 C 
BRANCH  20  21
ATOM     21  C   UNL     1      -9.598  -7.616  -2.225  1.00  0.00    -0.003 C 
ATOM     22  C   UNL     1      -8.630  -8.620  -1.619  1.00  0.00     0.004 C 
ENDBRANCH  20  21
ENDBRANCH  19  20
ENDBRANCH  18  19
ENDBRANCH  17  18
ENDBRANCH  16  17
ENDBRANCH  12  16
ENDBRANCH   9  12
ENDBRANCH   6   9
ENDBRANCH   3   5
ENDBRANCH   2   3
BRANCH   2  23
ATOM     23  N   UNL     1     -10.925  -3.809   2.820  1.00  0.00    -0.332 N 
ATOM     24  C   UNL     1     -12.377  -3.722   2.883  1.00  0.00     0.147 C 
BRANCH  23  25
ATOM     25  C   UNL     1     -10.330  -4.917   3.616  1.00  0.00     0.174 C 
BRANCH  25  26
ATOM     26  C   UNL     1     -10.986  -6.287   3.327  1.00  0.00     0.038 C 
BRANCH  26  27
ATOM     27  C   UNL     1     -10.859  -6.834   1.888  1.00  0.00    -0.015 C 
ATOM     28  C   UNL     1      -9.812  -7.942   1.773  1.00  0.00     0.007 C 
ATOM     29  C   UNL     1     -12.189  -7.289   1.291  1.00  0.00     0.007 C 
ENDBRANCH  26  27
ENDBRANCH  25  26
BRANCH  25  30
ATOM     30  C   UNL     1     -10.308  -4.542   5.116  1.00  0.00     0.243 C 
ATOM     31  O   UNL     1      -9.570  -3.662   5.556  1.00  0.00    -0.273 OA
ATOM     32  N   UNL     1     -11.159  -5.259   5.919  1.00  0.00    -0.342 N 
ATOM     33  H   UNL     1     -11.839  -5.871   5.461  1.00  0.00     0.164 HD
BRANCH  32  34
ATOM     34  C   UNL     1     -11.252  -5.059   7.367  1.00  0.00     0.175 C 
BRANCH  34  35
ATOM     35  C   UNL     1     -12.432  -4.144   7.730  1.00  0.00     0.070 C 
BRANCH  35  36
ATOM     36  C   UNL     1     -11.993  -2.860   8.397  1.00  0.00    -0.045 A 
ATOM     37  C   UNL     1     -11.989  -2.762   9.797  1.00  0.00     0.007 A 
ATOM     38  C   UNL     1     -11.609  -1.749   7.635  1.00  0.00     0.007 A 
ATOM     39  C   UNL     1     -11.598  -1.577  10.421  1.00  0.00     0.046 A 
ATOM     40  C   UNL     1     -11.220  -0.561   8.259  1.00  0.00     0.046 A 
ATOM     41  C   UNL     1     -11.217  -0.487   9.648  1.00  0.00     0.115 A 
BRANCH  41  42
ATOM     42  O   UNL     1     -10.845   0.653  10.297  1.00  0.00    -0.508 OA
ATOM     43  H   UNL     1      -9.901   0.584  10.518  1.00  0.00     0.293 HD
ENDBRANCH  41  42
ENDBRANCH  35  36
ENDBRANCH  34  35
BRANCH  34  44
ATOM     44  C   UNL     1     -11.372  -6.447   8.035  1.00  0.00     0.243 C 
ATOM     45  O   UNL     1     -10.647  -7.405   7.780  1.00  0.00    -0.273 OA
ATOM     46  N   UNL     1     -12.466  -6.564   8.867  1.00  0.00    -0.341 N 
ATOM     47  H   UNL     1     -13.104  -5.777   8.956  1.00  0.00     0.164 HD
BRANCH  46  48
ATOM     48  C   UNL     1     -12.824  -7.804   9.558  1.00  0.00     0.196 C 
BRANCH  48  49
ATOM     49  C   UNL     1     -12.218  -7.854  10.970  1.00  0.00     0.072 C 
BRANCH  49  50
ATOM     50  C   UNL     1     -11.400  -9.103  11.208  1.00  0.00    -0.045 A 
ATOM     51  C   UNL     1     -10.759  -9.295  12.441  1.00  0.00     0.007 A 
ATOM     52  C   UNL     1     -11.251 -10.070  10.205  1.00  0.00     0.007 A 
ATOM     53  C   UNL     1      -9.991 -10.437  12.668  1.00  0.00     0.046 A 
ATOM     54  C   UNL     1     -10.481 -11.213  10.432  1.00  0.00     0.046 A 
ATOM     55  C   UNL     1      -9.858 -11.387  11.662  1.00  0.00     0.115 A 
BRANCH  55  56
ATOM     56  O   UNL     1      -9.097 -12.488  11.923  1.00  0.00    -0.508 OA
ATOM     57  H   UNL     1      -8.692 -12.380  12.798  1.00  0.00     0.293 HD
ENDBRANCH  55  56
ENDBRANCH  49  50
ENDBRANCH  48  49
BRANCH  48  58
ATOM     58  C   UNL     1     -14.353  -7.900   9.650  1.00  0.00     0.326 C 
ATOM     59  O   UNL     1     -15.077  -8.715   9.101  1.00  0.00    -0.250 OA
BRANCH  58  60
ATOM     60  O   UNL     1     -14.907  -6.959  10.455  1.00  0.00    -0.480 OA
ATOM     61  H   UNL     1     -14.314  -6.185  10.339  1.00  0.00     0.296 HD
ENDBRANCH  58  60
ENDBRANCH  48  58
ENDBRANCH  46  48
ENDBRANCH  34  44
ENDBRANCH  32  34
ENDBRANCH  25  30
ENDBRANCH  23  25
ENDBRANCH   2  23
TORSDOF 28
ENDMDL
MODEL 19
REMARK VINA RESULT:    -6.196      2.073      5.154
REMARK INTER + INTRA:         -20.456
REMARK INTER:                 -15.149
REMARK INTRA:                  -5.306
REMARK UNBOUND:                -5.023
REMARK SMILES CCCCCCC[C@H](N)[C@H](O)C(=O)N[C@H](C)C(=O)N(C)[C@H](CC(C)C)C(=O)N[C@@H](Cc1ccc(O)cc1)C(=O)N[C@@H](Cc1ccc(O)cc1)C(=O)O
REMARK SMILES IDX 18 1 17 2 15 3 16 4 14 5 12 6 13 7 10 9 11 10 8 12 9 13 7 16
REMARK SMILES IDX 6 17 5 18 4 19 3 20 2 21 1 22 19 23 20 24 21 25 22 26 23 27
REMARK SMILES IDX 24 28 25 29 26 30 27 31 28 32 29 34 30 35 31 36 32 37 37 38
REMARK SMILES IDX 33 39 36 40 34 41 35 42 38 44 39 45 40 46 41 48 42 49 43 50
REMARK SMILES IDX 44 51 49 52 45 53 48 54 46 55 47 56 50 58 51 59 52 60
REMARK H PARENT 14 8 11 11 9 14 9 15 28 33 35 43 40 47 47 57 52 61
ROOT
ATOM      1  O   UNL     1      -8.506  -6.473   3.372  1.00  0.00    -0.272 OA
ATOM      2  C   UNL     1      -8.856  -5.299   3.569  1.00  0.00     0.245 C 
ENDROOT
BRANCH   2   3
ATOM      3  C   UNL     1     -10.368  -4.962   3.541  1.00  0.00     0.168 C 
ATOM      4  C   UNL     1     -11.086  -5.783   2.476  1.00  0.00     0.041 C 
BRANCH   3   5
ATOM      5  N   UNL     1     -11.036  -5.043   4.830  1.00  0.00    -0.342 N 
ATOM      6  C   UNL     1     -12.080  -4.206   5.163  1.00  0.00     0.251 C 
ATOM      7  O   UNL     1     -12.494  -3.316   4.428  1.00  0.00    -0.272 OA
ATOM      8  H   UNL     1     -10.758  -5.720   5.537  1.00  0.00     0.164 HD
BRANCH   6   9
ATOM      9  C   UNL     1     -12.724  -4.566   6.512  1.00  0.00     0.219 C 
BRANCH   9  10
ATOM     10  O   UNL     1     -12.926  -5.975   6.669  1.00  0.00    -0.382 OA
ATOM     11  H   UNL     1     -13.507  -6.039   7.459  1.00  0.00     0.211 HD
ENDBRANCH   9  10
BRANCH   9  12
ATOM     12  C   UNL     1     -11.958  -3.981   7.727  1.00  0.00     0.089 C 
BRANCH  12  13
ATOM     13  N   UNL     1     -10.590  -4.548   7.734  1.00  0.00    -0.325 NA
ATOM     14  H   UNL     1     -10.632  -5.522   8.040  1.00  0.00     0.119 HD
ATOM     15  H   UNL     1     -10.036  -4.068   8.448  1.00  0.00     0.119 HD
ENDBRANCH  12  13
BRANCH  12  16
ATOM     16  C   UNL     1     -11.894  -2.437   7.808  1.00  0.00     0.022 C 
BRANCH  16  17
ATOM     17  C   UNL     1     -11.759  -1.766   9.182  1.00  0.00     0.002 C 
BRANCH  17  18
ATOM     18  C   UNL     1     -11.532  -0.256   9.143  1.00  0.00     0.000 C 
BRANCH  18  19
ATOM     19  C   UNL     1     -10.270   0.167   8.379  1.00  0.00    -0.000 C 
BRANCH  19  20
ATOM     20  C   UNL     1      -8.953  -0.355   8.960  1.00  0.00    -0.000 C 
BRANCH  20  21
ATOM     21  C   UNL     1      -8.191  -1.266   7.994  1.00  0.00    -0.003 C 
ATOM     22  C   UNL     1      -8.741  -1.160   6.581  1.00  0.00     0.004 C 
ENDBRANCH  20  21
ENDBRANCH  19  20
ENDBRANCH  18  19
ENDBRANCH  17  18
ENDBRANCH  16  17
ENDBRANCH  12  16
ENDBRANCH   9  12
ENDBRANCH   6   9
ENDBRANCH   3   5
ENDBRANCH   2   3
BRANCH   2  23
ATOM     23  N   UNL     1      -7.912  -4.343   3.929  1.00  0.00    -0.332 N 
ATOM     24  C   UNL     1      -7.282  -4.257   5.238  1.00  0.00     0.147 C 
BRANCH  23  25
ATOM     25  C   UNL     1      -7.380  -3.394   2.913  1.00  0.00     0.174 C 
BRANCH  25  26
ATOM     26  C   UNL     1      -8.032  -1.994   2.997  1.00  0.00     0.038 C 
BRANCH  26  27
ATOM     27  C   UNL     1      -7.088  -0.775   2.899  1.00  0.00    -0.015 C 
ATOM     28  C   UNL     1      -5.646  -1.121   3.268  1.00  0.00     0.007 C 
ATOM     29  C   UNL     1      -7.142  -0.073   1.544  1.00  0.00     0.007 C 
ENDBRANCH  26  27
ENDBRANCH  25  26
BRANCH  25  30
ATOM     30  C   UNL     1      -7.448  -4.028   1.505  1.00  0.00     0.243 C 
ATOM     31  O   UNL     1      -6.538  -4.727   1.062  1.00  0.00    -0.273 OA
ATOM     32  N   UNL     1      -8.583  -3.755   0.786  1.00  0.00    -0.342 N 
ATOM     33  H   UNL     1      -9.352  -3.288   1.273  1.00  0.00     0.164 HD
BRANCH  32  34
ATOM     34  C   UNL     1      -8.808  -4.249  -0.576  1.00  0.00     0.175 C 
BRANCH  34  35
ATOM     35  C   UNL     1      -8.998  -5.773  -0.593  1.00  0.00     0.070 C 
BRANCH  35  36
ATOM     36  C   UNL     1      -8.621  -6.395  -1.919  1.00  0.00    -0.045 A 
ATOM     37  C   UNL     1      -8.309  -7.761  -1.990  1.00  0.00     0.007 A 
ATOM     38  C   UNL     1      -8.554  -5.619  -3.084  1.00  0.00     0.007 A 
ATOM     39  C   UNL     1      -7.946  -8.340  -3.206  1.00  0.00     0.046 A 
ATOM     40  C   UNL     1      -8.190  -6.198  -4.301  1.00  0.00     0.046 A 
ATOM     41  C   UNL     1      -7.890  -7.555  -4.352  1.00  0.00     0.115 A 
BRANCH  41  42
ATOM     42  O   UNL     1      -7.528  -8.159  -5.519  1.00  0.00    -0.508 OA
ATOM     43  H   UNL     1      -8.233  -8.777  -5.774  1.00  0.00     0.293 HD
ENDBRANCH  41  42
ENDBRANCH  35  36
ENDBRANCH  34  35
BRANCH  34  44
ATOM     44  C   UNL     1     -10.033  -3.507  -1.158  1.00  0.00     0.243 C 
ATOM     45  O   UNL     1      -9.999  -2.783  -2.149  1.00  0.00    -0.273 OA
ATOM     46  N   UNL     1     -11.165  -3.625  -0.380  1.00  0.00    -0.341 N 
ATOM     47  H   UNL     1     -11.113  -4.140   0.495  1.00  0.00     0.164 HD
BRANCH  46  48
ATOM     48  C   UNL     1     -12.430  -2.954  -0.693  1.00  0.00     0.196 C 
BRANCH  48  49
ATOM     49  C   UNL     1     -13.514  -3.966  -1.099  1.00  0.00     0.072 C 
BRANCH  49  50
ATOM     50  C   UNL     1     -12.937  -5.233  -1.689  1.00  0.00    -0.045 A 
ATOM     51  C   UNL     1     -12.638  -5.293  -3.058  1.00  0.00     0.007 A 
ATOM     52  C   UNL     1     -12.712  -6.362  -0.892  1.00  0.00     0.007 A 
ATOM     53  C   UNL     1     -12.117  -6.460  -3.617  1.00  0.00     0.046 A 
ATOM     54  C   UNL     1     -12.192  -7.532  -1.452  1.00  0.00     0.046 A 
ATOM     55  C   UNL     1     -11.897  -7.570  -2.810  1.00  0.00     0.115 A 
BRANCH  55  56
ATOM     56  O   UNL     1     -11.389  -8.692  -3.395  1.00  0.00    -0.508 OA
ATOM     57  H   UNL     1     -11.721  -8.739  -4.306  1.00  0.00     0.293 HD
ENDBRANCH  55  56
ENDBRANCH  49  50
ENDBRANCH  48  49
BRANCH  48  58
ATOM     58  C   UNL     1     -12.896  -2.168   0.540  1.00  0.00     0.326 C 
ATOM     59  O   UNL     1     -13.822  -1.377   0.606  1.00  0.00    -0.250 OA
BRANCH  58  60
ATOM     60  O   UNL     1     -12.169  -2.430   1.656  1.00  0.00    -0.480 OA
ATOM     61  H   UNL     1     -12.126  -3.411   1.672  1.00  0.00     0.296 HD
ENDBRANCH  58  60
ENDBRANCH  48  58
ENDBRANCH  46  48
ENDBRANCH  34  44
ENDBRANCH  32  34
ENDBRANCH  25  30
ENDBRANCH  23  25
ENDBRANCH   2  23
TORSDOF 28
ENDMDL
MODEL 20
REMARK VINA RESULT:    -6.183      2.407     10.020
REMARK INTER + INTRA:         -20.424
REMARK INTER:                 -16.192
REMARK INTRA:                  -4.232
REMARK UNBOUND:                -5.023
REMARK SMILES CCCCCCC[C@H](N)[C@H](O)C(=O)N[C@H](C)C(=O)N(C)[C@H](CC(C)C)C(=O)N[C@@H](Cc1ccc(O)cc1)C(=O)N[C@@H](Cc1ccc(O)cc1)C(=O)O
REMARK SMILES IDX 18 1 17 2 15 3 16 4 14 5 12 6 13 7 10 9 11 10 8 12 9 13 7 16
REMARK SMILES IDX 6 17 5 18 4 19 3 20 2 21 1 22 19 23 20 24 21 25 22 26 23 27
REMARK SMILES IDX 24 28 25 29 26 30 27 31 28 32 29 34 30 35 31 36 32 37 37 38
REMARK SMILES IDX 33 39 36 40 34 41 35 42 38 44 39 45 40 46 41 48 42 49 43 50
REMARK SMILES IDX 44 51 49 52 45 53 48 54 46 55 47 56 50 58 51 59 52 60
REMARK H PARENT 14 8 11 11 9 14 9 15 28 33 35 43 40 47 47 57 52 61
ROOT
ATOM      1  O   UNL     1      -7.927  -3.737   2.318  1.00  0.00    -0.272 OA
ATOM      2  C   UNL     1      -8.367  -2.858   1.562  1.00  0.00     0.245 C 
ENDROOT
BRANCH   2   3
ATOM      3  C   UNL     1      -8.982  -3.286   0.207  1.00  0.00     0.168 C 
ATOM      4  C   UNL     1      -9.006  -4.805   0.078  1.00  0.00     0.041 C 
BRANCH   3   5
ATOM      5  N   UNL     1     -10.279  -2.697  -0.089  1.00  0.00    -0.342 N 
ATOM      6  C   UNL     1     -10.696  -2.466  -1.383  1.00  0.00     0.251 C 
ATOM      7  O   UNL     1     -10.002  -2.695  -2.368  1.00  0.00    -0.272 OA
ATOM      8  H   UNL     1     -10.928  -2.432   0.648  1.00  0.00     0.164 HD
BRANCH   6   9
ATOM      9  C   UNL     1     -12.150  -1.973  -1.460  1.00  0.00     0.219 C 
BRANCH   9  10
ATOM     10  O   UNL     1     -12.386  -1.125  -2.591  1.00  0.00    -0.382 OA
ATOM     11  H   UNL     1     -12.542  -1.758  -3.326  1.00  0.00     0.211 HD
ENDBRANCH   9  10
BRANCH   9  12
ATOM     12  C   UNL     1     -13.187  -3.125  -1.409  1.00  0.00     0.089 C 
BRANCH  12  13
ATOM     13  N   UNL     1     -14.509  -2.581  -1.795  1.00  0.00    -0.325 NA
ATOM     14  H   UNL     1     -14.744  -2.907  -2.735  1.00  0.00     0.119 HD
ATOM     15  H   UNL     1     -14.438  -1.564  -1.875  1.00  0.00     0.119 HD
ENDBRANCH  12  13
BRANCH  12  16
ATOM     16  C   UNL     1     -12.856  -4.374  -2.262  1.00  0.00     0.022 C 
BRANCH  16  17
ATOM     17  C   UNL     1     -12.947  -5.764  -1.617  1.00  0.00     0.002 C 
BRANCH  17  18
ATOM     18  C   UNL     1     -12.573  -6.925  -2.535  1.00  0.00     0.000 C 
BRANCH  18  19
ATOM     19  C   UNL     1     -11.928  -6.493  -3.859  1.00  0.00    -0.000 C 
BRANCH  19  20
ATOM     20  C   UNL     1     -10.453  -6.872  -4.017  1.00  0.00    -0.000 C 
BRANCH  20  21
ATOM     21  C   UNL     1      -9.735  -7.061  -2.677  1.00  0.00    -0.003 C 
ATOM     22  C   UNL     1      -8.845  -8.294  -2.694  1.00  0.00     0.004 C 
ENDBRANCH  20  21
ENDBRANCH  19  20
ENDBRANCH  18  19
ENDBRANCH  17  18
ENDBRANCH  16  17
ENDBRANCH  12  16
ENDBRANCH   9  12
ENDBRANCH   6   9
ENDBRANCH   3   5
ENDBRANCH   2   3
BRANCH   2  23
ATOM     23  N   UNL     1      -8.414  -1.534   1.988  1.00  0.00    -0.332 N 
ATOM     24  C   UNL     1      -7.719  -0.433   1.337  1.00  0.00     0.147 C 
BRANCH  23  25
ATOM     25  C   UNL     1      -9.315  -1.135   3.103  1.00  0.00     0.174 C 
BRANCH  25  26
ATOM     26  C   UNL     1      -8.546  -0.736   4.385  1.00  0.00     0.038 C 
BRANCH  26  27
ATOM     27  C   UNL     1      -7.419  -1.684   4.849  1.00  0.00    -0.015 C 
ATOM     28  C   UNL     1      -6.034  -1.201   4.418  1.00  0.00     0.007 C 
ATOM     29  C   UNL     1      -7.445  -1.971   6.348  1.00  0.00     0.007 C 
ENDBRANCH  26  27
ENDBRANCH  25  26
BRANCH  25  30
ATOM     30  C   UNL     1     -10.388  -2.224   3.336  1.00  0.00     0.243 C 
ATOM     31  O   UNL     1     -11.368  -2.337   2.602  1.00  0.00    -0.273 OA
ATOM     32  N   UNL     1     -10.176  -3.045   4.414  1.00  0.00    -0.342 N 
ATOM     33  H   UNL     1      -9.272  -2.979   4.888  1.00  0.00     0.164 HD
BRANCH  32  34
ATOM     34  C   UNL     1     -11.101  -4.113   4.801  1.00  0.00     0.175 C 
BRANCH  34  35
ATOM     35  C   UNL     1     -10.397  -5.478   4.831  1.00  0.00     0.070 C 
BRANCH  35  36
ATOM     36  C   UNL     1     -10.628  -6.282   3.571  1.00  0.00    -0.045 A 
ATOM     37  C   UNL     1      -9.622  -7.134   3.089  1.00  0.00     0.007 A 
ATOM     38  C   UNL     1     -11.829  -6.174   2.859  1.00  0.00     0.007 A 
ATOM     39  C   UNL     1      -9.820  -7.870   1.920  1.00  0.00     0.046 A 
ATOM     40  C   UNL     1     -12.027  -6.909   1.687  1.00  0.00     0.046 A 
ATOM     41  C   UNL     1     -11.020  -7.752   1.229  1.00  0.00     0.115 A 
BRANCH  41  42
ATOM     42  O   UNL     1     -11.172  -8.485   0.090  1.00  0.00    -0.508 OA
ATOM     43  H   UNL     1     -11.987  -8.195  -0.352  1.00  0.00     0.293 HD
ENDBRANCH  41  42
ENDBRANCH  35  36
ENDBRANCH  34  35
BRANCH  34  44
ATOM     44  C   UNL     1     -11.708  -3.746   6.175  1.00  0.00     0.243 C 
ATOM     45  O   UNL     1     -12.713  -4.266   6.651  1.00  0.00    -0.273 OA
ATOM     46  N   UNL     1     -11.089  -2.672   6.779  1.00  0.00    -0.341 N 
ATOM     47  H   UNL     1     -10.333  -2.199   6.290  1.00  0.00     0.164 HD
BRANCH  46  48
ATOM     48  C   UNL     1     -11.530  -2.099   8.053  1.00  0.00     0.196 C 
BRANCH  48  49
ATOM     49  C   UNL     1     -10.942  -2.870   9.246  1.00  0.00     0.072 C 
BRANCH  49  50
ATOM     50  C   UNL     1     -12.008  -3.412  10.172  1.00  0.00    -0.045 A 
ATOM     51  C   UNL     1     -12.432  -2.650  11.270  1.00  0.00     0.007 A 
ATOM     52  C   UNL     1     -12.569  -4.678   9.962  1.00  0.00     0.007 A 
ATOM     53  C   UNL     1     -13.406  -3.145  12.138  1.00  0.00     0.046 A 
ATOM     54  C   UNL     1     -13.543  -5.174  10.832  1.00  0.00     0.046 A 
ATOM     55  C   UNL     1     -13.954  -4.402  11.913  1.00  0.00     0.115 A 
BRANCH  55  56
ATOM     56  O   UNL     1     -14.901  -4.849  12.785  1.00  0.00    -0.508 OA
ATOM     57  H   UNL     1     -14.546  -5.622  13.253  1.00  0.00     0.293 HD
ENDBRANCH  55  56
ENDBRANCH  49  50
ENDBRANCH  48  49
BRANCH  48  58
ATOM     58  C   UNL     1     -11.087  -0.631   8.120  1.00  0.00     0.326 C 
ATOM     59  O   UNL     1     -10.166  -0.108   7.514  1.00  0.00    -0.250 OA
BRANCH  58  60
ATOM     60  O   UNL     1     -11.849   0.126   8.949  1.00  0.00    -0.480 OA
ATOM     61  H   UNL     1     -12.076  -0.494   9.676  1.00  0.00     0.296 HD
ENDBRANCH  58  60
ENDBRANCH  48  58
ENDBRANCH  46  48
ENDBRANCH  34  44
ENDBRANCH  32  34
ENDBRANCH  25  30
ENDBRANCH  23  25
ENDBRANCH   2  23
TORSDOF 28
ENDMDL
MODEL 21
REMARK VINA RESULT:    -6.173      2.063      4.161
REMARK INTER + INTRA:         -20.399
REMARK INTER:                 -15.400
REMARK INTRA:                  -4.999
REMARK UNBOUND:                -5.023
REMARK SMILES CCCCCCC[C@H](N)[C@H](O)C(=O)N[C@H](C)C(=O)N(C)[C@H](CC(C)C)C(=O)N[C@@H](Cc1ccc(O)cc1)C(=O)N[C@@H](Cc1ccc(O)cc1)C(=O)O
REMARK SMILES IDX 18 1 17 2 15 3 16 4 14 5 12 6 13 7 10 9 11 10 8 12 9 13 7 16
REMARK SMILES IDX 6 17 5 18 4 19 3 20 2 21 1 22 19 23 20 24 21 25 22 26 23 27
REMARK SMILES IDX 24 28 25 29 26 30 27 31 28 32 29 34 30 35 31 36 32 37 37 38
REMARK SMILES IDX 33 39 36 40 34 41 35 42 38 44 39 45 40 46 41 48 42 49 43 50
REMARK SMILES IDX 44 51 49 52 45 53 48 54 46 55 47 56 50 58 51 59 52 60
REMARK H PARENT 14 8 11 11 9 14 9 15 28 33 35 43 40 47 47 57 52 61
ROOT
ATOM      1  O   UNL     1      -5.544  -5.547   3.203  1.00  0.00    -0.272 OA
ATOM      2  C   UNL     1      -6.694  -5.282   2.823  1.00  0.00     0.245 C 
ENDROOT
BRANCH   2   3
ATOM      3  C   UNL     1      -6.996  -3.849   2.319  1.00  0.00     0.168 C 
ATOM      4  C   UNL     1      -7.550  -3.880   0.898  1.00  0.00     0.041 C 
BRANCH   3   5
ATOM      5  N   UNL     1      -7.827  -3.051   3.207  1.00  0.00    -0.342 N 
ATOM      6  C   UNL     1      -7.508  -1.749   3.529  1.00  0.00     0.251 C 
ATOM      7  O   UNL     1      -6.494  -1.184   3.132  1.00  0.00    -0.272 OA
ATOM      8  H   UNL     1      -8.676  -3.424   3.626  1.00  0.00     0.164 HD
BRANCH   6   9
ATOM      9  C   UNL     1      -8.598  -1.058   4.363  1.00  0.00     0.219 C 
BRANCH   9  10
ATOM     10  O   UNL     1      -9.901  -1.179   3.779  1.00  0.00    -0.382 OA
ATOM     11  H   UNL     1      -9.845  -2.012   3.261  1.00  0.00     0.211 HD
ENDBRANCH   9  10
BRANCH   9  12
ATOM     12  C   UNL     1      -8.613  -1.517   5.845  1.00  0.00     0.089 C 
BRANCH  12  13
ATOM     13  N   UNL     1      -7.213  -1.674   6.300  1.00  0.00    -0.325 NA
ATOM     14  H   UNL     1      -6.767  -2.421   5.765  1.00  0.00     0.119 HD
ATOM     15  H   UNL     1      -7.215  -2.003   7.268  1.00  0.00     0.119 HD
ENDBRANCH  12  13
BRANCH  12  16
ATOM     16  C   UNL     1      -9.394  -0.612   6.827  1.00  0.00     0.022 C 
BRANCH  16  17
ATOM     17  C   UNL     1      -9.417  -0.973   8.319  1.00  0.00     0.002 C 
BRANCH  17  18
ATOM     18  C   UNL     1      -8.782   0.063   9.243  1.00  0.00     0.000 C 
BRANCH  18  19
ATOM     19  C   UNL     1      -9.082  -0.160  10.731  1.00  0.00    -0.000 C 
BRANCH  19  20
ATOM     20  C   UNL     1      -7.914   0.126  11.679  1.00  0.00    -0.000 C 
BRANCH  20  21
ATOM     21  C   UNL     1      -6.659   0.619  10.954  1.00  0.00    -0.003 C 
ATOM     22  C   UNL     1      -5.836   1.545  11.836  1.00  0.00     0.004 C 
ENDBRANCH  20  21
ENDBRANCH  19  20
ENDBRANCH  18  19
ENDBRANCH  17  18
ENDBRANCH  16  17
ENDBRANCH  12  16
ENDBRANCH   9  12
ENDBRANCH   6   9
ENDBRANCH   3   5
ENDBRANCH   2   3
BRANCH   2  23
ATOM     23  N   UNL     1      -7.648  -6.291   2.740  1.00  0.00    -0.332 N 
ATOM     24  C   UNL     1      -7.659  -7.336   1.727  1.00  0.00     0.147 C 
BRANCH  23  25
ATOM     25  C   UNL     1      -8.682  -6.435   3.801  1.00  0.00     0.174 C 
BRANCH  25  26
ATOM     26  C   UNL     1      -8.628  -7.808   4.512  1.00  0.00     0.038 C 
BRANCH  26  27
ATOM     27  C   UNL     1      -8.460  -7.795   6.048  1.00  0.00    -0.015 C 
ATOM     28  C   UNL     1      -7.131  -7.179   6.485  1.00  0.00     0.007 C 
ATOM     29  C   UNL     1      -9.624  -7.134   6.780  1.00  0.00     0.007 C 
ENDBRANCH  26  27
ENDBRANCH  25  26
BRANCH  25  30
ATOM     30  C   UNL     1     -10.078  -6.083   3.236  1.00  0.00     0.243 C 
ATOM     31  O   UNL     1     -10.737  -6.891   2.582  1.00  0.00    -0.273 OA
ATOM     32  N   UNL     1     -10.525  -4.816   3.506  1.00  0.00    -0.342 N 
ATOM     33  H   UNL     1      -9.986  -4.255   4.171  1.00  0.00     0.164 HD
BRANCH  32  34
ATOM     34  C   UNL     1     -11.810  -4.300   3.028  1.00  0.00     0.175 C 
BRANCH  34  35
ATOM     35  C   UNL     1     -12.477  -3.400   4.079  1.00  0.00     0.070 C 
BRANCH  35  36
ATOM     36  C   UNL     1     -12.509  -4.030   5.453  1.00  0.00    -0.045 A 
ATOM     37  C   UNL     1     -11.966  -3.346   6.552  1.00  0.00     0.007 A 
ATOM     38  C   UNL     1     -13.054  -5.306   5.647  1.00  0.00     0.007 A 
ATOM     39  C   UNL     1     -11.978  -3.925   7.821  1.00  0.00     0.046 A 
ATOM     40  C   UNL     1     -13.066  -5.887   6.917  1.00  0.00     0.046 A 
ATOM     41  C   UNL     1     -12.528  -5.190   7.994  1.00  0.00     0.115 A 
BRANCH  41  42
ATOM     42  O   UNL     1     -12.517  -5.721   9.249  1.00  0.00    -0.508 OA
ATOM     43  H   UNL     1     -12.948  -6.591   9.215  1.00  0.00     0.293 HD
ENDBRANCH  41  42
ENDBRANCH  35  36
ENDBRANCH  34  35
BRANCH  34  44
ATOM     44  C   UNL     1     -11.561  -3.550   1.700  1.00  0.00     0.243 C 
ATOM     45  O   UNL     1     -10.621  -2.786   1.500  1.00  0.00    -0.273 OA
ATOM     46  N   UNL     1     -12.575  -3.712   0.779  1.00  0.00    -0.341 N 
ATOM     47  H   UNL     1     -13.391  -4.262   1.035  1.00  0.00     0.164 HD
BRANCH  46  48
ATOM     48  C   UNL     1     -12.594  -3.044  -0.524  1.00  0.00     0.196 C 
BRANCH  48  49
ATOM     49  C   UNL     1     -13.206  -3.948  -1.607  1.00  0.00     0.072 C 
BRANCH  49  50
ATOM     50  C   UNL     1     -12.308  -5.109  -1.972  1.00  0.00    -0.045 A 
ATOM     51  C   UNL     1     -10.920  -4.922  -2.047  1.00  0.00     0.007 A 
ATOM     52  C   UNL     1     -12.843  -6.371  -2.259  1.00  0.00     0.007 A 
ATOM     53  C   UNL     1     -10.083  -5.982  -2.395  1.00  0.00     0.046 A 
ATOM     54  C   UNL     1     -12.005  -7.432  -2.610  1.00  0.00     0.046 A 
ATOM     55  C   UNL     1     -10.631  -7.228  -2.673  1.00  0.00     0.115 A 
BRANCH  55  56
ATOM     56  O   UNL     1      -9.778  -8.237  -3.012  1.00  0.00    -0.508 OA
ATOM     57  H   UNL     1      -8.871  -7.893  -2.985  1.00  0.00     0.293 HD
ENDBRANCH  55  56
ENDBRANCH  49  50
ENDBRANCH  48  49
BRANCH  48  58
ATOM     58  C   UNL     1     -13.412  -1.750  -0.410  1.00  0.00     0.326 C 
ATOM     59  O   UNL     1     -13.592  -1.075   0.590  1.00  0.00    -0.250 OA
BRANCH  58  60
ATOM     60  O   UNL     1     -13.963  -1.353  -1.585  1.00  0.00    -0.480 OA
ATOM     61  H   UNL     1     -14.911  -1.233  -1.361  1.00  0.00     0.296 HD
ENDBRANCH  58  60
ENDBRANCH  48  58
ENDBRANCH  46  48
ENDBRANCH  34  44
ENDBRANCH  32  34
ENDBRANCH  25  30
ENDBRANCH  23  25
ENDBRANCH   2  23
TORSDOF 28
ENDMDL
MODEL 22
REMARK VINA RESULT:    -6.166      2.614      8.074
REMARK INTER + INTRA:         -20.380
REMARK INTER:                 -14.343
REMARK INTRA:                  -6.037
REMARK UNBOUND:                -5.023
REMARK SMILES CCCCCCC[C@H](N)[C@H](O)C(=O)N[C@H](C)C(=O)N(C)[C@H](CC(C)C)C(=O)N[C@@H](Cc1ccc(O)cc1)C(=O)N[C@@H](Cc1ccc(O)cc1)C(=O)O
REMARK SMILES IDX 18 1 17 2 15 3 16 4 14 5 12 6 13 7 10 9 11 10 8 12 9 13 7 16
REMARK SMILES IDX 6 17 5 18 4 19 3 20 2 21 1 22 19 23 20 24 21 25 22 26 23 27
REMARK SMILES IDX 24 28 25 29 26 30 27 31 28 32 29 34 30 35 31 36 32 37 37 38
REMARK SMILES IDX 33 39 36 40 34 41 35 42 38 44 39 45 40 46 41 48 42 49 43 50
REMARK SMILES IDX 44 51 49 52 45 53 48 54 46 55 47 56 50 58 51 59 52 60
REMARK H PARENT 14 8 11 11 9 14 9 15 28 33 35 43 40 47 47 57 52 61
ROOT
ATOM      1  O   UNL     1      -7.606  -2.698  -0.001  1.00  0.00    -0.272 OA
ATOM      2  C   UNL     1      -7.806  -2.378   1.180  1.00  0.00     0.245 C 
ENDROOT
BRANCH   2   3
ATOM      3  C   UNL     1      -9.019  -1.472   1.507  1.00  0.00     0.168 C 
ATOM      4  C   UNL     1      -8.580  -0.022   1.683  1.00  0.00     0.041 C 
BRANCH   3   5
ATOM      5  N   UNL     1     -10.137  -1.591   0.584  1.00  0.00    -0.342 N 
ATOM      6  C   UNL     1     -11.394  -1.966   1.009  1.00  0.00     0.251 C 
ATOM      7  O   UNL     1     -11.656  -2.264   2.169  1.00  0.00    -0.272 OA
ATOM      8  H   UNL     1     -10.034  -1.403  -0.410  1.00  0.00     0.164 HD
BRANCH   6   9
ATOM      9  C   UNL     1     -12.447  -1.886  -0.109  1.00  0.00     0.219 C 
BRANCH   9  10
ATOM     10  O   UNL     1     -11.928  -1.319  -1.318  1.00  0.00    -0.382 OA
ATOM     11  H   UNL     1     -11.933  -0.353  -1.140  1.00  0.00     0.211 HD
ENDBRANCH   9  10
BRANCH   9  12
ATOM     12  C   UNL     1     -13.140  -3.245  -0.391  1.00  0.00     0.089 C 
BRANCH  12  13
ATOM     13  N   UNL     1     -14.467  -2.978  -0.990  1.00  0.00    -0.325 NA
ATOM     14  H   UNL     1     -15.160  -3.594  -0.561  1.00  0.00     0.119 HD
ATOM     15  H   UNL     1     -14.445  -3.247  -1.976  1.00  0.00     0.119 HD
ENDBRANCH  12  13
BRANCH  12  16
ATOM     16  C   UNL     1     -12.348  -4.239  -1.274  1.00  0.00     0.022 C 
BRANCH  16  17
ATOM     17  C   UNL     1     -12.846  -4.536  -2.695  1.00  0.00     0.002 C 
BRANCH  17  18
ATOM     18  C   UNL     1     -12.422  -5.891  -3.257  1.00  0.00     0.000 C 
BRANCH  18  19
ATOM     19  C   UNL     1     -12.711  -7.073  -2.323  1.00  0.00    -0.000 C 
BRANCH  19  20
ATOM     20  C   UNL     1     -11.590  -8.112  -2.222  1.00  0.00    -0.000 C 
BRANCH  20  21
ATOM     21  C   UNL     1     -11.091  -8.317  -0.789  1.00  0.00    -0.003 C 
ATOM     22  C   UNL     1     -11.895  -7.491   0.202  1.00  0.00     0.004 C 
ENDBRANCH  20  21
ENDBRANCH  19  20
ENDBRANCH  18  19
ENDBRANCH  17  18
ENDBRANCH  16  17
ENDBRANCH  12  16
ENDBRANCH   9  12
ENDBRANCH   6   9
ENDBRANCH   3   5
ENDBRANCH   2   3
BRANCH   2  23
ATOM     23  N   UNL     1      -7.025  -2.927   2.191  1.00  0.00    -0.332 N 
ATOM     24  C   UNL     1      -5.652  -3.380   2.021  1.00  0.00     0.147 C 
BRANCH  23  25
ATOM     25  C   UNL     1      -7.529  -2.967   3.592  1.00  0.00     0.174 C 
BRANCH  25  26
ATOM     26  C   UNL     1      -6.563  -2.301   4.599  1.00  0.00     0.038 C 
BRANCH  26  27
ATOM     27  C   UNL     1      -7.194  -1.402   5.685  1.00  0.00    -0.015 C 
ATOM     28  C   UNL     1      -8.641  -1.029   5.366  1.00  0.00     0.007 C 
ATOM     29  C   UNL     1      -7.087  -1.982   7.093  1.00  0.00     0.007 C 
ENDBRANCH  26  27
ENDBRANCH  25  26
BRANCH  25  30
ATOM     30  C   UNL     1      -7.926  -4.412   3.973  1.00  0.00     0.243 C 
ATOM     31  O   UNL     1      -7.367  -5.020   4.885  1.00  0.00    -0.273 OA
ATOM     32  N   UNL     1      -8.932  -4.968   3.225  1.00  0.00    -0.342 N 
ATOM     33  H   UNL     1      -9.440  -4.354   2.583  1.00  0.00     0.164 HD
BRANCH  32  34
ATOM     34  C   UNL     1      -9.419  -6.335   3.427  1.00  0.00     0.175 C 
BRANCH  34  35
ATOM     35  C   UNL     1     -10.952  -6.373   3.532  1.00  0.00     0.070 C 
BRANCH  35  36
ATOM     36  C   UNL     1     -11.443  -6.237   4.956  1.00  0.00    -0.045 A 
ATOM     37  C   UNL     1     -12.694  -5.655   5.213  1.00  0.00     0.007 A 
ATOM     38  C   UNL     1     -10.656  -6.665   6.032  1.00  0.00     0.007 A 
ATOM     39  C   UNL     1     -13.151  -5.513   6.524  1.00  0.00     0.046 A 
ATOM     40  C   UNL     1     -11.112  -6.522   7.345  1.00  0.00     0.046 A 
ATOM     41  C   UNL     1     -12.357  -5.948   7.579  1.00  0.00     0.115 A 
BRANCH  41  42
ATOM     42  O   UNL     1     -12.838  -5.788   8.844  1.00  0.00    -0.508 OA
ATOM     43  H   UNL     1     -12.685  -4.868   9.115  1.00  0.00     0.293 HD
ENDBRANCH  41  42
ENDBRANCH  35  36
ENDBRANCH  34  35
BRANCH  34  44
ATOM     44  C   UNL     1      -8.899  -7.206   2.261  1.00  0.00     0.243 C 
ATOM     45  O   UNL     1      -8.914  -8.433   2.251  1.00  0.00    -0.273 OA
ATOM     46  N   UNL     1      -8.285  -6.477   1.264  1.00  0.00    -0.341 N 
ATOM     47  H   UNL     1      -8.193  -5.470   1.373  1.00  0.00     0.164 HD
BRANCH  46  48
ATOM     48  C   UNL     1      -7.655  -7.088   0.091  1.00  0.00     0.196 C 
BRANCH  48  49
ATOM     49  C   UNL     1      -7.559  -6.091  -1.076  1.00  0.00     0.072 C 
BRANCH  49  50
ATOM     50  C   UNL     1      -8.057  -6.672  -2.380  1.00  0.00    -0.045 A 
ATOM     51  C   UNL     1      -7.898  -8.041  -2.641  1.00  0.00     0.007 A 
ATOM     52  C   UNL     1      -8.659  -5.858  -3.348  1.00  0.00     0.007 A 
ATOM     53  C   UNL     1      -8.341  -8.586  -3.846  1.00  0.00     0.046 A 
ATOM     54  C   UNL     1      -9.101  -6.404  -4.555  1.00  0.00     0.046 A 
ATOM     55  C   UNL     1      -8.940  -7.764  -4.793  1.00  0.00     0.115 A 
BRANCH  55  56
ATOM     56  O   UNL     1      -9.357  -8.335  -5.959  1.00  0.00    -0.508 OA
ATOM     57  H   UNL     1     -10.301  -8.544  -5.877  1.00  0.00     0.293 HD
ENDBRANCH  55  56
ENDBRANCH  49  50
ENDBRANCH  48  49
BRANCH  48  58
ATOM     58  C   UNL     1      -6.249  -7.570   0.474  1.00  0.00     0.326 C 
ATOM     59  O   UNL     1      -5.236  -6.896   0.567  1.00  0.00    -0.250 OA
BRANCH  58  60
ATOM     60  O   UNL     1      -6.186  -8.899   0.740  1.00  0.00    -0.480 OA
ATOM     61  H   UNL     1      -5.298  -9.007   1.145  1.00  0.00     0.296 HD
ENDBRANCH  58  60
ENDBRANCH  48  58
ENDBRANCH  46  48
ENDBRANCH  34  44
ENDBRANCH  32  34
ENDBRANCH  25  30
ENDBRANCH  23  25
ENDBRANCH   2  23
TORSDOF 28
ENDMDL
MODEL 23
REMARK VINA RESULT:    -6.163      2.398      8.956
REMARK INTER + INTRA:         -20.374
REMARK INTER:                 -13.670
REMARK INTRA:                  -6.704
REMARK UNBOUND:                -5.023
REMARK SMILES CCCCCCC[C@H](N)[C@H](O)C(=O)N[C@H](C)C(=O)N(C)[C@H](CC(C)C)C(=O)N[C@@H](Cc1ccc(O)cc1)C(=O)N[C@@H](Cc1ccc(O)cc1)C(=O)O
REMARK SMILES IDX 18 1 17 2 15 3 16 4 14 5 12 6 13 7 10 9 11 10 8 12 9 13 7 16
REMARK SMILES IDX 6 17 5 18 4 19 3 20 2 21 1 22 19 23 20 24 21 25 22 26 23 27
REMARK SMILES IDX 24 28 25 29 26 30 27 31 28 32 29 34 30 35 31 36 32 37 37 38
REMARK SMILES IDX 33 39 36 40 34 41 35 42 38 44 39 45 40 46 41 48 42 49 43 50
REMARK SMILES IDX 44 51 49 52 45 53 48 54 46 55 47 56 50 58 51 59 52 60
REMARK H PARENT 14 8 11 11 9 14 9 15 28 33 35 43 40 47 47 57 52 61
ROOT
ATOM      1  O   UNL     1      -6.502  -5.420   1.348  1.00  0.00    -0.272 OA
ATOM      2  C   UNL     1      -7.616  -5.693   0.878  1.00  0.00     0.245 C 
ENDROOT
BRANCH   2   3
ATOM      3  C   UNL     1      -8.300  -4.661  -0.053  1.00  0.00     0.168 C 
ATOM      4  C   UNL     1      -8.055  -5.008  -1.518  1.00  0.00     0.041 C 
BRANCH   3   5
ATOM      5  N   UNL     1      -9.710  -4.431   0.221  1.00  0.00    -0.342 N 
ATOM      6  C   UNL     1     -10.227  -3.160   0.354  1.00  0.00     0.251 C 
ATOM      7  O   UNL     1      -9.545  -2.142   0.295  1.00  0.00    -0.272 OA
ATOM      8  H   UNL     1     -10.368  -5.200   0.325  1.00  0.00     0.164 HD
BRANCH   6   9
ATOM      9  C   UNL     1     -11.758  -3.153   0.498  1.00  0.00     0.219 C 
BRANCH   9  10
ATOM     10  O   UNL     1     -12.248  -1.968   1.137  1.00  0.00    -0.382 OA
ATOM     11  H   UNL     1     -12.925  -2.307   1.763  1.00  0.00     0.211 HD
ENDBRANCH   9  10
BRANCH   9  12
ATOM     12  C   UNL     1     -12.496  -3.401  -0.844  1.00  0.00     0.089 C 
BRANCH  12  13
ATOM     13  N   UNL     1     -11.592  -3.019  -1.952  1.00  0.00    -0.325 NA
ATOM     14  H   UNL     1     -10.698  -2.711  -1.566  1.00  0.00     0.119 HD
ATOM     15  H   UNL     1     -11.976  -2.197  -2.424  1.00  0.00     0.119 HD
ENDBRANCH  12  13
BRANCH  12  16
ATOM     16  C   UNL     1     -13.034  -4.835  -1.066  1.00  0.00     0.022 C 
BRANCH  16  17
ATOM     17  C   UNL     1     -12.484  -5.666  -2.234  1.00  0.00     0.002 C 
BRANCH  17  18
ATOM     18  C   UNL     1     -11.492  -6.757  -1.837  1.00  0.00     0.000 C 
BRANCH  18  19
ATOM     19  C   UNL     1     -11.705  -8.091  -2.565  1.00  0.00    -0.000 C 
BRANCH  19  20
ATOM     20  C   UNL     1     -10.423  -8.846  -2.927  1.00  0.00    -0.000 C 
BRANCH  20  21
ATOM     21  C   UNL     1      -9.567  -8.111  -3.963  1.00  0.00    -0.003 C 
ATOM     22  C   UNL     1      -8.095  -8.134  -3.583  1.00  0.00     0.004 C 
ENDBRANCH  20  21
ENDBRANCH  19  20
ENDBRANCH  18  19
ENDBRANCH  17  18
ENDBRANCH  16  17
ENDBRANCH  12  16
ENDBRANCH   9  12
ENDBRANCH   6   9
ENDBRANCH   3   5
ENDBRANCH   2   3
BRANCH   2  23
ATOM     23  N   UNL     1      -8.171  -6.951   1.089  1.00  0.00    -0.332 N 
ATOM     24  C   UNL     1      -8.078  -8.062   0.154  1.00  0.00     0.147 C 
BRANCH  23  25
ATOM     25  C   UNL     1      -8.811  -7.280   2.392  1.00  0.00     0.174 C 
BRANCH  25  26
ATOM     26  C   UNL     1      -8.689  -8.778   2.761  1.00  0.00     0.038 C 
BRANCH  26  27
ATOM     27  C   UNL     1      -7.796  -9.130   3.972  1.00  0.00    -0.015 C 
ATOM     28  C   UNL     1      -6.348  -9.406   3.569  1.00  0.00     0.007 C 
ATOM     29  C   UNL     1      -7.854  -8.094   5.091  1.00  0.00     0.007 C 
ENDBRANCH  26  27
ENDBRANCH  25  26
BRANCH  25  30
ATOM     30  C   UNL     1     -10.262  -6.749   2.423  1.00  0.00     0.243 C 
ATOM     31  O   UNL     1     -11.102  -7.106   1.598  1.00  0.00    -0.273 OA
ATOM     32  N   UNL     1     -10.545  -5.853   3.421  1.00  0.00    -0.342 N 
ATOM     33  H   UNL     1      -9.838  -5.715   4.149  1.00  0.00     0.164 HD
BRANCH  32  34
ATOM     34  C   UNL     1     -11.859  -5.225   3.587  1.00  0.00     0.175 C 
BRANCH  34  35
ATOM     35  C   UNL     1     -12.733  -6.013   4.575  1.00  0.00     0.070 C 
BRANCH  35  36
ATOM     36  C   UNL     1     -12.203  -5.969   5.990  1.00  0.00    -0.045 A 
ATOM     37  C   UNL     1     -10.992  -6.604   6.306  1.00  0.00     0.007 A 
ATOM     38  C   UNL     1     -12.916  -5.318   7.005  1.00  0.00     0.007 A 
ATOM     39  C   UNL     1     -10.501  -6.581   7.611  1.00  0.00     0.046 A 
ATOM     40  C   UNL     1     -12.426  -5.295   8.313  1.00  0.00     0.046 A 
ATOM     41  C   UNL     1     -11.221  -5.927   8.604  1.00  0.00     0.115 A 
BRANCH  41  42
ATOM     42  O   UNL     1     -10.708  -5.930   9.867  1.00  0.00    -0.508 OA
ATOM     43  H   UNL     1      -9.791  -5.611   9.825  1.00  0.00     0.293 HD
ENDBRANCH  41  42
ENDBRANCH  35  36
ENDBRANCH  34  35
BRANCH  34  44
ATOM     44  C   UNL     1     -11.638  -3.767   4.047  1.00  0.00     0.243 C 
ATOM     45  O   UNL     1     -12.466  -2.868   3.926  1.00  0.00    -0.273 OA
ATOM     46  N   UNL     1     -10.358  -3.522   4.499  1.00  0.00    -0.341 N 
ATOM     47  H   UNL     1      -9.672  -4.272   4.470  1.00  0.00     0.164 HD
BRANCH  46  48
ATOM     48  C   UNL     1      -9.894  -2.199   4.924  1.00  0.00     0.196 C 
BRANCH  48  49
ATOM     49  C   UNL     1      -8.928  -2.302   6.116  1.00  0.00     0.072 C 
BRANCH  49  50
ATOM     50  C   UNL     1      -9.642  -2.259   7.448  1.00  0.00    -0.045 A 
ATOM     51  C   UNL     1      -8.984  -2.691   8.609  1.00  0.00     0.007 A 
ATOM     52  C   UNL     1     -10.966  -1.811   7.542  1.00  0.00     0.007 A 
ATOM     53  C   UNL     1      -9.637  -2.668   9.841  1.00  0.00     0.046 A 
ATOM     54  C   UNL     1     -11.621  -1.789   8.776  1.00  0.00     0.046 A 
ATOM     55  C   UNL     1     -10.950  -2.218   9.916  1.00  0.00     0.115 A 
BRANCH  55  56
ATOM     56  O   UNL     1     -11.553  -2.213  11.138  1.00  0.00    -0.508 OA
ATOM     57  H   UNL     1     -11.994  -3.068  11.265  1.00  0.00     0.293 HD
ENDBRANCH  55  56
ENDBRANCH  49  50
ENDBRANCH  48  49
BRANCH  48  58
ATOM     58  C   UNL     1      -9.185  -1.516   3.745  1.00  0.00     0.326 C 
ATOM     59  O   UNL     1      -7.993  -1.540   3.485  1.00  0.00    -0.250 OA
BRANCH  58  60
ATOM     60  O   UNL     1     -10.028  -0.836   2.928  1.00  0.00    -0.480 OA
ATOM     61  H   UNL     1      -9.495  -0.703   2.114  1.00  0.00     0.296 HD
ENDBRANCH  58  60
ENDBRANCH  48  58
ENDBRANCH  46  48
ENDBRANCH  34  44
ENDBRANCH  32  34
ENDBRANCH  25  30
ENDBRANCH  23  25
ENDBRANCH   2  23
TORSDOF 28
ENDMDL
MODEL 24
REMARK VINA RESULT:    -6.149      2.063      9.318
REMARK INTER + INTRA:         -20.338
REMARK INTER:                 -16.520
REMARK INTRA:                  -3.818
REMARK UNBOUND:                -5.023
REMARK SMILES CCCCCCC[C@H](N)[C@H](O)C(=O)N[C@H](C)C(=O)N(C)[C@H](CC(C)C)C(=O)N[C@@H](Cc1ccc(O)cc1)C(=O)N[C@@H](Cc1ccc(O)cc1)C(=O)O
REMARK SMILES IDX 18 1 17 2 15 3 16 4 14 5 12 6 13 7 10 9 11 10 8 12 9 13 7 16
REMARK SMILES IDX 6 17 5 18 4 19 3 20 2 21 1 22 19 23 20 24 21 25 22 26 23 27
REMARK SMILES IDX 24 28 25 29 26 30 27 31 28 32 29 34 30 35 31 36 32 37 37 38
REMARK SMILES IDX 33 39 36 40 34 41 35 42 38 44 39 45 40 46 41 48 42 49 43 50
REMARK SMILES IDX 44 51 49 52 45 53 48 54 46 55 47 56 50 58 51 59 52 60
REMARK H PARENT 14 8 11 11 9 14 9 15 28 33 35 43 40 47 47 57 52 61
ROOT
ATOM      1  O   UNL     1      -9.255  -3.625   0.637  1.00  0.00    -0.272 OA
ATOM      2  C   UNL     1     -10.148  -3.353   1.453  1.00  0.00     0.245 C 
ENDROOT
BRANCH   2   3
ATOM      3  C   UNL     1     -10.930  -2.028   1.280  1.00  0.00     0.168 C 
ATOM      4  C   UNL     1     -10.045  -0.830   1.608  1.00  0.00     0.041 C 
BRANCH   3   5
ATOM      5  N   UNL     1     -11.596  -1.874  -0.004  1.00  0.00    -0.342 N 
ATOM      6  C   UNL     1     -12.970  -1.914  -0.121  1.00  0.00     0.251 C 
ATOM      7  O   UNL     1     -13.723  -2.120   0.824  1.00  0.00    -0.272 OA
ATOM      8  H   UNL     1     -11.074  -1.732  -0.865  1.00  0.00     0.164 HD
BRANCH   6   9
ATOM      9  C   UNL     1     -13.455  -1.587  -1.542  1.00  0.00     0.219 C 
BRANCH   9  10
ATOM     10  O   UNL     1     -12.530  -0.767  -2.267  1.00  0.00    -0.382 OA
ATOM     11  H   UNL     1     -11.652  -1.092  -1.970  1.00  0.00     0.211 HD
ENDBRANCH   9  10
BRANCH   9  12
ATOM     12  C   UNL     1     -13.833  -2.848  -2.362  1.00  0.00     0.089 C 
BRANCH  12  13
ATOM     13  N   UNL     1     -13.493  -2.602  -3.782  1.00  0.00    -0.325 NA
ATOM     14  H   UNL     1     -14.287  -2.866  -4.368  1.00  0.00     0.119 HD
ATOM     15  H   UNL     1     -12.737  -3.235  -4.056  1.00  0.00     0.119 HD
ENDBRANCH  12  13
BRANCH  12  16
ATOM     16  C   UNL     1     -13.202  -4.179  -1.888  1.00  0.00     0.022 C 
BRANCH  16  17
ATOM     17  C   UNL     1     -12.035  -4.778  -2.684  1.00  0.00     0.002 C 
BRANCH  17  18
ATOM     18  C   UNL     1     -12.296  -6.166  -3.266  1.00  0.00     0.000 C 
BRANCH  18  19
ATOM     19  C   UNL     1     -12.078  -7.312  -2.269  1.00  0.00    -0.000 C 
BRANCH  19  20
ATOM     20  C   UNL     1     -11.304  -8.513  -2.820  1.00  0.00    -0.000 C 
BRANCH  20  21
ATOM     21  C   UNL     1      -9.785  -8.337  -2.737  1.00  0.00    -0.003 C 
ATOM     22  C   UNL     1      -9.168  -8.191  -4.119  1.00  0.00     0.004 C 
ENDBRANCH  20  21
ENDBRANCH  19  20
ENDBRANCH  18  19
ENDBRANCH  17  18
ENDBRANCH  16  17
ENDBRANCH  12  16
ENDBRANCH   9  12
ENDBRANCH   6   9
ENDBRANCH   3   5
ENDBRANCH   2   3
BRANCH   2  23
ATOM     23  N   UNL     1     -10.512  -4.283   2.421  1.00  0.00    -0.332 N 
ATOM     24  C   UNL     1     -11.794  -4.299   3.109  1.00  0.00     0.147 C 
BRANCH  23  25
ATOM     25  C   UNL     1      -9.621  -5.434   2.730  1.00  0.00     0.174 C 
BRANCH  25  26
ATOM     26  C   UNL     1     -10.360  -6.793   2.701  1.00  0.00     0.038 C 
BRANCH  26  27
ATOM     27  C   UNL     1     -10.798  -7.323   1.318  1.00  0.00    -0.015 C 
ATOM     28  C   UNL     1     -10.093  -8.625   0.941  1.00  0.00     0.007 C 
ATOM     29  C   UNL     1     -12.311  -7.470   1.175  1.00  0.00     0.007 C 
ENDBRANCH  26  27
ENDBRANCH  25  26
BRANCH  25  30
ATOM     30  C   UNL     1      -8.850  -5.174   4.044  1.00  0.00     0.243 C 
ATOM     31  O   UNL     1      -8.391  -6.092   4.722  1.00  0.00    -0.273 OA
ATOM     32  N   UNL     1      -8.719  -3.857   4.404  1.00  0.00    -0.342 N 
ATOM     33  H   UNL     1      -9.001  -3.149   3.721  1.00  0.00     0.164 HD
BRANCH  32  34
ATOM     34  C   UNL     1      -8.044  -3.424   5.630  1.00  0.00     0.175 C 
BRANCH  34  35
ATOM     35  C   UNL     1      -7.700  -1.927   5.581  1.00  0.00     0.070 C 
BRANCH  35  36
ATOM     36  C   UNL     1      -6.323  -1.662   5.015  1.00  0.00    -0.045 A 
ATOM     37  C   UNL     1      -5.186  -1.871   5.810  1.00  0.00     0.007 A 
ATOM     38  C   UNL     1      -6.163  -1.185   3.708  1.00  0.00     0.007 A 
ATOM     39  C   UNL     1      -3.912  -1.615   5.302  1.00  0.00     0.046 A 
ATOM     40  C   UNL     1      -4.888  -0.928   3.199  1.00  0.00     0.046 A 
ATOM     41  C   UNL     1      -3.773  -1.147   4.001  1.00  0.00     0.115 A 
BRANCH  41  42
ATOM     42  O   UNL     1      -2.511  -0.907   3.544  1.00  0.00    -0.508 OA
ATOM     43  H   UNL     1      -2.094  -0.252   4.128  1.00  0.00     0.293 HD
ENDBRANCH  41  42
ENDBRANCH  35  36
ENDBRANCH  34  35
BRANCH  34  44
ATOM     44  C   UNL     1      -8.959  -3.767   6.827  1.00  0.00     0.243 C 
ATOM     45  O   UNL     1      -8.589  -3.798   7.997  1.00  0.00    -0.273 OA
ATOM     46  N   UNL     1     -10.223  -4.170   6.453  1.00  0.00    -0.341 N 
ATOM     47  H   UNL     1     -10.447  -4.241   5.464  1.00  0.00     0.164 HD
BRANCH  46  48
ATOM     48  C   UNL     1     -11.244  -4.610   7.407  1.00  0.00     0.196 C 
BRANCH  48  49
ATOM     49  C   UNL     1     -12.287  -3.508   7.659  1.00  0.00     0.072 C 
BRANCH  49  50
ATOM     50  C   UNL     1     -11.742  -2.371   8.494  1.00  0.00    -0.045 A 
ATOM     51  C   UNL     1     -11.572  -1.102   7.921  1.00  0.00     0.007 A 
ATOM     52  C   UNL     1     -11.382  -2.569   9.833  1.00  0.00     0.007 A 
ATOM     53  C   UNL     1     -11.058  -0.049   8.678  1.00  0.00     0.046 A 
ATOM     54  C   UNL     1     -10.866  -1.514  10.590  1.00  0.00     0.046 A 
ATOM     55  C   UNL     1     -10.709  -0.263  10.006  1.00  0.00     0.115 A 
BRANCH  55  56
ATOM     56  O   UNL     1     -10.209   0.792  10.710  1.00  0.00    -0.508 OA
ATOM     57  H   UNL     1     -10.053   0.504  11.624  1.00  0.00     0.293 HD
ENDBRANCH  55  56
ENDBRANCH  49  50
ENDBRANCH  48  49
BRANCH  48  58
ATOM     58  C   UNL     1     -11.940  -5.861   6.853  1.00  0.00     0.326 C 
ATOM     59  O   UNL     1     -13.112  -6.175   6.987  1.00  0.00    -0.250 OA
BRANCH  58  60
ATOM     60  O   UNL     1     -11.118  -6.662   6.131  1.00  0.00    -0.480 OA
ATOM     61  H   UNL     1     -11.343  -7.563   6.450  1.00  0.00     0.296 HD
ENDBRANCH  58  60
ENDBRANCH  48  58
ENDBRANCH  46  48
ENDBRANCH  34  44
ENDBRANCH  32  34
ENDBRANCH  25  30
ENDBRANCH  23  25
ENDBRANCH   2  23
TORSDOF 28
ENDMDL
MODEL 25
REMARK VINA RESULT:    -6.116      2.029     10.079
REMARK INTER + INTRA:         -20.255
REMARK INTER:                 -14.791
REMARK INTRA:                  -5.464
REMARK UNBOUND:                -5.023
REMARK SMILES CCCCCCC[C@H](N)[C@H](O)C(=O)N[C@H](C)C(=O)N(C)[C@H](CC(C)C)C(=O)N[C@@H](Cc1ccc(O)cc1)C(=O)N[C@@H](Cc1ccc(O)cc1)C(=O)O
REMARK SMILES IDX 18 1 17 2 15 3 16 4 14 5 12 6 13 7 10 9 11 10 8 12 9 13 7 16
REMARK SMILES IDX 6 17 5 18 4 19 3 20 2 21 1 22 19 23 20 24 21 25 22 26 23 27
REMARK SMILES IDX 24 28 25 29 26 30 27 31 28 32 29 34 30 35 31 36 32 37 37 38
REMARK SMILES IDX 33 39 36 40 34 41 35 42 38 44 39 45 40 46 41 48 42 49 43 50
REMARK SMILES IDX 44 51 49 52 45 53 48 54 46 55 47 56 50 58 51 59 52 60
REMARK H PARENT 14 8 11 11 9 14 9 15 28 33 35 43 40 47 47 57 52 61
ROOT
ATOM      1  O   UNL     1      -8.344  -4.432   1.784  1.00  0.00    -0.272 OA
ATOM      2  C   UNL     1      -8.554  -3.225   1.592  1.00  0.00     0.245 C 
ENDROOT
BRANCH   2   3
ATOM      3  C   UNL     1      -9.374  -2.804   0.347  1.00  0.00     0.168 C 
ATOM      4  C   UNL     1      -8.702  -3.290  -0.933  1.00  0.00     0.041 C 
BRANCH   3   5
ATOM      5  N   UNL     1     -10.782  -3.167   0.391  1.00  0.00    -0.342 N 
ATOM      6  C   UNL     1     -11.768  -2.231   0.623  1.00  0.00     0.251 C 
ATOM      7  O   UNL     1     -11.537  -1.048   0.848  1.00  0.00    -0.272 OA
ATOM      8  H   UNL     1     -11.093  -4.125   0.253  1.00  0.00     0.164 HD
BRANCH   6   9
ATOM      9  C   UNL     1     -13.184  -2.812   0.483  1.00  0.00     0.219 C 
BRANCH   9  10
ATOM     10  O   UNL     1     -14.193  -1.939   1.004  1.00  0.00    -0.382 OA
ATOM     11  H   UNL     1     -13.865  -1.042   0.773  1.00  0.00     0.211 HD
ENDBRANCH   9  10
BRANCH   9  12
ATOM     12  C   UNL     1     -13.524  -3.245  -0.966  1.00  0.00     0.089 C 
BRANCH  12  13
ATOM     13  N   UNL     1     -12.908  -2.276  -1.901  1.00  0.00    -0.325 NA
ATOM     14  H   UNL     1     -12.549  -2.776  -2.716  1.00  0.00     0.119 HD
ATOM     15  H   UNL     1     -12.084  -1.865  -1.456  1.00  0.00     0.119 HD
ENDBRANCH  12  13
BRANCH  12  16
ATOM     16  C   UNL     1     -13.121  -4.688  -1.355  1.00  0.00     0.022 C 
BRANCH  16  17
ATOM     17  C   UNL     1     -12.690  -4.979  -2.799  1.00  0.00     0.002 C 
BRANCH  17  18
ATOM     18  C   UNL     1     -12.495  -6.458  -3.128  1.00  0.00     0.000 C 
BRANCH  18  19
ATOM     19  C   UNL     1     -11.073  -6.816  -3.578  1.00  0.00    -0.000 C 
BRANCH  19  20
ATOM     20  C   UNL     1     -10.645  -8.259  -3.293  1.00  0.00    -0.000 C 
BRANCH  20  21
ATOM     21  C   UNL     1      -9.375  -8.350  -2.442  1.00  0.00    -0.003 C 
ATOM     22  C   UNL     1      -8.914  -6.975  -1.985  1.00  0.00     0.004 C 
ENDBRANCH  20  21
ENDBRANCH  19  20
ENDBRANCH  18  19
ENDBRANCH  17  18
ENDBRANCH  16  17
ENDBRANCH  12  16
ENDBRANCH   9  12
ENDBRANCH   6   9
ENDBRANCH   3   5
ENDBRANCH   2   3
BRANCH   2  23
ATOM     23  N   UNL     1      -8.163  -2.291   2.545  1.00  0.00    -0.332 N 
ATOM     24  C   UNL     1      -6.828  -1.721   2.645  1.00  0.00     0.147 C 
BRANCH  23  25
ATOM     25  C   UNL     1      -9.166  -1.704   3.477  1.00  0.00     0.174 C 
BRANCH  25  26
ATOM     26  C   UNL     1      -8.524  -0.830   4.580  1.00  0.00     0.038 C 
BRANCH  26  27
ATOM     27  C   UNL     1      -8.875  -1.179   6.043  1.00  0.00    -0.015 C 
ATOM     28  C   UNL     1      -7.655  -1.636   6.844  1.00  0.00     0.007 C 
ATOM     29  C   UNL     1      -9.610  -0.059   6.775  1.00  0.00     0.007 C 
ENDBRANCH  26  27
ENDBRANCH  25  26
BRANCH  25  30
ATOM     30  C   UNL     1     -10.095  -2.811   4.024  1.00  0.00     0.243 C 
ATOM     31  O   UNL     1     -11.319  -2.746   3.915  1.00  0.00    -0.273 OA
ATOM     32  N   UNL     1      -9.467  -3.862   4.642  1.00  0.00    -0.342 N 
ATOM     33  H   UNL     1      -8.448  -3.914   4.569  1.00  0.00     0.164 HD
BRANCH  32  34
ATOM     34  C   UNL     1     -10.189  -4.986   5.244  1.00  0.00     0.175 C 
BRANCH  34  35
ATOM     35  C   UNL     1      -9.644  -6.332   4.743  1.00  0.00     0.070 C 
BRANCH  35  36
ATOM     36  C   UNL     1     -10.279  -6.774   3.443  1.00  0.00    -0.045 A 
ATOM     37  C   UNL     1      -9.589  -7.642   2.584  1.00  0.00     0.007 A 
ATOM     38  C   UNL     1     -11.546  -6.309   3.068  1.00  0.00     0.007 A 
ATOM     39  C   UNL     1     -10.161  -8.044   1.377  1.00  0.00     0.046 A 
ATOM     40  C   UNL     1     -12.119  -6.710   1.859  1.00  0.00     0.046 A 
ATOM     41  C   UNL     1     -11.421  -7.576   1.024  1.00  0.00     0.115 A 
BRANCH  41  42
ATOM     42  O   UNL     1     -11.943  -7.991  -0.165  1.00  0.00    -0.508 OA
ATOM     43  H   UNL     1     -12.308  -8.883  -0.043  1.00  0.00     0.293 HD
ENDBRANCH  41  42
ENDBRANCH  35  36
ENDBRANCH  34  35
BRANCH  34  44
ATOM     44  C   UNL     1     -10.084  -4.856   6.780  1.00  0.00     0.243 C 
ATOM     45  O   UNL     1      -9.117  -5.222   7.442  1.00  0.00    -0.273 OA
ATOM     46  N   UNL     1     -11.243  -4.403   7.373  1.00  0.00    -0.341 N 
ATOM     47  H   UNL     1     -12.058  -4.224   6.791  1.00  0.00     0.164 HD
BRANCH  46  48
ATOM     48  C   UNL     1     -11.406  -4.263   8.822  1.00  0.00     0.196 C 
BRANCH  48  49
ATOM     49  C   UNL     1     -11.993  -2.891   9.189  1.00  0.00     0.072 C 
BRANCH  49  50
ATOM     50  C   UNL     1     -10.938  -1.909   9.646  1.00  0.00    -0.045 A 
ATOM     51  C   UNL     1      -9.651  -2.366   9.968  1.00  0.00     0.007 A 
ATOM     52  C   UNL     1     -11.229  -0.545   9.774  1.00  0.00     0.007 A 
ATOM     53  C   UNL     1      -8.673  -1.472  10.403  1.00  0.00     0.046 A 
ATOM     54  C   UNL     1     -10.249   0.350  10.211  1.00  0.00     0.046 A 
ATOM     55  C   UNL     1      -8.979  -0.121  10.521  1.00  0.00     0.115 A 
BRANCH  55  56
ATOM     56  O   UNL     1      -7.995   0.719  10.951  1.00  0.00    -0.508 OA
ATOM     57  H   UNL     1      -8.190   1.611  10.623  1.00  0.00     0.293 HD
ENDBRANCH  55  56
ENDBRANCH  49  50
ENDBRANCH  48  49
BRANCH  48  58
ATOM     58  C   UNL     1     -12.335  -5.374   9.329  1.00  0.00     0.326 C 
ATOM     59  O   UNL     1     -12.303  -6.558   9.034  1.00  0.00    -0.250 OA
BRANCH  58  60
ATOM     60  O   UNL     1     -13.269  -4.937  10.212  1.00  0.00    -0.480 OA
ATOM     61  H   UNL     1     -13.942  -5.652  10.201  1.00  0.00     0.296 HD
ENDBRANCH  58  60
ENDBRANCH  48  58
ENDBRANCH  46  48
ENDBRANCH  34  44
ENDBRANCH  32  34
ENDBRANCH  25  30
ENDBRANCH  23  25
ENDBRANCH   2  23
TORSDOF 28
ENDMDL
MODEL 26
REMARK VINA RESULT:    -6.100      2.035      3.377
REMARK INTER + INTRA:         -20.216
REMARK INTER:                 -15.819
REMARK INTRA:                  -4.397
REMARK UNBOUND:                -5.023
REMARK SMILES CCCCCCC[C@H](N)[C@H](O)C(=O)N[C@H](C)C(=O)N(C)[C@H](CC(C)C)C(=O)N[C@@H](Cc1ccc(O)cc1)C(=O)N[C@@H](Cc1ccc(O)cc1)C(=O)O
REMARK SMILES IDX 18 1 17 2 15 3 16 4 14 5 12 6 13 7 10 9 11 10 8 12 9 13 7 16
REMARK SMILES IDX 6 17 5 18 4 19 3 20 2 21 1 22 19 23 20 24 21 25 22 26 23 27
REMARK SMILES IDX 24 28 25 29 26 30 27 31 28 32 29 34 30 35 31 36 32 37 37 38
REMARK SMILES IDX 33 39 36 40 34 41 35 42 38 44 39 45 40 46 41 48 42 49 43 50
REMARK SMILES IDX 44 51 49 52 45 53 48 54 46 55 47 56 50 58 51 59 52 60
REMARK H PARENT 14 8 11 11 9 14 9 15 28 33 35 43 40 47 47 57 52 61
ROOT
ATOM      1  O   UNL     1      -6.830  -4.551   3.725  1.00  0.00    -0.272 OA
ATOM      2  C   UNL     1      -7.565  -5.034   4.599  1.00  0.00     0.245 C 
ENDROOT
BRANCH   2   3
ATOM      3  C   UNL     1      -7.142  -4.898   6.083  1.00  0.00     0.168 C 
ATOM      4  C   UNL     1      -5.717  -5.401   6.288  1.00  0.00     0.041 C 
BRANCH   3   5
ATOM      5  N   UNL     1      -7.337  -3.574   6.654  1.00  0.00    -0.342 N 
ATOM      6  C   UNL     1      -8.469  -3.250   7.372  1.00  0.00     0.251 C 
ATOM      7  O   UNL     1      -9.404  -4.025   7.546  1.00  0.00    -0.272 OA
ATOM      8  H   UNL     1      -6.645  -2.836   6.546  1.00  0.00     0.164 HD
BRANCH   6   9
ATOM      9  C   UNL     1      -8.394  -1.849   7.999  1.00  0.00     0.219 C 
BRANCH   9  10
ATOM     10  O   UNL     1      -7.072  -1.506   8.429  1.00  0.00    -0.382 OA
ATOM     11  H   UNL     1      -6.505  -1.784   7.676  1.00  0.00     0.211 HD
ENDBRANCH   9  10
BRANCH   9  12
ATOM     12  C   UNL     1      -8.982  -0.741   7.087  1.00  0.00     0.089 C 
BRANCH  12  13
ATOM     13  N   UNL     1      -9.423  -1.365   5.818  1.00  0.00    -0.325 NA
ATOM     14  H   UNL     1      -9.050  -0.828   5.033  1.00  0.00     0.119 HD
ATOM     15  H   UNL     1     -10.439  -1.279   5.742  1.00  0.00     0.119 HD
ENDBRANCH  12  13
BRANCH  12  16
ATOM     16  C   UNL     1     -10.132   0.098   7.694  1.00  0.00     0.022 C 
BRANCH  16  17
ATOM     17  C   UNL     1     -10.368   0.056   9.210  1.00  0.00     0.002 C 
BRANCH  17  18
ATOM     18  C   UNL     1     -11.670  -0.615   9.641  1.00  0.00     0.000 C 
BRANCH  18  19
ATOM     19  C   UNL     1     -11.924  -1.973   8.973  1.00  0.00    -0.000 C 
BRANCH  19  20
ATOM     20  C   UNL     1     -12.101  -3.149   9.938  1.00  0.00    -0.000 C 
BRANCH  20  21
ATOM     21  C   UNL     1     -12.411  -4.468   9.225  1.00  0.00    -0.003 C 
ATOM     22  C   UNL     1     -13.124  -5.444  10.148  1.00  0.00     0.004 C 
ENDBRANCH  20  21
ENDBRANCH  19  20
ENDBRANCH  18  19
ENDBRANCH  17  18
ENDBRANCH  16  17
ENDBRANCH  12  16
ENDBRANCH   9  12
ENDBRANCH   6   9
ENDBRANCH   3   5
ENDBRANCH   2   3
BRANCH   2  23
ATOM     23  N   UNL     1      -8.799  -5.574   4.250  1.00  0.00    -0.332 N 
ATOM     24  C   UNL     1      -9.066  -6.998   4.107  1.00  0.00     0.147 C 
BRANCH  23  25
ATOM     25  C   UNL     1      -9.994  -4.696   4.120  1.00  0.00     0.174 C 
BRANCH  25  26
ATOM     26  C   UNL     1     -11.318  -5.429   4.439  1.00  0.00     0.038 C 
BRANCH  26  27
ATOM     27  C   UNL     1     -12.185  -4.846   5.577  1.00  0.00    -0.015 C 
ATOM     28  C   UNL     1     -12.293  -3.324   5.507  1.00  0.00     0.007 C 
ATOM     29  C   UNL     1     -13.570  -5.480   5.671  1.00  0.00     0.007 C 
ENDBRANCH  26  27
ENDBRANCH  25  26
BRANCH  25  30
ATOM     30  C   UNL     1      -9.989  -3.991   2.744  1.00  0.00     0.243 C 
ATOM     31  O   UNL     1     -10.023  -4.623   1.690  1.00  0.00    -0.273 OA
ATOM     32  N   UNL     1      -9.939  -2.621   2.780  1.00  0.00    -0.342 N 
ATOM     33  H   UNL     1     -10.056  -2.166   3.689  1.00  0.00     0.164 HD
BRANCH  32  34
ATOM     34  C   UNL     1      -9.900  -1.789   1.574  1.00  0.00     0.175 C 
BRANCH  34  35
ATOM     35  C   UNL     1      -8.639  -2.068   0.743  1.00  0.00     0.070 C 
BRANCH  35  36
ATOM     36  C   UNL     1      -7.363  -1.784   1.503  1.00  0.00    -0.045 A 
ATOM     37  C   UNL     1      -6.141  -2.297   1.040  1.00  0.00     0.007 A 
ATOM     38  C   UNL     1      -7.382  -1.032   2.685  1.00  0.00     0.007 A 
ATOM     39  C   UNL     1      -4.961  -2.052   1.742  1.00  0.00     0.046 A 
ATOM     40  C   UNL     1      -6.200  -0.787   3.389  1.00  0.00     0.046 A 
ATOM     41  C   UNL     1      -4.999  -1.300   2.909  1.00  0.00     0.115 A 
BRANCH  41  42
ATOM     42  O   UNL     1      -3.824  -1.086   3.567  1.00  0.00    -0.508 OA
ATOM     43  H   UNL     1      -3.986  -0.446   4.280  1.00  0.00     0.293 HD
ENDBRANCH  41  42
ENDBRANCH  35  36
ENDBRANCH  34  35
BRANCH  34  44
ATOM     44  C   UNL     1     -11.193  -2.052   0.769  1.00  0.00     0.243 C 
ATOM     45  O   UNL     1     -12.328  -1.884   1.205  1.00  0.00    -0.273 OA
ATOM     46  N   UNL     1     -10.964  -2.627  -0.463  1.00  0.00    -0.341 N 
ATOM     47  H   UNL     1     -10.010  -2.855  -0.732  1.00  0.00     0.164 HD
BRANCH  46  48
ATOM     48  C   UNL     1     -12.036  -3.030  -1.376  1.00  0.00     0.196 C 
BRANCH  48  49
ATOM     49  C   UNL     1     -12.881  -4.168  -0.780  1.00  0.00     0.072 C 
BRANCH  49  50
ATOM     50  C   UNL     1     -12.458  -5.530  -1.281  1.00  0.00    -0.045 A 
ATOM     51  C   UNL     1     -12.466  -5.802  -2.657  1.00  0.00     0.007 A 
ATOM     52  C   UNL     1     -12.075  -6.540  -0.389  1.00  0.00     0.007 A 
ATOM     53  C   UNL     1     -12.090  -7.060  -3.130  1.00  0.00     0.046 A 
ATOM     54  C   UNL     1     -11.700  -7.799  -0.863  1.00  0.00     0.046 A 
ATOM     55  C   UNL     1     -11.710  -8.048  -2.231  1.00  0.00     0.115 A 
BRANCH  55  56
ATOM     56  O   UNL     1     -11.352  -9.264  -2.734  1.00  0.00    -0.508 OA
ATOM     57  H   UNL     1     -10.813  -9.723  -2.070  1.00  0.00     0.293 HD
ENDBRANCH  55  56
ENDBRANCH  49  50
ENDBRANCH  48  49
BRANCH  48  58
ATOM     58  C   UNL     1     -12.933  -1.816  -1.659  1.00  0.00     0.326 C 
ATOM     59  O   UNL     1     -12.613  -0.771  -2.202  1.00  0.00    -0.250 OA
BRANCH  58  60
ATOM     60  O   UNL     1     -14.216  -1.985  -1.250  1.00  0.00    -0.480 OA
ATOM     61  H   UNL     1     -14.713  -2.060  -2.093  1.00  0.00     0.296 HD
ENDBRANCH  58  60
ENDBRANCH  48  58
ENDBRANCH  46  48
ENDBRANCH  34  44
ENDBRANCH  32  34
ENDBRANCH  25  30
ENDBRANCH  23  25
ENDBRANCH   2  23
TORSDOF 28
ENDMDL
MODEL 27
REMARK VINA RESULT:    -6.098      3.064     10.348
REMARK INTER + INTRA:         -20.210
REMARK INTER:                 -16.416
REMARK INTRA:                  -3.795
REMARK UNBOUND:                -5.023
REMARK SMILES CCCCCCC[C@H](N)[C@H](O)C(=O)N[C@H](C)C(=O)N(C)[C@H](CC(C)C)C(=O)N[C@@H](Cc1ccc(O)cc1)C(=O)N[C@@H](Cc1ccc(O)cc1)C(=O)O
REMARK SMILES IDX 18 1 17 2 15 3 16 4 14 5 12 6 13 7 10 9 11 10 8 12 9 13 7 16
REMARK SMILES IDX 6 17 5 18 4 19 3 20 2 21 1 22 19 23 20 24 21 25 22 26 23 27
REMARK SMILES IDX 24 28 25 29 26 30 27 31 28 32 29 34 30 35 31 36 32 37 37 38
REMARK SMILES IDX 33 39 36 40 34 41 35 42 38 44 39 45 40 46 41 48 42 49 43 50
REMARK SMILES IDX 44 51 49 52 45 53 48 54 46 55 47 56 50 58 51 59 52 60
REMARK H PARENT 14 8 11 11 9 14 9 15 28 33 35 43 40 47 47 57 52 61
ROOT
ATOM      1  O   UNL     1      -7.815  -4.148   4.623  1.00  0.00    -0.272 OA
ATOM      2  C   UNL     1      -8.580  -3.370   5.212  1.00  0.00     0.245 C 
ENDROOT
BRANCH   2   3
ATOM      3  C   UNL     1      -9.433  -2.391   4.367  1.00  0.00     0.168 C 
ATOM      4  C   UNL     1      -8.766  -1.022   4.286  1.00  0.00     0.041 C 
BRANCH   3   5
ATOM      5  N   UNL     1      -9.814  -2.887   3.054  1.00  0.00    -0.342 N 
ATOM      6  C   UNL     1     -11.134  -3.033   2.685  1.00  0.00     0.251 C 
ATOM      7  O   UNL     1     -12.076  -2.800   3.436  1.00  0.00    -0.272 OA
ATOM      8  H   UNL     1      -9.119  -3.147   2.358  1.00  0.00     0.164 HD
BRANCH   6   9
ATOM      9  C   UNL     1     -11.298  -3.435   1.211  1.00  0.00     0.219 C 
BRANCH   9  10
ATOM     10  O   UNL     1     -11.776  -4.777   1.054  1.00  0.00    -0.382 OA
ATOM     11  H   UNL     1     -11.087  -5.321   1.495  1.00  0.00     0.211 HD
ENDBRANCH   9  10
BRANCH   9  12
ATOM     12  C   UNL     1     -12.173  -2.441   0.403  1.00  0.00     0.089 C 
BRANCH  12  13
ATOM     13  N   UNL     1     -11.858  -1.067   0.856  1.00  0.00    -0.325 NA
ATOM     14  H   UNL     1     -11.030  -1.092   1.453  1.00  0.00     0.119 HD
ATOM     15  H   UNL     1     -12.613  -0.737   1.461  1.00  0.00     0.119 HD
ENDBRANCH  12  13
BRANCH  12  16
ATOM     16  C   UNL     1     -12.056  -2.533  -1.138  1.00  0.00     0.022 C 
BRANCH  16  17
ATOM     17  C   UNL     1     -13.333  -2.674  -1.977  1.00  0.00     0.002 C 
BRANCH  17  18
ATOM     18  C   UNL     1     -13.332  -3.840  -2.962  1.00  0.00     0.000 C 
BRANCH  18  19
ATOM     19  C   UNL     1     -12.290  -4.923  -2.648  1.00  0.00    -0.000 C 
BRANCH  19  20
ATOM     20  C   UNL     1     -12.858  -6.329  -2.436  1.00  0.00    -0.000 C 
BRANCH  20  21
ATOM     21  C   UNL     1     -11.930  -7.234  -1.621  1.00  0.00    -0.003 C 
ATOM     22  C   UNL     1     -11.520  -8.465  -2.413  1.00  0.00     0.004 C 
ENDBRANCH  20  21
ENDBRANCH  19  20
ENDBRANCH  18  19
ENDBRANCH  17  18
ENDBRANCH  16  17
ENDBRANCH  12  16
ENDBRANCH   9  12
ENDBRANCH   6   9
ENDBRANCH   3   5
ENDBRANCH   2   3
BRANCH   2  23
ATOM     23  N   UNL     1      -8.749  -3.468   6.589  1.00  0.00    -0.332 N 
ATOM     24  C   UNL     1      -8.053  -4.421   7.440  1.00  0.00     0.147 C 
BRANCH  23  25
ATOM     25  C   UNL     1      -9.592  -2.479   7.314  1.00  0.00     0.174 C 
BRANCH  25  26
ATOM     26  C   UNL     1      -8.934  -1.969   8.618  1.00  0.00     0.038 C 
BRANCH  26  27
ATOM     27  C   UNL     1      -8.855  -0.438   8.809  1.00  0.00    -0.015 C 
ATOM     28  C   UNL     1     -10.107   0.280   8.306  1.00  0.00     0.007 C 
ATOM     29  C   UNL     1      -8.537  -0.020  10.243  1.00  0.00     0.007 C 
ENDBRANCH  26  27
ENDBRANCH  25  26
BRANCH  25  30
ATOM     30  C   UNL     1     -11.017  -3.042   7.517  1.00  0.00     0.243 C 
ATOM     31  O   UNL     1     -11.974  -2.644   6.853  1.00  0.00    -0.273 OA
ATOM     32  N   UNL     1     -11.143  -4.005   8.485  1.00  0.00    -0.342 N 
ATOM     33  H   UNL     1     -10.284  -4.382   8.892  1.00  0.00     0.164 HD
BRANCH  32  34
ATOM     34  C   UNL     1     -12.422  -4.630   8.832  1.00  0.00     0.175 C 
BRANCH  34  35
ATOM     35  C   UNL     1     -12.519  -6.055   8.264  1.00  0.00     0.070 C 
BRANCH  35  36
ATOM     36  C   UNL     1     -12.010  -6.155   6.844  1.00  0.00    -0.045 A 
ATOM     37  C   UNL     1     -12.836  -5.778   5.774  1.00  0.00     0.007 A 
ATOM     38  C   UNL     1     -10.724  -6.642   6.574  1.00  0.00     0.007 A 
ATOM     39  C   UNL     1     -12.379  -5.879   4.459  1.00  0.00     0.046 A 
ATOM     40  C   UNL     1     -10.267  -6.745   5.258  1.00  0.00     0.046 A 
ATOM     41  C   UNL     1     -11.100  -6.361   4.212  1.00  0.00     0.115 A 
BRANCH  41  42
ATOM     42  O   UNL     1     -10.693  -6.447   2.913  1.00  0.00    -0.508 OA
ATOM     43  H   UNL     1     -10.994  -5.650   2.446  1.00  0.00     0.293 HD
ENDBRANCH  41  42
ENDBRANCH  35  36
ENDBRANCH  34  35
BRANCH  34  44
ATOM     44  C   UNL     1     -12.562  -4.611  10.370  1.00  0.00     0.243 C 
ATOM     45  O   UNL     1     -13.102  -3.711  11.007  1.00  0.00    -0.273 OA
ATOM     46  N   UNL     1     -11.904  -5.650  10.994  1.00  0.00    -0.341 N 
ATOM     47  H   UNL     1     -11.372  -6.307  10.430  1.00  0.00     0.164 HD
BRANCH  46  48
ATOM     48  C   UNL     1     -11.838  -5.804  12.449  1.00  0.00     0.196 C 
BRANCH  48  49
ATOM     49  C   UNL     1     -12.897  -6.798  12.956  1.00  0.00     0.072 C 
BRANCH  49  50
ATOM     50  C   UNL     1     -13.621  -7.501  11.830  1.00  0.00    -0.045 A 
ATOM     51  C   UNL     1     -14.831  -6.983  11.346  1.00  0.00     0.007 A 
ATOM     52  C   UNL     1     -13.112  -8.680  11.270  1.00  0.00     0.007 A 
ATOM     53  C   UNL     1     -15.515  -7.630  10.317  1.00  0.00     0.046 A 
ATOM     54  C   UNL     1     -13.797  -9.328  10.240  1.00  0.00     0.046 A 
ATOM     55  C   UNL     1     -14.993  -8.796   9.771  1.00  0.00     0.115 A 
BRANCH  55  56
ATOM     56  O   UNL     1     -15.693  -9.399   8.768  1.00  0.00    -0.508 OA
ATOM     57  H   UNL     1     -16.482  -8.865   8.582  1.00  0.00     0.293 HD
ENDBRANCH  55  56
ENDBRANCH  49  50
ENDBRANCH  48  49
BRANCH  48  58
ATOM     58  C   UNL     1     -10.439  -6.301  12.836  1.00  0.00     0.326 C 
ATOM     59  O   UNL     1      -9.390  -5.680  12.772  1.00  0.00    -0.250 OA
BRANCH  58  60
ATOM     60  O   UNL     1     -10.427  -7.573  13.308  1.00  0.00    -0.480 OA
ATOM     61  H   UNL     1      -9.689  -7.568  13.955  1.00  0.00     0.296 HD
ENDBRANCH  58  60
ENDBRANCH  48  58
ENDBRANCH  46  48
ENDBRANCH  34  44
ENDBRANCH  32  34
ENDBRANCH  25  30
ENDBRANCH  23  25
ENDBRANCH   2  23
TORSDOF 28
ENDMDL
MODEL 28
REMARK VINA RESULT:    -6.079      2.198      4.331
REMARK INTER + INTRA:         -20.164
REMARK INTER:                 -16.327
REMARK INTRA:                  -3.838
REMARK UNBOUND:                -5.023
REMARK SMILES CCCCCCC[C@H](N)[C@H](O)C(=O)N[C@H](C)C(=O)N(C)[C@H](CC(C)C)C(=O)N[C@@H](Cc1ccc(O)cc1)C(=O)N[C@@H](Cc1ccc(O)cc1)C(=O)O
REMARK SMILES IDX 18 1 17 2 15 3 16 4 14 5 12 6 13 7 10 9 11 10 8 12 9 13 7 16
REMARK SMILES IDX 6 17 5 18 4 19 3 20 2 21 1 22 19 23 20 24 21 25 22 26 23 27
REMARK SMILES IDX 24 28 25 29 26 30 27 31 28 32 29 34 30 35 31 36 32 37 37 38
REMARK SMILES IDX 33 39 36 40 34 41 35 42 38 44 39 45 40 46 41 48 42 49 43 50
REMARK SMILES IDX 44 51 49 52 45 53 48 54 46 55 47 56 50 58 51 59 52 60
REMARK H PARENT 14 8 11 11 9 14 9 15 28 33 35 43 40 47 47 57 52 61
ROOT
ATOM      1  O   UNL     1      -9.533  -5.977   6.491  1.00  0.00    -0.272 OA
ATOM      2  C   UNL     1      -8.550  -5.275   6.770  1.00  0.00     0.245 C 
ENDROOT
BRANCH   2   3
ATOM      3  C   UNL     1      -8.276  -4.943   8.258  1.00  0.00     0.168 C 
ATOM      4  C   UNL     1      -6.797  -5.116   8.588  1.00  0.00     0.041 C 
BRANCH   3   5
ATOM      5  N   UNL     1      -8.783  -3.653   8.701  1.00  0.00    -0.342 N 
ATOM      6  C   UNL     1      -9.490  -3.513   9.876  1.00  0.00     0.251 C 
ATOM      7  O   UNL     1      -9.779  -4.454  10.608  1.00  0.00    -0.272 OA
ATOM      8  H   UNL     1      -8.635  -2.805   8.159  1.00  0.00     0.164 HD
BRANCH   6   9
ATOM      9  C   UNL     1      -9.800  -2.046  10.212  1.00  0.00     0.219 C 
BRANCH   9  10
ATOM     10  O   UNL     1     -11.073  -1.882  10.848  1.00  0.00    -0.382 OA
ATOM     11  H   UNL     1     -11.084  -2.590  11.529  1.00  0.00     0.211 HD
ENDBRANCH   9  10
BRANCH   9  12
ATOM     12  C   UNL     1      -8.680  -1.360  11.037  1.00  0.00     0.089 C 
BRANCH  12  13
ATOM     13  N   UNL     1      -7.529  -2.288  11.124  1.00  0.00    -0.325 NA
ATOM     14  H   UNL     1      -7.671  -3.061  10.471  1.00  0.00     0.119 HD
ATOM     15  H   UNL     1      -7.521  -2.719  12.051  1.00  0.00     0.119 HD
ENDBRANCH  12  13
BRANCH  12  16
ATOM     16  C   UNL     1      -8.211   0.023  10.524  1.00  0.00     0.022 C 
BRANCH  16  17
ATOM     17  C   UNL     1      -6.747   0.438  10.729  1.00  0.00     0.002 C 
BRANCH  17  18
ATOM     18  C   UNL     1      -6.458   1.152  12.047  1.00  0.00     0.000 C 
BRANCH  18  19
ATOM     19  C   UNL     1      -4.997   1.593  12.212  1.00  0.00    -0.000 C 
BRANCH  19  20
ATOM     20  C   UNL     1      -4.395   2.312  11.002  1.00  0.00    -0.000 C 
BRANCH  20  21
ATOM     21  C   UNL     1      -3.000   1.799  10.633  1.00  0.00    -0.003 C 
ATOM     22  C   UNL     1      -3.028   0.319  10.283  1.00  0.00     0.004 C 
ENDBRANCH  20  21
ENDBRANCH  19  20
ENDBRANCH  18  19
ENDBRANCH  17  18
ENDBRANCH  16  17
ENDBRANCH  12  16
ENDBRANCH   9  12
ENDBRANCH   6   9
ENDBRANCH   3   5
ENDBRANCH   2   3
BRANCH   2  23
ATOM     23  N   UNL     1      -7.654  -4.903   5.773  1.00  0.00    -0.332 N 
ATOM     24  C   UNL     1      -6.463  -5.656   5.412  1.00  0.00     0.147 C 
BRANCH  23  25
ATOM     25  C   UNL     1      -7.945  -3.733   4.900  1.00  0.00     0.174 C 
BRANCH  25  26
ATOM     26  C   UNL     1      -8.226  -2.440   5.701  1.00  0.00     0.038 C 
BRANCH  26  27
ATOM     27  C   UNL     1      -7.047  -1.458   5.881  1.00  0.00    -0.015 C 
ATOM     28  C   UNL     1      -6.213  -1.768   7.124  1.00  0.00     0.007 C 
ATOM     29  C   UNL     1      -6.154  -1.348   4.648  1.00  0.00     0.007 C 
ENDBRANCH  26  27
ENDBRANCH  25  26
BRANCH  25  30
ATOM     30  C   UNL     1      -9.055  -4.090   3.885  1.00  0.00     0.243 C 
ATOM     31  O   UNL     1      -8.918  -4.995   3.063  1.00  0.00    -0.273 OA
ATOM     32  N   UNL     1     -10.193  -3.328   3.958  1.00  0.00    -0.342 N 
ATOM     33  H   UNL     1     -10.287  -2.693   4.755  1.00  0.00     0.164 HD
BRANCH  32  34
ATOM     34  C   UNL     1     -11.336  -3.506   3.058  1.00  0.00     0.175 C 
BRANCH  34  35
ATOM     35  C   UNL     1     -12.667  -3.412   3.820  1.00  0.00     0.070 C 
BRANCH  35  36
ATOM     36  C   UNL     1     -12.569  -3.938   5.235  1.00  0.00    -0.045 A 
ATOM     37  C   UNL     1     -12.957  -5.255   5.523  1.00  0.00     0.007 A 
ATOM     38  C   UNL     1     -12.114  -3.118   6.276  1.00  0.00     0.007 A 
ATOM     39  C   UNL     1     -12.884  -5.744   6.827  1.00  0.00     0.046 A 
ATOM     40  C   UNL     1     -12.041  -3.607   7.583  1.00  0.00     0.046 A 
ATOM     41  C   UNL     1     -12.426  -4.918   7.846  1.00  0.00     0.115 A 
BRANCH  41  42
ATOM     42  O   UNL     1     -12.372  -5.434   9.107  1.00  0.00    -0.508 OA
ATOM     43  H   UNL     1     -12.796  -6.308   9.097  1.00  0.00     0.293 HD
ENDBRANCH  41  42
ENDBRANCH  35  36
ENDBRANCH  34  35
BRANCH  34  44
ATOM     44  C   UNL     1     -11.235  -2.443   1.941  1.00  0.00     0.243 C 
ATOM     45  O   UNL     1     -10.751  -1.324   2.089  1.00  0.00    -0.273 OA
ATOM     46  N   UNL     1     -11.863  -2.816   0.771  1.00  0.00    -0.341 N 
ATOM     47  H   UNL     1     -12.351  -3.707   0.735  1.00  0.00     0.164 HD
BRANCH  46  48
ATOM     48  C   UNL     1     -11.958  -1.947  -0.404  1.00  0.00     0.196 C 
BRANCH  48  49
ATOM     49  C   UNL     1     -11.782  -2.746  -1.707  1.00  0.00     0.072 C 
BRANCH  49  50
ATOM     50  C   UNL     1     -11.725  -4.238  -1.471  1.00  0.00    -0.045 A 
ATOM     51  C   UNL     1     -10.487  -4.897  -1.455  1.00  0.00     0.007 A 
ATOM     52  C   UNL     1     -12.897  -4.984  -1.287  1.00  0.00     0.007 A 
ATOM     53  C   UNL     1     -10.423  -6.275  -1.251  1.00  0.00     0.046 A 
ATOM     54  C   UNL     1     -12.833  -6.365  -1.084  1.00  0.00     0.046 A 
ATOM     55  C   UNL     1     -11.595  -6.999  -1.067  1.00  0.00     0.115 A 
BRANCH  55  56
ATOM     56  O   UNL     1     -11.489  -8.344  -0.873  1.00  0.00    -0.508 OA
ATOM     57  H   UNL     1     -10.881  -8.500  -0.133  1.00  0.00     0.293 HD
ENDBRANCH  55  56
ENDBRANCH  49  50
ENDBRANCH  48  49
BRANCH  48  58
ATOM     58  C   UNL     1     -13.329  -1.256  -0.405  1.00  0.00     0.326 C 
ATOM     59  O   UNL     1     -13.758  -0.466   0.420  1.00  0.00    -0.250 OA
BRANCH  58  60
ATOM     60  O   UNL     1     -14.101  -1.587  -1.471  1.00  0.00    -0.480 OA
ATOM     61  H   UNL     1     -13.964  -2.556  -1.557  1.00  0.00     0.296 HD
ENDBRANCH  58  60
ENDBRANCH  48  58
ENDBRANCH  46  48
ENDBRANCH  34  44
ENDBRANCH  32  34
ENDBRANCH  25  30
ENDBRANCH  23  25
ENDBRANCH   2  23
TORSDOF 28
ENDMDL
MODEL 29
REMARK VINA RESULT:    -6.065      3.474      7.085
REMARK INTER + INTRA:         -20.128
REMARK INTER:                 -17.093
REMARK INTRA:                  -3.035
REMARK UNBOUND:                -5.023
REMARK SMILES CCCCCCC[C@H](N)[C@H](O)C(=O)N[C@H](C)C(=O)N(C)[C@H](CC(C)C)C(=O)N[C@@H](Cc1ccc(O)cc1)C(=O)N[C@@H](Cc1ccc(O)cc1)C(=O)O
REMARK SMILES IDX 18 1 17 2 15 3 16 4 14 5 12 6 13 7 10 9 11 10 8 12 9 13 7 16
REMARK SMILES IDX 6 17 5 18 4 19 3 20 2 21 1 22 19 23 20 24 21 25 22 26 23 27
REMARK SMILES IDX 24 28 25 29 26 30 27 31 28 32 29 34 30 35 31 36 32 37 37 38
REMARK SMILES IDX 33 39 36 40 34 41 35 42 38 44 39 45 40 46 41 48 42 49 43 50
REMARK SMILES IDX 44 51 49 52 45 53 48 54 46 55 47 56 50 58 51 59 52 60
REMARK H PARENT 14 8 11 11 9 14 9 15 28 33 35 43 40 47 47 57 52 61
ROOT
ATOM      1  O   UNL     1     -10.362  -6.546   7.135  1.00  0.00    -0.272 OA
ATOM      2  C   UNL     1     -10.908  -5.531   7.593  1.00  0.00     0.245 C 
ENDROOT
BRANCH   2   3
ATOM      3  C   UNL     1     -12.348  -5.653   8.151  1.00  0.00     0.168 C 
ATOM      4  C   UNL     1     -13.340  -5.949   7.031  1.00  0.00     0.041 C 
BRANCH   3   5
ATOM      5  N   UNL     1     -12.497  -6.578   9.264  1.00  0.00    -0.342 N 
ATOM      6  C   UNL     1     -12.723  -6.138  10.551  1.00  0.00     0.251 C 
ATOM      7  O   UNL     1     -12.774  -4.953  10.861  1.00  0.00    -0.272 OA
ATOM      8  H   UNL     1     -12.438  -7.586   9.135  1.00  0.00     0.164 HD
BRANCH   6   9
ATOM      9  C   UNL     1     -12.989  -7.289  11.534  1.00  0.00     0.219 C 
BRANCH   9  10
ATOM     10  O   UNL     1     -12.452  -7.037  12.839  1.00  0.00    -0.382 OA
ATOM     11  H   UNL     1     -11.947  -7.854  13.043  1.00  0.00     0.211 HD
ENDBRANCH   9  10
BRANCH   9  12
ATOM     12  C   UNL     1     -14.487  -7.682  11.621  1.00  0.00     0.089 C 
BRANCH  12  13
ATOM     13  N   UNL     1     -15.294  -6.573  11.063  1.00  0.00    -0.325 NA
ATOM     14  H   UNL     1     -15.304  -6.645  10.044  1.00  0.00     0.119 HD
ATOM     15  H   UNL     1     -14.823  -5.688  11.264  1.00  0.00     0.119 HD
ENDBRANCH  12  13
BRANCH  12  16
ATOM     16  C   UNL     1     -14.878  -9.018  10.944  1.00  0.00     0.022 C 
BRANCH  16  17
ATOM     17  C   UNL     1     -13.779  -9.889  10.320  1.00  0.00     0.002 C 
BRANCH  17  18
ATOM     18  C   UNL     1     -14.272 -11.176   9.663  1.00  0.00     0.000 C 
BRANCH  18  19
ATOM     19  C   UNL     1     -14.448 -12.348  10.638  1.00  0.00    -0.000 C 
BRANCH  19  20
ATOM     20  C   UNL     1     -13.151 -13.053  11.046  1.00  0.00    -0.000 C 
BRANCH  20  21
ATOM     21  C   UNL     1     -13.029 -13.253  12.559  1.00  0.00    -0.003 C 
ATOM     22  C   UNL     1     -14.132 -14.155  13.090  1.00  0.00     0.004 C 
ENDBRANCH  20  21
ENDBRANCH  19  20
ENDBRANCH  18  19
ENDBRANCH  17  18
ENDBRANCH  16  17
ENDBRANCH  12  16
ENDBRANCH   9  12
ENDBRANCH   6   9
ENDBRANCH   3   5
ENDBRANCH   2   3
BRANCH   2  23
ATOM     23  N   UNL     1     -10.189  -4.347   7.712  1.00  0.00    -0.332 N 
ATOM     24  C   UNL     1      -9.037  -4.164   8.582  1.00  0.00     0.147 C 
BRANCH  23  25
ATOM     25  C   UNL     1     -10.493  -3.192   6.824  1.00  0.00     0.174 C 
BRANCH  25  26
ATOM     26  C   UNL     1     -11.737  -2.394   7.279  1.00  0.00     0.038 C 
BRANCH  26  27
ATOM     27  C   UNL     1     -11.488  -1.152   8.164  1.00  0.00    -0.015 C 
ATOM     28  C   UNL     1     -11.730  -1.433   9.647  1.00  0.00     0.007 C 
ATOM     29  C   UNL     1     -10.113  -0.523   7.954  1.00  0.00     0.007 C 
ENDBRANCH  26  27
ENDBRANCH  25  26
BRANCH  25  30
ATOM     30  C   UNL     1     -10.557  -3.655   5.350  1.00  0.00     0.243 C 
ATOM     31  O   UNL     1      -9.580  -4.135   4.777  1.00  0.00    -0.273 OA
ATOM     32  N   UNL     1     -11.767  -3.489   4.728  1.00  0.00    -0.342 N 
ATOM     33  H   UNL     1     -12.565  -3.217   5.309  1.00  0.00     0.164 HD
BRANCH  32  34
ATOM     34  C   UNL     1     -12.004  -3.846   3.327  1.00  0.00     0.175 C 
BRANCH  34  35
ATOM     35  C   UNL     1     -11.097  -3.041   2.384  1.00  0.00     0.070 C 
BRANCH  35  36
ATOM     36  C   UNL     1     -11.859  -2.395   1.249  1.00  0.00    -0.045 A 
ATOM     37  C   UNL     1     -13.057  -2.967   0.794  1.00  0.00     0.007 A 
ATOM     38  C   UNL     1     -11.374  -1.240   0.623  1.00  0.00     0.007 A 
ATOM     39  C   UNL     1     -13.761  -2.386  -0.262  1.00  0.00     0.046 A 
ATOM     40  C   UNL     1     -12.077  -0.659  -0.436  1.00  0.00     0.046 A 
ATOM     41  C   UNL     1     -13.266  -1.237  -0.867  1.00  0.00     0.115 A 
BRANCH  41  42
ATOM     42  O   UNL     1     -13.982  -0.703  -1.898  1.00  0.00    -0.508 OA
ATOM     43  H   UNL     1     -14.802  -1.215  -1.996  1.00  0.00     0.293 HD
ENDBRANCH  41  42
ENDBRANCH  35  36
ENDBRANCH  34  35
BRANCH  34  44
ATOM     44  C   UNL     1     -11.786  -5.369   3.177  1.00  0.00     0.243 C 
ATOM     45  O   UNL     1     -12.178  -6.208   3.983  1.00  0.00    -0.273 OA
ATOM     46  N   UNL     1     -10.985  -5.706   2.107  1.00  0.00    -0.341 N 
ATOM     47  H   UNL     1     -10.587  -4.965   1.535  1.00  0.00     0.164 HD
BRANCH  46  48
ATOM     48  C   UNL     1     -10.582  -7.081   1.803  1.00  0.00     0.196 C 
BRANCH  48  49
ATOM     49  C   UNL     1     -11.729  -7.868   1.147  1.00  0.00     0.072 C 
BRANCH  49  50
ATOM     50  C   UNL     1     -11.981  -7.447  -0.283  1.00  0.00    -0.045 A 
ATOM     51  C   UNL     1     -11.508  -8.240  -1.339  1.00  0.00     0.007 A 
ATOM     52  C   UNL     1     -12.664  -6.260  -0.576  1.00  0.00     0.007 A 
ATOM     53  C   UNL     1     -11.722  -7.856  -2.662  1.00  0.00     0.046 A 
ATOM     54  C   UNL     1     -12.877  -5.874  -1.901  1.00  0.00     0.046 A 
ATOM     55  C   UNL     1     -12.405  -6.676  -2.934  1.00  0.00     0.115 A 
BRANCH  55  56
ATOM     56  O   UNL     1     -12.591  -6.335  -4.241  1.00  0.00    -0.508 OA
ATOM     57  H   UNL     1     -13.390  -6.782  -4.563  1.00  0.00     0.293 HD
ENDBRANCH  55  56
ENDBRANCH  49  50
ENDBRANCH  48  49
BRANCH  48  58
ATOM     58  C   UNL     1      -9.373  -7.050   0.858  1.00  0.00     0.326 C 
ATOM     59  O   UNL     1      -8.661  -7.988   0.537  1.00  0.00    -0.250 OA
BRANCH  58  60
ATOM     60  O   UNL     1      -9.122  -5.821   0.340  1.00  0.00    -0.480 OA
ATOM     61  H   UNL     1      -8.175  -5.674   0.555  1.00  0.00     0.296 HD
ENDBRANCH  58  60
ENDBRANCH  48  58
ENDBRANCH  46  48
ENDBRANCH  34  44
ENDBRANCH  32  34
ENDBRANCH  25  30
ENDBRANCH  23  25
ENDBRANCH   2  23
TORSDOF 28
ENDMDL
MODEL 30
REMARK VINA RESULT:    -6.063      2.235      5.200
REMARK INTER + INTRA:         -20.124
REMARK INTER:                 -15.869
REMARK INTRA:                  -4.255
REMARK UNBOUND:                -5.023
REMARK SMILES CCCCCCC[C@H](N)[C@H](O)C(=O)N[C@H](C)C(=O)N(C)[C@H](CC(C)C)C(=O)N[C@@H](Cc1ccc(O)cc1)C(=O)N[C@@H](Cc1ccc(O)cc1)C(=O)O
REMARK SMILES IDX 18 1 17 2 15 3 16 4 14 5 12 6 13 7 10 9 11 10 8 12 9 13 7 16
REMARK SMILES IDX 6 17 5 18 4 19 3 20 2 21 1 22 19 23 20 24 21 25 22 26 23 27
REMARK SMILES IDX 24 28 25 29 26 30 27 31 28 32 29 34 30 35 31 36 32 37 37 38
REMARK SMILES IDX 33 39 36 40 34 41 35 42 38 44 39 45 40 46 41 48 42 49 43 50
REMARK SMILES IDX 44 51 49 52 45 53 48 54 46 55 47 56 50 58 51 59 52 60
REMARK H PARENT 14 8 11 11 9 14 9 15 28 33 35 43 40 47 47 57 52 61
ROOT
ATOM      1  O   UNL     1      -9.015  -4.482   8.614  1.00  0.00    -0.272 OA
ATOM      2  C   UNL     1      -9.938  -4.548   7.789  1.00  0.00     0.245 C 
ENDROOT
BRANCH   2   3
ATOM      3  C   UNL     1     -11.043  -3.462   7.825  1.00  0.00     0.168 C 
ATOM      4  C   UNL     1     -12.303  -3.994   8.499  1.00  0.00     0.041 C 
BRANCH   3   5
ATOM      5  N   UNL     1     -10.627  -2.185   8.385  1.00  0.00    -0.342 N 
ATOM      6  C   UNL     1      -9.898  -1.272   7.653  1.00  0.00     0.251 C 
ATOM      7  O   UNL     1      -9.514  -1.477   6.506  1.00  0.00    -0.272 OA
ATOM      8  H   UNL     1     -10.857  -1.918   9.339  1.00  0.00     0.164 HD
BRANCH   6   9
ATOM      9  C   UNL     1      -9.696   0.059   8.395  1.00  0.00     0.219 C 
BRANCH   9  10
ATOM     10  O   UNL     1     -10.925   0.761   8.616  1.00  0.00    -0.382 OA
ATOM     11  H   UNL     1     -10.712   1.371   9.356  1.00  0.00     0.211 HD
ENDBRANCH   9  10
BRANCH   9  12
ATOM     12  C   UNL     1      -8.904  -0.097   9.720  1.00  0.00     0.089 C 
BRANCH  12  13
ATOM     13  N   UNL     1      -9.821  -0.633  10.752  1.00  0.00    -0.325 NA
ATOM     14  H   UNL     1      -9.358  -1.396  11.249  1.00  0.00     0.119 HD
ATOM     15  H   UNL     1     -10.624  -1.064  10.289  1.00  0.00     0.119 HD
ENDBRANCH  12  13
BRANCH  12  16
ATOM     16  C   UNL     1      -7.623  -0.963   9.646  1.00  0.00     0.022 C 
BRANCH  16  17
ATOM     17  C   UNL     1      -6.349  -0.471  10.346  1.00  0.00     0.002 C 
BRANCH  17  18
ATOM     18  C   UNL     1      -6.559   0.080  11.755  1.00  0.00     0.000 C 
BRANCH  18  19
ATOM     19  C   UNL     1      -5.984   1.487  11.968  1.00  0.00    -0.000 C 
BRANCH  19  20
ATOM     20  C   UNL     1      -4.812   1.855  11.054  1.00  0.00    -0.000 C 
BRANCH  20  21
ATOM     21  C   UNL     1      -3.485   1.989  11.807  1.00  0.00    -0.003 C 
ATOM     22  C   UNL     1      -3.607   2.950  12.979  1.00  0.00     0.004 C 
ENDBRANCH  20  21
ENDBRANCH  19  20
ENDBRANCH  18  19
ENDBRANCH  17  18
ENDBRANCH  16  17
ENDBRANCH  12  16
ENDBRANCH   9  12
ENDBRANCH   6   9
ENDBRANCH   3   5
ENDBRANCH   2   3
BRANCH   2  23
ATOM     23  N   UNL     1      -9.904  -5.506   6.782  1.00  0.00    -0.332 N 
ATOM     24  C   UNL     1      -9.641  -6.921   6.997  1.00  0.00     0.147 C 
BRANCH  23  25
ATOM     25  C   UNL     1     -10.275  -5.143   5.387  1.00  0.00     0.174 C 
BRANCH  25  26
ATOM     26  C   UNL     1     -11.457  -5.978   4.841  1.00  0.00     0.038 C 
BRANCH  26  27
ATOM     27  C   UNL     1     -12.751  -5.211   4.487  1.00  0.00    -0.015 C 
ATOM     28  C   UNL     1     -13.843  -5.389   5.542  1.00  0.00     0.007 C 
ATOM     29  C   UNL     1     -12.520  -3.730   4.199  1.00  0.00     0.007 C 
ENDBRANCH  26  27
ENDBRANCH  25  26
BRANCH  25  30
ATOM     30  C   UNL     1      -9.023  -5.170   4.479  1.00  0.00     0.243 C 
ATOM     31  O   UNL     1      -7.887  -5.265   4.942  1.00  0.00    -0.273 OA
ATOM     32  N   UNL     1      -9.265  -5.077   3.133  1.00  0.00    -0.342 N 
ATOM     33  H   UNL     1     -10.237  -5.144   2.820  1.00  0.00     0.164 HD
BRANCH  32  34
ATOM     34  C   UNL     1      -8.199  -5.059   2.127  1.00  0.00     0.175 C 
BRANCH  34  35
ATOM     35  C   UNL     1      -8.273  -6.293   1.214  1.00  0.00     0.070 C 
BRANCH  35  36
ATOM     36  C   UNL     1      -9.567  -6.369   0.436  1.00  0.00    -0.045 A 
ATOM     37  C   UNL     1     -10.751  -6.759   1.081  1.00  0.00     0.007 A 
ATOM     38  C   UNL     1      -9.601  -6.077  -0.933  1.00  0.00     0.007 A 
ATOM     39  C   UNL     1     -11.947  -6.846   0.369  1.00  0.00     0.046 A 
ATOM     40  C   UNL     1     -10.799  -6.165  -1.647  1.00  0.00     0.046 A 
ATOM     41  C   UNL     1     -11.962  -6.548  -0.989  1.00  0.00     0.115 A 
BRANCH  41  42
ATOM     42  O   UNL     1     -13.151  -6.648  -1.648  1.00  0.00    -0.508 OA
ATOM     43  H   UNL     1     -13.826  -6.173  -1.134  1.00  0.00     0.293 HD
ENDBRANCH  41  42
ENDBRANCH  35  36
ENDBRANCH  34  35
BRANCH  34  44
ATOM     44  C   UNL     1      -8.317  -3.742   1.327  1.00  0.00     0.243 C 
ATOM     45  O   UNL     1      -7.617  -3.451   0.362  1.00  0.00    -0.273 OA
ATOM     46  N   UNL     1      -9.207  -2.844   1.878  1.00  0.00    -0.341 N 
ATOM     47  H   UNL     1      -9.678  -3.085   2.746  1.00  0.00     0.164 HD
BRANCH  46  48
ATOM     48  C   UNL     1      -9.437  -1.503   1.336  1.00  0.00     0.196 C 
BRANCH  48  49
ATOM     49  C   UNL     1     -10.887  -1.046   1.569  1.00  0.00     0.072 C 
BRANCH  49  50
ATOM     50  C   UNL     1     -11.835  -1.553   0.507  1.00  0.00    -0.045 A 
ATOM     51  C   UNL     1     -12.244  -0.701  -0.530  1.00  0.00     0.007 A 
ATOM     52  C   UNL     1     -12.333  -2.861   0.550  1.00  0.00     0.007 A 
ATOM     53  C   UNL     1     -13.128  -1.154  -1.509  1.00  0.00     0.046 A 
ATOM     54  C   UNL     1     -13.220  -3.314  -0.430  1.00  0.00     0.046 A 
ATOM     55  C   UNL     1     -13.609  -2.456  -1.452  1.00  0.00     0.115 A 
BRANCH  55  56
ATOM     56  O   UNL     1     -14.474  -2.859  -2.426  1.00  0.00    -0.508 OA
ATOM     57  H   UNL     1     -14.250  -2.390  -3.246  1.00  0.00     0.293 HD
ENDBRANCH  55  56
ENDBRANCH  49  50
ENDBRANCH  48  49
BRANCH  48  58
ATOM     58  C   UNL     1      -8.472  -0.519   2.011  1.00  0.00     0.326 C 
ATOM     59  O   UNL     1      -7.809  -0.707   3.019  1.00  0.00    -0.250 OA
BRANCH  58  60
ATOM     60  O   UNL     1      -8.374   0.672   1.367  1.00  0.00    -0.480 OA
ATOM     61  H   UNL     1      -7.417   0.883   1.427  1.00  0.00     0.296 HD
ENDBRANCH  58  60
ENDBRANCH  48  58
ENDBRANCH  46  48
ENDBRANCH  34  44
ENDBRANCH  32  34
ENDBRANCH  25  30
ENDBRANCH  23  25
ENDBRANCH   2  23
TORSDOF 28
ENDMDL
MODEL 31
REMARK VINA RESULT:    -6.059      2.577      7.279
REMARK INTER + INTRA:         -20.114
REMARK INTER:                 -12.573
REMARK INTRA:                  -7.541
REMARK UNBOUND:                -5.023
REMARK SMILES CCCCCCC[C@H](N)[C@H](O)C(=O)N[C@H](C)C(=O)N(C)[C@H](CC(C)C)C(=O)N[C@@H](Cc1ccc(O)cc1)C(=O)N[C@@H](Cc1ccc(O)cc1)C(=O)O
REMARK SMILES IDX 18 1 17 2 15 3 16 4 14 5 12 6 13 7 10 9 11 10 8 12 9 13 7 16
REMARK SMILES IDX 6 17 5 18 4 19 3 20 2 21 1 22 19 23 20 24 21 25 22 26 23 27
REMARK SMILES IDX 24 28 25 29 26 30 27 31 28 32 29 34 30 35 31 36 32 37 37 38
REMARK SMILES IDX 33 39 36 40 34 41 35 42 38 44 39 45 40 46 41 48 42 49 43 50
REMARK SMILES IDX 44 51 49 52 45 53 48 54 46 55 47 56 50 58 51 59 52 60
REMARK H PARENT 14 8 11 11 9 14 9 15 28 33 35 43 40 47 47 57 52 61
ROOT
ATOM      1  O   UNL     1      -8.349  -7.161  -1.234  1.00  0.00    -0.272 OA
ATOM      2  C   UNL     1      -9.293  -7.454  -0.485  1.00  0.00     0.245 C 
ENDROOT
BRANCH   2   3
ATOM      3  C   UNL     1      -9.001  -7.691   1.017  1.00  0.00     0.168 C 
ATOM      4  C   UNL     1      -9.214  -9.155   1.386  1.00  0.00     0.041 C 
BRANCH   3   5
ATOM      5  N   UNL     1      -7.710  -7.199   1.473  1.00  0.00    -0.342 N 
ATOM      6  C   UNL     1      -7.534  -5.899   1.895  1.00  0.00     0.251 C 
ATOM      7  O   UNL     1      -8.425  -5.056   1.880  1.00  0.00    -0.272 OA
ATOM      8  H   UNL     1      -6.887  -7.797   1.498  1.00  0.00     0.164 HD
BRANCH   6   9
ATOM      9  C   UNL     1      -6.129  -5.644   2.465  1.00  0.00     0.219 C 
BRANCH   9  10
ATOM     10  O   UNL     1      -5.321  -4.834   1.602  1.00  0.00    -0.382 OA
ATOM     11  H   UNL     1      -4.925  -4.172   2.210  1.00  0.00     0.211 HD
ENDBRANCH   9  10
BRANCH   9  12
ATOM     12  C   UNL     1      -6.151  -5.063   3.903  1.00  0.00     0.089 C 
BRANCH  12  13
ATOM     13  N   UNL     1      -6.349  -3.598   3.812  1.00  0.00    -0.325 NA
ATOM     14  H   UNL     1      -7.302  -3.369   4.102  1.00  0.00     0.119 HD
ATOM     15  H   UNL     1      -6.293  -3.317   2.831  1.00  0.00     0.119 HD
ENDBRANCH  12  13
BRANCH  12  16
ATOM     16  C   UNL     1      -7.191  -5.681   4.868  1.00  0.00     0.022 C 
BRANCH  16  17
ATOM     17  C   UNL     1      -6.792  -5.949   6.326  1.00  0.00     0.002 C 
BRANCH  17  18
ATOM     18  C   UNL     1      -6.544  -4.698   7.166  1.00  0.00     0.000 C 
BRANCH  18  19
ATOM     19  C   UNL     1      -7.731  -4.295   8.051  1.00  0.00    -0.000 C 
BRANCH  19  20
ATOM     20  C   UNL     1      -7.425  -3.221   9.099  1.00  0.00    -0.000 C 
BRANCH  20  21
ATOM     21  C   UNL     1      -8.457  -3.174  10.228  1.00  0.00    -0.003 C 
ATOM     22  C   UNL     1      -9.251  -4.469  10.308  1.00  0.00     0.004 C 
ENDBRANCH  20  21
ENDBRANCH  19  20
ENDBRANCH  18  19
ENDBRANCH  17  18
ENDBRANCH  16  17
ENDBRANCH  12  16
ENDBRANCH   9  12
ENDBRANCH   6   9
ENDBRANCH   3   5
ENDBRANCH   2   3
BRANCH   2  23
ATOM     23  N   UNL     1     -10.596  -7.444  -0.972  1.00  0.00    -0.332 N 
ATOM     24  C   UNL     1     -11.195  -8.519  -1.750  1.00  0.00     0.147 C 
BRANCH  23  25
ATOM     25  C   UNL     1     -11.528  -6.344  -0.602  1.00  0.00     0.174 C 
BRANCH  25  26
ATOM     26  C   UNL     1     -10.996  -4.946  -0.995  1.00  0.00     0.038 C 
BRANCH  26  27
ATOM     27  C   UNL     1     -12.021  -3.944  -1.572  1.00  0.00    -0.015 C 
ATOM     28  C   UNL     1     -11.380  -2.612  -1.962  1.00  0.00     0.007 C 
ATOM     29  C   UNL     1     -12.836  -4.508  -2.732  1.00  0.00     0.007 C 
ENDBRANCH  26  27
ENDBRANCH  25  26
BRANCH  25  30
ATOM     30  C   UNL     1     -11.925  -6.461   0.888  1.00  0.00     0.243 C 
ATOM     31  O   UNL     1     -12.551  -7.428   1.319  1.00  0.00    -0.273 OA
ATOM     32  N   UNL     1     -11.538  -5.418   1.689  1.00  0.00    -0.342 N 
ATOM     33  H   UNL     1     -10.901  -4.724   1.288  1.00  0.00     0.164 HD
BRANCH  32  34
ATOM     34  C   UNL     1     -11.850  -5.346   3.119  1.00  0.00     0.175 C 
BRANCH  34  35
ATOM     35  C   UNL     1     -10.940  -6.275   3.937  1.00  0.00     0.070 C 
BRANCH  35  36
ATOM     36  C   UNL     1     -11.310  -6.315   5.402  1.00  0.00    -0.045 A 
ATOM     37  C   UNL     1     -12.593  -5.922   5.813  1.00  0.00     0.007 A 
ATOM     38  C   UNL     1     -10.379  -6.719   6.368  1.00  0.00     0.007 A 
ATOM     39  C   UNL     1     -12.940  -5.942   7.164  1.00  0.00     0.046 A 
ATOM     40  C   UNL     1     -10.725  -6.738   7.722  1.00  0.00     0.046 A 
ATOM     41  C   UNL     1     -12.004  -6.350   8.107  1.00  0.00     0.115 A 
BRANCH  41  42
ATOM     42  O   UNL     1     -12.381  -6.352   9.417  1.00  0.00    -0.508 OA
ATOM     43  H   UNL     1     -13.076  -7.022   9.533  1.00  0.00     0.293 HD
ENDBRANCH  41  42
ENDBRANCH  35  36
ENDBRANCH  34  35
BRANCH  34  44
ATOM     44  C   UNL     1     -11.720  -3.872   3.564  1.00  0.00     0.243 C 
ATOM     45  O   UNL     1     -12.661  -3.088   3.651  1.00  0.00    -0.273 OA
ATOM     46  N   UNL     1     -10.415  -3.464   3.735  1.00  0.00    -0.341 N 
ATOM     47  H   UNL     1      -9.662  -4.119   3.538  1.00  0.00     0.164 HD
BRANCH  46  48
ATOM     48  C   UNL     1     -10.039  -2.093   4.089  1.00  0.00     0.196 C 
BRANCH  48  49
ATOM     49  C   UNL     1      -9.134  -2.064   5.333  1.00  0.00     0.072 C 
BRANCH  49  50
ATOM     50  C   UNL     1      -9.902  -1.787   6.605  1.00  0.00    -0.045 A 
ATOM     51  C   UNL     1      -9.603  -0.650   7.369  1.00  0.00     0.007 A 
ATOM     52  C   UNL     1     -10.901  -2.663   7.049  1.00  0.00     0.007 A 
ATOM     53  C   UNL     1     -10.296  -0.391   8.552  1.00  0.00     0.046 A 
ATOM     54  C   UNL     1     -11.594  -2.405   8.234  1.00  0.00     0.046 A 
ATOM     55  C   UNL     1     -11.286  -1.270   8.975  1.00  0.00     0.115 A 
BRANCH  55  56
ATOM     56  O   UNL     1     -11.938  -0.982  10.137  1.00  0.00    -0.508 OA
ATOM     57  H   UNL     1     -12.314  -1.805  10.489  1.00  0.00     0.293 HD
ENDBRANCH  55  56
ENDBRANCH  49  50
ENDBRANCH  48  49
BRANCH  48  58
ATOM     58  C   UNL     1      -9.304  -1.455   2.903  1.00  0.00     0.326 C 
ATOM     59  O   UNL     1      -9.488  -0.345   2.430  1.00  0.00    -0.250 OA
BRANCH  58  60
ATOM     60  O   UNL     1      -8.345  -2.252   2.367  1.00  0.00    -0.480 OA
ATOM     61  H   UNL     1      -8.068  -2.811   3.125  1.00  0.00     0.296 HD
ENDBRANCH  58  60
ENDBRANCH  48  58
ENDBRANCH  46  48
ENDBRANCH  34  44
ENDBRANCH  32  34
ENDBRANCH  25  30
ENDBRANCH  23  25
ENDBRANCH   2  23
TORSDOF 28
ENDMDL
MODEL 32
REMARK VINA RESULT:    -6.000      2.381      5.873
REMARK INTER + INTRA:         -19.968
REMARK INTER:                 -15.679
REMARK INTRA:                  -4.290
REMARK UNBOUND:                -5.023
REMARK SMILES CCCCCCC[C@H](N)[C@H](O)C(=O)N[C@H](C)C(=O)N(C)[C@H](CC(C)C)C(=O)N[C@@H](Cc1ccc(O)cc1)C(=O)N[C@@H](Cc1ccc(O)cc1)C(=O)O
REMARK SMILES IDX 18 1 17 2 15 3 16 4 14 5 12 6 13 7 10 9 11 10 8 12 9 13 7 16
REMARK SMILES IDX 6 17 5 18 4 19 3 20 2 21 1 22 19 23 20 24 21 25 22 26 23 27
REMARK SMILES IDX 24 28 25 29 26 30 27 31 28 32 29 34 30 35 31 36 32 37 37 38
REMARK SMILES IDX 33 39 36 40 34 41 35 42 38 44 39 45 40 46 41 48 42 49 43 50
REMARK SMILES IDX 44 51 49 52 45 53 48 54 46 55 47 56 50 58 51 59 52 60
REMARK H PARENT 14 8 11 11 9 14 9 15 28 33 35 43 40 47 47 57 52 61
ROOT
ATOM      1  O   UNL     1      -9.417  -2.571   6.483  1.00  0.00    -0.272 OA
ATOM      2  C   UNL     1      -8.658  -3.483   6.843  1.00  0.00     0.245 C 
ENDROOT
BRANCH   2   3
ATOM      3  C   UNL     1      -7.394  -3.116   7.660  1.00  0.00     0.168 C 
ATOM      4  C   UNL     1      -6.440  -2.265   6.829  1.00  0.00     0.041 C 
BRANCH   3   5
ATOM      5  N   UNL     1      -7.658  -2.521   8.960  1.00  0.00    -0.342 N 
ATOM      6  C   UNL     1      -6.961  -2.899  10.089  1.00  0.00     0.251 C 
ATOM      7  O   UNL     1      -6.108  -3.780  10.094  1.00  0.00    -0.272 OA
ATOM      8  H   UNL     1      -8.368  -1.803   9.087  1.00  0.00     0.164 HD
BRANCH   6   9
ATOM      9  C   UNL     1      -7.307  -2.040  11.316  1.00  0.00     0.219 C 
BRANCH   9  10
ATOM     10  O   UNL     1      -6.975  -2.683  12.552  1.00  0.00    -0.382 OA
ATOM     11  H   UNL     1      -6.141  -3.161  12.348  1.00  0.00     0.211 HD
ENDBRANCH   9  10
BRANCH   9  12
ATOM     12  C   UNL     1      -6.694  -0.616  11.255  1.00  0.00     0.089 C 
BRANCH  12  13
ATOM     13  N   UNL     1      -5.519  -0.651  10.353  1.00  0.00    -0.325 NA
ATOM     14  H   UNL     1      -5.230   0.305  10.141  1.00  0.00     0.119 HD
ATOM     15  H   UNL     1      -5.804  -1.049   9.455  1.00  0.00     0.119 HD
ENDBRANCH  12  13
BRANCH  12  16
ATOM     16  C   UNL     1      -7.656   0.519  10.830  1.00  0.00     0.022 C 
BRANCH  16  17
ATOM     17  C   UNL     1      -9.117   0.178  10.507  1.00  0.00     0.002 C 
BRANCH  17  18
ATOM     18  C   UNL     1      -9.538   0.446   9.064  1.00  0.00     0.000 C 
BRANCH  18  19
ATOM     19  C   UNL     1     -11.017   0.155   8.780  1.00  0.00    -0.000 C 
BRANCH  19  20
ATOM     20  C   UNL     1     -11.420  -1.320   8.880  1.00  0.00    -0.000 C 
BRANCH  20  21
ATOM     21  C   UNL     1     -12.108  -1.664  10.204  1.00  0.00    -0.003 C 
ATOM     22  C   UNL     1     -11.385  -2.789  10.928  1.00  0.00     0.004 C 
ENDBRANCH  20  21
ENDBRANCH  19  20
ENDBRANCH  18  19
ENDBRANCH  17  18
ENDBRANCH  16  17
ENDBRANCH  12  16
ENDBRANCH   9  12
ENDBRANCH   6   9
ENDBRANCH   3   5
ENDBRANCH   2   3
BRANCH   2  23
ATOM     23  N   UNL     1      -9.010  -4.810   6.618  1.00  0.00    -0.332 N 
ATOM     24  C   UNL     1      -8.357  -5.953   7.238  1.00  0.00     0.147 C 
BRANCH  23  25
ATOM     25  C   UNL     1     -10.204  -5.141   5.794  1.00  0.00     0.174 C 
BRANCH  25  26
ATOM     26  C   UNL     1     -11.085  -6.244   6.425  1.00  0.00     0.038 C 
BRANCH  26  27
ATOM     27  C   UNL     1     -12.493  -5.826   6.906  1.00  0.00    -0.015 C 
ATOM     28  C   UNL     1     -12.447  -4.704   7.943  1.00  0.00     0.007 C 
ATOM     29  C   UNL     1     -13.441  -5.465   5.766  1.00  0.00     0.007 C 
ENDBRANCH  26  27
ENDBRANCH  25  26
BRANCH  25  30
ATOM     30  C   UNL     1      -9.779  -5.442   4.338  1.00  0.00     0.243 C 
ATOM     31  O   UNL     1      -8.640  -5.216   3.934  1.00  0.00    -0.273 OA
ATOM     32  N   UNL     1     -10.755  -5.970   3.532  1.00  0.00    -0.342 N 
ATOM     33  H   UNL     1     -11.630  -6.260   3.976  1.00  0.00     0.164 HD
BRANCH  32  34
ATOM     34  C   UNL     1     -10.540  -6.293   2.119  1.00  0.00     0.175 C 
BRANCH  34  35
ATOM     35  C   UNL     1     -11.833  -6.794   1.458  1.00  0.00     0.070 C 
BRANCH  35  36
ATOM     36  C   UNL     1     -11.606  -7.329   0.062  1.00  0.00    -0.045 A 
ATOM     37  C   UNL     1     -12.260  -6.739  -1.031  1.00  0.00     0.007 A 
ATOM     38  C   UNL     1     -10.765  -8.427  -0.160  1.00  0.00     0.007 A 
ATOM     39  C   UNL     1     -12.068  -7.234  -2.321  1.00  0.00     0.046 A 
ATOM     40  C   UNL     1     -10.573  -8.925  -1.451  1.00  0.00     0.046 A 
ATOM     41  C   UNL     1     -11.226  -8.322  -2.521  1.00  0.00     0.115 A 
BRANCH  41  42
ATOM     42  O   UNL     1     -11.068  -8.777  -3.796  1.00  0.00    -0.508 OA
ATOM     43  H   UNL     1     -11.946  -8.982  -4.158  1.00  0.00     0.293 HD
ENDBRANCH  41  42
ENDBRANCH  35  36
ENDBRANCH  34  35
BRANCH  34  44
ATOM     44  C   UNL     1      -9.985  -5.031   1.419  1.00  0.00     0.243 C 
ATOM     45  O   UNL     1      -8.960  -5.007   0.743  1.00  0.00    -0.273 OA
ATOM     46  N   UNL     1     -10.680  -3.881   1.729  1.00  0.00    -0.341 N 
ATOM     47  H   UNL     1     -11.453  -3.934   2.388  1.00  0.00     0.164 HD
BRANCH  46  48
ATOM     48  C   UNL     1     -10.300  -2.554   1.240  1.00  0.00     0.196 C 
BRANCH  48  49
ATOM     49  C   UNL     1     -11.538  -1.700   0.921  1.00  0.00     0.072 C 
BRANCH  49  50
ATOM     50  C   UNL     1     -12.216  -2.115  -0.365  1.00  0.00    -0.045 A 
ATOM     51  C   UNL     1     -13.281  -3.027  -0.331  1.00  0.00     0.007 A 
ATOM     52  C   UNL     1     -11.783  -1.618  -1.601  1.00  0.00     0.007 A 
ATOM     53  C   UNL     1     -13.906  -3.428  -1.512  1.00  0.00     0.046 A 
ATOM     54  C   UNL     1     -12.408  -2.020  -2.784  1.00  0.00     0.046 A 
ATOM     55  C   UNL     1     -13.465  -2.922  -2.729  1.00  0.00     0.115 A 
BRANCH  55  56
ATOM     56  O   UNL     1     -14.101  -3.340  -3.860  1.00  0.00    -0.508 OA
ATOM     57  H   UNL     1     -14.576  -4.162  -3.658  1.00  0.00     0.293 HD
ENDBRANCH  55  56
ENDBRANCH  49  50
ENDBRANCH  48  49
BRANCH  48  58
ATOM     58  C   UNL     1      -9.452  -1.852   2.309  1.00  0.00     0.326 C 
ATOM     59  O   UNL     1      -9.742  -0.851   2.943  1.00  0.00    -0.250 OA
BRANCH  58  60
ATOM     60  O   UNL     1      -8.263  -2.463   2.544  1.00  0.00    -0.480 OA
ATOM     61  H   UNL     1      -8.083  -2.253   3.486  1.00  0.00     0.296 HD
ENDBRANCH  58  60
ENDBRANCH  48  58
ENDBRANCH  46  48
ENDBRANCH  34  44
ENDBRANCH  32  34
ENDBRANCH  25  30
ENDBRANCH  23  25
ENDBRANCH   2  23
TORSDOF 28
ENDMDL
MODEL 33
REMARK VINA RESULT:    -5.969      2.234      5.496
REMARK INTER + INTRA:         -19.890
REMARK INTER:                 -14.148
REMARK INTRA:                  -5.742
REMARK UNBOUND:                -5.023
REMARK SMILES CCCCCCC[C@H](N)[C@H](O)C(=O)N[C@H](C)C(=O)N(C)[C@H](CC(C)C)C(=O)N[C@@H](Cc1ccc(O)cc1)C(=O)N[C@@H](Cc1ccc(O)cc1)C(=O)O
REMARK SMILES IDX 18 1 17 2 15 3 16 4 14 5 12 6 13 7 10 9 11 10 8 12 9 13 7 16
REMARK SMILES IDX 6 17 5 18 4 19 3 20 2 21 1 22 19 23 20 24 21 25 22 26 23 27
REMARK SMILES IDX 24 28 25 29 26 30 27 31 28 32 29 34 30 35 31 36 32 37 37 38
REMARK SMILES IDX 33 39 36 40 34 41 35 42 38 44 39 45 40 46 41 48 42 49 43 50
REMARK SMILES IDX 44 51 49 52 45 53 48 54 46 55 47 56 50 58 51 59 52 60
REMARK H PARENT 14 8 11 11 9 14 9 15 28 33 35 43 40 47 47 57 52 61
ROOT
ATOM      1  O   UNL     1      -8.152  -5.473   3.472  1.00  0.00    -0.272 OA
ATOM      2  C   UNL     1      -7.718  -4.688   4.328  1.00  0.00     0.245 C 
ENDROOT
BRANCH   2   3
ATOM      3  C   UNL     1      -8.237  -4.816   5.782  1.00  0.00     0.168 C 
ATOM      4  C   UNL     1      -7.394  -5.811   6.573  1.00  0.00     0.041 C 
BRANCH   3   5
ATOM      5  N   UNL     1      -8.392  -3.555   6.489  1.00  0.00    -0.342 N 
ATOM      6  C   UNL     1      -9.544  -2.803   6.393  1.00  0.00     0.251 C 
ATOM      7  O   UNL     1     -10.495  -3.111   5.684  1.00  0.00    -0.272 OA
ATOM      8  H   UNL     1      -7.655  -3.178   7.082  1.00  0.00     0.164 HD
BRANCH   6   9
ATOM      9  C   UNL     1      -9.540  -1.587   7.334  1.00  0.00     0.219 C 
BRANCH   9  10
ATOM     10  O   UNL     1      -9.564  -0.341   6.627  1.00  0.00    -0.382 OA
ATOM     11  H   UNL     1      -8.757   0.121   6.945  1.00  0.00     0.211 HD
ENDBRANCH   9  10
BRANCH   9  12
ATOM     12  C   UNL     1     -10.666  -1.637   8.399  1.00  0.00     0.089 C 
BRANCH  12  13
ATOM     13  N   UNL     1     -11.940  -1.249   7.751  1.00  0.00    -0.325 NA
ATOM     14  H   UNL     1     -12.675  -1.897   8.040  1.00  0.00     0.119 HD
ATOM     15  H   UNL     1     -11.851  -1.379   6.741  1.00  0.00     0.119 HD
ENDBRANCH  12  13
BRANCH  12  16
ATOM     16  C   UNL     1     -10.837  -2.984   9.142  1.00  0.00     0.022 C 
BRANCH  16  17
ATOM     17  C   UNL     1     -12.170  -3.736   9.027  1.00  0.00     0.002 C 
BRANCH  17  18
ATOM     18  C   UNL     1     -12.184  -4.870   8.005  1.00  0.00     0.000 C 
BRANCH  18  19
ATOM     19  C   UNL     1     -12.869  -6.150   8.501  1.00  0.00    -0.000 C 
BRANCH  19  20
ATOM     20  C   UNL     1     -12.663  -6.465   9.986  1.00  0.00    -0.000 C 
BRANCH  20  21
ATOM     21  C   UNL     1     -13.975  -6.712  10.735  1.00  0.00    -0.003 C 
ATOM     22  C   UNL     1     -14.446  -5.460  11.457  1.00  0.00     0.004 C 
ENDBRANCH  20  21
ENDBRANCH  19  20
ENDBRANCH  18  19
ENDBRANCH  17  18
ENDBRANCH  16  17
ENDBRANCH  12  16
ENDBRANCH   9  12
ENDBRANCH   6   9
ENDBRANCH   3   5
ENDBRANCH   2   3
BRANCH   2  23
ATOM     23  N   UNL     1      -6.698  -3.800   4.004  1.00  0.00    -0.332 N 
ATOM     24  C   UNL     1      -5.358  -3.840   4.570  1.00  0.00     0.147 C 
BRANCH  23  25
ATOM     25  C   UNL     1      -6.892  -2.796   2.923  1.00  0.00     0.174 C 
BRANCH  25  26
ATOM     26  C   UNL     1      -5.685  -1.841   2.765  1.00  0.00     0.038 C 
BRANCH  26  27
ATOM     27  C   UNL     1      -5.552  -1.098   1.416  1.00  0.00    -0.015 C 
ATOM     28  C   UNL     1      -5.890  -1.991   0.222  1.00  0.00     0.007 C 
ATOM     29  C   UNL     1      -6.349   0.202   1.357  1.00  0.00     0.007 C 
ENDBRANCH  26  27
ENDBRANCH  25  26
BRANCH  25  30
ATOM     30  C   UNL     1      -8.242  -2.066   3.110  1.00  0.00     0.243 C 
ATOM     31  O   UNL     1      -8.372  -1.134   3.902  1.00  0.00    -0.273 OA
ATOM     32  N   UNL     1      -9.279  -2.530   2.342  1.00  0.00    -0.342 N 
ATOM     33  H   UNL     1      -9.058  -3.209   1.609  1.00  0.00     0.164 HD
BRANCH  32  34
ATOM     34  C   UNL     1     -10.634  -1.977   2.408  1.00  0.00     0.175 C 
BRANCH  34  35
ATOM     35  C   UNL     1     -10.937  -1.094   1.188  1.00  0.00     0.070 C 
BRANCH  35  36
ATOM     36  C   UNL     1     -11.524  -1.873   0.032  1.00  0.00    -0.045 A 
ATOM     37  C   UNL     1     -10.706  -2.720  -0.730  1.00  0.00     0.007 A 
ATOM     38  C   UNL     1     -12.877  -1.744  -0.308  1.00  0.00     0.007 A 
ATOM     39  C   UNL     1     -11.235  -3.433  -1.807  1.00  0.00     0.046 A 
ATOM     40  C   UNL     1     -13.407  -2.456  -1.387  1.00  0.00     0.046 A 
ATOM     41  C   UNL     1     -12.580  -3.296  -2.126  1.00  0.00     0.115 A 
BRANCH  41  42
ATOM     42  O   UNL     1     -13.057  -4.007  -3.187  1.00  0.00    -0.508 OA
ATOM     43  H   UNL     1     -13.198  -4.925  -2.900  1.00  0.00     0.293 HD
ENDBRANCH  41  42
ENDBRANCH  35  36
ENDBRANCH  34  35
BRANCH  34  44
ATOM     44  C   UNL     1     -11.626  -3.156   2.527  1.00  0.00     0.243 C 
ATOM     45  O   UNL     1     -12.829  -3.032   2.739  1.00  0.00    -0.273 OA
ATOM     46  N   UNL     1     -11.016  -4.392   2.502  1.00  0.00    -0.341 N 
ATOM     47  H   UNL     1     -10.002  -4.441   2.441  1.00  0.00     0.164 HD
BRANCH  46  48
ATOM     48  C   UNL     1     -11.742  -5.653   2.666  1.00  0.00     0.196 C 
BRANCH  48  49
ATOM     49  C   UNL     1     -11.000  -6.819   1.990  1.00  0.00     0.072 C 
BRANCH  49  50
ATOM     50  C   UNL     1     -11.251  -6.883   0.501  1.00  0.00    -0.045 A 
ATOM     51  C   UNL     1     -12.548  -6.688   0.002  1.00  0.00     0.007 A 
ATOM     52  C   UNL     1     -10.210  -7.155  -0.395  1.00  0.00     0.007 A 
ATOM     53  C   UNL     1     -12.794  -6.757  -1.370  1.00  0.00     0.046 A 
ATOM     54  C   UNL     1     -10.457  -7.226  -1.768  1.00  0.00     0.046 A 
ATOM     55  C   UNL     1     -11.748  -7.025  -2.244  1.00  0.00     0.115 A 
BRANCH  55  56
ATOM     56  O   UNL     1     -12.031  -7.087  -3.576  1.00  0.00    -0.508 OA
ATOM     57  H   UNL     1     -11.751  -7.955  -3.909  1.00  0.00     0.293 HD
ENDBRANCH  55  56
ENDBRANCH  49  50
ENDBRANCH  48  49
BRANCH  48  58
ATOM     58  C   UNL     1     -11.903  -5.946   4.165  1.00  0.00     0.326 C 
ATOM     59  O   UNL     1     -11.096  -6.488   4.903  1.00  0.00    -0.250 OA
BRANCH  58  60
ATOM     60  O   UNL     1     -13.086  -5.520   4.675  1.00  0.00    -0.480 OA
ATOM     61  H   UNL     1     -13.563  -5.180   3.887  1.00  0.00     0.296 HD
ENDBRANCH  58  60
ENDBRANCH  48  58
ENDBRANCH  46  48
ENDBRANCH  34  44
ENDBRANCH  32  34
ENDBRANCH  25  30
ENDBRANCH  23  25
ENDBRANCH   2  23
TORSDOF 28
ENDMDL
MODEL 34
REMARK VINA RESULT:    -5.964      2.288     10.118
REMARK INTER + INTRA:         -19.879
REMARK INTER:                 -15.952
REMARK INTRA:                  -3.927
REMARK UNBOUND:                -5.023
REMARK SMILES CCCCCCC[C@H](N)[C@H](O)C(=O)N[C@H](C)C(=O)N(C)[C@H](CC(C)C)C(=O)N[C@@H](Cc1ccc(O)cc1)C(=O)N[C@@H](Cc1ccc(O)cc1)C(=O)O
REMARK SMILES IDX 18 1 17 2 15 3 16 4 14 5 12 6 13 7 10 9 11 10 8 12 9 13 7 16
REMARK SMILES IDX 6 17 5 18 4 19 3 20 2 21 1 22 19 23 20 24 21 25 22 26 23 27
REMARK SMILES IDX 24 28 25 29 26 30 27 31 28 32 29 34 30 35 31 36 32 37 37 38
REMARK SMILES IDX 33 39 36 40 34 41 35 42 38 44 39 45 40 46 41 48 42 49 43 50
REMARK SMILES IDX 44 51 49 52 45 53 48 54 46 55 47 56 50 58 51 59 52 60
REMARK H PARENT 14 8 11 11 9 14 9 15 28 33 35 43 40 47 47 57 52 61
ROOT
ATOM      1  O   UNL     1      -8.831  -4.420   2.104  1.00  0.00    -0.272 OA
ATOM      2  C   UNL     1      -9.675  -5.288   2.371  1.00  0.00     0.245 C 
ENDROOT
BRANCH   2   3
ATOM      3  C   UNL     1     -10.859  -5.496   1.394  1.00  0.00     0.168 C 
ATOM      4  C   UNL     1     -11.650  -6.747   1.759  1.00  0.00     0.041 C 
BRANCH   3   5
ATOM      5  N   UNL     1     -11.724  -4.338   1.226  1.00  0.00    -0.342 N 
ATOM      6  C   UNL     1     -11.562  -3.454   0.180  1.00  0.00     0.251 C 
ATOM      7  O   UNL     1     -10.666  -3.548  -0.653  1.00  0.00    -0.272 OA
ATOM      8  H   UNL     1     -12.481  -4.136   1.874  1.00  0.00     0.164 HD
BRANCH   6   9
ATOM      9  C   UNL     1     -12.672  -2.393   0.121  1.00  0.00     0.219 C 
BRANCH   9  10
ATOM     10  O   UNL     1     -12.243  -1.117   0.612  1.00  0.00    -0.382 OA
ATOM     11  H   UNL     1     -11.348  -1.298   0.975  1.00  0.00     0.211 HD
ENDBRANCH   9  10
BRANCH   9  12
ATOM     12  C   UNL     1     -13.310  -2.256  -1.286  1.00  0.00     0.089 C 
BRANCH  12  13
ATOM     13  N   UNL     1     -12.324  -1.613  -2.185  1.00  0.00    -0.325 NA
ATOM     14  H   UNL     1     -12.355  -0.601  -2.048  1.00  0.00     0.119 HD
ATOM     15  H   UNL     1     -12.615  -1.760  -3.154  1.00  0.00     0.119 HD
ENDBRANCH  12  13
BRANCH  12  16
ATOM     16  C   UNL     1     -13.836  -3.564  -1.922  1.00  0.00     0.022 C 
BRANCH  16  17
ATOM     17  C   UNL     1     -13.459  -3.893  -3.373  1.00  0.00     0.002 C 
BRANCH  17  18
ATOM     18  C   UNL     1     -13.032  -5.339  -3.617  1.00  0.00     0.000 C 
BRANCH  18  19
ATOM     19  C   UNL     1     -13.073  -6.222  -2.363  1.00  0.00    -0.000 C 
BRANCH  19  20
ATOM     20  C   UNL     1     -11.727  -6.821  -1.946  1.00  0.00    -0.000 C 
BRANCH  20  21
ATOM     21  C   UNL     1     -11.622  -8.321  -2.237  1.00  0.00    -0.003 C 
ATOM     22  C   UNL     1     -10.462  -8.624  -3.172  1.00  0.00     0.004 C 
ENDBRANCH  20  21
ENDBRANCH  19  20
ENDBRANCH  18  19
ENDBRANCH  17  18
ENDBRANCH  16  17
ENDBRANCH  12  16
ENDBRANCH   9  12
ENDBRANCH   6   9
ENDBRANCH   3   5
ENDBRANCH   2   3
BRANCH   2  23
ATOM     23  N   UNL     1      -9.485  -6.131   3.461  1.00  0.00    -0.332 N 
ATOM     24  C   UNL     1      -8.818  -7.423   3.398  1.00  0.00     0.147 C 
BRANCH  23  25
ATOM     25  C   UNL     1      -9.858  -5.684   4.831  1.00  0.00     0.174 C 
BRANCH  25  26
ATOM     26  C   UNL     1     -11.292  -5.108   4.906  1.00  0.00     0.038 C 
BRANCH  26  27
ATOM     27  C   UNL     1     -12.351  -5.960   5.640  1.00  0.00    -0.015 C 
ATOM     28  C   UNL     1     -11.981  -6.223   7.099  1.00  0.00     0.007 C 
ATOM     29  C   UNL     1     -13.764  -5.391   5.539  1.00  0.00     0.007 C 
ENDBRANCH  26  27
ENDBRANCH  25  26
BRANCH  25  30
ATOM     30  C   UNL     1      -8.776  -4.735   5.394  1.00  0.00     0.243 C 
ATOM     31  O   UNL     1      -7.578  -5.008   5.336  1.00  0.00    -0.273 OA
ATOM     32  N   UNL     1      -9.241  -3.577   5.964  1.00  0.00    -0.342 N 
ATOM     33  H   UNL     1     -10.233  -3.357   5.847  1.00  0.00     0.164 HD
BRANCH  32  34
ATOM     34  C   UNL     1      -8.362  -2.575   6.572  1.00  0.00     0.175 C 
BRANCH  34  35
ATOM     35  C   UNL     1      -8.546  -1.198   5.915  1.00  0.00     0.070 C 
BRANCH  35  36
ATOM     36  C   UNL     1      -7.961  -1.132   4.523  1.00  0.00    -0.045 A 
ATOM     37  C   UNL     1      -6.582  -1.313   4.332  1.00  0.00     0.007 A 
ATOM     38  C   UNL     1      -8.773  -0.868   3.412  1.00  0.00     0.007 A 
ATOM     39  C   UNL     1      -6.031  -1.240   3.052  1.00  0.00     0.046 A 
ATOM     40  C   UNL     1      -8.221  -0.793   2.131  1.00  0.00     0.046 A 
ATOM     41  C   UNL     1      -6.854  -0.981   1.963  1.00  0.00     0.115 A 
BRANCH  41  42
ATOM     42  O   UNL     1      -6.274  -0.915   0.731  1.00  0.00    -0.508 OA
ATOM     43  H   UNL     1      -5.316  -0.809   0.850  1.00  0.00     0.293 HD
ENDBRANCH  41  42
ENDBRANCH  35  36
ENDBRANCH  34  35
BRANCH  34  44
ATOM     44  C   UNL     1      -8.659  -2.535   8.088  1.00  0.00     0.243 C 
ATOM     45  O   UNL     1      -8.393  -3.443   8.871  1.00  0.00    -0.273 OA
ATOM     46  N   UNL     1      -9.378  -1.425   8.478  1.00  0.00    -0.341 N 
ATOM     47  H   UNL     1      -9.676  -0.757   7.772  1.00  0.00     0.164 HD
BRANCH  46  48
ATOM     48  C   UNL     1      -9.834  -1.202   9.852  1.00  0.00     0.196 C 
BRANCH  48  49
ATOM     49  C   UNL     1      -9.308   0.132  10.407  1.00  0.00     0.072 C 
BRANCH  49  50
ATOM     50  C   UNL     1      -7.986  -0.018  11.126  1.00  0.00    -0.045 A 
ATOM     51  C   UNL     1      -7.729  -1.172  11.881  1.00  0.00     0.007 A 
ATOM     52  C   UNL     1      -7.016   0.990  11.070  1.00  0.00     0.007 A 
ATOM     53  C   UNL     1      -6.518  -1.317  12.559  1.00  0.00     0.046 A 
ATOM     54  C   UNL     1      -5.805   0.846  11.751  1.00  0.00     0.046 A 
ATOM     55  C   UNL     1      -5.566  -0.308  12.489  1.00  0.00     0.115 A 
BRANCH  55  56
ATOM     56  O   UNL     1      -4.397  -0.486  13.168  1.00  0.00    -0.508 OA
ATOM     57  H   UNL     1      -4.193   0.333  13.647  1.00  0.00     0.293 HD
ENDBRANCH  55  56
ENDBRANCH  49  50
ENDBRANCH  48  49
BRANCH  48  58
ATOM     58  C   UNL     1     -11.369  -1.198   9.874  1.00  0.00     0.326 C 
ATOM     59  O   UNL     1     -12.107  -2.133  10.143  1.00  0.00    -0.250 OA
BRANCH  58  60
ATOM     60  O   UNL     1     -11.912   0.006   9.564  1.00  0.00    -0.480 OA
ATOM     61  H   UNL     1     -11.515   0.610  10.229  1.00  0.00     0.296 HD
ENDBRANCH  58  60
ENDBRANCH  48  58
ENDBRANCH  46  48
ENDBRANCH  34  44
ENDBRANCH  32  34
ENDBRANCH  25  30
ENDBRANCH  23  25
ENDBRANCH   2  23
TORSDOF 28
ENDMDL
MODEL 35
REMARK VINA RESULT:    -5.948      2.142      5.468
REMARK INTER + INTRA:         -19.838
REMARK INTER:                 -15.859
REMARK INTRA:                  -3.979
REMARK UNBOUND:                -5.023
REMARK SMILES CCCCCCC[C@H](N)[C@H](O)C(=O)N[C@H](C)C(=O)N(C)[C@H](CC(C)C)C(=O)N[C@@H](Cc1ccc(O)cc1)C(=O)N[C@@H](Cc1ccc(O)cc1)C(=O)O
REMARK SMILES IDX 18 1 17 2 15 3 16 4 14 5 12 6 13 7 10 9 11 10 8 12 9 13 7 16
REMARK SMILES IDX 6 17 5 18 4 19 3 20 2 21 1 22 19 23 20 24 21 25 22 26 23 27
REMARK SMILES IDX 24 28 25 29 26 30 27 31 28 32 29 34 30 35 31 36 32 37 37 38
REMARK SMILES IDX 33 39 36 40 34 41 35 42 38 44 39 45 40 46 41 48 42 49 43 50
REMARK SMILES IDX 44 51 49 52 45 53 48 54 46 55 47 56 50 58 51 59 52 60
REMARK H PARENT 14 8 11 11 9 14 9 15 28 33 35 43 40 47 47 57 52 61
ROOT
ATOM      1  O   UNL     1      -9.509  -2.731   4.366  1.00  0.00    -0.272 OA
ATOM      2  C   UNL     1      -9.036  -3.427   5.276  1.00  0.00     0.245 C 
ENDROOT
BRANCH   2   3
ATOM      3  C   UNL     1      -8.190  -2.737   6.375  1.00  0.00     0.168 C 
ATOM      4  C   UNL     1      -6.763  -2.501   5.891  1.00  0.00     0.041 C 
BRANCH   3   5
ATOM      5  N   UNL     1      -8.780  -1.529   6.931  1.00  0.00    -0.342 N 
ATOM      6  C   UNL     1      -9.816  -1.578   7.840  1.00  0.00     0.251 C 
ATOM      7  O   UNL     1     -10.341  -2.622   8.213  1.00  0.00    -0.272 OA
ATOM      8  H   UNL     1      -8.451  -0.603   6.671  1.00  0.00     0.164 HD
BRANCH   6   9
ATOM      9  C   UNL     1     -10.181  -0.193   8.399  1.00  0.00     0.219 C 
BRANCH   9  10
ATOM     10  O   UNL     1     -11.390   0.329   7.833  1.00  0.00    -0.382 OA
ATOM     11  H   UNL     1     -11.192   0.381   6.873  1.00  0.00     0.211 HD
ENDBRANCH   9  10
BRANCH   9  12
ATOM     12  C   UNL     1     -10.238  -0.157   9.948  1.00  0.00     0.089 C 
BRANCH  12  13
ATOM     13  N   UNL     1     -11.368  -1.003  10.395  1.00  0.00    -0.325 NA
ATOM     14  H   UNL     1     -11.017  -1.929  10.643  1.00  0.00     0.119 HD
ATOM     15  H   UNL     1     -11.997  -1.159   9.604  1.00  0.00     0.119 HD
ENDBRANCH  12  13
BRANCH  12  16
ATOM     16  C   UNL     1      -8.941  -0.571  10.684  1.00  0.00     0.022 C 
BRANCH  16  17
ATOM     17  C   UNL     1      -7.776   0.425  10.762  1.00  0.00     0.002 C 
BRANCH  17  18
ATOM     18  C   UNL     1      -7.060   0.475  12.110  1.00  0.00     0.000 C 
BRANCH  18  19
ATOM     19  C   UNL     1      -5.943   1.524  12.185  1.00  0.00    -0.000 C 
BRANCH  19  20
ATOM     20  C   UNL     1      -4.927   1.476  11.041  1.00  0.00    -0.000 C 
BRANCH  20  21
ATOM     21  C   UNL     1      -3.752   2.437  11.240  1.00  0.00    -0.003 C 
ATOM     22  C   UNL     1      -2.418   1.723  11.089  1.00  0.00     0.004 C 
ENDBRANCH  20  21
ENDBRANCH  19  20
ENDBRANCH  18  19
ENDBRANCH  17  18
ENDBRANCH  16  17
ENDBRANCH  12  16
ENDBRANCH   9  12
ENDBRANCH   6   9
ENDBRANCH   3   5
ENDBRANCH   2   3
BRANCH   2  23
ATOM     23  N   UNL     1      -9.369  -4.775   5.365  1.00  0.00    -0.332 N 
ATOM     24  C   UNL     1      -8.407  -5.866   5.343  1.00  0.00     0.147 C 
BRANCH  23  25
ATOM     25  C   UNL     1     -10.776  -5.186   5.625  1.00  0.00     0.174 C 
BRANCH  25  26
ATOM     26  C   UNL     1     -10.884  -6.393   6.585  1.00  0.00     0.038 C 
BRANCH  26  27
ATOM     27  C   UNL     1     -11.305  -6.094   8.041  1.00  0.00    -0.015 C 
ATOM     28  C   UNL     1     -12.684  -5.441   8.128  1.00  0.00     0.007 C 
ATOM     29  C   UNL     1     -11.229  -7.313   8.958  1.00  0.00     0.007 C 
ENDBRANCH  26  27
ENDBRANCH  25  26
BRANCH  25  30
ATOM     30  C   UNL     1     -11.527  -5.386   4.288  1.00  0.00     0.243 C 
ATOM     31  O   UNL     1     -12.694  -5.774   4.250  1.00  0.00    -0.273 OA
ATOM     32  N   UNL     1     -10.806  -5.109   3.155  1.00  0.00    -0.342 N 
ATOM     33  H   UNL     1      -9.895  -4.658   3.272  1.00  0.00     0.164 HD
BRANCH  32  34
ATOM     34  C   UNL     1     -11.347  -5.268   1.802  1.00  0.00     0.175 C 
BRANCH  34  35
ATOM     35  C   UNL     1     -10.604  -4.377   0.796  1.00  0.00     0.070 C 
BRANCH  35  36
ATOM     36  C   UNL     1     -11.452  -4.014  -0.403  1.00  0.00    -0.045 A 
ATOM     37  C   UNL     1     -11.028  -3.009  -1.285  1.00  0.00     0.007 A 
ATOM     38  C   UNL     1     -12.676  -4.655  -0.637  1.00  0.00     0.007 A 
ATOM     39  C   UNL     1     -11.811  -2.658  -2.385  1.00  0.00     0.046 A 
ATOM     40  C   UNL     1     -13.460  -4.304  -1.738  1.00  0.00     0.046 A 
ATOM     41  C   UNL     1     -13.019  -3.308  -2.604  1.00  0.00     0.115 A 
BRANCH  41  42
ATOM     42  O   UNL     1     -13.755  -2.934  -3.689  1.00  0.00    -0.508 OA
ATOM     43  H   UNL     1     -14.343  -3.670  -3.926  1.00  0.00     0.293 HD
ENDBRANCH  41  42
ENDBRANCH  35  36
ENDBRANCH  34  35
BRANCH  34  44
ATOM     44  C   UNL     1     -11.259  -6.764   1.424  1.00  0.00     0.243 C 
ATOM     45  O   UNL     1     -12.223  -7.522   1.363  1.00  0.00    -0.273 OA
ATOM     46  N   UNL     1      -9.965  -7.219   1.283  1.00  0.00    -0.341 N 
ATOM     47  H   UNL     1      -9.194  -6.579   1.459  1.00  0.00     0.164 HD
BRANCH  46  48
ATOM     48  C   UNL     1      -9.628  -8.615   0.994  1.00  0.00     0.196 C 
BRANCH  48  49
ATOM     49  C   UNL     1      -9.049  -8.769  -0.422  1.00  0.00     0.072 C 
BRANCH  49  50
ATOM     50  C   UNL     1      -9.912  -8.117  -1.478  1.00  0.00    -0.045 A 
ATOM     51  C   UNL     1      -9.464  -6.957  -2.128  1.00  0.00     0.007 A 
ATOM     52  C   UNL     1     -11.168  -8.641  -1.807  1.00  0.00     0.007 A 
ATOM     53  C   UNL     1     -10.258  -6.339  -3.095  1.00  0.00     0.046 A 
ATOM     54  C   UNL     1     -11.963  -8.021  -2.775  1.00  0.00     0.046 A 
ATOM     55  C   UNL     1     -11.500  -6.875  -3.411  1.00  0.00     0.115 A 
BRANCH  55  56
ATOM     56  O   UNL     1     -12.245  -6.240  -4.360  1.00  0.00    -0.508 OA
ATOM     57  H   UNL     1     -13.169  -6.224  -4.063  1.00  0.00     0.293 HD
ENDBRANCH  55  56
ENDBRANCH  49  50
ENDBRANCH  48  49
BRANCH  48  58
ATOM     58  C   UNL     1      -8.604  -9.106   2.026  1.00  0.00     0.326 C 
ATOM     59  O   UNL     1      -8.619 -10.161   2.638  1.00  0.00    -0.250 OA
BRANCH  58  60
ATOM     60  O   UNL     1      -7.583  -8.236   2.231  1.00  0.00    -0.480 OA
ATOM     61  H   UNL     1      -7.280  -8.024   1.322  1.00  0.00     0.296 HD
ENDBRANCH  58  60
ENDBRANCH  48  58
ENDBRANCH  46  48
ENDBRANCH  34  44
ENDBRANCH  32  34
ENDBRANCH  25  30
ENDBRANCH  23  25
ENDBRANCH   2  23
TORSDOF 28
ENDMDL
MODEL 36
REMARK VINA RESULT:    -5.916      2.217      7.152
REMARK INTER + INTRA:         -19.758
REMARK INTER:                 -14.335
REMARK INTRA:                  -5.423
REMARK UNBOUND:                -5.023
REMARK SMILES CCCCCCC[C@H](N)[C@H](O)C(=O)N[C@H](C)C(=O)N(C)[C@H](CC(C)C)C(=O)N[C@@H](Cc1ccc(O)cc1)C(=O)N[C@@H](Cc1ccc(O)cc1)C(=O)O
REMARK SMILES IDX 18 1 17 2 15 3 16 4 14 5 12 6 13 7 10 9 11 10 8 12 9 13 7 16
REMARK SMILES IDX 6 17 5 18 4 19 3 20 2 21 1 22 19 23 20 24 21 25 22 26 23 27
REMARK SMILES IDX 24 28 25 29 26 30 27 31 28 32 29 34 30 35 31 36 32 37 37 38
REMARK SMILES IDX 33 39 36 40 34 41 35 42 38 44 39 45 40 46 41 48 42 49 43 50
REMARK SMILES IDX 44 51 49 52 45 53 48 54 46 55 47 56 50 58 51 59 52 60
REMARK H PARENT 14 8 11 11 9 14 9 15 28 33 35 43 40 47 47 57 52 61
ROOT
ATOM      1  O   UNL     1      -6.543  -8.222   1.923  1.00  0.00    -0.272 OA
ATOM      2  C   UNL     1      -7.480  -7.418   2.036  1.00  0.00     0.245 C 
ENDROOT
BRANCH   2   3
ATOM      3  C   UNL     1      -8.021  -7.104   3.454  1.00  0.00     0.168 C 
ATOM      4  C   UNL     1      -7.503  -8.119   4.468  1.00  0.00     0.041 C 
BRANCH   3   5
ATOM      5  N   UNL     1      -7.808  -5.736   3.900  1.00  0.00    -0.342 N 
ATOM      6  C   UNL     1      -6.544  -5.232   4.126  1.00  0.00     0.251 C 
ATOM      7  O   UNL     1      -5.520  -5.897   4.012  1.00  0.00    -0.272 OA
ATOM      8  H   UNL     1      -8.584  -5.098   4.063  1.00  0.00     0.164 HD
BRANCH   6   9
ATOM      9  C   UNL     1      -6.553  -3.729   4.451  1.00  0.00     0.219 C 
BRANCH   9  10
ATOM     10  O   UNL     1      -7.180  -2.946   3.428  1.00  0.00    -0.382 OA
ATOM     11  H   UNL     1      -6.491  -2.883   2.731  1.00  0.00     0.211 HD
ENDBRANCH   9  10
BRANCH   9  12
ATOM     12  C   UNL     1      -7.163  -3.410   5.841  1.00  0.00     0.089 C 
BRANCH  12  13
ATOM     13  N   UNL     1      -6.789  -4.496   6.776  1.00  0.00    -0.325 NA
ATOM     14  H   UNL     1      -7.299  -5.345   6.527  1.00  0.00     0.119 HD
ATOM     15  H   UNL     1      -7.117  -4.252   7.714  1.00  0.00     0.119 HD
ENDBRANCH  12  13
BRANCH  12  16
ATOM     16  C   UNL     1      -6.791  -2.035   6.445  1.00  0.00     0.022 C 
BRANCH  16  17
ATOM     17  C   UNL     1      -7.564  -1.523   7.668  1.00  0.00     0.002 C 
BRANCH  17  18
ATOM     18  C   UNL     1      -6.779  -1.531   8.978  1.00  0.00     0.000 C 
BRANCH  18  19
ATOM     19  C   UNL     1      -7.608  -1.134  10.206  1.00  0.00    -0.000 C 
BRANCH  19  20
ATOM     20  C   UNL     1      -7.652   0.368  10.503  1.00  0.00    -0.000 C 
BRANCH  20  21
ATOM     21  C   UNL     1      -6.844   0.757  11.744  1.00  0.00    -0.003 C 
ATOM     22  C   UNL     1      -5.605   1.556  11.371  1.00  0.00     0.004 C 
ENDBRANCH  20  21
ENDBRANCH  19  20
ENDBRANCH  18  19
ENDBRANCH  17  18
ENDBRANCH  16  17
ENDBRANCH  12  16
ENDBRANCH   9  12
ENDBRANCH   6   9
ENDBRANCH   3   5
ENDBRANCH   2   3
BRANCH   2  23
ATOM     23  N   UNL     1      -7.943  -6.728   0.921  1.00  0.00    -0.332 N 
ATOM     24  C   UNL     1      -7.099  -6.251  -0.164  1.00  0.00     0.147 C 
BRANCH  23  25
ATOM     25  C   UNL     1      -9.405  -6.541   0.706  1.00  0.00     0.174 C 
BRANCH  25  26
ATOM     26  C   UNL     1      -9.901  -7.153  -0.625  1.00  0.00     0.038 C 
BRANCH  26  27
ATOM     27  C   UNL     1     -11.357  -7.668  -0.658  1.00  0.00    -0.015 C 
ATOM     28  C   UNL     1     -11.923  -7.912   0.740  1.00  0.00     0.007 C 
ATOM     29  C   UNL     1     -12.296  -6.781  -1.472  1.00  0.00     0.007 C 
ENDBRANCH  26  27
ENDBRANCH  25  26
BRANCH  25  30
ATOM     30  C   UNL     1      -9.783  -5.053   0.885  1.00  0.00     0.243 C 
ATOM     31  O   UNL     1      -9.458  -4.196   0.065  1.00  0.00    -0.273 OA
ATOM     32  N   UNL     1     -10.496  -4.754   2.018  1.00  0.00    -0.342 N 
ATOM     33  H   UNL     1     -10.849  -5.536   2.576  1.00  0.00     0.164 HD
BRANCH  32  34
ATOM     34  C   UNL     1     -10.917  -3.394   2.365  1.00  0.00     0.175 C 
BRANCH  34  35
ATOM     35  C   UNL     1     -12.404  -3.172   2.051  1.00  0.00     0.070 C 
BRANCH  35  36
ATOM     36  C   UNL     1     -12.639  -2.705   0.632  1.00  0.00    -0.045 A 
ATOM     37  C   UNL     1     -13.368  -3.507  -0.260  1.00  0.00     0.007 A 
ATOM     38  C   UNL     1     -12.118  -1.485   0.181  1.00  0.00     0.007 A 
ATOM     39  C   UNL     1     -13.578  -3.091  -1.575  1.00  0.00     0.046 A 
ATOM     40  C   UNL     1     -12.326  -1.068  -1.136  1.00  0.00     0.046 A 
ATOM     41  C   UNL     1     -13.056  -1.876  -2.002  1.00  0.00     0.115 A 
BRANCH  41  42
ATOM     42  O   UNL     1     -13.282  -1.508  -3.296  1.00  0.00    -0.508 OA
ATOM     43  H   UNL     1     -14.163  -1.825  -3.554  1.00  0.00     0.293 HD
ENDBRANCH  41  42
ENDBRANCH  35  36
ENDBRANCH  34  35
BRANCH  34  44
ATOM     44  C   UNL     1     -10.601  -3.162   3.860  1.00  0.00     0.243 C 
ATOM     45  O   UNL     1      -9.905  -2.246   4.288  1.00  0.00    -0.273 OA
ATOM     46  N   UNL     1     -11.071  -4.165   4.682  1.00  0.00    -0.341 N 
ATOM     47  H   UNL     1     -11.543  -4.964   4.266  1.00  0.00     0.164 HD
BRANCH  46  48
ATOM     48  C   UNL     1     -10.836  -4.198   6.127  1.00  0.00     0.196 C 
BRANCH  48  49
ATOM     49  C   UNL     1     -12.082  -3.748   6.908  1.00  0.00     0.072 C 
BRANCH  49  50
ATOM     50  C   UNL     1     -11.793  -2.608   7.858  1.00  0.00    -0.045 A 
ATOM     51  C   UNL     1     -11.266  -1.405   7.367  1.00  0.00     0.007 A 
ATOM     52  C   UNL     1     -12.024  -2.740   9.233  1.00  0.00     0.007 A 
ATOM     53  C   UNL     1     -10.983  -0.351   8.236  1.00  0.00     0.046 A 
ATOM     54  C   UNL     1     -11.739  -1.686  10.104  1.00  0.00     0.046 A 
ATOM     55  C   UNL     1     -11.222  -0.499   9.596  1.00  0.00     0.115 A 
BRANCH  55  56
ATOM     56  O   UNL     1     -10.930   0.554  10.412  1.00  0.00    -0.508 OA
ATOM     57  H   UNL     1     -11.525   0.521  11.179  1.00  0.00     0.293 HD
ENDBRANCH  55  56
ENDBRANCH  49  50
ENDBRANCH  48  49
BRANCH  48  58
ATOM     58  C   UNL     1     -10.459  -5.628   6.538  1.00  0.00     0.326 C 
ATOM     59  O   UNL     1      -9.342  -6.119   6.567  1.00  0.00    -0.250 OA
BRANCH  58  60
ATOM     60  O   UNL     1     -11.523  -6.381   6.915  1.00  0.00    -0.480 OA
ATOM     61  H   UNL     1     -12.250  -5.725   6.987  1.00  0.00     0.296 HD
ENDBRANCH  58  60
ENDBRANCH  48  58
ENDBRANCH  46  48
ENDBRANCH  34  44
ENDBRANCH  32  34
ENDBRANCH  25  30
ENDBRANCH  23  25
ENDBRANCH   2  23
TORSDOF 28
ENDMDL
MODEL 37
REMARK VINA RESULT:    -5.910      2.095      9.153
REMARK INTER + INTRA:         -19.743
REMARK INTER:                 -14.528
REMARK INTRA:                  -5.216
REMARK UNBOUND:                -5.023
REMARK SMILES CCCCCCC[C@H](N)[C@H](O)C(=O)N[C@H](C)C(=O)N(C)[C@H](CC(C)C)C(=O)N[C@@H](Cc1ccc(O)cc1)C(=O)N[C@@H](Cc1ccc(O)cc1)C(=O)O
REMARK SMILES IDX 18 1 17 2 15 3 16 4 14 5 12 6 13 7 10 9 11 10 8 12 9 13 7 16
REMARK SMILES IDX 6 17 5 18 4 19 3 20 2 21 1 22 19 23 20 24 21 25 22 26 23 27
REMARK SMILES IDX 24 28 25 29 26 30 27 31 28 32 29 34 30 35 31 36 32 37 37 38
REMARK SMILES IDX 33 39 36 40 34 41 35 42 38 44 39 45 40 46 41 48 42 49 43 50
REMARK SMILES IDX 44 51 49 52 45 53 48 54 46 55 47 56 50 58 51 59 52 60
REMARK H PARENT 14 8 11 11 9 14 9 15 28 33 35 43 40 47 47 57 52 61
ROOT
ATOM      1  O   UNL     1     -10.490  -3.971   0.821  1.00  0.00    -0.272 OA
ATOM      2  C   UNL     1     -10.339  -4.635   1.858  1.00  0.00     0.245 C 
ENDROOT
BRANCH   2   3
ATOM      3  C   UNL     1     -10.736  -6.132   1.843  1.00  0.00     0.168 C 
ATOM      4  C   UNL     1     -11.973  -6.373   2.701  1.00  0.00     0.041 C 
BRANCH   3   5
ATOM      5  N   UNL     1     -10.873  -6.715   0.517  1.00  0.00    -0.342 N 
ATOM      6  C   UNL     1      -9.780  -7.138  -0.209  1.00  0.00     0.251 C 
ATOM      7  O   UNL     1      -8.623  -7.022   0.180  1.00  0.00    -0.272 OA
ATOM      8  H   UNL     1     -11.782  -6.831   0.074  1.00  0.00     0.164 HD
BRANCH   6   9
ATOM      9  C   UNL     1     -10.173  -7.848  -1.515  1.00  0.00     0.219 C 
BRANCH   9  10
ATOM     10  O   UNL     1     -11.360  -8.639  -1.378  1.00  0.00    -0.382 OA
ATOM     11  H   UNL     1     -11.039  -9.560  -1.498  1.00  0.00     0.211 HD
ENDBRANCH   9  10
BRANCH   9  12
ATOM     12  C   UNL     1     -10.292  -6.882  -2.722  1.00  0.00     0.089 C 
BRANCH  12  13
ATOM     13  N   UNL     1     -11.156  -7.514  -3.744  1.00  0.00    -0.325 NA
ATOM     14  H   UNL     1     -11.858  -6.840  -4.055  1.00  0.00     0.119 HD
ATOM     15  H   UNL     1     -11.689  -8.270  -3.306  1.00  0.00     0.119 HD
ENDBRANCH  12  13
BRANCH  12  16
ATOM     16  C   UNL     1     -10.803  -5.456  -2.401  1.00  0.00     0.022 C 
BRANCH  16  17
ATOM     17  C   UNL     1     -12.297  -5.145  -2.564  1.00  0.00     0.002 C 
BRANCH  17  18
ATOM     18  C   UNL     1     -13.058  -4.939  -1.256  1.00  0.00     0.000 C 
BRANCH  18  19
ATOM     19  C   UNL     1     -13.526  -3.496  -1.026  1.00  0.00    -0.000 C 
BRANCH  19  20
ATOM     20  C   UNL     1     -13.257  -2.533  -2.185  1.00  0.00    -0.000 C 
BRANCH  20  21
ATOM     21  C   UNL     1     -12.849  -1.132  -1.719  1.00  0.00    -0.003 C 
ATOM     22  C   UNL     1     -12.330  -1.153  -0.290  1.00  0.00     0.004 C 
ENDBRANCH  20  21
ENDBRANCH  19  20
ENDBRANCH  18  19
ENDBRANCH  17  18
ENDBRANCH  16  17
ENDBRANCH  12  16
ENDBRANCH   9  12
ENDBRANCH   6   9
ENDBRANCH   3   5
ENDBRANCH   2   3
BRANCH   2  23
ATOM     23  N   UNL     1      -9.712  -4.067   2.962  1.00  0.00    -0.332 N 
ATOM     24  C   UNL     1      -8.409  -4.470   3.469  1.00  0.00     0.147 C 
BRANCH  23  25
ATOM     25  C   UNL     1     -10.309  -2.882   3.638  1.00  0.00     0.174 C 
BRANCH  25  26
ATOM     26  C   UNL     1      -9.277  -2.075   4.459  1.00  0.00     0.038 C 
BRANCH  26  27
ATOM     27  C   UNL     1      -8.684  -0.813   3.792  1.00  0.00    -0.015 C 
ATOM     28  C   UNL     1      -7.205  -0.978   3.442  1.00  0.00     0.007 C 
ATOM     29  C   UNL     1      -9.475  -0.341   2.575  1.00  0.00     0.007 C 
ENDBRANCH  26  27
ENDBRANCH  25  26
BRANCH  25  30
ATOM     30  C   UNL     1     -11.556  -3.304   4.449  1.00  0.00     0.243 C 
ATOM     31  O   UNL     1     -12.696  -3.157   4.012  1.00  0.00    -0.273 OA
ATOM     32  N   UNL     1     -11.305  -3.845   5.684  1.00  0.00    -0.342 N 
ATOM     33  H   UNL     1     -10.333  -4.065   5.916  1.00  0.00     0.164 HD
BRANCH  32  34
ATOM     34  C   UNL     1     -12.364  -4.276   6.600  1.00  0.00     0.175 C 
BRANCH  34  35
ATOM     35  C   UNL     1     -12.501  -5.806   6.616  1.00  0.00     0.070 C 
BRANCH  35  36
ATOM     36  C   UNL     1     -11.172  -6.511   6.773  1.00  0.00    -0.045 A 
ATOM     37  C   UNL     1     -10.737  -6.913   8.045  1.00  0.00     0.007 A 
ATOM     38  C   UNL     1     -10.350  -6.750   5.664  1.00  0.00     0.007 A 
ATOM     39  C   UNL     1      -9.506  -7.552   8.201  1.00  0.00     0.046 A 
ATOM     40  C   UNL     1      -9.117  -7.388   5.819  1.00  0.00     0.046 A 
ATOM     41  C   UNL     1      -8.707  -7.784   7.088  1.00  0.00     0.115 A 
BRANCH  41  42
ATOM     42  O   UNL     1      -7.510  -8.408   7.284  1.00  0.00    -0.508 OA
ATOM     43  H   UNL     1      -7.622  -9.066   7.990  1.00  0.00     0.293 HD
ENDBRANCH  41  42
ENDBRANCH  35  36
ENDBRANCH  34  35
BRANCH  34  44
ATOM     44  C   UNL     1     -12.043  -3.710   8.002  1.00  0.00     0.243 C 
ATOM     45  O   UNL     1     -12.551  -4.112   9.045  1.00  0.00    -0.273 OA
ATOM     46  N   UNL     1     -11.218  -2.606   7.972  1.00  0.00    -0.341 N 
ATOM     47  H   UNL     1     -10.916  -2.239   7.073  1.00  0.00     0.164 HD
BRANCH  46  48
ATOM     48  C   UNL     1     -10.829  -1.858   9.170  1.00  0.00     0.196 C 
BRANCH  48  49
ATOM     49  C   UNL     1      -9.480  -2.347   9.723  1.00  0.00     0.072 C 
BRANCH  49  50
ATOM     50  C   UNL     1      -8.481  -2.656   8.631  1.00  0.00    -0.045 A 
ATOM     51  C   UNL     1      -7.656  -1.638   8.130  1.00  0.00     0.007 A 
ATOM     52  C   UNL     1      -8.379  -3.944   8.091  1.00  0.00     0.007 A 
ATOM     53  C   UNL     1      -6.740  -1.908   7.113  1.00  0.00     0.046 A 
ATOM     54  C   UNL     1      -7.462  -4.214   7.072  1.00  0.00     0.046 A 
ATOM     55  C   UNL     1      -6.650  -3.193   6.592  1.00  0.00     0.115 A 
BRANCH  55  56
ATOM     56  O   UNL     1      -5.743  -3.415   5.598  1.00  0.00    -0.508 OA
ATOM     57  H   UNL     1      -4.973  -3.864   5.981  1.00  0.00     0.293 HD
ENDBRANCH  55  56
ENDBRANCH  49  50
ENDBRANCH  48  49
BRANCH  48  58
ATOM     58  C   UNL     1     -10.732  -0.367   8.818  1.00  0.00     0.326 C 
ATOM     59  O   UNL     1     -10.613   0.569   9.591  1.00  0.00    -0.250 OA
BRANCH  58  60
ATOM     60  O   UNL     1     -10.773  -0.123   7.484  1.00  0.00    -0.480 OA
ATOM     61  H   UNL     1      -9.829  -0.156   7.218  1.00  0.00     0.296 HD
ENDBRANCH  58  60
ENDBRANCH  48  58
ENDBRANCH  46  48
ENDBRANCH  34  44
ENDBRANCH  32  34
ENDBRANCH  25  30
ENDBRANCH  23  25
ENDBRANCH   2  23
TORSDOF 28
ENDMDL
MODEL 38
REMARK VINA RESULT:    -5.893      2.643      8.915
REMARK INTER + INTRA:         -19.701
REMARK INTER:                 -12.930
REMARK INTRA:                  -6.771
REMARK UNBOUND:                -5.023
REMARK SMILES CCCCCCC[C@H](N)[C@H](O)C(=O)N[C@H](C)C(=O)N(C)[C@H](CC(C)C)C(=O)N[C@@H](Cc1ccc(O)cc1)C(=O)N[C@@H](Cc1ccc(O)cc1)C(=O)O
REMARK SMILES IDX 18 1 17 2 15 3 16 4 14 5 12 6 13 7 10 9 11 10 8 12 9 13 7 16
REMARK SMILES IDX 6 17 5 18 4 19 3 20 2 21 1 22 19 23 20 24 21 25 22 26 23 27
REMARK SMILES IDX 24 28 25 29 26 30 27 31 28 32 29 34 30 35 31 36 32 37 37 38
REMARK SMILES IDX 33 39 36 40 34 41 35 42 38 44 39 45 40 46 41 48 42 49 43 50
REMARK SMILES IDX 44 51 49 52 45 53 48 54 46 55 47 56 50 58 51 59 52 60
REMARK H PARENT 14 8 11 11 9 14 9 15 28 33 35 43 40 47 47 57 52 61
ROOT
ATOM      1  O   UNL     1      -5.423  -6.994   4.116  1.00  0.00    -0.272 OA
ATOM      2  C   UNL     1      -6.417  -7.082   3.380  1.00  0.00     0.245 C 
ENDROOT
BRANCH   2   3
ATOM      3  C   UNL     1      -6.270  -6.698   1.886  1.00  0.00     0.168 C 
ATOM      4  C   UNL     1      -5.838  -7.903   1.058  1.00  0.00     0.041 C 
BRANCH   3   5
ATOM      5  N   UNL     1      -7.427  -6.031   1.310  1.00  0.00    -0.342 N 
ATOM      6  C   UNL     1      -7.403  -4.694   0.973  1.00  0.00     0.251 C 
ATOM      7  O   UNL     1      -6.437  -3.964   1.168  1.00  0.00    -0.272 OA
ATOM      8  H   UNL     1      -8.298  -6.525   1.134  1.00  0.00     0.164 HD
BRANCH   6   9
ATOM      9  C   UNL     1      -8.682  -4.240   0.251  1.00  0.00     0.219 C 
BRANCH   9  10
ATOM     10  O   UNL     1      -8.998  -2.864   0.499  1.00  0.00    -0.382 OA
ATOM     11  H   UNL     1      -9.297  -2.535  -0.377  1.00  0.00     0.211 HD
ENDBRANCH   9  10
BRANCH   9  12
ATOM     12  C   UNL     1      -8.659  -4.534  -1.271  1.00  0.00     0.089 C 
BRANCH  12  13
ATOM     13  N   UNL     1      -7.274  -4.888  -1.658  1.00  0.00    -0.325 NA
ATOM     14  H   UNL     1      -6.769  -4.037  -1.915  1.00  0.00     0.119 HD
ATOM     15  H   UNL     1      -7.301  -5.449  -2.512  1.00  0.00     0.119 HD
ENDBRANCH  12  13
BRANCH  12  16
ATOM     16  C   UNL     1      -9.642  -5.622  -1.767  1.00  0.00     0.022 C 
BRANCH  16  17
ATOM     17  C   UNL     1     -10.814  -6.035  -0.866  1.00  0.00     0.002 C 
BRANCH  17  18
ATOM     18  C   UNL     1     -11.727  -7.112  -1.449  1.00  0.00     0.000 C 
BRANCH  18  19
ATOM     19  C   UNL     1     -13.022  -6.566  -2.065  1.00  0.00    -0.000 C 
BRANCH  19  20
ATOM     20  C   UNL     1     -12.923  -6.169  -3.541  1.00  0.00    -0.000 C 
BRANCH  20  21
ATOM     21  C   UNL     1     -13.332  -4.716  -3.800  1.00  0.00    -0.003 C 
ATOM     22  C   UNL     1     -13.082  -3.844  -2.579  1.00  0.00     0.004 C 
ENDBRANCH  20  21
ENDBRANCH  19  20
ENDBRANCH  18  19
ENDBRANCH  17  18
ENDBRANCH  16  17
ENDBRANCH  12  16
ENDBRANCH   9  12
ENDBRANCH   6   9
ENDBRANCH   3   5
ENDBRANCH   2   3
BRANCH   2  23
ATOM     23  N   UNL     1      -7.598  -7.630   3.869  1.00  0.00    -0.332 N 
ATOM     24  C   UNL     1      -7.966  -9.034   3.754  1.00  0.00     0.147 C 
BRANCH  23  25
ATOM     25  C   UNL     1      -8.531  -6.802   4.680  1.00  0.00     0.174 C 
BRANCH  25  26
ATOM     26  C   UNL     1      -9.184  -7.591   5.839  1.00  0.00     0.038 C 
BRANCH  26  27
ATOM     27  C   UNL     1      -8.863  -7.121   7.275  1.00  0.00    -0.015 C 
ATOM     28  C   UNL     1      -8.855  -5.598   7.403  1.00  0.00     0.007 C 
ATOM     29  C   UNL     1      -9.768  -7.744   8.335  1.00  0.00     0.007 C 
ENDBRANCH  26  27
ENDBRANCH  25  26
BRANCH  25  30
ATOM     30  C   UNL     1      -9.551  -6.093   3.760  1.00  0.00     0.243 C 
ATOM     31  O   UNL     1      -9.895  -6.571   2.680  1.00  0.00    -0.273 OA
ATOM     32  N   UNL     1     -10.037  -4.897   4.224  1.00  0.00    -0.342 N 
ATOM     33  H   UNL     1      -9.814  -4.637   5.188  1.00  0.00     0.164 HD
BRANCH  32  34
ATOM     34  C   UNL     1     -10.990  -4.074   3.473  1.00  0.00     0.175 C 
BRANCH  34  35
ATOM     35  C   UNL     1     -12.402  -4.167   4.072  1.00  0.00     0.070 C 
BRANCH  35  36
ATOM     36  C   UNL     1     -12.389  -4.404   5.565  1.00  0.00    -0.045 A 
ATOM     37  C   UNL     1     -12.725  -5.665   6.079  1.00  0.00     0.007 A 
ATOM     38  C   UNL     1     -12.068  -3.369   6.454  1.00  0.00     0.007 A 
ATOM     39  C   UNL     1     -12.730  -5.889   7.456  1.00  0.00     0.046 A 
ATOM     40  C   UNL     1     -12.074  -3.592   7.833  1.00  0.00     0.046 A 
ATOM     41  C   UNL     1     -12.404  -4.852   8.322  1.00  0.00     0.115 A 
BRANCH  41  42
ATOM     42  O   UNL     1     -12.423  -5.112   9.660  1.00  0.00    -0.508 OA
ATOM     43  H   UNL     1     -11.511  -5.067   9.993  1.00  0.00     0.293 HD
ENDBRANCH  41  42
ENDBRANCH  35  36
ENDBRANCH  34  35
BRANCH  34  44
ATOM     44  C   UNL     1     -10.462  -2.622   3.462  1.00  0.00     0.243 C 
ATOM     45  O   UNL     1     -10.873  -1.740   2.714  1.00  0.00    -0.273 OA
ATOM     46  N   UNL     1      -9.378  -2.425   4.291  1.00  0.00    -0.341 N 
ATOM     47  H   UNL     1      -8.999  -3.217   4.805  1.00  0.00     0.164 HD
BRANCH  46  48
ATOM     48  C   UNL     1      -8.665  -1.150   4.397  1.00  0.00     0.196 C 
BRANCH  48  49
ATOM     49  C   UNL     1      -7.819  -1.087   5.680  1.00  0.00     0.072 C 
BRANCH  49  50
ATOM     50  C   UNL     1      -8.664  -0.980   6.929  1.00  0.00    -0.045 A 
ATOM     51  C   UNL     1      -9.724  -0.062   6.981  1.00  0.00     0.007 A 
ATOM     52  C   UNL     1      -8.394  -1.772   8.052  1.00  0.00     0.007 A 
ATOM     53  C   UNL     1     -10.502   0.054   8.132  1.00  0.00     0.046 A 
ATOM     54  C   UNL     1      -9.172  -1.655   9.206  1.00  0.00     0.046 A 
ATOM     55  C   UNL     1     -10.221  -0.742   9.236  1.00  0.00     0.115 A 
BRANCH  55  56
ATOM     56  O   UNL     1     -11.004  -0.596  10.342  1.00  0.00    -0.508 OA
ATOM     57  H   UNL     1     -10.803   0.262  10.748  1.00  0.00     0.293 HD
ENDBRANCH  55  56
ENDBRANCH  49  50
ENDBRANCH  48  49
BRANCH  48  58
ATOM     58  C   UNL     1      -7.755  -0.983   3.172  1.00  0.00     0.326 C 
ATOM     59  O   UNL     1      -6.587  -1.321   3.067  1.00  0.00    -0.250 OA
BRANCH  58  60
ATOM     60  O   UNL     1      -8.374  -0.402   2.114  1.00  0.00    -0.480 OA
ATOM     61  H   UNL     1      -8.688  -1.169   1.587  1.00  0.00     0.296 HD
ENDBRANCH  58  60
ENDBRANCH  48  58
ENDBRANCH  46  48
ENDBRANCH  34  44
ENDBRANCH  32  34
ENDBRANCH  25  30
ENDBRANCH  23  25
ENDBRANCH   2  23
TORSDOF 28
ENDMDL
MODEL 39
REMARK VINA RESULT:    -5.868     14.260     19.648
REMARK INTER + INTRA:         -19.639
REMARK INTER:                 -12.888
REMARK INTRA:                  -6.751
REMARK UNBOUND:                -5.023
REMARK SMILES CCCCCCC[C@H](N)[C@H](O)C(=O)N[C@H](C)C(=O)N(C)[C@H](CC(C)C)C(=O)N[C@@H](Cc1ccc(O)cc1)C(=O)N[C@@H](Cc1ccc(O)cc1)C(=O)O
REMARK SMILES IDX 18 1 17 2 15 3 16 4 14 5 12 6 13 7 10 9 11 10 8 12 9 13 7 16
REMARK SMILES IDX 6 17 5 18 4 19 3 20 2 21 1 22 19 23 20 24 21 25 22 26 23 27
REMARK SMILES IDX 24 28 25 29 26 30 27 31 28 32 29 34 30 35 31 36 32 37 37 38
REMARK SMILES IDX 33 39 36 40 34 41 35 42 38 44 39 45 40 46 41 48 42 49 43 50
REMARK SMILES IDX 44 51 49 52 45 53 48 54 46 55 47 56 50 58 51 59 52 60
REMARK H PARENT 14 8 11 11 9 14 9 15 28 33 35 43 40 47 47 57 52 61
ROOT
ATOM      1  O   UNL     1       6.292   8.126  10.469  1.00  0.00    -0.272 OA
ATOM      2  C   UNL     1       7.255   7.345  10.489  1.00  0.00     0.245 C 
ENDROOT
BRANCH   2   3
ATOM      3  C   UNL     1       7.157   6.070  11.363  1.00  0.00     0.168 C 
ATOM      4  C   UNL     1       8.048   6.187  12.595  1.00  0.00     0.041 C 
BRANCH   3   5
ATOM      5  N   UNL     1       5.802   5.670  11.710  1.00  0.00    -0.342 N 
ATOM      6  C   UNL     1       5.423   4.345  11.757  1.00  0.00     0.251 C 
ATOM      7  O   UNL     1       6.173   3.417  11.474  1.00  0.00    -0.272 OA
ATOM      8  H   UNL     1       5.081   6.354  11.931  1.00  0.00     0.164 HD
BRANCH   6   9
ATOM      9  C   UNL     1       3.991   4.155  12.284  1.00  0.00     0.219 C 
BRANCH   9  10
ATOM     10  O   UNL     1       3.232   5.370  12.273  1.00  0.00    -0.382 OA
ATOM     11  H   UNL     1       3.835   6.022  12.693  1.00  0.00     0.211 HD
ENDBRANCH   9  10
BRANCH   9  12
ATOM     12  C   UNL     1       3.222   3.019  11.559  1.00  0.00     0.089 C 
BRANCH  12  13
ATOM     13  N   UNL     1       3.708   1.720  12.079  1.00  0.00    -0.325 NA
ATOM     14  H   UNL     1       3.156   0.966  11.666  1.00  0.00     0.119 HD
ATOM     15  H   UNL     1       3.516   1.673  13.083  1.00  0.00     0.119 HD
ENDBRANCH  12  13
BRANCH  12  16
ATOM     16  C   UNL     1       1.678   3.083  11.647  1.00  0.00     0.022 C 
BRANCH  16  17
ATOM     17  C   UNL     1       0.844   2.022  10.916  1.00  0.00     0.002 C 
BRANCH  17  18
ATOM     18  C   UNL     1       0.690   2.245   9.413  1.00  0.00     0.000 C 
BRANCH  18  19
ATOM     19  C   UNL     1      -0.598   1.657   8.823  1.00  0.00    -0.000 C 
BRANCH  19  20
ATOM     20  C   UNL     1      -1.433   2.631   7.986  1.00  0.00    -0.000 C 
BRANCH  20  21
ATOM     21  C   UNL     1      -0.820   2.922   6.614  1.00  0.00    -0.003 C 
ATOM     22  C   UNL     1      -0.354   1.644   5.933  1.00  0.00     0.004 C 
ENDBRANCH  20  21
ENDBRANCH  19  20
ENDBRANCH  18  19
ENDBRANCH  17  18
ENDBRANCH  16  17
ENDBRANCH  12  16
ENDBRANCH   9  12
ENDBRANCH   6   9
ENDBRANCH   3   5
ENDBRANCH   2   3
BRANCH   2  23
ATOM     23  N   UNL     1       8.342   7.558   9.648  1.00  0.00    -0.332 N 
ATOM     24  C   UNL     1       9.549   8.279  10.024  1.00  0.00     0.147 C 
BRANCH  23  25
ATOM     25  C   UNL     1       8.384   6.926   8.301  1.00  0.00     0.174 C 
BRANCH  25  26
ATOM     26  C   UNL     1       9.825   6.699   7.786  1.00  0.00     0.038 C 
BRANCH  26  27
ATOM     27  C   UNL     1      10.226   5.246   7.447  1.00  0.00    -0.015 C 
ATOM     28  C   UNL     1      11.492   4.803   8.181  1.00  0.00     0.007 C 
ATOM     29  C   UNL     1       9.100   4.239   7.662  1.00  0.00     0.007 C 
ENDBRANCH  26  27
ENDBRANCH  25  26
BRANCH  25  30
ATOM     30  C   UNL     1       7.489   7.713   7.315  1.00  0.00     0.243 C 
ATOM     31  O   UNL     1       7.519   8.940   7.249  1.00  0.00    -0.273 OA
ATOM     32  N   UNL     1       6.660   6.953   6.531  1.00  0.00    -0.342 N 
ATOM     33  H   UNL     1       6.794   5.938   6.543  1.00  0.00     0.164 HD
BRANCH  32  34
ATOM     34  C   UNL     1       5.724   7.528   5.561  1.00  0.00     0.175 C 
BRANCH  34  35
ATOM     35  C   UNL     1       5.746   6.752   4.235  1.00  0.00     0.070 C 
BRANCH  35  36
ATOM     36  C   UNL     1       6.942   5.835   4.114  1.00  0.00    -0.045 A 
ATOM     37  C   UNL     1       6.796   4.458   4.341  1.00  0.00     0.007 A 
ATOM     38  C   UNL     1       8.208   6.343   3.797  1.00  0.00     0.007 A 
ATOM     39  C   UNL     1       7.897   3.606   4.245  1.00  0.00     0.046 A 
ATOM     40  C   UNL     1       9.311   5.491   3.702  1.00  0.00     0.046 A 
ATOM     41  C   UNL     1       9.144   4.128   3.926  1.00  0.00     0.115 A 
BRANCH  41  42
ATOM     42  O   UNL     1      10.194   3.262   3.845  1.00  0.00    -0.508 OA
ATOM     43  H   UNL     1      10.855   3.640   3.241  1.00  0.00     0.293 HD
ENDBRANCH  41  42
ENDBRANCH  35  36
ENDBRANCH  34  35
BRANCH  34  44
ATOM     44  C   UNL     1       4.318   7.540   6.201  1.00  0.00     0.243 C 
ATOM     45  O   UNL     1       3.409   8.294   5.865  1.00  0.00    -0.273 OA
ATOM     46  N   UNL     1       4.205   6.704   7.291  1.00  0.00    -0.341 N 
ATOM     47  H   UNL     1       5.022   6.185   7.603  1.00  0.00     0.164 HD
BRANCH  46  48
ATOM     48  C   UNL     1       2.989   6.596   8.101  1.00  0.00     0.196 C 
BRANCH  48  49
ATOM     49  C   UNL     1       2.867   5.205   8.746  1.00  0.00     0.072 C 
BRANCH  49  50
ATOM     50  C   UNL     1       3.623   4.141   7.982  1.00  0.00    -0.045 A 
ATOM     51  C   UNL     1       2.959   3.369   7.018  1.00  0.00     0.007 A 
ATOM     52  C   UNL     1       4.978   3.897   8.237  1.00  0.00     0.007 A 
ATOM     53  C   UNL     1       3.642   2.376   6.316  1.00  0.00     0.046 A 
ATOM     54  C   UNL     1       5.662   2.901   7.535  1.00  0.00     0.046 A 
ATOM     55  C   UNL     1       4.987   2.150   6.579  1.00  0.00     0.115 A 
BRANCH  55  56
ATOM     56  O   UNL     1       5.618   1.169   5.873  1.00  0.00    -0.508 OA
ATOM     57  H   UNL     1       4.972   0.473   5.671  1.00  0.00     0.293 HD
ENDBRANCH  55  56
ENDBRANCH  49  50
ENDBRANCH  48  49
BRANCH  48  58
ATOM     58  C   UNL     1       3.022   7.671   9.197  1.00  0.00     0.326 C 
ATOM     59  O   UNL     1       2.557   8.797   9.141  1.00  0.00    -0.250 OA
BRANCH  58  60
ATOM     60  O   UNL     1       3.638   7.264  10.336  1.00  0.00    -0.480 OA
ATOM     61  H   UNL     1       4.574   7.523  10.192  1.00  0.00     0.296 HD
ENDBRANCH  58  60
ENDBRANCH  48  58
ENDBRANCH  46  48
ENDBRANCH  34  44
ENDBRANCH  32  34
ENDBRANCH  25  30
ENDBRANCH  23  25
ENDBRANCH   2  23
TORSDOF 28
ENDMDL
MODEL 40
REMARK VINA RESULT:    -5.864      1.936      4.922
REMARK INTER + INTRA:         -19.629
REMARK INTER:                 -14.387
REMARK INTRA:                  -5.242
REMARK UNBOUND:                -5.023
REMARK SMILES CCCCCCC[C@H](N)[C@H](O)C(=O)N[C@H](C)C(=O)N(C)[C@H](CC(C)C)C(=O)N[C@@H](Cc1ccc(O)cc1)C(=O)N[C@@H](Cc1ccc(O)cc1)C(=O)O
REMARK SMILES IDX 18 1 17 2 15 3 16 4 14 5 12 6 13 7 10 9 11 10 8 12 9 13 7 16
REMARK SMILES IDX 6 17 5 18 4 19 3 20 2 21 1 22 19 23 20 24 21 25 22 26 23 27
REMARK SMILES IDX 24 28 25 29 26 30 27 31 28 32 29 34 30 35 31 36 32 37 37 38
REMARK SMILES IDX 33 39 36 40 34 41 35 42 38 44 39 45 40 46 41 48 42 49 43 50
REMARK SMILES IDX 44 51 49 52 45 53 48 54 46 55 47 56 50 58 51 59 52 60
REMARK H PARENT 14 8 11 11 9 14 9 15 28 33 35 43 40 47 47 57 52 61
ROOT
ATOM      1  O   UNL     1      -8.207  -5.424   3.739  1.00  0.00    -0.272 OA
ATOM      2  C   UNL     1      -7.774  -4.548   4.502  1.00  0.00     0.245 C 
ENDROOT
BRANCH   2   3
ATOM      3  C   UNL     1      -8.328  -4.484   5.947  1.00  0.00     0.168 C 
ATOM      4  C   UNL     1      -7.562  -5.432   6.864  1.00  0.00     0.041 C 
BRANCH   3   5
ATOM      5  N   UNL     1      -8.421  -3.145   6.508  1.00  0.00    -0.342 N 
ATOM      6  C   UNL     1      -9.622  -2.472   6.589  1.00  0.00     0.251 C 
ATOM      7  O   UNL     1     -10.681  -2.923   6.165  1.00  0.00    -0.272 OA
ATOM      8  H   UNL     1      -7.604  -2.654   6.860  1.00  0.00     0.164 HD
BRANCH   6   9
ATOM      9  C   UNL     1      -9.505  -1.138   7.343  1.00  0.00     0.219 C 
BRANCH   9  10
ATOM     10  O   UNL     1      -9.772  -0.005   6.507  1.00  0.00    -0.382 OA
ATOM     11  H   UNL     1      -9.309   0.732   6.962  1.00  0.00     0.211 HD
ENDBRANCH   9  10
BRANCH   9  12
ATOM     12  C   UNL     1     -10.370  -1.088   8.630  1.00  0.00     0.089 C 
BRANCH  12  13
ATOM     13  N   UNL     1     -10.335  -2.424   9.268  1.00  0.00    -0.325 NA
ATOM     14  H   UNL     1      -9.369  -2.659   9.503  1.00  0.00     0.119 HD
ATOM     15  H   UNL     1     -10.622  -3.126   8.583  1.00  0.00     0.119 HD
ENDBRANCH  12  13
BRANCH  12  16
ATOM     16  C   UNL     1      -9.991   0.004   9.660  1.00  0.00     0.022 C 
BRANCH  16  17
ATOM     17  C   UNL     1      -8.834  -0.258  10.633  1.00  0.00     0.002 C 
BRANCH  17  18
ATOM     18  C   UNL     1      -7.516  -0.660   9.975  1.00  0.00     0.000 C 
BRANCH  18  19
ATOM     19  C   UNL     1      -6.269  -0.194  10.737  1.00  0.00    -0.000 C 
BRANCH  19  20
ATOM     20  C   UNL     1      -6.373   1.200  11.363  1.00  0.00    -0.000 C 
BRANCH  20  21
ATOM     21  C   UNL     1      -5.997   1.220  12.847  1.00  0.00    -0.003 C 
ATOM     22  C   UNL     1      -7.199   0.919  13.729  1.00  0.00     0.004 C 
ENDBRANCH  20  21
ENDBRANCH  19  20
ENDBRANCH  18  19
ENDBRANCH  17  18
ENDBRANCH  16  17
ENDBRANCH  12  16
ENDBRANCH   9  12
ENDBRANCH   6   9
ENDBRANCH   3   5
ENDBRANCH   2   3
BRANCH   2  23
ATOM     23  N   UNL     1      -6.726  -3.728   4.097  1.00  0.00    -0.332 N 
ATOM     24  C   UNL     1      -5.360  -3.830   4.589  1.00  0.00     0.147 C 
BRANCH  23  25
ATOM     25  C   UNL     1      -6.925  -2.742   3.000  1.00  0.00     0.174 C 
BRANCH  25  26
ATOM     26  C   UNL     1      -5.732  -1.771   2.839  1.00  0.00     0.038 C 
BRANCH  26  27
ATOM     27  C   UNL     1      -5.573  -1.078   1.467  1.00  0.00    -0.015 C 
ATOM     28  C   UNL     1      -5.869  -2.019   0.299  1.00  0.00     0.007 C 
ATOM     29  C   UNL     1      -6.384   0.208   1.339  1.00  0.00     0.007 C 
ENDBRANCH  26  27
ENDBRANCH  25  26
BRANCH  25  30
ATOM     30  C   UNL     1      -8.287  -2.031   3.165  1.00  0.00     0.243 C 
ATOM     31  O   UNL     1      -8.443  -1.100   3.954  1.00  0.00    -0.273 OA
ATOM     32  N   UNL     1      -9.305  -2.509   2.380  1.00  0.00    -0.342 N 
ATOM     33  H   UNL     1      -9.064  -3.185   1.652  1.00  0.00     0.164 HD
BRANCH  32  34
ATOM     34  C   UNL     1     -10.669  -1.975   2.423  1.00  0.00     0.175 C 
BRANCH  34  35
ATOM     35  C   UNL     1     -10.975  -1.124   1.181  1.00  0.00     0.070 C 
BRANCH  35  36
ATOM     36  C   UNL     1     -11.545  -1.937   0.040  1.00  0.00    -0.045 A 
ATOM     37  C   UNL     1     -10.706  -2.774  -0.712  1.00  0.00     0.007 A 
ATOM     38  C   UNL     1     -12.902  -1.852  -0.296  1.00  0.00     0.007 A 
ATOM     39  C   UNL     1     -11.220  -3.518  -1.774  1.00  0.00     0.046 A 
ATOM     40  C   UNL     1     -13.417  -2.596  -1.361  1.00  0.00     0.046 A 
ATOM     41  C   UNL     1     -12.570  -3.424  -2.090  1.00  0.00     0.115 A 
BRANCH  41  42
ATOM     42  O   UNL     1     -13.031  -4.164  -3.138  1.00  0.00    -0.508 OA
ATOM     43  H   UNL     1     -12.958  -3.629  -3.945  1.00  0.00     0.293 HD
ENDBRANCH  41  42
ENDBRANCH  35  36
ENDBRANCH  34  35
BRANCH  34  44
ATOM     44  C   UNL     1     -11.645  -3.165   2.562  1.00  0.00     0.243 C 
ATOM     45  O   UNL     1     -12.847  -3.053   2.786  1.00  0.00    -0.273 OA
ATOM     46  N   UNL     1     -11.019  -4.393   2.542  1.00  0.00    -0.341 N 
ATOM     47  H   UNL     1     -10.005  -4.430   2.471  1.00  0.00     0.164 HD
BRANCH  46  48
ATOM     48  C   UNL     1     -11.728  -5.662   2.725  1.00  0.00     0.196 C 
BRANCH  48  49
ATOM     49  C   UNL     1     -10.966  -6.828   2.074  1.00  0.00     0.072 C 
BRANCH  49  50
ATOM     50  C   UNL     1     -11.203  -6.918   0.583  1.00  0.00    -0.045 A 
ATOM     51  C   UNL     1     -12.503  -6.788   0.073  1.00  0.00     0.007 A 
ATOM     52  C   UNL     1     -10.143  -7.150  -0.303  1.00  0.00     0.007 A 
ATOM     53  C   UNL     1     -12.735  -6.883  -1.299  1.00  0.00     0.046 A 
ATOM     54  C   UNL     1     -10.376  -7.246  -1.677  1.00  0.00     0.046 A 
ATOM     55  C   UNL     1     -11.671  -7.110  -2.163  1.00  0.00     0.115 A 
BRANCH  55  56
ATOM     56  O   UNL     1     -11.941  -7.198  -3.497  1.00  0.00    -0.508 OA
ATOM     57  H   UNL     1     -11.351  -7.863  -3.885  1.00  0.00     0.293 HD
ENDBRANCH  55  56
ENDBRANCH  49  50
ENDBRANCH  48  49
BRANCH  48  58
ATOM     58  C   UNL     1     -11.894  -5.930   4.227  1.00  0.00     0.326 C 
ATOM     59  O   UNL     1     -11.094  -6.471   4.974  1.00  0.00    -0.250 OA
BRANCH  58  60
ATOM     60  O   UNL     1     -13.072  -5.483   4.730  1.00  0.00    -0.480 OA
ATOM     61  H   UNL     1     -13.677  -5.522   3.958  1.00  0.00     0.296 HD
ENDBRANCH  58  60
ENDBRANCH  48  58
ENDBRANCH  46  48
ENDBRANCH  34  44
ENDBRANCH  32  34
ENDBRANCH  25  30
ENDBRANCH  23  25
ENDBRANCH   2  23
TORSDOF 28
ENDMDL
MODEL 41
REMARK VINA RESULT:    -5.840      3.744     10.602
REMARK INTER + INTRA:         -19.568
REMARK INTER:                 -15.221
REMARK INTRA:                  -4.347
REMARK UNBOUND:                -5.023
REMARK SMILES CCCCCCC[C@H](N)[C@H](O)C(=O)N[C@H](C)C(=O)N(C)[C@H](CC(C)C)C(=O)N[C@@H](Cc1ccc(O)cc1)C(=O)N[C@@H](Cc1ccc(O)cc1)C(=O)O
REMARK SMILES IDX 18 1 17 2 15 3 16 4 14 5 12 6 13 7 10 9 11 10 8 12 9 13 7 16
REMARK SMILES IDX 6 17 5 18 4 19 3 20 2 21 1 22 19 23 20 24 21 25 22 26 23 27
REMARK SMILES IDX 24 28 25 29 26 30 27 31 28 32 29 34 30 35 31 36 32 37 37 38
REMARK SMILES IDX 33 39 36 40 34 41 35 42 38 44 39 45 40 46 41 48 42 49 43 50
REMARK SMILES IDX 44 51 49 52 45 53 48 54 46 55 47 56 50 58 51 59 52 60
REMARK H PARENT 14 8 11 11 9 14 9 15 28 33 35 43 40 47 47 57 52 61
ROOT
ATOM      1  O   UNL     1      -7.435  -3.862   6.409  1.00  0.00    -0.272 OA
ATOM      2  C   UNL     1      -8.278  -3.204   7.037  1.00  0.00     0.245 C 
ENDROOT
BRANCH   2   3
ATOM      3  C   UNL     1      -9.316  -2.376   6.239  1.00  0.00     0.168 C 
ATOM      4  C   UNL     1      -8.637  -1.240   5.482  1.00  0.00     0.041 C 
BRANCH   3   5
ATOM      5  N   UNL     1     -10.188  -3.157   5.376  1.00  0.00    -0.342 N 
ATOM      6  C   UNL     1     -11.496  -3.429   5.716  1.00  0.00     0.251 C 
ATOM      7  O   UNL     1     -12.008  -3.075   6.774  1.00  0.00    -0.272 OA
ATOM      8  H   UNL     1      -9.865  -3.535   4.488  1.00  0.00     0.164 HD
BRANCH   6   9
ATOM      9  C   UNL     1     -12.266  -4.144   4.595  1.00  0.00     0.219 C 
BRANCH   9  10
ATOM     10  O   UNL     1     -12.628  -3.264   3.524  1.00  0.00    -0.382 OA
ATOM     11  H   UNL     1     -12.798  -3.872   2.772  1.00  0.00     0.211 HD
ENDBRANCH   9  10
BRANCH   9  12
ATOM     12  C   UNL     1     -11.528  -5.397   4.053  1.00  0.00     0.089 C 
BRANCH  12  13
ATOM     13  N   UNL     1     -11.194  -6.274   5.198  1.00  0.00    -0.325 NA
ATOM     14  H   UNL     1     -11.009  -5.697   6.020  1.00  0.00     0.119 HD
ATOM     15  H   UNL     1     -10.310  -6.751   5.003  1.00  0.00     0.119 HD
ENDBRANCH  12  13
BRANCH  12  16
ATOM     16  C   UNL     1     -12.275  -6.205   2.964  1.00  0.00     0.022 C 
BRANCH  16  17
ATOM     17  C   UNL     1     -11.461  -6.931   1.884  1.00  0.00     0.002 C 
BRANCH  17  18
ATOM     18  C   UNL     1     -11.941  -6.701   0.452  1.00  0.00     0.000 C 
BRANCH  18  19
ATOM     19  C   UNL     1     -11.559  -7.823  -0.522  1.00  0.00    -0.000 C 
BRANCH  19  20
ATOM     20  C   UNL     1     -11.674  -7.462  -2.006  1.00  0.00    -0.000 C 
BRANCH  20  21
ATOM     21  C   UNL     1     -12.947  -6.678  -2.335  1.00  0.00    -0.003 C 
ATOM     22  C   UNL     1     -12.622  -5.310  -2.914  1.00  0.00     0.004 C 
ENDBRANCH  20  21
ENDBRANCH  19  20
ENDBRANCH  18  19
ENDBRANCH  17  18
ENDBRANCH  16  17
ENDBRANCH  12  16
ENDBRANCH   9  12
ENDBRANCH   6   9
ENDBRANCH   3   5
ENDBRANCH   2   3
BRANCH   2  23
ATOM     23  N   UNL     1      -8.356  -3.313   8.422  1.00  0.00    -0.332 N 
ATOM     24  C   UNL     1      -7.206  -3.417   9.307  1.00  0.00     0.147 C 
BRANCH  23  25
ATOM     25  C   UNL     1      -9.670  -3.198   9.112  1.00  0.00     0.174 C 
BRANCH  25  26
ATOM     26  C   UNL     1      -9.657  -2.165  10.263  1.00  0.00     0.038 C 
BRANCH  26  27
ATOM     27  C   UNL     1     -10.235  -0.766   9.954  1.00  0.00    -0.015 C 
ATOM     28  C   UNL     1      -9.346   0.037   9.004  1.00  0.00     0.007 C 
ATOM     29  C   UNL     1     -11.673  -0.802   9.442  1.00  0.00     0.007 C 
ENDBRANCH  26  27
ENDBRANCH  25  26
BRANCH  25  30
ATOM     30  C   UNL     1     -10.171  -4.597   9.538  1.00  0.00     0.243 C 
ATOM     31  O   UNL     1     -10.327  -4.899  10.720  1.00  0.00    -0.273 OA
ATOM     32  N   UNL     1     -10.422  -5.474   8.514  1.00  0.00    -0.342 N 
ATOM     33  H   UNL     1     -10.405  -5.106   7.560  1.00  0.00     0.164 HD
BRANCH  32  34
ATOM     34  C   UNL     1     -10.876  -6.850   8.731  1.00  0.00     0.175 C 
BRANCH  34  35
ATOM     35  C   UNL     1     -10.074  -7.535   9.849  1.00  0.00     0.070 C 
BRANCH  35  36
ATOM     36  C   UNL     1      -9.967  -9.031   9.660  1.00  0.00    -0.045 A 
ATOM     37  C   UNL     1     -10.942  -9.879  10.207  1.00  0.00     0.007 A 
ATOM     38  C   UNL     1      -8.890  -9.593   8.962  1.00  0.00     0.007 A 
ATOM     39  C   UNL     1     -10.845 -11.261  10.050  1.00  0.00     0.046 A 
ATOM     40  C   UNL     1      -8.791 -10.977   8.805  1.00  0.00     0.046 A 
ATOM     41  C   UNL     1      -9.772 -11.800   9.350  1.00  0.00     0.115 A 
BRANCH  41  42
ATOM     42  O   UNL     1      -9.712 -13.156   9.222  1.00  0.00    -0.508 OA
ATOM     43  H   UNL     1      -8.802 -13.400   8.985  1.00  0.00     0.293 HD
ENDBRANCH  41  42
ENDBRANCH  35  36
ENDBRANCH  34  35
BRANCH  34  44
ATOM     44  C   UNL     1     -12.388  -6.811   9.048  1.00  0.00     0.243 C 
ATOM     45  O   UNL     1     -13.270  -6.657   8.207  1.00  0.00    -0.273 OA
ATOM     46  N   UNL     1     -12.667  -6.834  10.398  1.00  0.00    -0.341 N 
ATOM     47  H   UNL     1     -11.896  -6.845  11.062  1.00  0.00     0.164 HD
BRANCH  46  48
ATOM     48  C   UNL     1     -14.023  -6.738  10.943  1.00  0.00     0.196 C 
BRANCH  48  49
ATOM     49  C   UNL     1     -14.238  -7.741  12.090  1.00  0.00     0.072 C 
BRANCH  49  50
ATOM     50  C   UNL     1     -14.330  -9.169  11.604  1.00  0.00    -0.045 A 
ATOM     51  C   UNL     1     -14.034 -10.225  12.478  1.00  0.00     0.007 A 
ATOM     52  C   UNL     1     -14.688  -9.459  10.281  1.00  0.00     0.007 A 
ATOM     53  C   UNL     1     -14.102 -11.547  12.037  1.00  0.00     0.046 A 
ATOM     54  C   UNL     1     -14.755 -10.783   9.839  1.00  0.00     0.046 A 
ATOM     55  C   UNL     1     -14.463 -11.816  10.722  1.00  0.00     0.115 A 
BRANCH  55  56
ATOM     56  O   UNL     1     -14.516 -13.121  10.331  1.00  0.00    -0.508 OA
ATOM     57  H   UNL     1     -15.291 -13.533  10.744  1.00  0.00     0.293 HD
ENDBRANCH  55  56
ENDBRANCH  49  50
ENDBRANCH  48  49
BRANCH  48  58
ATOM     58  C   UNL     1     -14.255  -5.311  11.457  1.00  0.00     0.326 C 
ATOM     59  O   UNL     1     -13.482  -4.368  11.395  1.00  0.00    -0.250 OA
BRANCH  58  60
ATOM     60  O   UNL     1     -15.475  -5.130  12.022  1.00  0.00    -0.480 OA
ATOM     61  H   UNL     1     -15.751  -4.249  11.688  1.00  0.00     0.296 HD
ENDBRANCH  58  60
ENDBRANCH  48  58
ENDBRANCH  46  48
ENDBRANCH  34  44
ENDBRANCH  32  34
ENDBRANCH  25  30
ENDBRANCH  23  25
ENDBRANCH   2  23
TORSDOF 28
ENDMDL
MODEL 42
REMARK VINA RESULT:    -5.838      2.278      9.093
REMARK INTER + INTRA:         -19.564
REMARK INTER:                 -13.411
REMARK INTRA:                  -6.154
REMARK UNBOUND:                -5.023
REMARK SMILES CCCCCCC[C@H](N)[C@H](O)C(=O)N[C@H](C)C(=O)N(C)[C@H](CC(C)C)C(=O)N[C@@H](Cc1ccc(O)cc1)C(=O)N[C@@H](Cc1ccc(O)cc1)C(=O)O
REMARK SMILES IDX 18 1 17 2 15 3 16 4 14 5 12 6 13 7 10 9 11 10 8 12 9 13 7 16
REMARK SMILES IDX 6 17 5 18 4 19 3 20 2 21 1 22 19 23 20 24 21 25 22 26 23 27
REMARK SMILES IDX 24 28 25 29 26 30 27 31 28 32 29 34 30 35 31 36 32 37 37 38
REMARK SMILES IDX 33 39 36 40 34 41 35 42 38 44 39 45 40 46 41 48 42 49 43 50
REMARK SMILES IDX 44 51 49 52 45 53 48 54 46 55 47 56 50 58 51 59 52 60
REMARK H PARENT 14 8 11 11 9 14 9 15 28 33 35 43 40 47 47 57 52 61
ROOT
ATOM      1  O   UNL     1     -10.310  -0.553   1.634  1.00  0.00    -0.272 OA
ATOM      2  C   UNL     1      -9.754  -1.466   1.007  1.00  0.00     0.245 C 
ENDROOT
BRANCH   2   3
ATOM      3  C   UNL     1      -8.209  -1.571   1.066  1.00  0.00     0.168 C 
ATOM      4  C   UNL     1      -7.586  -0.215   1.379  1.00  0.00     0.041 C 
BRANCH   3   5
ATOM      5  N   UNL     1      -7.700  -2.616   1.939  1.00  0.00    -0.342 N 
ATOM      6  C   UNL     1      -7.152  -3.779   1.441  1.00  0.00     0.251 C 
ATOM      7  O   UNL     1      -7.089  -4.038   0.244  1.00  0.00    -0.272 OA
ATOM      8  H   UNL     1      -7.730  -2.530   2.953  1.00  0.00     0.164 HD
BRANCH   6   9
ATOM      9  C   UNL     1      -6.552  -4.672   2.539  1.00  0.00     0.219 C 
BRANCH   9  10
ATOM     10  O   UNL     1      -5.800  -3.929   3.506  1.00  0.00    -0.382 OA
ATOM     11  H   UNL     1      -6.054  -4.339   4.361  1.00  0.00     0.211 HD
ENDBRANCH   9  10
BRANCH   9  12
ATOM     12  C   UNL     1      -7.606  -5.572   3.235  1.00  0.00     0.089 C 
BRANCH  12  13
ATOM     13  N   UNL     1      -8.378  -4.739   4.186  1.00  0.00    -0.325 NA
ATOM     14  H   UNL     1      -7.747  -4.074   4.638  1.00  0.00     0.119 HD
ATOM     15  H   UNL     1      -8.724  -5.334   4.942  1.00  0.00     0.119 HD
ENDBRANCH  12  13
BRANCH  12  16
ATOM     16  C   UNL     1      -8.569  -6.338   2.297  1.00  0.00     0.022 C 
BRANCH  16  17
ATOM     17  C   UNL     1      -8.259  -7.798   1.938  1.00  0.00     0.002 C 
BRANCH  17  18
ATOM     18  C   UNL     1      -7.113  -7.989   0.947  1.00  0.00     0.000 C 
BRANCH  18  19
ATOM     19  C   UNL     1      -7.563  -8.096  -0.516  1.00  0.00    -0.000 C 
BRANCH  19  20
ATOM     20  C   UNL     1      -8.848  -8.898  -0.743  1.00  0.00    -0.000 C 
BRANCH  20  21
ATOM     21  C   UNL     1      -9.778  -8.260  -1.778  1.00  0.00    -0.003 C 
ATOM     22  C   UNL     1     -11.082  -9.032  -1.902  1.00  0.00     0.004 C 
ENDBRANCH  20  21
ENDBRANCH  19  20
ENDBRANCH  18  19
ENDBRANCH  17  18
ENDBRANCH  16  17
ENDBRANCH  12  16
ENDBRANCH   9  12
ENDBRANCH   6   9
ENDBRANCH   3   5
ENDBRANCH   2   3
BRANCH   2  23
ATOM     23  N   UNL     1     -10.517  -2.440   0.372  1.00  0.00    -0.332 N 
ATOM     24  C   UNL     1     -10.995  -2.350  -1.000  1.00  0.00     0.147 C 
BRANCH  23  25
ATOM     25  C   UNL     1     -10.792  -3.738   1.047  1.00  0.00     0.174 C 
BRANCH  25  26
ATOM     26  C   UNL     1     -11.097  -4.882   0.052  1.00  0.00     0.038 C 
BRANCH  26  27
ATOM     27  C   UNL     1     -12.328  -5.765   0.356  1.00  0.00    -0.015 C 
ATOM     28  C   UNL     1     -13.102  -6.142  -0.907  1.00  0.00     0.007 C 
ATOM     29  C   UNL     1     -11.996  -7.009   1.174  1.00  0.00     0.007 C 
ENDBRANCH  26  27
ENDBRANCH  25  26
BRANCH  25  30
ATOM     30  C   UNL     1     -11.878  -3.553   2.133  1.00  0.00     0.243 C 
ATOM     31  O   UNL     1     -12.914  -2.927   1.916  1.00  0.00    -0.273 OA
ATOM     32  N   UNL     1     -11.604  -4.125   3.349  1.00  0.00    -0.342 N 
ATOM     33  H   UNL     1     -10.793  -4.746   3.408  1.00  0.00     0.164 HD
BRANCH  32  34
ATOM     34  C   UNL     1     -12.504  -4.029   4.501  1.00  0.00     0.175 C 
BRANCH  34  35
ATOM     35  C   UNL     1     -12.945  -5.419   4.984  1.00  0.00     0.070 C 
BRANCH  35  36
ATOM     36  C   UNL     1     -11.976  -6.028   5.973  1.00  0.00    -0.045 A 
ATOM     37  C   UNL     1     -12.282  -6.035   7.342  1.00  0.00     0.007 A 
ATOM     38  C   UNL     1     -10.757  -6.570   5.545  1.00  0.00     0.007 A 
ATOM     39  C   UNL     1     -11.389  -6.582   8.264  1.00  0.00     0.046 A 
ATOM     40  C   UNL     1      -9.861  -7.117   6.467  1.00  0.00     0.046 A 
ATOM     41  C   UNL     1     -10.187  -7.119   7.819  1.00  0.00     0.115 A 
BRANCH  41  42
ATOM     42  O   UNL     1      -9.340  -7.641   8.752  1.00  0.00    -0.508 OA
ATOM     43  H   UNL     1      -8.787  -6.921   9.098  1.00  0.00     0.293 HD
ENDBRANCH  41  42
ENDBRANCH  35  36
ENDBRANCH  34  35
BRANCH  34  44
ATOM     44  C   UNL     1     -11.779  -3.235   5.610  1.00  0.00     0.243 C 
ATOM     45  O   UNL     1     -12.326  -2.784   6.613  1.00  0.00    -0.273 OA
ATOM     46  N   UNL     1     -10.461  -2.956   5.313  1.00  0.00    -0.341 N 
ATOM     47  H   UNL     1     -10.084  -3.250   4.416  1.00  0.00     0.164 HD
BRANCH  46  48
ATOM     48  C   UNL     1      -9.591  -2.159   6.181  1.00  0.00     0.196 C 
BRANCH  48  49
ATOM     49  C   UNL     1      -9.023  -3.004   7.333  1.00  0.00     0.072 C 
BRANCH  49  50
ATOM     50  C   UNL     1      -8.894  -2.221   8.620  1.00  0.00    -0.045 A 
ATOM     51  C   UNL     1      -8.629  -0.845   8.577  1.00  0.00     0.007 A 
ATOM     52  C   UNL     1      -9.015  -2.854   9.864  1.00  0.00     0.007 A 
ATOM     53  C   UNL     1      -8.494  -0.115   9.758  1.00  0.00     0.046 A 
ATOM     54  C   UNL     1      -8.879  -2.123  11.046  1.00  0.00     0.046 A 
ATOM     55  C   UNL     1      -8.621  -0.759  10.983  1.00  0.00     0.115 A 
BRANCH  55  56
ATOM     56  O   UNL     1      -8.481  -0.010  12.114  1.00  0.00    -0.508 OA
ATOM     57  H   UNL     1      -8.255   0.898  11.854  1.00  0.00     0.293 HD
ENDBRANCH  55  56
ENDBRANCH  49  50
ENDBRANCH  48  49
BRANCH  48  58
ATOM     58  C   UNL     1      -8.438  -1.589   5.343  1.00  0.00     0.326 C 
ATOM     59  O   UNL     1      -8.491  -0.672   4.539  1.00  0.00    -0.250 OA
BRANCH  58  60
ATOM     60  O   UNL     1      -7.249  -2.201   5.572  1.00  0.00    -0.480 OA
ATOM     61  H   UNL     1      -6.606  -1.631   5.097  1.00  0.00     0.296 HD
ENDBRANCH  58  60
ENDBRANCH  48  58
ENDBRANCH  46  48
ENDBRANCH  34  44
ENDBRANCH  32  34
ENDBRANCH  25  30
ENDBRANCH  23  25
ENDBRANCH   2  23
TORSDOF 28
ENDMDL
MODEL 43
REMARK VINA RESULT:    -5.818      2.267      9.366
REMARK INTER + INTRA:         -19.513
REMARK INTER:                 -13.930
REMARK INTRA:                  -5.582
REMARK UNBOUND:                -5.023
REMARK SMILES CCCCCCC[C@H](N)[C@H](O)C(=O)N[C@H](C)C(=O)N(C)[C@H](CC(C)C)C(=O)N[C@@H](Cc1ccc(O)cc1)C(=O)N[C@@H](Cc1ccc(O)cc1)C(=O)O
REMARK SMILES IDX 18 1 17 2 15 3 16 4 14 5 12 6 13 7 10 9 11 10 8 12 9 13 7 16
REMARK SMILES IDX 6 17 5 18 4 19 3 20 2 21 1 22 19 23 20 24 21 25 22 26 23 27
REMARK SMILES IDX 24 28 25 29 26 30 27 31 28 32 29 34 30 35 31 36 32 37 37 38
REMARK SMILES IDX 33 39 36 40 34 41 35 42 38 44 39 45 40 46 41 48 42 49 43 50
REMARK SMILES IDX 44 51 49 52 45 53 48 54 46 55 47 56 50 58 51 59 52 60
REMARK H PARENT 14 8 11 11 9 14 9 15 28 33 35 43 40 47 47 57 52 61
ROOT
ATOM      1  O   UNL     1      -6.577  -4.274   5.122  1.00  0.00    -0.272 OA
ATOM      2  C   UNL     1      -6.842  -3.741   4.034  1.00  0.00     0.245 C 
ENDROOT
BRANCH   2   3
ATOM      3  C   UNL     1      -6.589  -4.544   2.734  1.00  0.00     0.168 C 
ATOM      4  C   UNL     1      -5.101  -4.818   2.548  1.00  0.00     0.041 C 
BRANCH   3   5
ATOM      5  N   UNL     1      -7.384  -5.755   2.599  1.00  0.00    -0.342 N 
ATOM      6  C   UNL     1      -8.335  -5.895   1.611  1.00  0.00     0.251 C 
ATOM      7  O   UNL     1      -8.612  -5.010   0.808  1.00  0.00    -0.272 OA
ATOM      8  H   UNL     1      -7.268  -6.545   3.229  1.00  0.00     0.164 HD
BRANCH   6   9
ATOM      9  C   UNL     1      -8.948  -7.304   1.571  1.00  0.00     0.219 C 
BRANCH   9  10
ATOM     10  O   UNL     1     -10.380  -7.284   1.543  1.00  0.00    -0.382 OA
ATOM     11  H   UNL     1     -10.596  -6.331   1.433  1.00  0.00     0.211 HD
ENDBRANCH   9  10
BRANCH   9  12
ATOM     12  C   UNL     1      -8.387  -8.179   0.419  1.00  0.00     0.089 C 
BRANCH  12  13
ATOM     13  N   UNL     1      -7.736  -9.370   1.011  1.00  0.00    -0.325 NA
ATOM     14  H   UNL     1      -8.293  -9.699   1.802  1.00  0.00     0.119 HD
ATOM     15  H   UNL     1      -6.839  -9.090   1.415  1.00  0.00     0.119 HD
ENDBRANCH  12  13
BRANCH  12  16
ATOM     16  C   UNL     1      -9.407  -8.613  -0.661  1.00  0.00     0.022 C 
BRANCH  16  17
ATOM     17  C   UNL     1      -9.124  -8.278  -2.132  1.00  0.00     0.002 C 
BRANCH  17  18
ATOM     18  C   UNL     1      -9.189  -6.792  -2.479  1.00  0.00     0.000 C 
BRANCH  18  19
ATOM     19  C   UNL     1     -10.449  -6.084  -1.962  1.00  0.00    -0.000 C 
BRANCH  19  20
ATOM     20  C   UNL     1     -11.591  -5.967  -2.975  1.00  0.00    -0.000 C 
BRANCH  20  21
ATOM     21  C   UNL     1     -12.941  -6.417  -2.411  1.00  0.00    -0.003 C 
ATOM     22  C   UNL     1     -12.824  -6.828  -0.952  1.00  0.00     0.004 C 
ENDBRANCH  20  21
ENDBRANCH  19  20
ENDBRANCH  18  19
ENDBRANCH  17  18
ENDBRANCH  16  17
ENDBRANCH  12  16
ENDBRANCH   9  12
ENDBRANCH   6   9
ENDBRANCH   3   5
ENDBRANCH   2   3
BRANCH   2  23
ATOM     23  N   UNL     1      -7.467  -2.499   4.002  1.00  0.00    -0.332 N 
ATOM     24  C   UNL     1      -7.734  -1.679   5.174  1.00  0.00     0.147 C 
BRANCH  23  25
ATOM     25  C   UNL     1      -7.799  -1.858   2.700  1.00  0.00     0.174 C 
BRANCH  25  26
ATOM     26  C   UNL     1      -7.079  -0.505   2.495  1.00  0.00     0.038 C 
BRANCH  26  27
ATOM     27  C   UNL     1      -5.628  -0.557   1.967  1.00  0.00    -0.015 C 
ATOM     28  C   UNL     1      -4.622  -0.926   3.057  1.00  0.00     0.007 C 
ATOM     29  C   UNL     1      -5.456  -1.462   0.749  1.00  0.00     0.007 C 
ENDBRANCH  26  27
ENDBRANCH  25  26
BRANCH  25  30
ATOM     30  C   UNL     1      -9.332  -1.780   2.520  1.00  0.00     0.243 C 
ATOM     31  O   UNL     1      -9.904  -0.720   2.270  1.00  0.00    -0.273 OA
ATOM     32  N   UNL     1     -10.007  -2.965   2.664  1.00  0.00    -0.342 N 
ATOM     33  H   UNL     1      -9.452  -3.822   2.730  1.00  0.00     0.164 HD
BRANCH  32  34
ATOM     34  C   UNL     1     -11.465  -3.075   2.554  1.00  0.00     0.175 C 
BRANCH  34  35
ATOM     35  C   UNL     1     -11.868  -4.094   1.478  1.00  0.00     0.070 C 
BRANCH  35  36
ATOM     36  C   UNL     1     -12.210  -3.444   0.156  1.00  0.00    -0.045 A 
ATOM     37  C   UNL     1     -11.193  -2.893  -0.638  1.00  0.00     0.007 A 
ATOM     38  C   UNL     1     -13.538  -3.362  -0.283  1.00  0.00     0.007 A 
ATOM     39  C   UNL     1     -11.500  -2.279  -1.853  1.00  0.00     0.046 A 
ATOM     40  C   UNL     1     -13.846  -2.746  -1.498  1.00  0.00     0.046 A 
ATOM     41  C   UNL     1     -12.823  -2.211  -2.273  1.00  0.00     0.115 A 
BRANCH  41  42
ATOM     42  O   UNL     1     -13.080  -1.600  -3.465  1.00  0.00    -0.508 OA
ATOM     43  H   UNL     1     -13.701  -0.869  -3.304  1.00  0.00     0.293 HD
ENDBRANCH  41  42
ENDBRANCH  35  36
ENDBRANCH  34  35
BRANCH  34  44
ATOM     44  C   UNL     1     -12.022  -3.453   3.945  1.00  0.00     0.243 C 
ATOM     45  O   UNL     1     -13.193  -3.312   4.285  1.00  0.00    -0.273 OA
ATOM     46  N   UNL     1     -11.048  -3.852   4.837  1.00  0.00    -0.341 N 
ATOM     47  H   UNL     1     -10.075  -3.841   4.542  1.00  0.00     0.164 HD
BRANCH  46  48
ATOM     48  C   UNL     1     -11.326  -4.194   6.233  1.00  0.00     0.196 C 
BRANCH  48  49
ATOM     49  C   UNL     1     -12.303  -3.193   6.872  1.00  0.00     0.072 C 
BRANCH  49  50
ATOM     50  C   UNL     1     -11.641  -2.312   7.906  1.00  0.00    -0.045 A 
ATOM     51  C   UNL     1     -10.627  -1.422   7.521  1.00  0.00     0.007 A 
ATOM     52  C   UNL     1     -12.008  -2.383   9.256  1.00  0.00     0.007 A 
ATOM     53  C   UNL     1      -9.999  -0.614   8.468  1.00  0.00     0.046 A 
ATOM     54  C   UNL     1     -11.379  -1.575  10.205  1.00  0.00     0.046 A 
ATOM     55  C   UNL     1     -10.380  -0.695   9.802  1.00  0.00     0.115 A 
BRANCH  55  56
ATOM     56  O   UNL     1      -9.740   0.110  10.697  1.00  0.00    -0.508 OA
ATOM     57  H   UNL     1      -9.580   0.969  10.275  1.00  0.00     0.293 HD
ENDBRANCH  55  56
ENDBRANCH  49  50
ENDBRANCH  48  49
BRANCH  48  58
ATOM     58  C   UNL     1     -11.924  -5.607   6.292  1.00  0.00     0.326 C 
ATOM     59  O   UNL     1     -13.096  -5.907   6.453  1.00  0.00    -0.250 OA
BRANCH  58  60
ATOM     60  O   UNL     1     -11.005  -6.591   6.126  1.00  0.00    -0.480 OA
ATOM     61  H   UNL     1     -11.554  -7.386   5.950  1.00  0.00     0.296 HD
ENDBRANCH  58  60
ENDBRANCH  48  58
ENDBRANCH  46  48
ENDBRANCH  34  44
ENDBRANCH  32  34
ENDBRANCH  25  30
ENDBRANCH  23  25
ENDBRANCH   2  23
TORSDOF 28
ENDMDL
MODEL 44
REMARK VINA RESULT:    -5.814      2.546      9.178
REMARK INTER + INTRA:         -19.504
REMARK INTER:                 -15.242
REMARK INTRA:                  -4.262
REMARK UNBOUND:                -5.023
REMARK SMILES CCCCCCC[C@H](N)[C@H](O)C(=O)N[C@H](C)C(=O)N(C)[C@H](CC(C)C)C(=O)N[C@@H](Cc1ccc(O)cc1)C(=O)N[C@@H](Cc1ccc(O)cc1)C(=O)O
REMARK SMILES IDX 18 1 17 2 15 3 16 4 14 5 12 6 13 7 10 9 11 10 8 12 9 13 7 16
REMARK SMILES IDX 6 17 5 18 4 19 3 20 2 21 1 22 19 23 20 24 21 25 22 26 23 27
REMARK SMILES IDX 24 28 25 29 26 30 27 31 28 32 29 34 30 35 31 36 32 37 37 38
REMARK SMILES IDX 33 39 36 40 34 41 35 42 38 44 39 45 40 46 41 48 42 49 43 50
REMARK SMILES IDX 44 51 49 52 45 53 48 54 46 55 47 56 50 58 51 59 52 60
REMARK H PARENT 14 8 11 11 9 14 9 15 28 33 35 43 40 47 47 57 52 61
ROOT
ATOM      1  O   UNL     1     -13.341  -5.236   4.741  1.00  0.00    -0.272 OA
ATOM      2  C   UNL     1     -12.139  -5.487   4.568  1.00  0.00     0.245 C 
ENDROOT
BRANCH   2   3
ATOM      3  C   UNL     1     -11.577  -5.457   3.124  1.00  0.00     0.168 C 
ATOM      4  C   UNL     1     -11.922  -6.744   2.382  1.00  0.00     0.041 C 
BRANCH   3   5
ATOM      5  N   UNL     1     -11.932  -4.275   2.354  1.00  0.00    -0.342 N 
ATOM      6  C   UNL     1     -11.084  -3.193   2.250  1.00  0.00     0.251 C 
ATOM      7  O   UNL     1     -10.001  -3.124   2.821  1.00  0.00    -0.272 OA
ATOM      8  H   UNL     1     -12.820  -4.202   1.864  1.00  0.00     0.164 HD
BRANCH   6   9
ATOM      9  C   UNL     1     -11.603  -2.124   1.274  1.00  0.00     0.219 C 
BRANCH   9  10
ATOM     10  O   UNL     1     -10.569  -1.593   0.437  1.00  0.00    -0.382 OA
ATOM     11  H   UNL     1     -10.220  -0.834   0.954  1.00  0.00     0.211 HD
ENDBRANCH   9  10
BRANCH   9  12
ATOM     12  C   UNL     1     -12.806  -2.608   0.424  1.00  0.00     0.089 C 
BRANCH  12  13
ATOM     13  N   UNL     1     -14.023  -1.906   0.894  1.00  0.00    -0.325 NA
ATOM     14  H   UNL     1     -14.799  -2.122   0.266  1.00  0.00     0.119 HD
ATOM     15  H   UNL     1     -13.879  -0.898   0.803  1.00  0.00     0.119 HD
ENDBRANCH  12  13
BRANCH  12  16
ATOM     16  C   UNL     1     -12.661  -2.451  -1.108  1.00  0.00     0.022 C 
BRANCH  16  17
ATOM     17  C   UNL     1     -13.289  -3.505  -2.030  1.00  0.00     0.002 C 
BRANCH  17  18
ATOM     18  C   UNL     1     -12.474  -4.785  -2.196  1.00  0.00     0.000 C 
BRANCH  18  19
ATOM     19  C   UNL     1     -12.956  -5.951  -1.322  1.00  0.00    -0.000 C 
BRANCH  19  20
ATOM     20  C   UNL     1     -11.948  -7.089  -1.142  1.00  0.00    -0.000 C 
BRANCH  20  21
ATOM     21  C   UNL     1     -11.486  -7.697  -2.469  1.00  0.00    -0.003 C 
ATOM     22  C   UNL     1     -11.334  -9.206  -2.364  1.00  0.00     0.004 C 
ENDBRANCH  20  21
ENDBRANCH  19  20
ENDBRANCH  18  19
ENDBRANCH  17  18
ENDBRANCH  16  17
ENDBRANCH  12  16
ENDBRANCH   9  12
ENDBRANCH   6   9
ENDBRANCH   3   5
ENDBRANCH   2   3
BRANCH   2  23
ATOM     23  N   UNL     1     -11.301  -5.668   5.663  1.00  0.00    -0.332 N 
ATOM     24  C   UNL     1     -11.759  -5.908   7.023  1.00  0.00     0.147 C 
BRANCH  23  25
ATOM     25  C   UNL     1      -9.827  -5.755   5.474  1.00  0.00     0.174 C 
BRANCH  25  26
ATOM     26  C   UNL     1      -9.256  -7.150   5.820  1.00  0.00     0.038 C 
BRANCH  26  27
ATOM     27  C   UNL     1      -8.130  -7.691   4.912  1.00  0.00    -0.015 C 
ATOM     28  C   UNL     1      -7.466  -8.942   5.486  1.00  0.00     0.007 C 
ATOM     29  C   UNL     1      -8.574  -7.932   3.471  1.00  0.00     0.007 C 
ENDBRANCH  26  27
ENDBRANCH  25  26
BRANCH  25  30
ATOM     30  C   UNL     1      -9.126  -4.595   6.218  1.00  0.00     0.243 C 
ATOM     31  O   UNL     1      -8.365  -4.794   7.163  1.00  0.00    -0.273 OA
ATOM     32  N   UNL     1      -9.414  -3.335   5.758  1.00  0.00    -0.342 N 
ATOM     33  H   UNL     1      -9.941  -3.259   4.884  1.00  0.00     0.164 HD
BRANCH  32  34
ATOM     34  C   UNL     1      -8.863  -2.117   6.359  1.00  0.00     0.175 C 
BRANCH  34  35
ATOM     35  C   UNL     1      -8.573  -1.050   5.292  1.00  0.00     0.070 C 
BRANCH  35  36
ATOM     36  C   UNL     1      -7.190  -1.180   4.696  1.00  0.00    -0.045 A 
ATOM     37  C   UNL     1      -7.001  -1.009   3.316  1.00  0.00     0.007 A 
ATOM     38  C   UNL     1      -6.086  -1.492   5.501  1.00  0.00     0.007 A 
ATOM     39  C   UNL     1      -5.730  -1.140   2.755  1.00  0.00     0.046 A 
ATOM     40  C   UNL     1      -4.814  -1.625   4.940  1.00  0.00     0.046 A 
ATOM     41  C   UNL     1      -4.647  -1.446   3.571  1.00  0.00     0.115 A 
BRANCH  41  42
ATOM     42  O   UNL     1      -3.423  -1.568   2.983  1.00  0.00    -0.508 OA
ATOM     43  H   UNL     1      -3.165  -2.505   3.010  1.00  0.00     0.293 HD
ENDBRANCH  41  42
ENDBRANCH  35  36
ENDBRANCH  34  35
BRANCH  34  44
ATOM     44  C   UNL     1      -9.864  -1.613   7.423  1.00  0.00     0.243 C 
ATOM     45  O   UNL     1     -10.646  -0.681   7.253  1.00  0.00    -0.273 OA
ATOM     46  N   UNL     1      -9.715  -2.224   8.649  1.00  0.00    -0.341 N 
ATOM     47  H   UNL     1      -8.974  -2.910   8.773  1.00  0.00     0.164 HD
BRANCH  46  48
ATOM     48  C   UNL     1     -10.504  -1.865   9.830  1.00  0.00     0.196 C 
BRANCH  48  49
ATOM     49  C   UNL     1     -10.419  -2.954  10.913  1.00  0.00     0.072 C 
BRANCH  49  50
ATOM     50  C   UNL     1     -11.730  -3.682  11.109  1.00  0.00    -0.045 A 
ATOM     51  C   UNL     1     -12.679  -3.183  12.013  1.00  0.00     0.007 A 
ATOM     52  C   UNL     1     -12.007  -4.867  10.415  1.00  0.00     0.007 A 
ATOM     53  C   UNL     1     -13.885  -3.853  12.212  1.00  0.00     0.046 A 
ATOM     54  C   UNL     1     -13.215  -5.539  10.616  1.00  0.00     0.046 A 
ATOM     55  C   UNL     1     -14.145  -5.025  11.513  1.00  0.00     0.115 A 
BRANCH  55  56
ATOM     56  O   UNL     1     -15.335  -5.651  11.737  1.00  0.00    -0.508 OA
ATOM     57  H   UNL     1     -15.788  -5.762  10.886  1.00  0.00     0.293 HD
ENDBRANCH  55  56
ENDBRANCH  49  50
ENDBRANCH  48  49
BRANCH  48  58
ATOM     58  C   UNL     1      -9.982  -0.536  10.394  1.00  0.00     0.326 C 
ATOM     59  O   UNL     1      -8.925  -0.343  10.972  1.00  0.00    -0.250 OA
BRANCH  58  60
ATOM     60  O   UNL     1     -10.824   0.507  10.187  1.00  0.00    -0.480 OA
ATOM     61  H   UNL     1     -11.642   0.076   9.858  1.00  0.00     0.296 HD
ENDBRANCH  58  60
ENDBRANCH  48  58
ENDBRANCH  46  48
ENDBRANCH  34  44
ENDBRANCH  32  34
ENDBRANCH  25  30
ENDBRANCH  23  25
ENDBRANCH   2  23
TORSDOF 28
ENDMDL
MODEL 45
REMARK VINA RESULT:    -5.781      2.060      5.030
REMARK INTER + INTRA:         -19.422
REMARK INTER:                 -15.869
REMARK INTRA:                  -3.553
REMARK UNBOUND:                -5.023
REMARK SMILES CCCCCCC[C@H](N)[C@H](O)C(=O)N[C@H](C)C(=O)N(C)[C@H](CC(C)C)C(=O)N[C@@H](Cc1ccc(O)cc1)C(=O)N[C@@H](Cc1ccc(O)cc1)C(=O)O
REMARK SMILES IDX 18 1 17 2 15 3 16 4 14 5 12 6 13 7 10 9 11 10 8 12 9 13 7 16
REMARK SMILES IDX 6 17 5 18 4 19 3 20 2 21 1 22 19 23 20 24 21 25 22 26 23 27
REMARK SMILES IDX 24 28 25 29 26 30 27 31 28 32 29 34 30 35 31 36 32 37 37 38
REMARK SMILES IDX 33 39 36 40 34 41 35 42 38 44 39 45 40 46 41 48 42 49 43 50
REMARK SMILES IDX 44 51 49 52 45 53 48 54 46 55 47 56 50 58 51 59 52 60
REMARK H PARENT 14 8 11 11 9 14 9 15 28 33 35 43 40 47 47 57 52 61
ROOT
ATOM      1  O   UNL     1      -7.741  -4.788   5.742  1.00  0.00    -0.272 OA
ATOM      2  C   UNL     1      -8.309  -3.709   5.968  1.00  0.00     0.245 C 
ENDROOT
BRANCH   2   3
ATOM      3  C   UNL     1      -9.041  -3.526   7.321  1.00  0.00     0.168 C 
ATOM      4  C   UNL     1      -8.508  -4.506   8.362  1.00  0.00     0.041 C 
BRANCH   3   5
ATOM      5  N   UNL     1      -9.064  -2.162   7.824  1.00  0.00    -0.342 N 
ATOM      6  C   UNL     1     -10.247  -1.499   8.077  1.00  0.00     0.251 C 
ATOM      7  O   UNL     1     -11.353  -1.984   7.862  1.00  0.00    -0.272 OA
ATOM      8  H   UNL     1      -8.209  -1.643   8.008  1.00  0.00     0.164 HD
BRANCH   6   9
ATOM      9  C   UNL     1     -10.031  -0.127   8.735  1.00  0.00     0.219 C 
BRANCH   9  10
ATOM     10  O   UNL     1     -11.126   0.770   8.515  1.00  0.00    -0.382 OA
ATOM     11  H   UNL     1     -11.379   0.601   7.581  1.00  0.00     0.211 HD
ENDBRANCH   9  10
BRANCH   9  12
ATOM     12  C   UNL     1      -9.692  -0.222  10.245  1.00  0.00     0.089 C 
BRANCH  12  13
ATOM     13  N   UNL     1     -10.045  -1.580  10.719  1.00  0.00    -0.325 NA
ATOM     14  H   UNL     1      -9.799  -2.262   9.999  1.00  0.00     0.119 HD
ATOM     15  H   UNL     1     -11.062  -1.644  10.810  1.00  0.00     0.119 HD
ENDBRANCH  12  13
BRANCH  12  16
ATOM     16  C   UNL     1      -8.232   0.113  10.635  1.00  0.00     0.022 C 
BRANCH  16  17
ATOM     17  C   UNL     1      -7.940   0.655  12.041  1.00  0.00     0.002 C 
BRANCH  17  18
ATOM     18  C   UNL     1      -6.465   0.916  12.337  1.00  0.00     0.000 C 
BRANCH  18  19
ATOM     19  C   UNL     1      -5.682   1.494  11.151  1.00  0.00    -0.000 C 
BRANCH  19  20
ATOM     20  C   UNL     1      -4.246   0.980  11.007  1.00  0.00    -0.000 C 
BRANCH  20  21
ATOM     21  C   UNL     1      -4.162  -0.372  10.294  1.00  0.00    -0.003 C 
ATOM     22  C   UNL     1      -3.546  -1.434  11.191  1.00  0.00     0.004 C 
ENDBRANCH  20  21
ENDBRANCH  19  20
ENDBRANCH  18  19
ENDBRANCH  17  18
ENDBRANCH  16  17
ENDBRANCH  12  16
ENDBRANCH   9  12
ENDBRANCH   6   9
ENDBRANCH   3   5
ENDBRANCH   2   3
BRANCH   2  23
ATOM     23  N   UNL     1      -8.179  -2.653   5.073  1.00  0.00    -0.332 N 
ATOM     24  C   UNL     1      -7.246  -1.547   5.230  1.00  0.00     0.147 C 
BRANCH  23  25
ATOM     25  C   UNL     1      -8.929  -2.662   3.787  1.00  0.00     0.174 C 
BRANCH  25  26
ATOM     26  C   UNL     1      -9.283  -1.242   3.287  1.00  0.00     0.038 C 
BRANCH  26  27
ATOM     27  C   UNL     1      -9.382  -1.042   1.758  1.00  0.00    -0.015 C 
ATOM     28  C   UNL     1      -8.590  -2.093   0.979  1.00  0.00     0.007 C 
ATOM     29  C   UNL     1     -10.819  -0.965   1.247  1.00  0.00     0.007 C 
ENDBRANCH  26  27
ENDBRANCH  25  26
BRANCH  25  30
ATOM     30  C   UNL     1     -10.149  -3.607   3.889  1.00  0.00     0.243 C 
ATOM     31  O   UNL     1     -11.254  -3.205   4.250  1.00  0.00    -0.273 OA
ATOM     32  N   UNL     1      -9.914  -4.916   3.558  1.00  0.00    -0.342 N 
ATOM     33  H   UNL     1      -9.011  -5.143   3.134  1.00  0.00     0.164 HD
BRANCH  32  34
ATOM     34  C   UNL     1     -10.944  -5.957   3.622  1.00  0.00     0.175 C 
BRANCH  34  35
ATOM     35  C   UNL     1     -12.108  -5.535   4.531  1.00  0.00     0.070 C 
BRANCH  35  36
ATOM     36  C   UNL     1     -11.908  -5.952   5.971  1.00  0.00    -0.045 A 
ATOM     37  C   UNL     1     -10.785  -6.712   6.331  1.00  0.00     0.007 A 
ATOM     38  C   UNL     1     -12.843  -5.609   6.956  1.00  0.00     0.007 A 
ATOM     39  C   UNL     1     -10.598  -7.114   7.654  1.00  0.00     0.046 A 
ATOM     40  C   UNL     1     -12.657  -6.012   8.281  1.00  0.00     0.046 A 
ATOM     41  C   UNL     1     -11.534  -6.760   8.618  1.00  0.00     0.115 A 
BRANCH  41  42
ATOM     42  O   UNL     1     -11.316  -7.175   9.898  1.00  0.00    -0.508 OA
ATOM     43  H   UNL     1     -10.526  -7.740   9.905  1.00  0.00     0.293 HD
ENDBRANCH  41  42
ENDBRANCH  35  36
ENDBRANCH  34  35
BRANCH  34  44
ATOM     44  C   UNL     1     -11.415  -6.254   2.181  1.00  0.00     0.243 C 
ATOM     45  O   UNL     1     -12.379  -6.959   1.897  1.00  0.00    -0.273 OA
ATOM     46  N   UNL     1     -10.568  -5.756   1.213  1.00  0.00    -0.341 N 
ATOM     47  H   UNL     1      -9.718  -5.277   1.500  1.00  0.00     0.164 HD
BRANCH  46  48
ATOM     48  C   UNL     1     -10.770  -5.969  -0.222  1.00  0.00     0.196 C 
BRANCH  48  49
ATOM     49  C   UNL     1     -10.286  -4.761  -1.041  1.00  0.00     0.072 C 
BRANCH  49  50
ATOM     50  C   UNL     1     -11.348  -3.696  -1.192  1.00  0.00    -0.045 A 
ATOM     51  C   UNL     1     -11.112  -2.584  -2.012  1.00  0.00     0.007 A 
ATOM     52  C   UNL     1     -12.566  -3.791  -0.505  1.00  0.00     0.007 A 
ATOM     53  C   UNL     1     -12.080  -1.589  -2.149  1.00  0.00     0.046 A 
ATOM     54  C   UNL     1     -13.534  -2.793  -0.641  1.00  0.00     0.046 A 
ATOM     55  C   UNL     1     -13.283  -1.701  -1.463  1.00  0.00     0.115 A 
BRANCH  55  56
ATOM     56  O   UNL     1     -14.201  -0.706  -1.622  1.00  0.00    -0.508 OA
ATOM     57  H   UNL     1     -15.086  -1.105  -1.640  1.00  0.00     0.293 HD
ENDBRANCH  55  56
ENDBRANCH  49  50
ENDBRANCH  48  49
BRANCH  48  58
ATOM     58  C   UNL     1     -10.001  -7.225  -0.653  1.00  0.00     0.326 C 
ATOM     59  O   UNL     1     -10.349  -8.060  -1.472  1.00  0.00    -0.250 OA
BRANCH  58  60
ATOM     60  O   UNL     1      -8.803  -7.366  -0.032  1.00  0.00    -0.480 OA
ATOM     61  H   UNL     1      -9.028  -7.866   0.783  1.00  0.00     0.296 HD
ENDBRANCH  58  60
ENDBRANCH  48  58
ENDBRANCH  46  48
ENDBRANCH  34  44
ENDBRANCH  32  34
ENDBRANCH  25  30
ENDBRANCH  23  25
ENDBRANCH   2  23
TORSDOF 28
ENDMDL
MODEL 46
REMARK VINA RESULT:    -5.778      2.517      9.402
REMARK INTER + INTRA:         -19.414
REMARK INTER:                 -14.692
REMARK INTRA:                  -4.722
REMARK UNBOUND:                -5.023
REMARK SMILES CCCCCCC[C@H](N)[C@H](O)C(=O)N[C@H](C)C(=O)N(C)[C@H](CC(C)C)C(=O)N[C@@H](Cc1ccc(O)cc1)C(=O)N[C@@H](Cc1ccc(O)cc1)C(=O)O
REMARK SMILES IDX 18 1 17 2 15 3 16 4 14 5 12 6 13 7 10 9 11 10 8 12 9 13 7 16
REMARK SMILES IDX 6 17 5 18 4 19 3 20 2 21 1 22 19 23 20 24 21 25 22 26 23 27
REMARK SMILES IDX 24 28 25 29 26 30 27 31 28 32 29 34 30 35 31 36 32 37 37 38
REMARK SMILES IDX 33 39 36 40 34 41 35 42 38 44 39 45 40 46 41 48 42 49 43 50
REMARK SMILES IDX 44 51 49 52 45 53 48 54 46 55 47 56 50 58 51 59 52 60
REMARK H PARENT 14 8 11 11 9 14 9 15 28 33 35 43 40 47 47 57 52 61
ROOT
ATOM      1  O   UNL     1      -8.627  -4.863   3.070  1.00  0.00    -0.272 OA
ATOM      2  C   UNL     1      -9.117  -3.726   3.011  1.00  0.00     0.245 C 
ENDROOT
BRANCH   2   3
ATOM      3  C   UNL     1      -9.491  -3.150   1.623  1.00  0.00     0.168 C 
ATOM      4  C   UNL     1      -8.534  -3.661   0.550  1.00  0.00     0.041 C 
BRANCH   3   5
ATOM      5  N   UNL     1     -10.882  -3.333   1.239  1.00  0.00    -0.342 N 
ATOM      6  C   UNL     1     -11.750  -2.268   1.121  1.00  0.00     0.251 C 
ATOM      7  O   UNL     1     -11.435  -1.108   1.365  1.00  0.00    -0.272 OA
ATOM      8  H   UNL     1     -11.268  -4.254   1.045  1.00  0.00     0.164 HD
BRANCH   6   9
ATOM      9  C   UNL     1     -13.124  -2.680   0.568  1.00  0.00     0.219 C 
BRANCH   9  10
ATOM     10  O   UNL     1     -14.175  -1.802   0.989  1.00  0.00    -0.382 OA
ATOM     11  H   UNL     1     -13.699  -0.991   1.273  1.00  0.00     0.211 HD
ENDBRANCH   9  10
BRANCH   9  12
ATOM     12  C   UNL     1     -13.134  -2.852  -0.973  1.00  0.00     0.089 C 
BRANCH  12  13
ATOM     13  N   UNL     1     -12.007  -2.075  -1.537  1.00  0.00    -0.325 NA
ATOM     14  H   UNL     1     -11.427  -1.721  -0.774  1.00  0.00     0.119 HD
ATOM     15  H   UNL     1     -12.378  -1.241  -1.999  1.00  0.00     0.119 HD
ENDBRANCH  12  13
BRANCH  12  16
ATOM     16  C   UNL     1     -13.089  -4.309  -1.493  1.00  0.00     0.022 C 
BRANCH  16  17
ATOM     17  C   UNL     1     -11.741  -4.908  -1.919  1.00  0.00     0.002 C 
BRANCH  17  18
ATOM     18  C   UNL     1     -11.395  -6.245  -1.266  1.00  0.00     0.000 C 
BRANCH  18  19
ATOM     19  C   UNL     1     -12.443  -6.739  -0.260  1.00  0.00    -0.000 C 
BRANCH  19  20
ATOM     20  C   UNL     1     -12.003  -6.707   1.206  1.00  0.00    -0.000 C 
BRANCH  20  21
ATOM     21  C   UNL     1     -10.548  -7.142   1.404  1.00  0.00    -0.003 C 
ATOM     22  C   UNL     1     -10.375  -8.630   1.147  1.00  0.00     0.004 C 
ENDBRANCH  20  21
ENDBRANCH  19  20
ENDBRANCH  18  19
ENDBRANCH  17  18
ENDBRANCH  16  17
ENDBRANCH  12  16
ENDBRANCH   9  12
ENDBRANCH   6   9
ENDBRANCH   3   5
ENDBRANCH   2   3
BRANCH   2  23
ATOM     23  N   UNL     1      -9.433  -3.043   4.181  1.00  0.00    -0.332 N 
ATOM     24  C   UNL     1      -9.297  -1.606   4.361  1.00  0.00     0.147 C 
BRANCH  23  25
ATOM     25  C   UNL     1     -10.073  -3.759   5.319  1.00  0.00     0.174 C 
BRANCH  25  26
ATOM     26  C   UNL     1     -11.619  -3.730   5.256  1.00  0.00     0.038 C 
BRANCH  26  27
ATOM     27  C   UNL     1     -12.326  -5.025   4.800  1.00  0.00    -0.015 C 
ATOM     28  C   UNL     1     -11.421  -6.253   4.905  1.00  0.00     0.007 C 
ATOM     29  C   UNL     1     -13.653  -5.275   5.511  1.00  0.00     0.007 C 
ENDBRANCH  26  27
ENDBRANCH  25  26
BRANCH  25  30
ATOM     30  C   UNL     1      -9.496  -3.251   6.660  1.00  0.00     0.243 C 
ATOM     31  O   UNL     1      -8.325  -3.449   6.980  1.00  0.00    -0.273 OA
ATOM     32  N   UNL     1     -10.375  -2.575   7.466  1.00  0.00    -0.342 N 
ATOM     33  H   UNL     1     -11.286  -2.328   7.071  1.00  0.00     0.164 HD
BRANCH  32  34
ATOM     34  C   UNL     1     -10.011  -2.046   8.783  1.00  0.00     0.175 C 
BRANCH  34  35
ATOM     35  C   UNL     1      -9.366  -0.656   8.668  1.00  0.00     0.070 C 
BRANCH  35  36
ATOM     36  C   UNL     1      -8.228  -0.457   9.644  1.00  0.00    -0.045 A 
ATOM     37  C   UNL     1      -8.387   0.404  10.741  1.00  0.00     0.007 A 
ATOM     38  C   UNL     1      -7.000  -1.104   9.458  1.00  0.00     0.007 A 
ATOM     39  C   UNL     1      -7.338   0.605  11.639  1.00  0.00     0.046 A 
ATOM     40  C   UNL     1      -5.949  -0.903  10.356  1.00  0.00     0.046 A 
ATOM     41  C   UNL     1      -6.128  -0.050  11.440  1.00  0.00     0.115 A 
BRANCH  41  42
ATOM     42  O   UNL     1      -5.128   0.176  12.339  1.00  0.00    -0.508 OA
ATOM     43  H   UNL     1      -5.046  -0.608  12.906  1.00  0.00     0.293 HD
ENDBRANCH  41  42
ENDBRANCH  35  36
ENDBRANCH  34  35
BRANCH  34  44
ATOM     44  C   UNL     1     -11.284  -2.021   9.658  1.00  0.00     0.243 C 
ATOM     45  O   UNL     1     -11.967  -1.021   9.862  1.00  0.00    -0.273 OA
ATOM     46  N   UNL     1     -11.525  -3.212  10.310  1.00  0.00    -0.341 N 
ATOM     47  H   UNL     1     -10.865  -3.977  10.201  1.00  0.00     0.164 HD
BRANCH  46  48
ATOM     48  C   UNL     1     -12.634  -3.408  11.246  1.00  0.00     0.196 C 
BRANCH  48  49
ATOM     49  C   UNL     1     -13.420  -4.689  10.923  1.00  0.00     0.072 C 
BRANCH  49  50
ATOM     50  C   UNL     1     -12.537  -5.795  10.391  1.00  0.00    -0.045 A 
ATOM     51  C   UNL     1     -11.873  -6.650  11.284  1.00  0.00     0.007 A 
ATOM     52  C   UNL     1     -12.351  -5.969   9.014  1.00  0.00     0.007 A 
ATOM     53  C   UNL     1     -11.045  -7.665  10.805  1.00  0.00     0.046 A 
ATOM     54  C   UNL     1     -11.520  -6.985   8.535  1.00  0.00     0.046 A 
ATOM     55  C   UNL     1     -10.875  -7.826   9.435  1.00  0.00     0.115 A 
BRANCH  55  56
ATOM     56  O   UNL     1     -10.056  -8.829   9.008  1.00  0.00    -0.508 OA
ATOM     57  H   UNL     1     -10.267  -9.631   9.512  1.00  0.00     0.293 HD
ENDBRANCH  55  56
ENDBRANCH  49  50
ENDBRANCH  48  49
BRANCH  48  58
ATOM     58  C   UNL     1     -12.075  -3.493  12.673  1.00  0.00     0.326 C 
ATOM     59  O   UNL     1     -12.706  -3.476  13.717  1.00  0.00    -0.250 OA
BRANCH  58  60
ATOM     60  O   UNL     1     -10.724  -3.614  12.718  1.00  0.00    -0.480 OA
ATOM     61  H   UNL     1     -10.506  -3.375  13.645  1.00  0.00     0.296 HD
ENDBRANCH  58  60
ENDBRANCH  48  58
ENDBRANCH  46  48
ENDBRANCH  34  44
ENDBRANCH  32  34
ENDBRANCH  25  30
ENDBRANCH  23  25
ENDBRANCH   2  23
TORSDOF 28
ENDMDL
MODEL 47
REMARK VINA RESULT:    -5.773      2.258      8.137
REMARK INTER + INTRA:         -19.401
REMARK INTER:                 -13.217
REMARK INTRA:                  -6.184
REMARK UNBOUND:                -5.023
REMARK SMILES CCCCCCC[C@H](N)[C@H](O)C(=O)N[C@H](C)C(=O)N(C)[C@H](CC(C)C)C(=O)N[C@@H](Cc1ccc(O)cc1)C(=O)N[C@@H](Cc1ccc(O)cc1)C(=O)O
REMARK SMILES IDX 18 1 17 2 15 3 16 4 14 5 12 6 13 7 10 9 11 10 8 12 9 13 7 16
REMARK SMILES IDX 6 17 5 18 4 19 3 20 2 21 1 22 19 23 20 24 21 25 22 26 23 27
REMARK SMILES IDX 24 28 25 29 26 30 27 31 28 32 29 34 30 35 31 36 32 37 37 38
REMARK SMILES IDX 33 39 36 40 34 41 35 42 38 44 39 45 40 46 41 48 42 49 43 50
REMARK SMILES IDX 44 51 49 52 45 53 48 54 46 55 47 56 50 58 51 59 52 60
REMARK H PARENT 14 8 11 11 9 14 9 15 28 33 35 43 40 47 47 57 52 61
ROOT
ATOM      1  O   UNL     1     -10.958  -2.966   3.551  1.00  0.00    -0.272 OA
ATOM      2  C   UNL     1     -10.915  -2.677   2.346  1.00  0.00     0.245 C 
ENDROOT
BRANCH   2   3
ATOM      3  C   UNL     1      -9.722  -1.835   1.828  1.00  0.00     0.168 C 
ATOM      4  C   UNL     1      -9.943  -0.353   2.109  1.00  0.00     0.041 C 
BRANCH   3   5
ATOM      5  N   UNL     1      -8.415  -2.284   2.282  1.00  0.00    -0.342 N 
ATOM      6  C   UNL     1      -7.715  -3.272   1.622  1.00  0.00     0.251 C 
ATOM      7  O   UNL     1      -8.149  -3.869   0.643  1.00  0.00    -0.272 OA
ATOM      8  H   UNL     1      -7.967  -1.887   3.105  1.00  0.00     0.164 HD
BRANCH   6   9
ATOM      9  C   UNL     1      -6.303  -3.481   2.192  1.00  0.00     0.219 C 
BRANCH   9  10
ATOM     10  O   UNL     1      -5.741  -4.747   1.824  1.00  0.00    -0.382 OA
ATOM     11  H   UNL     1      -5.122  -4.947   2.560  1.00  0.00     0.211 HD
ENDBRANCH   9  10
BRANCH   9  12
ATOM     12  C   UNL     1      -5.329  -2.325   1.846  1.00  0.00     0.089 C 
BRANCH  12  13
ATOM     13  N   UNL     1      -5.836  -1.632   0.639  1.00  0.00    -0.325 NA
ATOM     14  H   UNL     1      -5.517  -0.661   0.651  1.00  0.00     0.119 HD
ATOM     15  H   UNL     1      -6.856  -1.579   0.692  1.00  0.00     0.119 HD
ENDBRANCH  12  13
BRANCH  12  16
ATOM     16  C   UNL     1      -5.064  -1.301   2.975  1.00  0.00     0.022 C 
BRANCH  16  17
ATOM     17  C   UNL     1      -5.361  -1.697   4.428  1.00  0.00     0.002 C 
BRANCH  17  18
ATOM     18  C   UNL     1      -6.671  -1.150   4.990  1.00  0.00     0.000 C 
BRANCH  18  19
ATOM     19  C   UNL     1      -7.400  -2.119   5.930  1.00  0.00    -0.000 C 
BRANCH  19  20
ATOM     20  C   UNL     1      -8.013  -1.477   7.178  1.00  0.00    -0.000 C 
BRANCH  20  21
ATOM     21  C   UNL     1      -7.520  -2.109   8.482  1.00  0.00    -0.003 C 
ATOM     22  C   UNL     1      -7.873  -1.247   9.684  1.00  0.00     0.004 C 
ENDBRANCH  20  21
ENDBRANCH  19  20
ENDBRANCH  18  19
ENDBRANCH  17  18
ENDBRANCH  16  17
ENDBRANCH  12  16
ENDBRANCH   9  12
ENDBRANCH   6   9
ENDBRANCH   3   5
ENDBRANCH   2   3
BRANCH   2  23
ATOM     23  N   UNL     1     -11.856  -3.208   1.470  1.00  0.00    -0.332 N 
ATOM     24  C   UNL     1     -13.139  -2.593   1.165  1.00  0.00     0.147 C 
BRANCH  23  25
ATOM     25  C   UNL     1     -11.535  -4.419   0.666  1.00  0.00     0.174 C 
BRANCH  25  26
ATOM     26  C   UNL     1     -12.507  -4.632  -0.517  1.00  0.00     0.038 C 
BRANCH  26  27
ATOM     27  C   UNL     1     -11.934  -5.309  -1.782  1.00  0.00    -0.015 C 
ATOM     28  C   UNL     1     -10.418  -5.148  -1.895  1.00  0.00     0.007 C 
ATOM     29  C   UNL     1     -12.329  -6.778  -1.916  1.00  0.00     0.007 C 
ENDBRANCH  26  27
ENDBRANCH  25  26
BRANCH  25  30
ATOM     30  C   UNL     1     -11.402  -5.651   1.591  1.00  0.00     0.243 C 
ATOM     31  O   UNL     1     -12.279  -6.511   1.658  1.00  0.00    -0.273 OA
ATOM     32  N   UNL     1     -10.249  -5.716   2.330  1.00  0.00    -0.342 N 
ATOM     33  H   UNL     1      -9.509  -5.042   2.115  1.00  0.00     0.164 HD
BRANCH  32  34
ATOM     34  C   UNL     1      -9.965  -6.796   3.279  1.00  0.00     0.175 C 
BRANCH  34  35
ATOM     35  C   UNL     1      -8.750  -7.626   2.834  1.00  0.00     0.070 C 
BRANCH  35  36
ATOM     36  C   UNL     1      -8.760  -7.928   1.352  1.00  0.00    -0.045 A 
ATOM     37  C   UNL     1      -7.797  -7.350   0.511  1.00  0.00     0.007 A 
ATOM     38  C   UNL     1      -9.736  -8.765   0.796  1.00  0.00     0.007 A 
ATOM     39  C   UNL     1      -7.807  -7.612  -0.859  1.00  0.00     0.046 A 
ATOM     40  C   UNL     1      -9.747  -9.027  -0.577  1.00  0.00     0.046 A 
ATOM     41  C   UNL     1      -8.780  -8.448  -1.392  1.00  0.00     0.115 A 
BRANCH  41  42
ATOM     42  O   UNL     1      -8.756  -8.676  -2.736  1.00  0.00    -0.508 OA
ATOM     43  H   UNL     1      -8.640  -7.824  -3.187  1.00  0.00     0.293 HD
ENDBRANCH  41  42
ENDBRANCH  35  36
ENDBRANCH  34  35
BRANCH  34  44
ATOM     44  C   UNL     1      -9.753  -6.165   4.674  1.00  0.00     0.243 C 
ATOM     45  O   UNL     1      -8.676  -6.128   5.262  1.00  0.00    -0.273 OA
ATOM     46  N   UNL     1     -10.924  -5.754   5.273  1.00  0.00    -0.341 N 
ATOM     47  H   UNL     1     -11.807  -5.913   4.794  1.00  0.00     0.164 HD
BRANCH  46  48
ATOM     48  C   UNL     1     -10.983  -5.188   6.623  1.00  0.00     0.196 C 
BRANCH  48  49
ATOM     49  C   UNL     1     -12.224  -4.297   6.803  1.00  0.00     0.072 C 
BRANCH  49  50
ATOM     50  C   UNL     1     -11.977  -3.139   7.743  1.00  0.00    -0.045 A 
ATOM     51  C   UNL     1     -11.629  -1.882   7.227  1.00  0.00     0.007 A 
ATOM     52  C   UNL     1     -12.070  -3.304   9.131  1.00  0.00     0.007 A 
ATOM     53  C   UNL     1     -11.386  -0.809   8.084  1.00  0.00     0.046 A 
ATOM     54  C   UNL     1     -11.825  -2.230   9.990  1.00  0.00     0.046 A 
ATOM     55  C   UNL     1     -11.486  -0.991   9.458  1.00  0.00     0.115 A 
BRANCH  55  56
ATOM     56  O   UNL     1     -11.239   0.083  10.262  1.00  0.00    -0.508 OA
ATOM     57  H   UNL     1     -10.738  -0.223  11.035  1.00  0.00     0.293 HD
ENDBRANCH  55  56
ENDBRANCH  49  50
ENDBRANCH  48  49
BRANCH  48  58
ATOM     58  C   UNL     1     -11.019  -6.334   7.643  1.00  0.00     0.326 C 
ATOM     59  O   UNL     1     -12.005  -6.818   8.176  1.00  0.00    -0.250 OA
BRANCH  58  60
ATOM     60  O   UNL     1      -9.793  -6.834   7.939  1.00  0.00    -0.480 OA
ATOM     61  H   UNL     1      -9.873  -7.783   7.700  1.00  0.00     0.296 HD
ENDBRANCH  58  60
ENDBRANCH  48  58
ENDBRANCH  46  48
ENDBRANCH  34  44
ENDBRANCH  32  34
ENDBRANCH  25  30
ENDBRANCH  23  25
ENDBRANCH   2  23
TORSDOF 28
ENDMDL
MODEL 48
REMARK VINA RESULT:    -5.768      2.630      8.123
REMARK INTER + INTRA:         -19.390
REMARK INTER:                 -14.391
REMARK INTRA:                  -4.999
REMARK UNBOUND:                -5.023
REMARK SMILES CCCCCCC[C@H](N)[C@H](O)C(=O)N[C@H](C)C(=O)N(C)[C@H](CC(C)C)C(=O)N[C@@H](Cc1ccc(O)cc1)C(=O)N[C@@H](Cc1ccc(O)cc1)C(=O)O
REMARK SMILES IDX 18 1 17 2 15 3 16 4 14 5 12 6 13 7 10 9 11 10 8 12 9 13 7 16
REMARK SMILES IDX 6 17 5 18 4 19 3 20 2 21 1 22 19 23 20 24 21 25 22 26 23 27
REMARK SMILES IDX 24 28 25 29 26 30 27 31 28 32 29 34 30 35 31 36 32 37 37 38
REMARK SMILES IDX 33 39 36 40 34 41 35 42 38 44 39 45 40 46 41 48 42 49 43 50
REMARK SMILES IDX 44 51 49 52 45 53 48 54 46 55 47 56 50 58 51 59 52 60
REMARK H PARENT 14 8 11 11 9 14 9 15 28 33 35 43 40 47 47 57 52 61
ROOT
ATOM      1  O   UNL     1      -9.907  -3.579   0.362  1.00  0.00    -0.272 OA
ATOM      2  C   UNL     1     -11.078  -3.662   0.760  1.00  0.00     0.245 C 
ENDROOT
BRANCH   2   3
ATOM      3  C   UNL     1     -11.459  -2.969   2.093  1.00  0.00     0.168 C 
ATOM      4  C   UNL     1     -12.367  -3.865   2.928  1.00  0.00     0.041 C 
BRANCH   3   5
ATOM      5  N   UNL     1     -10.332  -2.469   2.865  1.00  0.00    -0.342 N 
ATOM      6  C   UNL     1      -9.852  -1.186   2.704  1.00  0.00     0.251 C 
ATOM      7  O   UNL     1     -10.301  -0.394   1.882  1.00  0.00    -0.272 OA
ATOM      8  H   UNL     1      -9.855  -3.046   3.553  1.00  0.00     0.164 HD
BRANCH   6   9
ATOM      9  C   UNL     1      -8.755  -0.830   3.720  1.00  0.00     0.219 C 
BRANCH   9  10
ATOM     10  O   UNL     1      -9.282  -0.528   5.018  1.00  0.00    -0.382 OA
ATOM     11  H   UNL     1      -9.567   0.409   4.939  1.00  0.00     0.211 HD
ENDBRANCH   9  10
BRANCH   9  12
ATOM     12  C   UNL     1      -7.641  -1.904   3.814  1.00  0.00     0.089 C 
BRANCH  12  13
ATOM     13  N   UNL     1      -7.456  -2.505   2.474  1.00  0.00    -0.325 NA
ATOM     14  H   UNL     1      -7.966  -3.390   2.429  1.00  0.00     0.119 HD
ATOM     15  H   UNL     1      -6.472  -2.758   2.357  1.00  0.00     0.119 HD
ENDBRANCH  12  13
BRANCH  12  16
ATOM     16  C   UNL     1      -6.280  -1.423   4.373  1.00  0.00     0.022 C 
BRANCH  16  17
ATOM     17  C   UNL     1      -6.024  -1.498   5.885  1.00  0.00     0.002 C 
BRANCH  17  18
ATOM     18  C   UNL     1      -4.709  -2.162   6.284  1.00  0.00     0.000 C 
BRANCH  18  19
ATOM     19  C   UNL     1      -3.516  -1.764   5.404  1.00  0.00    -0.000 C 
BRANCH  19  20
ATOM     20  C   UNL     1      -2.705  -2.934   4.840  1.00  0.00    -0.000 C 
BRANCH  20  21
ATOM     21  C   UNL     1      -3.575  -3.997   4.166  1.00  0.00    -0.003 C 
ATOM     22  C   UNL     1      -3.813  -3.671   2.700  1.00  0.00     0.004 C 
ENDBRANCH  20  21
ENDBRANCH  19  20
ENDBRANCH  18  19
ENDBRANCH  17  18
ENDBRANCH  16  17
ENDBRANCH  12  16
ENDBRANCH   9  12
ENDBRANCH   6   9
ENDBRANCH   3   5
ENDBRANCH   2   3
BRANCH   2  23
ATOM     23  N   UNL     1     -12.045  -4.259  -0.042  1.00  0.00    -0.332 N 
ATOM     24  C   UNL     1     -13.149  -3.551  -0.671  1.00  0.00     0.147 C 
BRANCH  23  25
ATOM     25  C   UNL     1     -11.926  -5.695  -0.417  1.00  0.00     0.174 C 
BRANCH  25  26
ATOM     26  C   UNL     1     -13.152  -6.215  -1.205  1.00  0.00     0.038 C 
BRANCH  26  27
ATOM     27  C   UNL     1     -12.874  -6.896  -2.563  1.00  0.00    -0.015 C 
ATOM     28  C   UNL     1     -12.668  -5.887  -3.692  1.00  0.00     0.007 C 
ATOM     29  C   UNL     1     -11.719  -7.893  -2.517  1.00  0.00     0.007 C 
ENDBRANCH  26  27
ENDBRANCH  25  26
BRANCH  25  30
ATOM     30  C   UNL     1     -11.582  -6.544   0.828  1.00  0.00     0.243 C 
ATOM     31  O   UNL     1     -12.446  -7.147   1.463  1.00  0.00    -0.273 OA
ATOM     32  N   UNL     1     -10.256  -6.574   1.178  1.00  0.00    -0.342 N 
ATOM     33  H   UNL     1      -9.584  -6.166   0.522  1.00  0.00     0.164 HD
BRANCH  32  34
ATOM     34  C   UNL     1      -9.751  -7.304   2.343  1.00  0.00     0.175 C 
BRANCH  34  35
ATOM     35  C   UNL     1      -8.384  -7.942   2.053  1.00  0.00     0.070 C 
BRANCH  35  36
ATOM     36  C   UNL     1      -8.239  -9.318   2.663  1.00  0.00    -0.045 A 
ATOM     37  C   UNL     1      -7.611  -9.471   3.909  1.00  0.00     0.007 A 
ATOM     38  C   UNL     1      -8.705 -10.455   1.991  1.00  0.00     0.007 A 
ATOM     39  C   UNL     1      -7.461 -10.738   4.473  1.00  0.00     0.046 A 
ATOM     40  C   UNL     1      -8.554 -11.724   2.555  1.00  0.00     0.046 A 
ATOM     41  C   UNL     1      -7.934 -11.854   3.793  1.00  0.00     0.115 A 
BRANCH  41  42
ATOM     42  O   UNL     1      -7.764 -13.074   4.378  1.00  0.00    -0.508 OA
ATOM     43  H   UNL     1      -6.883 -13.406   4.139  1.00  0.00     0.293 HD
ENDBRANCH  41  42
ENDBRANCH  35  36
ENDBRANCH  34  35
BRANCH  34  44
ATOM     44  C   UNL     1      -9.688  -6.321   3.534  1.00  0.00     0.243 C 
ATOM     45  O   UNL     1      -9.056  -5.268   3.532  1.00  0.00    -0.273 OA
ATOM     46  N   UNL     1     -10.311  -6.794   4.670  1.00  0.00    -0.341 N 
ATOM     47  H   UNL     1     -10.721  -7.724   4.657  1.00  0.00     0.164 HD
BRANCH  46  48
ATOM     48  C   UNL     1     -10.324  -6.069   5.942  1.00  0.00     0.196 C 
BRANCH  48  49
ATOM     49  C   UNL     1     -11.755  -5.678   6.349  1.00  0.00     0.072 C 
BRANCH  49  50
ATOM     50  C   UNL     1     -11.795  -4.444   7.222  1.00  0.00    -0.045 A 
ATOM     51  C   UNL     1     -12.187  -4.549   8.564  1.00  0.00     0.007 A 
ATOM     52  C   UNL     1     -11.465  -3.185   6.704  1.00  0.00     0.007 A 
ATOM     53  C   UNL     1     -12.240  -3.416   9.375  1.00  0.00     0.046 A 
ATOM     54  C   UNL     1     -11.520  -2.049   7.516  1.00  0.00     0.046 A 
ATOM     55  C   UNL     1     -11.906  -2.175   8.846  1.00  0.00     0.115 A 
BRANCH  55  56
ATOM     56  O   UNL     1     -11.973  -1.092   9.671  1.00  0.00    -0.508 OA
ATOM     57  H   UNL     1     -12.901  -0.954   9.920  1.00  0.00     0.293 HD
ENDBRANCH  55  56
ENDBRANCH  49  50
ENDBRANCH  48  49
BRANCH  48  58
ATOM     58  C   UNL     1      -9.705  -6.958   7.030  1.00  0.00     0.326 C 
ATOM     59  O   UNL     1     -10.212  -7.295   8.087  1.00  0.00    -0.250 OA
BRANCH  58  60
ATOM     60  O   UNL     1      -8.460  -7.402   6.722  1.00  0.00    -0.480 OA
ATOM     61  H   UNL     1      -7.884  -6.915   7.352  1.00  0.00     0.296 HD
ENDBRANCH  58  60
ENDBRANCH  48  58
ENDBRANCH  46  48
ENDBRANCH  34  44
ENDBRANCH  32  34
ENDBRANCH  25  30
ENDBRANCH  23  25
ENDBRANCH   2  23
TORSDOF 28
ENDMDL
MODEL 49
REMARK VINA RESULT:    -5.767      2.157      7.706
REMARK INTER + INTRA:         -19.388
REMARK INTER:                 -13.711
REMARK INTRA:                  -5.677
REMARK UNBOUND:                -5.023
REMARK SMILES CCCCCCC[C@H](N)[C@H](O)C(=O)N[C@H](C)C(=O)N(C)[C@H](CC(C)C)C(=O)N[C@@H](Cc1ccc(O)cc1)C(=O)N[C@@H](Cc1ccc(O)cc1)C(=O)O
REMARK SMILES IDX 18 1 17 2 15 3 16 4 14 5 12 6 13 7 10 9 11 10 8 12 9 13 7 16
REMARK SMILES IDX 6 17 5 18 4 19 3 20 2 21 1 22 19 23 20 24 21 25 22 26 23 27
REMARK SMILES IDX 24 28 25 29 26 30 27 31 28 32 29 34 30 35 31 36 32 37 37 38
REMARK SMILES IDX 33 39 36 40 34 41 35 42 38 44 39 45 40 46 41 48 42 49 43 50
REMARK SMILES IDX 44 51 49 52 45 53 48 54 46 55 47 56 50 58 51 59 52 60
REMARK H PARENT 14 8 11 11 9 14 9 15 28 33 35 43 40 47 47 57 52 61
ROOT
ATOM      1  O   UNL     1     -12.049  -2.863   3.302  1.00  0.00    -0.272 OA
ATOM      2  C   UNL     1     -11.550  -2.895   2.167  1.00  0.00     0.245 C 
ENDROOT
BRANCH   2   3
ATOM      3  C   UNL     1     -10.054  -2.530   2.005  1.00  0.00     0.168 C 
ATOM      4  C   UNL     1      -9.895  -1.082   1.555  1.00  0.00     0.041 C 
BRANCH   3   5
ATOM      5  N   UNL     1      -9.222  -2.832   3.160  1.00  0.00    -0.342 N 
ATOM      6  C   UNL     1      -7.966  -3.384   3.028  1.00  0.00     0.251 C 
ATOM      7  O   UNL     1      -7.475  -3.698   1.949  1.00  0.00    -0.272 OA
ATOM      8  H   UNL     1      -9.537  -2.648   4.110  1.00  0.00     0.164 HD
BRANCH   6   9
ATOM      9  C   UNL     1      -7.217  -3.484   4.367  1.00  0.00     0.219 C 
BRANCH   9  10
ATOM     10  O   UNL     1      -6.252  -4.542   4.382  1.00  0.00    -0.382 OA
ATOM     11  H   UNL     1      -6.244  -4.861   3.453  1.00  0.00     0.211 HD
ENDBRANCH   9  10
BRANCH   9  12
ATOM     12  C   UNL     1      -6.571  -2.143   4.804  1.00  0.00     0.089 C 
BRANCH  12  13
ATOM     13  N   UNL     1      -6.585  -1.218   3.647  1.00  0.00    -0.325 NA
ATOM     14  H   UNL     1      -5.639  -1.140   3.268  1.00  0.00     0.119 HD
ATOM     15  H   UNL     1      -6.818  -0.279   3.977  1.00  0.00     0.119 HD
ENDBRANCH  12  13
BRANCH  12  16
ATOM     16  C   UNL     1      -7.201  -1.458   6.040  1.00  0.00     0.022 C 
BRANCH  16  17
ATOM     17  C   UNL     1      -6.566  -1.677   7.420  1.00  0.00     0.002 C 
BRANCH  17  18
ATOM     18  C   UNL     1      -7.560  -1.890   8.560  1.00  0.00     0.000 C 
BRANCH  18  19
ATOM     19  C   UNL     1      -8.452  -0.674   8.846  1.00  0.00    -0.000 C 
BRANCH  19  20
ATOM     20  C   UNL     1      -8.268  -0.044  10.230  1.00  0.00    -0.000 C 
BRANCH  20  21
ATOM     21  C   UNL     1      -6.853  -0.223  10.787  1.00  0.00    -0.003 C 
ATOM     22  C   UNL     1      -6.263   1.104  11.238  1.00  0.00     0.004 C 
ENDBRANCH  20  21
ENDBRANCH  19  20
ENDBRANCH  18  19
ENDBRANCH  17  18
ENDBRANCH  16  17
ENDBRANCH  12  16
ENDBRANCH   9  12
ENDBRANCH   6   9
ENDBRANCH   3   5
ENDBRANCH   2   3
BRANCH   2  23
ATOM     23  N   UNL     1     -12.296  -3.369   1.093  1.00  0.00    -0.332 N 
ATOM     24  C   UNL     1     -13.406  -2.656   0.480  1.00  0.00     0.147 C 
BRANCH  23  25
ATOM     25  C   UNL     1     -11.901  -4.628   0.403  1.00  0.00     0.174 C 
BRANCH  25  26
ATOM     26  C   UNL     1     -12.901  -5.049  -0.699  1.00  0.00     0.038 C 
BRANCH  26  27
ATOM     27  C   UNL     1     -12.319  -5.333  -2.102  1.00  0.00    -0.015 C 
ATOM     28  C   UNL     1     -13.037  -4.553  -3.202  1.00  0.00     0.007 C 
ATOM     29  C   UNL     1     -10.810  -5.118  -2.188  1.00  0.00     0.007 C 
ENDBRANCH  26  27
ENDBRANCH  25  26
BRANCH  25  30
ATOM     30  C   UNL     1     -11.617  -5.738   1.441  1.00  0.00     0.243 C 
ATOM     31  O   UNL     1     -12.356  -5.931   2.405  1.00  0.00    -0.273 OA
ATOM     32  N   UNL     1     -10.488  -6.483   1.219  1.00  0.00    -0.342 N 
ATOM     33  H   UNL     1     -10.005  -6.357   0.325  1.00  0.00     0.164 HD
BRANCH  32  34
ATOM     34  C   UNL     1     -10.048  -7.558   2.113  1.00  0.00     0.175 C 
BRANCH  34  35
ATOM     35  C   UNL     1      -9.263  -8.634   1.348  1.00  0.00     0.070 C 
BRANCH  35  36
ATOM     36  C   UNL     1      -9.587  -8.656  -0.129  1.00  0.00    -0.045 A 
ATOM     37  C   UNL     1      -8.593  -8.347  -1.070  1.00  0.00     0.007 A 
ATOM     38  C   UNL     1     -10.879  -8.959  -0.577  1.00  0.00     0.007 A 
ATOM     39  C   UNL     1      -8.886  -8.351  -2.434  1.00  0.00     0.046 A 
ATOM     40  C   UNL     1     -11.174  -8.961  -1.943  1.00  0.00     0.046 A 
ATOM     41  C   UNL     1     -10.173  -8.658  -2.860  1.00  0.00     0.115 A 
BRANCH  41  42
ATOM     42  O   UNL     1     -10.418  -8.648  -4.201  1.00  0.00    -0.508 OA
ATOM     43  H   UNL     1     -11.040  -7.926  -4.391  1.00  0.00     0.293 HD
ENDBRANCH  41  42
ENDBRANCH  35  36
ENDBRANCH  34  35
BRANCH  34  44
ATOM     44  C   UNL     1      -9.207  -6.925   3.244  1.00  0.00     0.243 C 
ATOM     45  O   UNL     1      -7.994  -6.743   3.189  1.00  0.00    -0.273 OA
ATOM     46  N   UNL     1      -9.925  -6.694   4.398  1.00  0.00    -0.341 N 
ATOM     47  H   UNL     1     -10.903  -6.969   4.435  1.00  0.00     0.164 HD
BRANCH  46  48
ATOM     48  C   UNL     1      -9.329  -6.163   5.626  1.00  0.00     0.196 C 
BRANCH  48  49
ATOM     49  C   UNL     1     -10.358  -6.099   6.766  1.00  0.00     0.072 C 
BRANCH  49  50
ATOM     50  C   UNL     1     -10.762  -4.682   7.106  1.00  0.00    -0.045 A 
ATOM     51  C   UNL     1     -11.598  -4.438   8.206  1.00  0.00     0.007 A 
ATOM     52  C   UNL     1     -10.331  -3.602   6.325  1.00  0.00     0.007 A 
ATOM     53  C   UNL     1     -11.989  -3.137   8.521  1.00  0.00     0.046 A 
ATOM     54  C   UNL     1     -10.723  -2.299   6.641  1.00  0.00     0.046 A 
ATOM     55  C   UNL     1     -11.548  -2.078   7.738  1.00  0.00     0.115 A 
BRANCH  55  56
ATOM     56  O   UNL     1     -11.954  -0.821   8.078  1.00  0.00    -0.508 OA
ATOM     57  H   UNL     1     -11.212  -0.366   8.507  1.00  0.00     0.293 HD
ENDBRANCH  55  56
ENDBRANCH  49  50
ENDBRANCH  48  49
BRANCH  48  58
ATOM     58  C   UNL     1      -8.156  -7.063   6.041  1.00  0.00     0.326 C 
ATOM     59  O   UNL     1      -7.036  -6.711   6.373  1.00  0.00    -0.250 OA
BRANCH  58  60
ATOM     60  O   UNL     1      -8.460  -8.385   6.032  1.00  0.00    -0.480 OA
ATOM     61  H   UNL     1      -8.588  -8.594   6.982  1.00  0.00     0.296 HD
ENDBRANCH  58  60
ENDBRANCH  48  58
ENDBRANCH  46  48
ENDBRANCH  34  44
ENDBRANCH  32  34
ENDBRANCH  25  30
ENDBRANCH  23  25
ENDBRANCH   2  23
TORSDOF 28
ENDMDL
MODEL 50
REMARK VINA RESULT:    -5.733      2.678      6.588
REMARK INTER + INTRA:         -19.301
REMARK INTER:                 -13.555
REMARK INTRA:                  -5.746
REMARK UNBOUND:                -5.023
REMARK SMILES CCCCCCC[C@H](N)[C@H](O)C(=O)N[C@H](C)C(=O)N(C)[C@H](CC(C)C)C(=O)N[C@@H](Cc1ccc(O)cc1)C(=O)N[C@@H](Cc1ccc(O)cc1)C(=O)O
REMARK SMILES IDX 18 1 17 2 15 3 16 4 14 5 12 6 13 7 10 9 11 10 8 12 9 13 7 16
REMARK SMILES IDX 6 17 5 18 4 19 3 20 2 21 1 22 19 23 20 24 21 25 22 26 23 27
REMARK SMILES IDX 24 28 25 29 26 30 27 31 28 32 29 34 30 35 31 36 32 37 37 38
REMARK SMILES IDX 33 39 36 40 34 41 35 42 38 44 39 45 40 46 41 48 42 49 43 50
REMARK SMILES IDX 44 51 49 52 45 53 48 54 46 55 47 56 50 58 51 59 52 60
REMARK H PARENT 14 8 11 11 9 14 9 15 28 33 35 43 40 47 47 57 52 61
ROOT
ATOM      1  O   UNL     1      -7.832  -3.806   7.619  1.00  0.00    -0.272 OA
ATOM      2  C   UNL     1      -8.599  -3.401   6.733  1.00  0.00     0.245 C 
ENDROOT
BRANCH   2   3
ATOM      3  C   UNL     1      -8.050  -2.418   5.669  1.00  0.00     0.168 C 
ATOM      4  C   UNL     1      -6.961  -1.531   6.263  1.00  0.00     0.041 C 
BRANCH   3   5
ATOM      5  N   UNL     1      -7.624  -3.039   4.425  1.00  0.00    -0.342 N 
ATOM      6  C   UNL     1      -7.738  -2.392   3.212  1.00  0.00     0.251 C 
ATOM      7  O   UNL     1      -8.237  -1.279   3.084  1.00  0.00    -0.272 OA
ATOM      8  H   UNL     1      -7.226  -3.975   4.401  1.00  0.00     0.164 HD
BRANCH   6   9
ATOM      9  C   UNL     1      -7.096  -3.177   2.057  1.00  0.00     0.219 C 
BRANCH   9  10
ATOM     10  O   UNL     1      -7.944  -3.258   0.905  1.00  0.00    -0.382 OA
ATOM     11  H   UNL     1      -7.438  -2.780   0.212  1.00  0.00     0.211 HD
ENDBRANCH   9  10
BRANCH   9  12
ATOM     12  C   UNL     1      -5.690  -2.650   1.670  1.00  0.00     0.089 C 
BRANCH  12  13
ATOM     13  N   UNL     1      -5.843  -1.301   1.079  1.00  0.00    -0.325 NA
ATOM     14  H   UNL     1      -6.793  -0.966   1.249  1.00  0.00     0.119 HD
ATOM     15  H   UNL     1      -5.763  -1.373   0.062  1.00  0.00     0.119 HD
ENDBRANCH  12  13
BRANCH  12  16
ATOM     16  C   UNL     1      -4.641  -2.616   2.807  1.00  0.00     0.022 C 
BRANCH  16  17
ATOM     17  C   UNL     1      -3.543  -1.544   2.780  1.00  0.00     0.002 C 
BRANCH  17  18
ATOM     18  C   UNL     1      -3.106  -1.033   4.151  1.00  0.00     0.000 C 
BRANCH  18  19
ATOM     19  C   UNL     1      -1.659  -0.524   4.196  1.00  0.00    -0.000 C 
BRANCH  19  20
ATOM     20  C   UNL     1      -1.506   1.000   4.173  1.00  0.00    -0.000 C 
BRANCH  20  21
ATOM     21  C   UNL     1      -0.795   1.549   5.413  1.00  0.00    -0.003 C 
ATOM     22  C   UNL     1      -0.880   0.576   6.578  1.00  0.00     0.004 C 
ENDBRANCH  20  21
ENDBRANCH  19  20
ENDBRANCH  18  19
ENDBRANCH  17  18
ENDBRANCH  16  17
ENDBRANCH  12  16
ENDBRANCH   9  12
ENDBRANCH   6   9
ENDBRANCH   3   5
ENDBRANCH   2   3
BRANCH   2  23
ATOM     23  N   UNL     1      -9.885  -3.923   6.635  1.00  0.00    -0.332 N 
ATOM     24  C   UNL     1     -10.215  -5.335   6.758  1.00  0.00     0.147 C 
BRANCH  23  25
ATOM     25  C   UNL     1     -11.057  -3.013   6.518  1.00  0.00     0.174 C 
BRANCH  25  26
ATOM     26  C   UNL     1     -11.921  -2.978   7.801  1.00  0.00     0.038 C 
BRANCH  26  27
ATOM     27  C   UNL     1     -11.898  -1.671   8.625  1.00  0.00    -0.015 C 
ATOM     28  C   UNL     1     -11.737  -1.928  10.123  1.00  0.00     0.007 C 
ATOM     29  C   UNL     1     -10.859  -0.664   8.138  1.00  0.00     0.007 C 
ENDBRANCH  26  27
ENDBRANCH  25  26
BRANCH  25  30
ATOM     30  C   UNL     1     -11.859  -3.339   5.238  1.00  0.00     0.243 C 
ATOM     31  O   UNL     1     -12.998  -3.800   5.284  1.00  0.00    -0.273 OA
ATOM     32  N   UNL     1     -11.214  -3.086   4.054  1.00  0.00    -0.342 N 
ATOM     33  H   UNL     1     -10.330  -2.574   4.096  1.00  0.00     0.164 HD
BRANCH  32  34
ATOM     34  C   UNL     1     -11.810  -3.359   2.743  1.00  0.00     0.175 C 
BRANCH  34  35
ATOM     35  C   UNL     1     -11.259  -2.407   1.670  1.00  0.00     0.070 C 
BRANCH  35  36
ATOM     36  C   UNL     1     -11.942  -2.576   0.332  1.00  0.00    -0.045 A 
ATOM     37  C   UNL     1     -13.329  -2.781   0.273  1.00  0.00     0.007 A 
ATOM     38  C   UNL     1     -11.205  -2.554  -0.859  1.00  0.00     0.007 A 
ATOM     39  C   UNL     1     -13.966  -2.952  -0.957  1.00  0.00     0.046 A 
ATOM     40  C   UNL     1     -11.842  -2.726  -2.091  1.00  0.00     0.046 A 
ATOM     41  C   UNL     1     -13.218  -2.923  -2.128  1.00  0.00     0.115 A 
BRANCH  41  42
ATOM     42  O   UNL     1     -13.879  -3.097  -3.308  1.00  0.00    -0.508 OA
ATOM     43  H   UNL     1     -14.673  -3.629  -3.137  1.00  0.00     0.293 HD
ENDBRANCH  41  42
ENDBRANCH  35  36
ENDBRANCH  34  35
BRANCH  34  44
ATOM     44  C   UNL     1     -11.540  -4.840   2.393  1.00  0.00     0.243 C 
ATOM     45  O   UNL     1     -12.267  -5.774   2.722  1.00  0.00    -0.273 OA
ATOM     46  N   UNL     1     -10.323  -5.046   1.780  1.00  0.00    -0.341 N 
ATOM     47  H   UNL     1      -9.702  -4.253   1.634  1.00  0.00     0.164 HD
BRANCH  46  48
ATOM     48  C   UNL     1      -9.818  -6.372   1.416  1.00  0.00     0.196 C 
BRANCH  48  49
ATOM     49  C   UNL     1      -9.294  -6.394  -0.030  1.00  0.00     0.072 C 
BRANCH  49  50
ATOM     50  C   UNL     1     -10.408  -6.367  -1.053  1.00  0.00    -0.045 A 
ATOM     51  C   UNL     1     -10.115  -6.100  -2.398  1.00  0.00     0.007 A 
ATOM     52  C   UNL     1     -11.739  -6.583  -0.675  1.00  0.00     0.007 A 
ATOM     53  C   UNL     1     -11.135  -6.059  -3.348  1.00  0.00     0.046 A 
ATOM     54  C   UNL     1     -12.761  -6.541  -1.626  1.00  0.00     0.046 A 
ATOM     55  C   UNL     1     -12.450  -6.280  -2.956  1.00  0.00     0.115 A 
BRANCH  55  56
ATOM     56  O   UNL     1     -13.418  -6.229  -3.915  1.00  0.00    -0.508 OA
ATOM     57  H   UNL     1     -13.486  -7.105  -4.328  1.00  0.00     0.293 HD
ENDBRANCH  55  56
ENDBRANCH  49  50
ENDBRANCH  48  49
BRANCH  48  58
ATOM     58  C   UNL     1      -8.687  -6.758   2.379  1.00  0.00     0.326 C 
ATOM     59  O   UNL     1      -7.901  -7.684   2.263  1.00  0.00    -0.250 OA
BRANCH  58  60
ATOM     60  O   UNL     1      -8.588  -5.936   3.454  1.00  0.00    -0.480 OA
ATOM     61  H   UNL     1      -8.051  -6.458   4.089  1.00  0.00     0.296 HD
ENDBRANCH  58  60
ENDBRANCH  48  58
ENDBRANCH  46  48
ENDBRANCH  34  44
ENDBRANCH  32  34
ENDBRANCH  25  30
ENDBRANCH  23  25
ENDBRANCH   2  23
TORSDOF 28
ENDMDL
