MODEL 1
REMARK VINA RESULT:    -6.739      0.000      0.000
REMARK INTER + INTRA:         -21.305
REMARK INTER:                 -16.784
REMARK INTRA:                  -4.520
REMARK UNBOUND:                -4.520
REMARK SMILES CCCCCCC[C@H](N)[C@H](O)C(=O)N[C@H](C)C(=O)N(C)[C@H](CC(C)C)C(=O)N[C@@H](Cc1ccc(O)cc1)C(=O)N[C@@H](Cc1ccc(O)cc1)C(=O)O
REMARK SMILES IDX 18 1 17 2 15 3 16 4 14 5 12 6 13 7 10 9 11 10 8 12 9 13 7 16
REMARK SMILES IDX 6 17 5 18 4 19 3 20 2 21 1 22 19 23 20 24 21 25 22 26 23 27
REMARK SMILES IDX 24 28 25 29 26 30 27 31 28 32 29 34 30 35 31 36 32 37 37 38
REMARK SMILES IDX 33 39 36 40 34 41 35 42 38 44 39 45 40 46 41 48 42 49 43 50
REMARK SMILES IDX 44 51 49 52 45 53 48 54 46 55 47 56 50 58 51 59 52 60
REMARK H PARENT 14 8 11 11 9 14 9 15 28 33 35 43 40 47 47 57 52 61
ROOT
ATOM      1  O   UNL     1      -2.298  -3.106  -5.728  1.00  0.00    -0.272 OA
ATOM      2  C   UNL     1      -1.723  -3.251  -6.817  1.00  0.00     0.245 C 
ENDROOT
BRANCH   2   3
ATOM      3  C   UNL     1      -0.965  -4.575  -7.083  1.00  0.00     0.168 C 
ATOM      4  C   UNL     1      -0.330  -5.103  -5.802  1.00  0.00     0.041 C 
BRANCH   3   5
ATOM      5  N   UNL     1      -1.743  -5.599  -7.764  1.00  0.00    -0.342 N 
ATOM      6  C   UNL     1      -1.762  -5.705  -9.139  1.00  0.00     0.251 C 
ATOM      7  O   UNL     1      -1.168  -4.933  -9.885  1.00  0.00    -0.272 OA
ATOM      8  H   UNL     1      -2.304  -6.275  -7.252  1.00  0.00     0.164 HD
BRANCH   6   9
ATOM      9  C   UNL     1      -2.533  -6.941  -9.629  1.00  0.00     0.219 C 
BRANCH   9  10
ATOM     10  O   UNL     1      -1.810  -8.161  -9.422  1.00  0.00    -0.382 OA
ATOM     11  H   UNL     1      -0.957  -7.861  -9.038  1.00  0.00     0.211 HD
ENDBRANCH   9  10
BRANCH   9  12
ATOM     12  C   UNL     1      -3.963  -7.040  -9.038  1.00  0.00     0.089 C 
BRANCH  12  13
ATOM     13  N   UNL     1      -3.872  -7.653  -7.693  1.00  0.00    -0.325 NA
ATOM     14  H   UNL     1      -4.198  -6.982  -6.995  1.00  0.00     0.119 HD
ATOM     15  H   UNL     1      -2.887  -7.813  -7.469  1.00  0.00     0.119 HD
ENDBRANCH  12  13
BRANCH  12  16
ATOM     16  C   UNL     1      -4.761  -5.716  -8.966  1.00  0.00     0.022 C 
BRANCH  16  17
ATOM     17  C   UNL     1      -6.279  -5.746  -9.187  1.00  0.00     0.002 C 
BRANCH  17  18
ATOM     18  C   UNL     1      -7.007  -4.450  -8.834  1.00  0.00     0.000 C 
BRANCH  18  19
ATOM     19  C   UNL     1      -6.711  -3.287  -9.790  1.00  0.00    -0.000 C 
BRANCH  19  20
ATOM     20  C   UNL     1      -7.702  -2.122  -9.723  1.00  0.00    -0.000 C 
BRANCH  20  21
ATOM     21  C   UNL     1      -8.224  -1.860  -8.308  1.00  0.00    -0.003 C 
ATOM     22  C   UNL     1      -7.440  -0.751  -7.624  1.00  0.00     0.004 C 
ENDBRANCH  20  21
ENDBRANCH  19  20
ENDBRANCH  18  19
ENDBRANCH  17  18
ENDBRANCH  16  17
ENDBRANCH  12  16
ENDBRANCH   9  12
ENDBRANCH   6   9
ENDBRANCH   3   5
ENDBRANCH   2   3
BRANCH   2  23
ATOM     23  N   UNL     1      -1.867  -2.291  -7.813  1.00  0.00    -0.332 N 
ATOM     24  C   UNL     1      -3.046  -2.144  -8.654  1.00  0.00     0.147 C 
BRANCH  23  25
ATOM     25  C   UNL     1      -0.830  -1.239  -7.998  1.00  0.00     0.174 C 
BRANCH  25  26
ATOM     26  C   UNL     1      -1.345   0.180  -7.661  1.00  0.00     0.038 C 
BRANCH  26  27
ATOM     27  C   UNL     1      -0.282   1.285  -7.473  1.00  0.00    -0.015 C 
ATOM     28  C   UNL     1      -0.676   2.597  -8.150  1.00  0.00     0.007 C 
ATOM     29  C   UNL     1       0.093   1.525  -6.012  1.00  0.00     0.007 C 
ENDBRANCH  26  27
ENDBRANCH  25  26
BRANCH  25  30
ATOM     30  C   UNL     1      -0.200  -1.353  -9.405  1.00  0.00     0.243 C 
ATOM     31  O   UNL     1       0.713  -2.141  -9.647  1.00  0.00    -0.273 OA
ATOM     32  N   UNL     1      -0.723  -0.518 -10.359  1.00  0.00    -0.342 N 
ATOM     33  H   UNL     1      -1.570   0.003 -10.119  1.00  0.00     0.164 HD
BRANCH  32  34
ATOM     34  C   UNL     1      -0.232  -0.469 -11.738  1.00  0.00     0.175 C 
BRANCH  34  35
ATOM     35  C   UNL     1      -1.382  -0.252 -12.734  1.00  0.00     0.070 C 
BRANCH  35  36
ATOM     36  C   UNL     1      -2.673   0.147 -12.057  1.00  0.00    -0.045 A 
ATOM     37  C   UNL     1      -3.749  -0.752 -12.010  1.00  0.00     0.007 A 
ATOM     38  C   UNL     1      -2.824   1.420 -11.490  1.00  0.00     0.007 A 
ATOM     39  C   UNL     1      -4.949  -0.387 -11.400  1.00  0.00     0.046 A 
ATOM     40  C   UNL     1      -4.026   1.786 -10.880  1.00  0.00     0.046 A 
ATOM     41  C   UNL     1      -5.078   0.878 -10.839  1.00  0.00     0.115 A 
BRANCH  41  42
ATOM     42  O   UNL     1      -6.268   1.196 -10.255  1.00  0.00    -0.508 OA
ATOM     43  H   UNL     1      -6.712   1.859 -10.810  1.00  0.00     0.293 HD
ENDBRANCH  41  42
ENDBRANCH  35  36
ENDBRANCH  34  35
BRANCH  34  44
ATOM     44  C   UNL     1       0.830   0.650 -11.830  1.00  0.00     0.243 C 
ATOM     45  O   UNL     1       0.605   1.788 -12.233  1.00  0.00    -0.273 OA
ATOM     46  N   UNL     1       2.107   0.220 -11.537  1.00  0.00    -0.341 N 
ATOM     47  H   UNL     1       2.261  -0.761 -11.321  1.00  0.00     0.164 HD
BRANCH  46  48
ATOM     48  C   UNL     1       3.287   1.084 -11.621  1.00  0.00     0.196 C 
BRANCH  48  49
ATOM     49  C   UNL     1       4.132   1.005 -10.338  1.00  0.00     0.072 C 
BRANCH  49  50
ATOM     50  C   UNL     1       3.956   2.217  -9.451  1.00  0.00    -0.045 A 
ATOM     51  C   UNL     1       3.181   2.123  -8.285  1.00  0.00     0.007 A 
ATOM     52  C   UNL     1       4.540   3.445  -9.784  1.00  0.00     0.007 A 
ATOM     53  C   UNL     1       3.002   3.237  -7.466  1.00  0.00     0.046 A 
ATOM     54  C   UNL     1       4.359   4.561  -8.964  1.00  0.00     0.046 A 
ATOM     55  C   UNL     1       3.592   4.447  -7.810  1.00  0.00     0.115 A 
BRANCH  55  56
ATOM     56  O   UNL     1       3.390   5.512  -6.984  1.00  0.00    -0.508 OA
ATOM     57  H   UNL     1       2.776   6.125  -7.419  1.00  0.00     0.293 HD
ENDBRANCH  55  56
ENDBRANCH  49  50
ENDBRANCH  48  49
BRANCH  48  58
ATOM     58  C   UNL     1       4.136   0.652 -12.824  1.00  0.00     0.326 C 
ATOM     59  O   UNL     1       3.766   0.513 -13.979  1.00  0.00    -0.250 OA
BRANCH  58  60
ATOM     60  O   UNL     1       5.438   0.427 -12.515  1.00  0.00    -0.480 OA
ATOM     61  H   UNL     1       5.789  -0.012 -13.320  1.00  0.00     0.296 HD
ENDBRANCH  58  60
ENDBRANCH  48  58
ENDBRANCH  46  48
ENDBRANCH  34  44
ENDBRANCH  32  34
ENDBRANCH  25  30
ENDBRANCH  23  25
ENDBRANCH   2  23
TORSDOF 28
ENDMDL
MODEL 2
REMARK VINA RESULT:    -6.711      2.686      8.341
REMARK INTER + INTRA:         -21.236
REMARK INTER:                 -15.495
REMARK INTRA:                  -5.742
REMARK UNBOUND:                -4.520
REMARK SMILES CCCCCCC[C@H](N)[C@H](O)C(=O)N[C@H](C)C(=O)N(C)[C@H](CC(C)C)C(=O)N[C@@H](Cc1ccc(O)cc1)C(=O)N[C@@H](Cc1ccc(O)cc1)C(=O)O
REMARK SMILES IDX 18 1 17 2 15 3 16 4 14 5 12 6 13 7 10 9 11 10 8 12 9 13 7 16
REMARK SMILES IDX 6 17 5 18 4 19 3 20 2 21 1 22 19 23 20 24 21 25 22 26 23 27
REMARK SMILES IDX 24 28 25 29 26 30 27 31 28 32 29 34 30 35 31 36 32 37 37 38
REMARK SMILES IDX 33 39 36 40 34 41 35 42 38 44 39 45 40 46 41 48 42 49 43 50
REMARK SMILES IDX 44 51 49 52 45 53 48 54 46 55 47 56 50 58 51 59 52 60
REMARK H PARENT 14 8 11 11 9 14 9 15 28 33 35 43 40 47 47 57 52 61
ROOT
ATOM      1  O   UNL     1      -0.065  -3.152 -10.600  1.00  0.00    -0.272 OA
ATOM      2  C   UNL     1       0.192  -1.949 -10.446  1.00  0.00     0.245 C 
ENDROOT
BRANCH   2   3
ATOM      3  C   UNL     1      -0.331  -0.939 -11.498  1.00  0.00     0.168 C 
ATOM      4  C   UNL     1       0.291  -1.209 -12.864  1.00  0.00     0.041 C 
BRANCH   3   5
ATOM      5  N   UNL     1      -1.779  -0.829 -11.574  1.00  0.00    -0.342 N 
ATOM      6  C   UNL     1      -2.438   0.340 -11.256  1.00  0.00     0.251 C 
ATOM      7  O   UNL     1      -1.870   1.349 -10.852  1.00  0.00    -0.272 OA
ATOM      8  H   UNL     1      -2.362  -1.611 -11.863  1.00  0.00     0.164 HD
BRANCH   6   9
ATOM      9  C   UNL     1      -3.946   0.269 -11.545  1.00  0.00     0.219 C 
BRANCH   9  10
ATOM     10  O   UNL     1      -4.303  -0.863 -12.348  1.00  0.00    -0.382 OA
ATOM     11  H   UNL     1      -5.261  -0.983 -12.165  1.00  0.00     0.211 HD
ENDBRANCH   9  10
BRANCH   9  12
ATOM     12  C   UNL     1      -4.816   0.330 -10.262  1.00  0.00     0.089 C 
BRANCH  12  13
ATOM     13  N   UNL     1      -3.990  -0.114  -9.116  1.00  0.00    -0.325 NA
ATOM     14  H   UNL     1      -3.577   0.703  -8.663  1.00  0.00     0.119 HD
ATOM     15  H   UNL     1      -3.195  -0.653  -9.470  1.00  0.00     0.119 HD
ENDBRANCH  12  13
BRANCH  12  16
ATOM     16  C   UNL     1      -5.467   1.698  -9.949  1.00  0.00     0.022 C 
BRANCH  16  17
ATOM     17  C   UNL     1      -6.933   1.934 -10.339  1.00  0.00     0.002 C 
BRANCH  17  18
ATOM     18  C   UNL     1      -7.189   3.209 -11.139  1.00  0.00     0.000 C 
BRANCH  18  19
ATOM     19  C   UNL     1      -7.530   4.431 -10.275  1.00  0.00    -0.000 C 
BRANCH  19  20
ATOM     20  C   UNL     1      -8.382   4.135  -9.037  1.00  0.00    -0.000 C 
BRANCH  20  21
ATOM     21  C   UNL     1      -9.796   4.715  -9.130  1.00  0.00    -0.003 C 
ATOM     22  C   UNL     1     -10.496   4.686  -7.780  1.00  0.00     0.004 C 
ENDBRANCH  20  21
ENDBRANCH  19  20
ENDBRANCH  18  19
ENDBRANCH  17  18
ENDBRANCH  16  17
ENDBRANCH  12  16
ENDBRANCH   9  12
ENDBRANCH   6   9
ENDBRANCH   3   5
ENDBRANCH   2   3
BRANCH   2  23
ATOM     23  N   UNL     1       0.828  -1.516  -9.288  1.00  0.00    -0.332 N 
ATOM     24  C   UNL     1       2.271  -1.406  -9.130  1.00  0.00     0.147 C 
BRANCH  23  25
ATOM     25  C   UNL     1       0.031  -1.001  -8.140  1.00  0.00     0.174 C 
BRANCH  25  26
ATOM     26  C   UNL     1       0.912  -0.475  -6.983  1.00  0.00     0.038 C 
BRANCH  26  27
ATOM     27  C   UNL     1       0.868   1.044  -6.704  1.00  0.00    -0.015 C 
ATOM     28  C   UNL     1       2.086   1.777  -7.265  1.00  0.00     0.007 C 
ATOM     29  C   UNL     1      -0.423   1.710  -7.175  1.00  0.00     0.007 C 
ENDBRANCH  26  27
ENDBRANCH  25  26
BRANCH  25  30
ATOM     30  C   UNL     1      -1.009  -2.056  -7.699  1.00  0.00     0.243 C 
ATOM     31  O   UNL     1      -2.203  -1.783  -7.585  1.00  0.00    -0.273 OA
ATOM     32  N   UNL     1      -0.512  -3.308  -7.440  1.00  0.00    -0.342 N 
ATOM     33  H   UNL     1       0.462  -3.492  -7.693  1.00  0.00     0.164 HD
BRANCH  32  34
ATOM     34  C   UNL     1      -1.346  -4.423  -6.985  1.00  0.00     0.175 C 
BRANCH  34  35
ATOM     35  C   UNL     1      -2.250  -4.005  -5.816  1.00  0.00     0.070 C 
BRANCH  35  36
ATOM     36  C   UNL     1      -1.918  -4.731  -4.531  1.00  0.00    -0.045 A 
ATOM     37  C   UNL     1      -2.743  -4.579  -3.406  1.00  0.00     0.007 A 
ATOM     38  C   UNL     1      -0.780  -5.542  -4.438  1.00  0.00     0.007 A 
ATOM     39  C   UNL     1      -2.437  -5.234  -2.213  1.00  0.00     0.046 A 
ATOM     40  C   UNL     1      -0.472  -6.197  -3.243  1.00  0.00     0.046 A 
ATOM     41  C   UNL     1      -1.305  -6.038  -2.140  1.00  0.00     0.115 A 
BRANCH  41  42
ATOM     42  O   UNL     1      -1.041  -6.657  -0.955  1.00  0.00    -0.508 OA
ATOM     43  H   UNL     1      -0.537  -6.043  -0.396  1.00  0.00     0.293 HD
ENDBRANCH  41  42
ENDBRANCH  35  36
ENDBRANCH  34  35
BRANCH  34  44
ATOM     44  C   UNL     1      -2.164  -4.933  -8.194  1.00  0.00     0.243 C 
ATOM     45  O   UNL     1      -1.698  -5.591  -9.119  1.00  0.00    -0.273 OA
ATOM     46  N   UNL     1      -3.462  -4.467  -8.213  1.00  0.00    -0.341 N 
ATOM     47  H   UNL     1      -3.769  -3.828  -7.484  1.00  0.00     0.164 HD
BRANCH  46  48
ATOM     48  C   UNL     1      -4.407  -4.760  -9.293  1.00  0.00     0.196 C 
BRANCH  48  49
ATOM     49  C   UNL     1      -5.857  -4.765  -8.782  1.00  0.00     0.072 C 
BRANCH  49  50
ATOM     50  C   UNL     1      -6.326  -3.396  -8.345  1.00  0.00    -0.045 A 
ATOM     51  C   UNL     1      -7.343  -2.745  -9.058  1.00  0.00     0.007 A 
ATOM     52  C   UNL     1      -5.744  -2.752  -7.246  1.00  0.00     0.007 A 
ATOM     53  C   UNL     1      -7.774  -1.475  -8.673  1.00  0.00     0.046 A 
ATOM     54  C   UNL     1      -6.175  -1.480  -6.861  1.00  0.00     0.046 A 
ATOM     55  C   UNL     1      -7.188  -0.853  -7.578  1.00  0.00     0.115 A 
BRANCH  55  56
ATOM     56  O   UNL     1      -7.637   0.388  -7.235  1.00  0.00    -0.508 OA
ATOM     57  H   UNL     1      -7.427   1.000  -7.958  1.00  0.00     0.293 HD
ENDBRANCH  55  56
ENDBRANCH  49  50
ENDBRANCH  48  49
BRANCH  48  58
ATOM     58  C   UNL     1      -4.253  -3.699 -10.392  1.00  0.00     0.326 C 
ATOM     59  O   UNL     1      -4.978  -3.525 -11.358  1.00  0.00    -0.250 OA
BRANCH  58  60
ATOM     60  O   UNL     1      -3.182  -2.885 -10.213  1.00  0.00    -0.480 OA
ATOM     61  H   UNL     1      -3.560  -2.118  -9.731  1.00  0.00     0.296 HD
ENDBRANCH  58  60
ENDBRANCH  48  58
ENDBRANCH  46  48
ENDBRANCH  34  44
ENDBRANCH  32  34
ENDBRANCH  25  30
ENDBRANCH  23  25
ENDBRANCH   2  23
TORSDOF 28
ENDMDL
MODEL 3
REMARK VINA RESULT:    -6.704      2.809     10.811
REMARK INTER + INTRA:         -21.217
REMARK INTER:                 -17.724
REMARK INTRA:                  -3.494
REMARK UNBOUND:                -4.520
REMARK SMILES CCCCCCC[C@H](N)[C@H](O)C(=O)N[C@H](C)C(=O)N(C)[C@H](CC(C)C)C(=O)N[C@@H](Cc1ccc(O)cc1)C(=O)N[C@@H](Cc1ccc(O)cc1)C(=O)O
REMARK SMILES IDX 18 1 17 2 15 3 16 4 14 5 12 6 13 7 10 9 11 10 8 12 9 13 7 16
REMARK SMILES IDX 6 17 5 18 4 19 3 20 2 21 1 22 19 23 20 24 21 25 22 26 23 27
REMARK SMILES IDX 24 28 25 29 26 30 27 31 28 32 29 34 30 35 31 36 32 37 37 38
REMARK SMILES IDX 33 39 36 40 34 41 35 42 38 44 39 45 40 46 41 48 42 49 43 50
REMARK SMILES IDX 44 51 49 52 45 53 48 54 46 55 47 56 50 58 51 59 52 60
REMARK H PARENT 14 8 11 11 9 14 9 15 28 33 35 43 40 47 47 57 52 61
ROOT
ATOM      1  O   UNL     1       1.040   1.141 -11.142  1.00  0.00    -0.272 OA
ATOM      2  C   UNL     1       2.124   0.547 -11.050  1.00  0.00     0.245 C 
ENDROOT
BRANCH   2   3
ATOM      3  C   UNL     1       3.080   0.559 -12.269  1.00  0.00     0.168 C 
ATOM      4  C   UNL     1       2.312   0.310 -13.563  1.00  0.00     0.041 C 
BRANCH   3   5
ATOM      5  N   UNL     1       3.935   1.731 -12.364  1.00  0.00    -0.342 N 
ATOM      6  C   UNL     1       5.309   1.640 -12.279  1.00  0.00     0.251 C 
ATOM      7  O   UNL     1       5.905   0.587 -12.079  1.00  0.00    -0.272 OA
ATOM      8  H   UNL     1       3.553   2.665 -12.495  1.00  0.00     0.164 HD
BRANCH   6   9
ATOM      9  C   UNL     1       6.011   2.980 -12.548  1.00  0.00     0.219 C 
BRANCH   9  10
ATOM     10  O   UNL     1       5.521   3.635 -13.724  1.00  0.00    -0.382 OA
ATOM     11  H   UNL     1       5.685   2.981 -14.439  1.00  0.00     0.211 HD
ENDBRANCH   9  10
BRANCH   9  12
ATOM     12  C   UNL     1       5.980   3.940 -11.330  1.00  0.00     0.089 C 
BRANCH  12  13
ATOM     13  N   UNL     1       5.162   3.315 -10.265  1.00  0.00    -0.325 NA
ATOM     14  H   UNL     1       4.615   4.038  -9.794  1.00  0.00     0.119 HD
ATOM     15  H   UNL     1       5.786   2.942  -9.545  1.00  0.00     0.119 HD
ENDBRANCH  12  13
BRANCH  12  16
ATOM     16  C   UNL     1       7.356   4.363 -10.765  1.00  0.00     0.022 C 
BRANCH  16  17
ATOM     17  C   UNL     1       7.790   5.831 -10.876  1.00  0.00     0.002 C 
BRANCH  17  18
ATOM     18  C   UNL     1       9.112   6.167 -10.190  1.00  0.00     0.000 C 
BRANCH  18  19
ATOM     19  C   UNL     1       9.269   5.543  -8.796  1.00  0.00    -0.000 C 
BRANCH  19  20
ATOM     20  C   UNL     1       9.004   6.494  -7.626  1.00  0.00    -0.000 C 
BRANCH  20  21
ATOM     21  C   UNL     1       9.745   6.093  -6.347  1.00  0.00    -0.003 C 
ATOM     22  C   UNL     1       9.120   6.735  -5.119  1.00  0.00     0.004 C 
ENDBRANCH  20  21
ENDBRANCH  19  20
ENDBRANCH  18  19
ENDBRANCH  17  18
ENDBRANCH  16  17
ENDBRANCH  12  16
ENDBRANCH   9  12
ENDBRANCH   6   9
ENDBRANCH   3   5
ENDBRANCH   2   3
BRANCH   2  23
ATOM     23  N   UNL     1       2.513  -0.007  -9.836  1.00  0.00    -0.332 N 
ATOM     24  C   UNL     1       3.883  -0.353  -9.487  1.00  0.00     0.147 C 
BRANCH  23  25
ATOM     25  C   UNL     1       1.527  -0.167  -8.733  1.00  0.00     0.174 C 
BRANCH  25  26
ATOM     26  C   UNL     1       2.136   0.097  -7.336  1.00  0.00     0.038 C 
BRANCH  26  27
ATOM     27  C   UNL     1       1.901   1.496  -6.723  1.00  0.00    -0.015 C 
ATOM     28  C   UNL     1       2.150   1.523  -5.215  1.00  0.00     0.007 C 
ATOM     29  C   UNL     1       2.690   2.604  -7.417  1.00  0.00     0.007 C 
ENDBRANCH  26  27
ENDBRANCH  25  26
BRANCH  25  30
ATOM     30  C   UNL     1       0.814  -1.534  -8.850  1.00  0.00     0.243 C 
ATOM     31  O   UNL     1       1.255  -2.438  -9.559  1.00  0.00    -0.273 OA
ATOM     32  N   UNL     1      -0.339  -1.667  -8.120  1.00  0.00    -0.342 N 
ATOM     33  H   UNL     1      -0.563  -0.928  -7.450  1.00  0.00     0.164 HD
BRANCH  32  34
ATOM     34  C   UNL     1      -1.160  -2.881  -8.132  1.00  0.00     0.175 C 
BRANCH  34  35
ATOM     35  C   UNL     1      -2.140  -2.904  -6.948  1.00  0.00     0.070 C 
BRANCH  35  36
ATOM     36  C   UNL     1      -1.726  -3.874  -5.865  1.00  0.00    -0.045 A 
ATOM     37  C   UNL     1      -2.480  -3.973  -4.686  1.00  0.00     0.007 A 
ATOM     38  C   UNL     1      -0.579  -4.667  -6.010  1.00  0.00     0.007 A 
ATOM     39  C   UNL     1      -2.098  -4.856  -3.675  1.00  0.00     0.046 A 
ATOM     40  C   UNL     1      -0.196  -5.550  -4.997  1.00  0.00     0.046 A 
ATOM     41  C   UNL     1      -0.960  -5.637  -3.839  1.00  0.00     0.115 A 
BRANCH  41  42
ATOM     42  O   UNL     1      -0.620  -6.484  -2.826  1.00  0.00    -0.508 OA
ATOM     43  H   UNL     1       0.283  -6.269  -2.539  1.00  0.00     0.293 HD
ENDBRANCH  41  42
ENDBRANCH  35  36
ENDBRANCH  34  35
BRANCH  34  44
ATOM     44  C   UNL     1      -1.893  -2.950  -9.490  1.00  0.00     0.243 C 
ATOM     45  O   UNL     1      -1.991  -3.965 -10.175  1.00  0.00    -0.273 OA
ATOM     46  N   UNL     1      -2.329  -1.723  -9.942  1.00  0.00    -0.341 N 
ATOM     47  H   UNL     1      -2.121  -0.892  -9.393  1.00  0.00     0.164 HD
BRANCH  46  48
ATOM     48  C   UNL     1      -2.990  -1.528 -11.234  1.00  0.00     0.196 C 
BRANCH  48  49
ATOM     49  C   UNL     1      -4.482  -1.200 -11.056  1.00  0.00     0.072 C 
BRANCH  49  50
ATOM     50  C   UNL     1      -5.248  -2.320 -10.389  1.00  0.00    -0.045 A 
ATOM     51  C   UNL     1      -5.832  -2.114  -9.131  1.00  0.00     0.007 A 
ATOM     52  C   UNL     1      -5.368  -3.575 -11.000  1.00  0.00     0.007 A 
ATOM     53  C   UNL     1      -6.531  -3.144  -8.500  1.00  0.00     0.046 A 
ATOM     54  C   UNL     1      -6.066  -4.606 -10.368  1.00  0.00     0.046 A 
ATOM     55  C   UNL     1      -6.643  -4.381  -9.123  1.00  0.00     0.115 A 
BRANCH  55  56
ATOM     56  O   UNL     1      -7.331  -5.362  -8.472  1.00  0.00    -0.508 OA
ATOM     57  H   UNL     1      -6.693  -6.007  -8.128  1.00  0.00     0.293 HD
ENDBRANCH  55  56
ENDBRANCH  49  50
ENDBRANCH  48  49
BRANCH  48  58
ATOM     58  C   UNL     1      -2.296  -0.381 -11.982  1.00  0.00     0.326 C 
ATOM     59  O   UNL     1      -2.779   0.695 -12.296  1.00  0.00    -0.250 OA
BRANCH  58  60
ATOM     60  O   UNL     1      -1.001  -0.642 -12.292  1.00  0.00    -0.480 OA
ATOM     61  H   UNL     1      -1.046  -0.921 -13.232  1.00  0.00     0.296 HD
ENDBRANCH  58  60
ENDBRANCH  48  58
ENDBRANCH  46  48
ENDBRANCH  34  44
ENDBRANCH  32  34
ENDBRANCH  25  30
ENDBRANCH  23  25
ENDBRANCH   2  23
TORSDOF 28
ENDMDL
MODEL 4
REMARK VINA RESULT:    -6.658      2.756     10.841
REMARK INTER + INTRA:         -21.103
REMARK INTER:                 -19.291
REMARK INTRA:                  -1.813
REMARK UNBOUND:                -4.520
REMARK SMILES CCCCCCC[C@H](N)[C@H](O)C(=O)N[C@H](C)C(=O)N(C)[C@H](CC(C)C)C(=O)N[C@@H](Cc1ccc(O)cc1)C(=O)N[C@@H](Cc1ccc(O)cc1)C(=O)O
REMARK SMILES IDX 18 1 17 2 15 3 16 4 14 5 12 6 13 7 10 9 11 10 8 12 9 13 7 16
REMARK SMILES IDX 6 17 5 18 4 19 3 20 2 21 1 22 19 23 20 24 21 25 22 26 23 27
REMARK SMILES IDX 24 28 25 29 26 30 27 31 28 32 29 34 30 35 31 36 32 37 37 38
REMARK SMILES IDX 33 39 36 40 34 41 35 42 38 44 39 45 40 46 41 48 42 49 43 50
REMARK SMILES IDX 44 51 49 52 45 53 48 54 46 55 47 56 50 58 51 59 52 60
REMARK H PARENT 14 8 11 11 9 14 9 15 28 33 35 43 40 47 47 57 52 61
ROOT
ATOM      1  O   UNL     1       1.158   0.835  -7.554  1.00  0.00    -0.272 OA
ATOM      2  C   UNL     1       1.822   0.629  -8.581  1.00  0.00     0.245 C 
ENDROOT
BRANCH   2   3
ATOM      3  C   UNL     1       2.649   1.795  -9.175  1.00  0.00     0.168 C 
ATOM      4  C   UNL     1       2.901   2.872  -8.125  1.00  0.00     0.041 C 
BRANCH   3   5
ATOM      5  N   UNL     1       3.877   1.394  -9.845  1.00  0.00    -0.342 N 
ATOM      6  C   UNL     1       4.060   1.577 -11.199  1.00  0.00     0.251 C 
ATOM      7  O   UNL     1       3.203   2.044 -11.941  1.00  0.00    -0.272 OA
ATOM      8  H   UNL     1       4.647   0.963  -9.339  1.00  0.00     0.164 HD
BRANCH   6   9
ATOM      9  C   UNL     1       5.481   1.213 -11.661  1.00  0.00     0.219 C 
BRANCH   9  10
ATOM     10  O   UNL     1       5.489   0.202 -12.676  1.00  0.00    -0.382 OA
ATOM     11  H   UNL     1       4.909   0.573 -13.377  1.00  0.00     0.211 HD
ENDBRANCH   9  10
BRANCH   9  12
ATOM     12  C   UNL     1       6.312   2.445 -12.104  1.00  0.00     0.089 C 
BRANCH  12  13
ATOM     13  N   UNL     1       5.744   2.961 -13.370  1.00  0.00    -0.325 NA
ATOM     14  H   UNL     1       6.491   3.048 -14.062  1.00  0.00     0.119 HD
ATOM     15  H   UNL     1       5.409   3.915 -13.218  1.00  0.00     0.119 HD
ENDBRANCH  12  13
BRANCH  12  16
ATOM     16  C   UNL     1       6.431   3.590 -11.069  1.00  0.00     0.022 C 
BRANCH  16  17
ATOM     17  C   UNL     1       7.574   4.604 -11.206  1.00  0.00     0.002 C 
BRANCH  17  18
ATOM     18  C   UNL     1       8.208   5.042  -9.887  1.00  0.00     0.000 C 
BRANCH  18  19
ATOM     19  C   UNL     1       9.377   6.023 -10.052  1.00  0.00    -0.000 C 
BRANCH  19  20
ATOM     20  C   UNL     1       9.975   6.547  -8.743  1.00  0.00    -0.000 C 
BRANCH  20  21
ATOM     21  C   UNL     1       9.739   5.608  -7.557  1.00  0.00    -0.003 C 
ATOM     22  C   UNL     1      10.179   6.245  -6.249  1.00  0.00     0.004 C 
ENDBRANCH  20  21
ENDBRANCH  19  20
ENDBRANCH  18  19
ENDBRANCH  17  18
ENDBRANCH  16  17
ENDBRANCH  12  16
ENDBRANCH   9  12
ENDBRANCH   6   9
ENDBRANCH   3   5
ENDBRANCH   2   3
BRANCH   2  23
ATOM     23  N   UNL     1       1.910  -0.657  -9.105  1.00  0.00    -0.332 N 
ATOM     24  C   UNL     1       2.935  -1.626  -8.747  1.00  0.00     0.147 C 
BRANCH  23  25
ATOM     25  C   UNL     1       0.843  -1.176 -10.004  1.00  0.00     0.174 C 
BRANCH  25  26
ATOM     26  C   UNL     1       0.298  -0.102 -10.974  1.00  0.00     0.038 C 
BRANCH  26  27
ATOM     27  C   UNL     1      -0.437  -0.607 -12.236  1.00  0.00    -0.015 C 
ATOM     28  C   UNL     1      -1.484   0.386 -12.740  1.00  0.00     0.007 C 
ATOM     29  C   UNL     1       0.505  -1.014 -13.366  1.00  0.00     0.007 C 
ENDBRANCH  26  27
ENDBRANCH  25  26
BRANCH  25  30
ATOM     30  C   UNL     1      -0.256  -1.879  -9.174  1.00  0.00     0.243 C 
ATOM     31  O   UNL     1      -1.208  -1.262  -8.700  1.00  0.00    -0.273 OA
ATOM     32  N   UNL     1      -0.094  -3.230  -8.999  1.00  0.00    -0.342 N 
ATOM     33  H   UNL     1       0.642  -3.693  -9.539  1.00  0.00     0.164 HD
BRANCH  32  34
ATOM     34  C   UNL     1      -1.021  -4.054  -8.219  1.00  0.00     0.175 C 
BRANCH  34  35
ATOM     35  C   UNL     1      -1.417  -3.360  -6.907  1.00  0.00     0.070 C 
BRANCH  35  36
ATOM     36  C   UNL     1      -1.280  -4.265  -5.703  1.00  0.00    -0.045 A 
ATOM     37  C   UNL     1      -2.307  -4.323  -4.748  1.00  0.00     0.007 A 
ATOM     38  C   UNL     1      -0.127  -5.036  -5.510  1.00  0.00     0.007 A 
ATOM     39  C   UNL     1      -2.184  -5.144  -3.627  1.00  0.00     0.046 A 
ATOM     40  C   UNL     1      -0.002  -5.858  -4.387  1.00  0.00     0.046 A 
ATOM     41  C   UNL     1      -1.034  -5.905  -3.456  1.00  0.00     0.115 A 
BRANCH  41  42
ATOM     42  O   UNL     1      -0.952  -6.692  -2.345  1.00  0.00    -0.508 OA
ATOM     43  H   UNL     1      -1.399  -7.533  -2.535  1.00  0.00     0.293 HD
ENDBRANCH  41  42
ENDBRANCH  35  36
ENDBRANCH  34  35
BRANCH  34  44
ATOM     44  C   UNL     1      -2.250  -4.359  -9.105  1.00  0.00     0.243 C 
ATOM     45  O   UNL     1      -2.195  -4.611 -10.305  1.00  0.00    -0.273 OA
ATOM     46  N   UNL     1      -3.453  -4.196  -8.449  1.00  0.00    -0.341 N 
ATOM     47  H   UNL     1      -3.450  -3.873  -7.485  1.00  0.00     0.164 HD
BRANCH  46  48
ATOM     48  C   UNL     1      -4.754  -4.363  -9.100  1.00  0.00     0.196 C 
BRANCH  48  49
ATOM     49  C   UNL     1      -4.721  -3.864 -10.554  1.00  0.00     0.072 C 
BRANCH  49  50
ATOM     50  C   UNL     1      -5.203  -2.437 -10.691  1.00  0.00    -0.045 A 
ATOM     51  C   UNL     1      -4.454  -1.514 -11.436  1.00  0.00     0.007 A 
ATOM     52  C   UNL     1      -6.381  -2.011 -10.064  1.00  0.00     0.007 A 
ATOM     53  C   UNL     1      -4.882  -0.192 -11.558  1.00  0.00     0.046 A 
ATOM     54  C   UNL     1      -6.808  -0.687 -10.185  1.00  0.00     0.046 A 
ATOM     55  C   UNL     1      -6.055   0.212 -10.933  1.00  0.00     0.115 A 
BRANCH  55  56
ATOM     56  O   UNL     1      -6.437   1.513 -11.075  1.00  0.00    -0.508 OA
ATOM     57  H   UNL     1      -6.374   1.749 -12.014  1.00  0.00     0.293 HD
ENDBRANCH  55  56
ENDBRANCH  49  50
ENDBRANCH  48  49
BRANCH  48  58
ATOM     58  C   UNL     1      -5.138  -5.849  -9.075  1.00  0.00     0.326 C 
ATOM     59  O   UNL     1      -4.383  -6.807  -9.045  1.00  0.00    -0.250 OA
BRANCH  58  60
ATOM     60  O   UNL     1      -6.478  -6.061  -9.073  1.00  0.00    -0.480 OA
ATOM     61  H   UNL     1      -6.698  -6.125 -10.028  1.00  0.00     0.296 HD
ENDBRANCH  58  60
ENDBRANCH  48  58
ENDBRANCH  46  48
ENDBRANCH  34  44
ENDBRANCH  32  34
ENDBRANCH  25  30
ENDBRANCH  23  25
ENDBRANCH   2  23
TORSDOF 28
ENDMDL
MODEL 5
REMARK VINA RESULT:    -6.607      2.594      7.405
REMARK INTER + INTRA:         -20.977
REMARK INTER:                 -16.779
REMARK INTRA:                  -4.197
REMARK UNBOUND:                -4.520
REMARK SMILES CCCCCCC[C@H](N)[C@H](O)C(=O)N[C@H](C)C(=O)N(C)[C@H](CC(C)C)C(=O)N[C@@H](Cc1ccc(O)cc1)C(=O)N[C@@H](Cc1ccc(O)cc1)C(=O)O
REMARK SMILES IDX 18 1 17 2 15 3 16 4 14 5 12 6 13 7 10 9 11 10 8 12 9 13 7 16
REMARK SMILES IDX 6 17 5 18 4 19 3 20 2 21 1 22 19 23 20 24 21 25 22 26 23 27
REMARK SMILES IDX 24 28 25 29 26 30 27 31 28 32 29 34 30 35 31 36 32 37 37 38
REMARK SMILES IDX 33 39 36 40 34 41 35 42 38 44 39 45 40 46 41 48 42 49 43 50
REMARK SMILES IDX 44 51 49 52 45 53 48 54 46 55 47 56 50 58 51 59 52 60
REMARK H PARENT 14 8 11 11 9 14 9 15 28 33 35 43 40 47 47 57 52 61
ROOT
ATOM      1  O   UNL     1      -3.145  -1.614  -8.911  1.00  0.00    -0.272 OA
ATOM      2  C   UNL     1      -3.842  -1.768  -9.925  1.00  0.00     0.245 C 
ENDROOT
BRANCH   2   3
ATOM      3  C   UNL     1      -4.961  -2.838  -9.900  1.00  0.00     0.168 C 
ATOM      4  C   UNL     1      -4.367  -4.243  -9.909  1.00  0.00     0.041 C 
BRANCH   3   5
ATOM      5  N   UNL     1      -5.942  -2.672  -8.839  1.00  0.00    -0.342 N 
ATOM      6  C   UNL     1      -7.120  -1.984  -9.039  1.00  0.00     0.251 C 
ATOM      7  O   UNL     1      -7.411  -1.432 -10.095  1.00  0.00    -0.272 OA
ATOM      8  H   UNL     1      -5.796  -3.056  -7.909  1.00  0.00     0.164 HD
BRANCH   6   9
ATOM      9  C   UNL     1      -8.064  -2.058  -7.828  1.00  0.00     0.219 C 
BRANCH   9  10
ATOM     10  O   UNL     1      -8.076  -3.353  -7.214  1.00  0.00    -0.382 OA
ATOM     11  H   UNL     1      -7.354  -3.833  -7.676  1.00  0.00     0.211 HD
ENDBRANCH   9  10
BRANCH   9  12
ATOM     12  C   UNL     1      -7.792  -0.952  -6.775  1.00  0.00     0.089 C 
BRANCH  12  13
ATOM     13  N   UNL     1      -7.314  -1.598  -5.531  1.00  0.00    -0.325 NA
ATOM     14  H   UNL     1      -7.360  -2.613  -5.641  1.00  0.00     0.119 HD
ATOM     15  H   UNL     1      -7.967  -1.382  -4.774  1.00  0.00     0.119 HD
ENDBRANCH  12  13
BRANCH  12  16
ATOM     16  C   UNL     1      -6.811   0.166  -7.204  1.00  0.00     0.022 C 
BRANCH  16  17
ATOM     17  C   UNL     1      -7.317   1.612  -7.287  1.00  0.00     0.002 C 
BRANCH  17  18
ATOM     18  C   UNL     1      -6.541   2.513  -8.244  1.00  0.00     0.000 C 
BRANCH  18  19
ATOM     19  C   UNL     1      -5.861   1.761  -9.396  1.00  0.00    -0.000 C 
BRANCH  19  20
ATOM     20  C   UNL     1      -6.405   2.080 -10.792  1.00  0.00    -0.000 C 
BRANCH  20  21
ATOM     21  C   UNL     1      -7.307   3.317 -10.815  1.00  0.00    -0.003 C 
ATOM     22  C   UNL     1      -7.062   4.158 -12.059  1.00  0.00     0.004 C 
ENDBRANCH  20  21
ENDBRANCH  19  20
ENDBRANCH  18  19
ENDBRANCH  17  18
ENDBRANCH  16  17
ENDBRANCH  12  16
ENDBRANCH   9  12
ENDBRANCH   6   9
ENDBRANCH   3   5
ENDBRANCH   2   3
BRANCH   2  23
ATOM     23  N   UNL     1      -3.693  -0.908 -11.008  1.00  0.00    -0.332 N 
ATOM     24  C   UNL     1      -4.592  -0.856 -12.151  1.00  0.00     0.147 C 
BRANCH  23  25
ATOM     25  C   UNL     1      -2.633   0.137 -10.997  1.00  0.00     0.174 C 
BRANCH  25  26
ATOM     26  C   UNL     1      -2.823   1.200 -12.104  1.00  0.00     0.038 C 
BRANCH  26  27
ATOM     27  C   UNL     1      -1.685   2.228 -12.292  1.00  0.00    -0.015 C 
ATOM     28  C   UNL     1      -1.041   2.142 -13.675  1.00  0.00     0.007 C 
ATOM     29  C   UNL     1      -2.105   3.663 -11.983  1.00  0.00     0.007 C 
ENDBRANCH  26  27
ENDBRANCH  25  26
BRANCH  25  30
ATOM     30  C   UNL     1      -1.235  -0.523 -11.003  1.00  0.00     0.243 C 
ATOM     31  O   UNL     1      -0.824  -1.165 -11.968  1.00  0.00    -0.273 OA
ATOM     32  N   UNL     1      -0.492  -0.350  -9.864  1.00  0.00    -0.342 N 
ATOM     33  H   UNL     1      -0.842   0.312  -9.166  1.00  0.00     0.164 HD
BRANCH  32  34
ATOM     34  C   UNL     1       0.843  -0.926  -9.681  1.00  0.00     0.175 C 
BRANCH  34  35
ATOM     35  C   UNL     1       1.884   0.161  -9.372  1.00  0.00     0.070 C 
BRANCH  35  36
ATOM     36  C   UNL     1       2.919   0.306 -10.464  1.00  0.00    -0.045 A 
ATOM     37  C   UNL     1       4.249   0.611 -10.134  1.00  0.00     0.007 A 
ATOM     38  C   UNL     1       2.567   0.164 -11.813  1.00  0.00     0.007 A 
ATOM     39  C   UNL     1       5.209   0.761 -11.136  1.00  0.00     0.046 A 
ATOM     40  C   UNL     1       3.527   0.315 -12.816  1.00  0.00     0.046 A 
ATOM     41  C   UNL     1       4.841   0.611 -12.468  1.00  0.00     0.115 A 
BRANCH  41  42
ATOM     42  O   UNL     1       5.808   0.768 -13.415  1.00  0.00    -0.508 OA
ATOM     43  H   UNL     1       5.717   1.657 -13.799  1.00  0.00     0.293 HD
ENDBRANCH  41  42
ENDBRANCH  35  36
ENDBRANCH  34  35
BRANCH  34  44
ATOM     44  C   UNL     1       0.759  -1.982  -8.556  1.00  0.00     0.243 C 
ATOM     45  O   UNL     1       1.518  -2.030  -7.592  1.00  0.00    -0.273 OA
ATOM     46  N   UNL     1      -0.179  -2.965  -8.794  1.00  0.00    -0.341 N 
ATOM     47  H   UNL     1      -0.704  -2.946  -9.665  1.00  0.00     0.164 HD
BRANCH  46  48
ATOM     48  C   UNL     1      -0.393  -4.107  -7.904  1.00  0.00     0.196 C 
BRANCH  48  49
ATOM     49  C   UNL     1      -1.487  -3.810  -6.865  1.00  0.00     0.072 C 
BRANCH  49  50
ATOM     50  C   UNL     1      -1.304  -4.596  -5.586  1.00  0.00    -0.045 A 
ATOM     51  C   UNL     1      -2.351  -4.672  -4.656  1.00  0.00     0.007 A 
ATOM     52  C   UNL     1      -0.091  -5.236  -5.301  1.00  0.00     0.007 A 
ATOM     53  C   UNL     1      -2.189  -5.382  -3.467  1.00  0.00     0.046 A 
ATOM     54  C   UNL     1       0.072  -5.947  -4.109  1.00  0.00     0.046 A 
ATOM     55  C   UNL     1      -0.980  -6.014  -3.202  1.00  0.00     0.115 A 
BRANCH  55  56
ATOM     56  O   UNL     1      -0.862  -6.697  -2.028  1.00  0.00    -0.508 OA
ATOM     57  H   UNL     1      -0.927  -6.062  -1.297  1.00  0.00     0.293 HD
ENDBRANCH  55  56
ENDBRANCH  49  50
ENDBRANCH  48  49
BRANCH  48  58
ATOM     58  C   UNL     1      -0.797  -5.326  -8.744  1.00  0.00     0.326 C 
ATOM     59  O   UNL     1      -1.677  -6.135  -8.497  1.00  0.00    -0.250 OA
BRANCH  58  60
ATOM     60  O   UNL     1      -0.072  -5.464  -9.882  1.00  0.00    -0.480 OA
ATOM     61  H   UNL     1      -0.485  -6.239 -10.321  1.00  0.00     0.296 HD
ENDBRANCH  58  60
ENDBRANCH  48  58
ENDBRANCH  46  48
ENDBRANCH  34  44
ENDBRANCH  32  34
ENDBRANCH  25  30
ENDBRANCH  23  25
ENDBRANCH   2  23
TORSDOF 28
ENDMDL
MODEL 6
REMARK VINA RESULT:    -6.605     11.652     15.604
REMARK INTER + INTRA:         -20.971
REMARK INTER:                 -16.239
REMARK INTRA:                  -4.732
REMARK UNBOUND:                -4.520
REMARK SMILES CCCCCCC[C@H](N)[C@H](O)C(=O)N[C@H](C)C(=O)N(C)[C@H](CC(C)C)C(=O)N[C@@H](Cc1ccc(O)cc1)C(=O)N[C@@H](Cc1ccc(O)cc1)C(=O)O
REMARK SMILES IDX 18 1 17 2 15 3 16 4 14 5 12 6 13 7 10 9 11 10 8 12 9 13 7 16
REMARK SMILES IDX 6 17 5 18 4 19 3 20 2 21 1 22 19 23 20 24 21 25 22 26 23 27
REMARK SMILES IDX 24 28 25 29 26 30 27 31 28 32 29 34 30 35 31 36 32 37 37 38
REMARK SMILES IDX 33 39 36 40 34 41 35 42 38 44 39 45 40 46 41 48 42 49 43 50
REMARK SMILES IDX 44 51 49 52 45 53 48 54 46 55 47 56 50 58 51 59 52 60
REMARK H PARENT 14 8 11 11 9 14 9 15 28 33 35 43 40 47 47 57 52 61
ROOT
ATOM      1  O   UNL     1      -6.652  -5.996   2.940  1.00  0.00    -0.272 OA
ATOM      2  C   UNL     1      -7.828  -6.289   2.681  1.00  0.00     0.245 C 
ENDROOT
BRANCH   2   3
ATOM      3  C   UNL     1      -8.683  -6.965   3.782  1.00  0.00     0.168 C 
ATOM      4  C   UNL     1      -9.613  -8.012   3.179  1.00  0.00     0.041 C 
BRANCH   3   5
ATOM      5  N   UNL     1      -7.925  -7.496   4.904  1.00  0.00    -0.342 N 
ATOM      6  C   UNL     1      -8.331  -7.313   6.209  1.00  0.00     0.251 C 
ATOM      7  O   UNL     1      -9.323  -6.663   6.524  1.00  0.00    -0.272 OA
ATOM      8  H   UNL     1      -7.065  -8.023   4.769  1.00  0.00     0.164 HD
BRANCH   6   9
ATOM      9  C   UNL     1      -7.459  -8.079   7.216  1.00  0.00     0.219 C 
BRANCH   9  10
ATOM     10  O   UNL     1      -7.170  -9.417   6.792  1.00  0.00    -0.382 OA
ATOM     11  H   UNL     1      -7.406  -9.412   5.838  1.00  0.00     0.211 HD
ENDBRANCH   9  10
BRANCH   9  12
ATOM     12  C   UNL     1      -6.156  -7.326   7.590  1.00  0.00     0.089 C 
BRANCH  12  13
ATOM     13  N   UNL     1      -5.474  -6.923   6.339  1.00  0.00    -0.325 NA
ATOM     14  H   UNL     1      -4.519  -7.287   6.344  1.00  0.00     0.119 HD
ATOM     15  H   UNL     1      -5.372  -5.905   6.331  1.00  0.00     0.119 HD
ENDBRANCH  12  13
BRANCH  12  16
ATOM     16  C   UNL     1      -6.323  -6.103   8.523  1.00  0.00     0.022 C 
BRANCH  16  17
ATOM     17  C   UNL     1      -7.650  -5.908   9.269  1.00  0.00     0.002 C 
BRANCH  17  18
ATOM     18  C   UNL     1      -8.120  -4.460   9.380  1.00  0.00     0.000 C 
BRANCH  18  19
ATOM     19  C   UNL     1      -6.980  -3.440   9.500  1.00  0.00    -0.000 C 
BRANCH  19  20
ATOM     20  C   UNL     1      -7.194  -2.347  10.551  1.00  0.00    -0.000 C 
BRANCH  20  21
ATOM     21  C   UNL     1      -6.900  -0.941  10.022  1.00  0.00    -0.003 C 
ATOM     22  C   UNL     1      -5.473  -0.829   9.508  1.00  0.00     0.004 C 
ENDBRANCH  20  21
ENDBRANCH  19  20
ENDBRANCH  18  19
ENDBRANCH  17  18
ENDBRANCH  16  17
ENDBRANCH  12  16
ENDBRANCH   9  12
ENDBRANCH   6   9
ENDBRANCH   3   5
ENDBRANCH   2   3
BRANCH   2  23
ATOM     23  N   UNL     1      -8.391  -5.902   1.470  1.00  0.00    -0.332 N 
ATOM     24  C   UNL     1      -9.566  -5.053   1.339  1.00  0.00     0.147 C 
BRANCH  23  25
ATOM     25  C   UNL     1      -7.720  -6.245   0.186  1.00  0.00     0.174 C 
BRANCH  25  26
ATOM     26  C   UNL     1      -7.259  -7.720   0.123  1.00  0.00     0.038 C 
BRANCH  26  27
ATOM     27  C   UNL     1      -8.123  -8.689  -0.714  1.00  0.00    -0.015 C 
ATOM     28  C   UNL     1      -8.614  -9.886   0.100  1.00  0.00     0.007 C 
ATOM     29  C   UNL     1      -9.290  -8.005  -1.422  1.00  0.00     0.007 C 
ENDBRANCH  26  27
ENDBRANCH  25  26
BRANCH  25  30
ATOM     30  C   UNL     1      -6.595  -5.228  -0.115  1.00  0.00     0.243 C 
ATOM     31  O   UNL     1      -6.834  -4.110  -0.569  1.00  0.00    -0.273 OA
ATOM     32  N   UNL     1      -5.321  -5.658   0.150  1.00  0.00    -0.342 N 
ATOM     33  H   UNL     1      -5.214  -6.542   0.656  1.00  0.00     0.164 HD
BRANCH  32  34
ATOM     34  C   UNL     1      -4.130  -4.840  -0.098  1.00  0.00     0.175 C 
BRANCH  34  35
ATOM     35  C   UNL     1      -4.023  -4.446  -1.580  1.00  0.00     0.070 C 
BRANCH  35  36
ATOM     36  C   UNL     1      -2.766  -4.972  -2.235  1.00  0.00    -0.045 A 
ATOM     37  C   UNL     1      -2.440  -4.582  -3.543  1.00  0.00     0.007 A 
ATOM     38  C   UNL     1      -1.924  -5.867  -1.561  1.00  0.00     0.007 A 
ATOM     39  C   UNL     1      -1.289  -5.072  -4.161  1.00  0.00     0.046 A 
ATOM     40  C   UNL     1      -0.773  -6.359  -2.180  1.00  0.00     0.046 A 
ATOM     41  C   UNL     1      -0.465  -5.956  -3.475  1.00  0.00     0.115 A 
BRANCH  41  42
ATOM     42  O   UNL     1       0.648  -6.414  -4.115  1.00  0.00    -0.508 OA
ATOM     43  H   UNL     1       1.391  -5.828  -3.892  1.00  0.00     0.293 HD
ENDBRANCH  41  42
ENDBRANCH  35  36
ENDBRANCH  34  35
BRANCH  34  44
ATOM     44  C   UNL     1      -4.198  -3.603   0.825  1.00  0.00     0.243 C 
ATOM     45  O   UNL     1      -4.035  -2.446   0.448  1.00  0.00    -0.273 OA
ATOM     46  N   UNL     1      -4.333  -3.921   2.160  1.00  0.00    -0.341 N 
ATOM     47  H   UNL     1      -4.347  -4.900   2.435  1.00  0.00     0.164 HD
BRANCH  46  48
ATOM     48  C   UNL     1      -4.352  -2.920   3.229  1.00  0.00     0.196 C 
BRANCH  48  49
ATOM     49  C   UNL     1      -4.674  -3.560   4.590  1.00  0.00     0.072 C 
BRANCH  49  50
ATOM     50  C   UNL     1      -5.931  -2.999   5.214  1.00  0.00    -0.045 A 
ATOM     51  C   UNL     1      -5.951  -1.675   5.676  1.00  0.00     0.007 A 
ATOM     52  C   UNL     1      -7.079  -3.789   5.359  1.00  0.00     0.007 A 
ATOM     53  C   UNL     1      -7.101  -1.150   6.265  1.00  0.00     0.046 A 
ATOM     54  C   UNL     1      -8.230  -3.264   5.950  1.00  0.00     0.046 A 
ATOM     55  C   UNL     1      -8.231  -1.947   6.398  1.00  0.00     0.115 A 
BRANCH  55  56
ATOM     56  O   UNL     1      -9.334  -1.397   6.981  1.00  0.00    -0.508 OA
ATOM     57  H   UNL     1      -9.202  -0.437   7.042  1.00  0.00     0.293 HD
ENDBRANCH  55  56
ENDBRANCH  49  50
ENDBRANCH  48  49
BRANCH  48  58
ATOM     58  C   UNL     1      -2.981  -2.233   3.294  1.00  0.00     0.326 C 
ATOM     59  O   UNL     1      -1.888  -2.771   3.380  1.00  0.00    -0.250 OA
BRANCH  58  60
ATOM     60  O   UNL     1      -3.050  -0.880   3.232  1.00  0.00    -0.480 OA
ATOM     61  H   UNL     1      -2.158  -0.594   3.527  1.00  0.00     0.296 HD
ENDBRANCH  58  60
ENDBRANCH  48  58
ENDBRANCH  46  48
ENDBRANCH  34  44
ENDBRANCH  32  34
ENDBRANCH  25  30
ENDBRANCH  23  25
ENDBRANCH   2  23
TORSDOF 28
ENDMDL
MODEL 7
REMARK VINA RESULT:    -6.600      2.610      8.031
REMARK INTER + INTRA:         -20.959
REMARK INTER:                 -15.157
REMARK INTRA:                  -5.802
REMARK UNBOUND:                -4.520
REMARK SMILES CCCCCCC[C@H](N)[C@H](O)C(=O)N[C@H](C)C(=O)N(C)[C@H](CC(C)C)C(=O)N[C@@H](Cc1ccc(O)cc1)C(=O)N[C@@H](Cc1ccc(O)cc1)C(=O)O
REMARK SMILES IDX 18 1 17 2 15 3 16 4 14 5 12 6 13 7 10 9 11 10 8 12 9 13 7 16
REMARK SMILES IDX 6 17 5 18 4 19 3 20 2 21 1 22 19 23 20 24 21 25 22 26 23 27
REMARK SMILES IDX 24 28 25 29 26 30 27 31 28 32 29 34 30 35 31 36 32 37 37 38
REMARK SMILES IDX 33 39 36 40 34 41 35 42 38 44 39 45 40 46 41 48 42 49 43 50
REMARK SMILES IDX 44 51 49 52 45 53 48 54 46 55 47 56 50 58 51 59 52 60
REMARK H PARENT 14 8 11 11 9 14 9 15 28 33 35 43 40 47 47 57 52 61
ROOT
ATOM      1  O   UNL     1       2.534   1.581  -8.052  1.00  0.00    -0.272 OA
ATOM      2  C   UNL     1       1.742   0.853  -8.670  1.00  0.00     0.245 C 
ENDROOT
BRANCH   2   3
ATOM      3  C   UNL     1       0.962  -0.229  -7.883  1.00  0.00     0.168 C 
ATOM      4  C   UNL     1       1.911  -1.286  -7.330  1.00  0.00     0.041 C 
BRANCH   3   5
ATOM      5  N   UNL     1       0.067   0.286  -6.858  1.00  0.00    -0.342 N 
ATOM      6  C   UNL     1      -1.180   0.786  -7.165  1.00  0.00     0.251 C 
ATOM      7  O   UNL     1      -1.611   0.873  -8.310  1.00  0.00    -0.272 OA
ATOM      8  H   UNL     1       0.329   0.299  -5.875  1.00  0.00     0.164 HD
BRANCH   6   9
ATOM      9  C   UNL     1      -2.003   1.140  -5.916  1.00  0.00     0.219 C 
BRANCH   9  10
ATOM     10  O   UNL     1      -2.856   2.274  -6.118  1.00  0.00    -0.382 OA
ATOM     11  H   UNL     1      -2.272   2.924  -6.567  1.00  0.00     0.211 HD
ENDBRANCH   9  10
BRANCH   9  12
ATOM     12  C   UNL     1      -2.808  -0.061  -5.356  1.00  0.00     0.089 C 
BRANCH  12  13
ATOM     13  N   UNL     1      -4.251   0.255  -5.456  1.00  0.00    -0.325 NA
ATOM     14  H   UNL     1      -4.371   1.103  -6.014  1.00  0.00     0.119 HD
ATOM     15  H   UNL     1      -4.602   0.496  -4.526  1.00  0.00     0.119 HD
ENDBRANCH  12  13
BRANCH  12  16
ATOM     16  C   UNL     1      -2.518  -1.435  -6.008  1.00  0.00     0.022 C 
BRANCH  16  17
ATOM     17  C   UNL     1      -3.322  -2.661  -5.555  1.00  0.00     0.002 C 
BRANCH  17  18
ATOM     18  C   UNL     1      -2.986  -3.171  -4.155  1.00  0.00     0.000 C 
BRANCH  18  19
ATOM     19  C   UNL     1      -2.380  -4.580  -4.132  1.00  0.00    -0.000 C 
BRANCH  19  20
ATOM     20  C   UNL     1      -2.014  -5.153  -5.504  1.00  0.00    -0.000 C 
BRANCH  20  21
ATOM     21  C   UNL     1      -0.502  -5.232  -5.736  1.00  0.00    -0.003 C 
ATOM     22  C   UNL     1       0.226  -5.707  -4.489  1.00  0.00     0.004 C 
ENDBRANCH  20  21
ENDBRANCH  19  20
ENDBRANCH  18  19
ENDBRANCH  17  18
ENDBRANCH  16  17
ENDBRANCH  12  16
ENDBRANCH   9  12
ENDBRANCH   6   9
ENDBRANCH   3   5
ENDBRANCH   2   3
BRANCH   2  23
ATOM     23  N   UNL     1       1.479   1.095 -10.014  1.00  0.00    -0.332 N 
ATOM     24  C   UNL     1       0.925   2.336 -10.537  1.00  0.00     0.147 C 
BRANCH  23  25
ATOM     25  C   UNL     1       1.882   0.105 -11.049  1.00  0.00     0.174 C 
BRANCH  25  26
ATOM     26  C   UNL     1       2.604   0.752 -12.254  1.00  0.00     0.038 C 
BRANCH  26  27
ATOM     27  C   UNL     1       4.119   1.017 -12.104  1.00  0.00    -0.015 C 
ATOM     28  C   UNL     1       4.670   0.514 -10.770  1.00  0.00     0.007 C 
ATOM     29  C   UNL     1       4.948   0.476 -13.266  1.00  0.00     0.007 C 
ENDBRANCH  26  27
ENDBRANCH  25  26
BRANCH  25  30
ATOM     30  C   UNL     1       0.673  -0.772 -11.447  1.00  0.00     0.243 C 
ATOM     31  O   UNL     1       0.640  -1.390 -12.510  1.00  0.00    -0.273 OA
ATOM     32  N   UNL     1      -0.357  -0.808 -10.543  1.00  0.00    -0.342 N 
ATOM     33  H   UNL     1      -0.197  -0.384  -9.625  1.00  0.00     0.164 HD
BRANCH  32  34
ATOM     34  C   UNL     1      -1.593  -1.563 -10.764  1.00  0.00     0.175 C 
BRANCH  34  35
ATOM     35  C   UNL     1      -2.089  -2.217  -9.465  1.00  0.00     0.070 C 
BRANCH  35  36
ATOM     36  C   UNL     1      -1.774  -3.695  -9.398  1.00  0.00    -0.045 A 
ATOM     37  C   UNL     1      -2.792  -4.617  -9.111  1.00  0.00     0.007 A 
ATOM     38  C   UNL     1      -0.468  -4.161  -9.596  1.00  0.00     0.007 A 
ATOM     39  C   UNL     1      -2.508  -5.981  -9.033  1.00  0.00     0.046 A 
ATOM     40  C   UNL     1      -0.183  -5.527  -9.516  1.00  0.00     0.046 A 
ATOM     41  C   UNL     1      -1.207  -6.425  -9.237  1.00  0.00     0.115 A 
BRANCH  41  42
ATOM     42  O   UNL     1      -0.972  -7.765  -9.149  1.00  0.00    -0.508 OA
ATOM     43  H   UNL     1      -1.024  -8.143 -10.043  1.00  0.00     0.293 HD
ENDBRANCH  41  42
ENDBRANCH  35  36
ENDBRANCH  34  35
BRANCH  34  44
ATOM     44  C   UNL     1      -2.643  -0.599 -11.362  1.00  0.00     0.243 C 
ATOM     45  O   UNL     1      -2.537  -0.049 -12.454  1.00  0.00    -0.273 OA
ATOM     46  N   UNL     1      -3.671  -0.300 -10.493  1.00  0.00    -0.341 N 
ATOM     47  H   UNL     1      -3.653  -0.690  -9.554  1.00  0.00     0.164 HD
BRANCH  46  48
ATOM     48  C   UNL     1      -4.746   0.643 -10.811  1.00  0.00     0.196 C 
BRANCH  48  49
ATOM     49  C   UNL     1      -5.958  -0.077 -11.425  1.00  0.00     0.072 C 
BRANCH  49  50
ATOM     50  C   UNL     1      -6.304  -1.358 -10.699  1.00  0.00    -0.045 A 
ATOM     51  C   UNL     1      -5.571  -2.526 -10.955  1.00  0.00     0.007 A 
ATOM     52  C   UNL     1      -7.363  -1.404  -9.784  1.00  0.00     0.007 A 
ATOM     53  C   UNL     1      -5.889  -3.717 -10.301  1.00  0.00     0.046 A 
ATOM     54  C   UNL     1      -7.682  -2.597  -9.130  1.00  0.00     0.046 A 
ATOM     55  C   UNL     1      -6.941  -3.743  -9.394  1.00  0.00     0.115 A 
BRANCH  55  56
ATOM     56  O   UNL     1      -7.221  -4.927  -8.777  1.00  0.00    -0.508 OA
ATOM     57  H   UNL     1      -7.994  -5.322  -9.211  1.00  0.00     0.293 HD
ENDBRANCH  55  56
ENDBRANCH  49  50
ENDBRANCH  48  49
BRANCH  48  58
ATOM     58  C   UNL     1      -5.173   1.365  -9.525  1.00  0.00     0.326 C 
ATOM     59  O   UNL     1      -6.015   2.242  -9.415  1.00  0.00    -0.250 OA
BRANCH  58  60
ATOM     60  O   UNL     1      -4.520   0.931  -8.418  1.00  0.00    -0.480 OA
ATOM     61  H   UNL     1      -3.594   0.828  -8.727  1.00  0.00     0.296 HD
ENDBRANCH  58  60
ENDBRANCH  48  58
ENDBRANCH  46  48
ENDBRANCH  34  44
ENDBRANCH  32  34
ENDBRANCH  25  30
ENDBRANCH  23  25
ENDBRANCH   2  23
TORSDOF 28
ENDMDL
MODEL 8
REMARK VINA RESULT:    -6.544      2.662     10.682
REMARK INTER + INTRA:         -20.819
REMARK INTER:                 -18.507
REMARK INTRA:                  -2.313
REMARK UNBOUND:                -4.520
REMARK SMILES CCCCCCC[C@H](N)[C@H](O)C(=O)N[C@H](C)C(=O)N(C)[C@H](CC(C)C)C(=O)N[C@@H](Cc1ccc(O)cc1)C(=O)N[C@@H](Cc1ccc(O)cc1)C(=O)O
REMARK SMILES IDX 18 1 17 2 15 3 16 4 14 5 12 6 13 7 10 9 11 10 8 12 9 13 7 16
REMARK SMILES IDX 6 17 5 18 4 19 3 20 2 21 1 22 19 23 20 24 21 25 22 26 23 27
REMARK SMILES IDX 24 28 25 29 26 30 27 31 28 32 29 34 30 35 31 36 32 37 37 38
REMARK SMILES IDX 33 39 36 40 34 41 35 42 38 44 39 45 40 46 41 48 42 49 43 50
REMARK SMILES IDX 44 51 49 52 45 53 48 54 46 55 47 56 50 58 51 59 52 60
REMARK H PARENT 14 8 11 11 9 14 9 15 28 33 35 43 40 47 47 57 52 61
ROOT
ATOM      1  O   UNL     1      -0.520   0.676 -10.533  1.00  0.00    -0.272 OA
ATOM      2  C   UNL     1       0.373  -0.182 -10.497  1.00  0.00     0.245 C 
ENDROOT
BRANCH   2   3
ATOM      3  C   UNL     1       1.208  -0.438 -11.776  1.00  0.00     0.168 C 
ATOM      4  C   UNL     1       0.322  -0.942 -12.910  1.00  0.00     0.041 C 
BRANCH   3   5
ATOM      5  N   UNL     1       2.041   0.679 -12.195  1.00  0.00    -0.342 N 
ATOM      6  C   UNL     1       3.357   0.795 -11.799  1.00  0.00     0.251 C 
ATOM      7  O   UNL     1       3.908   0.002 -11.042  1.00  0.00    -0.272 OA
ATOM      8  H   UNL     1       1.685   1.418 -12.796  1.00  0.00     0.164 HD
BRANCH   6   9
ATOM      9  C   UNL     1       4.080   1.971 -12.475  1.00  0.00     0.219 C 
BRANCH   9  10
ATOM     10  O   UNL     1       3.404   3.219 -12.283  1.00  0.00    -0.382 OA
ATOM     11  H   UNL     1       3.423   3.631 -13.174  1.00  0.00     0.211 HD
ENDBRANCH   9  10
BRANCH   9  12
ATOM     12  C   UNL     1       5.572   2.083 -12.067  1.00  0.00     0.089 C 
BRANCH  12  13
ATOM     13  N   UNL     1       6.306   0.939 -12.656  1.00  0.00    -0.325 NA
ATOM     14  H   UNL     1       5.641   0.200 -12.893  1.00  0.00     0.119 HD
ATOM     15  H   UNL     1       6.913   0.532 -11.941  1.00  0.00     0.119 HD
ENDBRANCH  12  13
BRANCH  12  16
ATOM     16  C   UNL     1       6.277   3.411 -12.434  1.00  0.00     0.022 C 
BRANCH  16  17
ATOM     17  C   UNL     1       7.248   4.045 -11.428  1.00  0.00     0.002 C 
BRANCH  17  18
ATOM     18  C   UNL     1       7.964   5.299 -11.925  1.00  0.00     0.000 C 
BRANCH  18  19
ATOM     19  C   UNL     1       8.947   5.899 -10.912  1.00  0.00    -0.000 C 
BRANCH  19  20
ATOM     20  C   UNL     1       8.789   5.394  -9.475  1.00  0.00    -0.000 C 
BRANCH  20  21
ATOM     21  C   UNL     1       9.084   6.469  -8.425  1.00  0.00    -0.003 C 
ATOM     22  C   UNL     1       9.933   5.918  -7.290  1.00  0.00     0.004 C 
ENDBRANCH  20  21
ENDBRANCH  19  20
ENDBRANCH  18  19
ENDBRANCH  17  18
ENDBRANCH  16  17
ENDBRANCH  12  16
ENDBRANCH   9  12
ENDBRANCH   6   9
ENDBRANCH   3   5
ENDBRANCH   2   3
BRANCH   2  23
ATOM     23  N   UNL     1       0.690  -0.806  -9.295  1.00  0.00    -0.332 N 
ATOM     24  C   UNL     1       1.869  -1.632  -9.078  1.00  0.00     0.147 C 
BRANCH  23  25
ATOM     25  C   UNL     1      -0.128  -0.550  -8.078  1.00  0.00     0.174 C 
BRANCH  25  26
ATOM     26  C   UNL     1       0.716  -0.058  -6.878  1.00  0.00     0.038 C 
BRANCH  26  27
ATOM     27  C   UNL     1       1.431   1.302  -7.037  1.00  0.00    -0.015 C 
ATOM     28  C   UNL     1       0.488   2.407  -7.511  1.00  0.00     0.007 C 
ATOM     29  C   UNL     1       2.186   1.741  -5.784  1.00  0.00     0.007 C 
ENDBRANCH  26  27
ENDBRANCH  25  26
BRANCH  25  30
ATOM     30  C   UNL     1      -1.004  -1.782  -7.757  1.00  0.00     0.243 C 
ATOM     31  O   UNL     1      -2.200  -1.822  -8.044  1.00  0.00    -0.273 OA
ATOM     32  N   UNL     1      -0.364  -2.819  -7.128  1.00  0.00    -0.342 N 
ATOM     33  H   UNL     1       0.655  -2.769  -7.051  1.00  0.00     0.164 HD
BRANCH  32  34
ATOM     34  C   UNL     1      -1.042  -4.054  -6.724  1.00  0.00     0.175 C 
BRANCH  34  35
ATOM     35  C   UNL     1      -2.071  -3.788  -5.614  1.00  0.00     0.070 C 
BRANCH  35  36
ATOM     36  C   UNL     1      -1.798  -4.588  -4.360  1.00  0.00    -0.045 A 
ATOM     37  C   UNL     1      -0.687  -5.443  -4.301  1.00  0.00     0.007 A 
ATOM     38  C   UNL     1      -2.656  -4.508  -3.256  1.00  0.00     0.007 A 
ATOM     39  C   UNL     1      -0.435  -6.195  -3.153  1.00  0.00     0.046 A 
ATOM     40  C   UNL     1      -2.405  -5.262  -2.107  1.00  0.00     0.046 A 
ATOM     41  C   UNL     1      -1.295  -6.099  -2.066  1.00  0.00     0.115 A 
BRANCH  41  42
ATOM     42  O   UNL     1      -1.015  -6.853  -0.965  1.00  0.00    -0.508 OA
ATOM     43  H   UNL     1      -1.853  -7.077  -0.528  1.00  0.00     0.293 HD
ENDBRANCH  41  42
ENDBRANCH  35  36
ENDBRANCH  34  35
BRANCH  34  44
ATOM     44  C   UNL     1      -1.694  -4.675  -7.980  1.00  0.00     0.243 C 
ATOM     45  O   UNL     1      -1.091  -4.935  -9.017  1.00  0.00    -0.273 OA
ATOM     46  N   UNL     1      -3.064  -4.797  -7.883  1.00  0.00    -0.341 N 
ATOM     47  H   UNL     1      -3.532  -4.459  -7.046  1.00  0.00     0.164 HD
BRANCH  46  48
ATOM     48  C   UNL     1      -3.907  -5.296  -8.972  1.00  0.00     0.196 C 
BRANCH  48  49
ATOM     49  C   UNL     1      -3.664  -4.512 -10.273  1.00  0.00     0.072 C 
BRANCH  49  50
ATOM     50  C   UNL     1      -4.539  -3.284 -10.384  1.00  0.00    -0.045 A 
ATOM     51  C   UNL     1      -5.832  -3.296  -9.840  1.00  0.00     0.007 A 
ATOM     52  C   UNL     1      -4.087  -2.134 -11.042  1.00  0.00     0.007 A 
ATOM     53  C   UNL     1      -6.653  -2.174  -9.948  1.00  0.00     0.046 A 
ATOM     54  C   UNL     1      -4.909  -1.011 -11.152  1.00  0.00     0.046 A 
ATOM     55  C   UNL     1      -6.186  -1.040 -10.602  1.00  0.00     0.115 A 
BRANCH  55  56
ATOM     56  O   UNL     1      -7.021   0.035 -10.688  1.00  0.00    -0.508 OA
ATOM     57  H   UNL     1      -7.826  -0.162 -10.182  1.00  0.00     0.293 HD
ENDBRANCH  55  56
ENDBRANCH  49  50
ENDBRANCH  48  49
BRANCH  48  58
ATOM     58  C   UNL     1      -3.598  -6.782  -9.202  1.00  0.00     0.326 C 
ATOM     59  O   UNL     1      -4.067  -7.736  -8.601  1.00  0.00    -0.250 OA
BRANCH  58  60
ATOM     60  O   UNL     1      -2.710  -7.002 -10.203  1.00  0.00    -0.480 OA
ATOM     61  H   UNL     1      -3.116  -6.545 -10.971  1.00  0.00     0.296 HD
ENDBRANCH  58  60
ENDBRANCH  48  58
ENDBRANCH  46  48
ENDBRANCH  34  44
ENDBRANCH  32  34
ENDBRANCH  25  30
ENDBRANCH  23  25
ENDBRANCH   2  23
TORSDOF 28
ENDMDL
MODEL 9
REMARK VINA RESULT:    -6.449      2.195      5.076
REMARK INTER + INTRA:         -20.582
REMARK INTER:                 -15.745
REMARK INTRA:                  -4.837
REMARK UNBOUND:                -4.520
REMARK SMILES CCCCCCC[C@H](N)[C@H](O)C(=O)N[C@H](C)C(=O)N(C)[C@H](CC(C)C)C(=O)N[C@@H](Cc1ccc(O)cc1)C(=O)N[C@@H](Cc1ccc(O)cc1)C(=O)O
REMARK SMILES IDX 18 1 17 2 15 3 16 4 14 5 12 6 13 7 10 9 11 10 8 12 9 13 7 16
REMARK SMILES IDX 6 17 5 18 4 19 3 20 2 21 1 22 19 23 20 24 21 25 22 26 23 27
REMARK SMILES IDX 24 28 25 29 26 30 27 31 28 32 29 34 30 35 31 36 32 37 37 38
REMARK SMILES IDX 33 39 36 40 34 41 35 42 38 44 39 45 40 46 41 48 42 49 43 50
REMARK SMILES IDX 44 51 49 52 45 53 48 54 46 55 47 56 50 58 51 59 52 60
REMARK H PARENT 14 8 11 11 9 14 9 15 28 33 35 43 40 47 47 57 52 61
ROOT
ATOM      1  O   UNL     1      -6.413  -0.513 -11.408  1.00  0.00    -0.272 OA
ATOM      2  C   UNL     1      -5.882  -0.553 -10.288  1.00  0.00     0.245 C 
ENDROOT
BRANCH   2   3
ATOM      3  C   UNL     1      -6.215  -1.741  -9.352  1.00  0.00     0.168 C 
ATOM      4  C   UNL     1      -7.721  -1.968  -9.280  1.00  0.00     0.041 C 
BRANCH   3   5
ATOM      5  N   UNL     1      -5.495  -2.971  -9.645  1.00  0.00    -0.342 N 
ATOM      6  C   UNL     1      -4.699  -3.590  -8.705  1.00  0.00     0.251 C 
ATOM      7  O   UNL     1      -4.504  -3.139  -7.581  1.00  0.00    -0.272 OA
ATOM      8  H   UNL     1      -5.551  -3.420 -10.556  1.00  0.00     0.164 HD
BRANCH   6   9
ATOM      9  C   UNL     1      -4.154  -4.944  -9.187  1.00  0.00     0.219 C 
BRANCH   9  10
ATOM     10  O   UNL     1      -3.564  -4.870 -10.491  1.00  0.00    -0.382 OA
ATOM     11  H   UNL     1      -2.816  -4.245 -10.371  1.00  0.00     0.211 HD
ENDBRANCH   9  10
BRANCH   9  12
ATOM     12  C   UNL     1      -3.177  -5.601  -8.178  1.00  0.00     0.089 C 
BRANCH  12  13
ATOM     13  N   UNL     1      -3.530  -7.033  -8.050  1.00  0.00    -0.325 NA
ATOM     14  H   UNL     1      -4.454  -7.189  -8.459  1.00  0.00     0.119 HD
ATOM     15  H   UNL     1      -3.635  -7.262  -7.059  1.00  0.00     0.119 HD
ENDBRANCH  12  13
BRANCH  12  16
ATOM     16  C   UNL     1      -1.670  -5.452  -8.497  1.00  0.00     0.022 C 
BRANCH  16  17
ATOM     17  C   UNL     1      -0.639  -5.783  -7.409  1.00  0.00     0.002 C 
BRANCH  17  18
ATOM     18  C   UNL     1      -0.533  -4.752  -6.287  1.00  0.00     0.000 C 
BRANCH  18  19
ATOM     19  C   UNL     1      -0.650  -5.348  -4.878  1.00  0.00    -0.000 C 
BRANCH  19  20
ATOM     20  C   UNL     1      -2.052  -5.295  -4.264  1.00  0.00    -0.000 C 
BRANCH  20  21
ATOM     21  C   UNL     1      -2.362  -3.956  -3.591  1.00  0.00    -0.003 C 
ATOM     22  C   UNL     1      -2.618  -4.131  -2.102  1.00  0.00     0.004 C 
ENDBRANCH  20  21
ENDBRANCH  19  20
ENDBRANCH  18  19
ENDBRANCH  17  18
ENDBRANCH  16  17
ENDBRANCH  12  16
ENDBRANCH   9  12
ENDBRANCH   6   9
ENDBRANCH   3   5
ENDBRANCH   2   3
BRANCH   2  23
ATOM     23  N   UNL     1      -4.917   0.387  -9.941  1.00  0.00    -0.332 N 
ATOM     24  C   UNL     1      -5.173   1.811  -9.776  1.00  0.00     0.147 C 
BRANCH  23  25
ATOM     25  C   UNL     1      -3.540  -0.047  -9.582  1.00  0.00     0.174 C 
BRANCH  25  26
ATOM     26  C   UNL     1      -2.686   1.093  -8.980  1.00  0.00     0.038 C 
BRANCH  26  27
ATOM     27  C   UNL     1      -1.451   0.679  -8.148  1.00  0.00    -0.015 C 
ATOM     28  C   UNL     1      -0.434   1.811  -8.009  1.00  0.00     0.007 C 
ATOM     29  C   UNL     1      -1.806   0.105  -6.779  1.00  0.00     0.007 C 
ENDBRANCH  26  27
ENDBRANCH  25  26
BRANCH  25  30
ATOM     30  C   UNL     1      -2.874  -0.753 -10.786  1.00  0.00     0.243 C 
ATOM     31  O   UNL     1      -2.981  -1.964 -10.970  1.00  0.00    -0.273 OA
ATOM     32  N   UNL     1      -2.155   0.059 -11.626  1.00  0.00    -0.342 N 
ATOM     33  H   UNL     1      -2.230   1.070 -11.487  1.00  0.00     0.164 HD
BRANCH  32  34
ATOM     34  C   UNL     1      -1.435  -0.440 -12.801  1.00  0.00     0.175 C 
BRANCH  34  35
ATOM     35  C   UNL     1      -1.351   0.630 -13.900  1.00  0.00     0.070 C 
BRANCH  35  36
ATOM     36  C   UNL     1      -0.622   1.876 -13.449  1.00  0.00    -0.045 A 
ATOM     37  C   UNL     1      -1.338   2.944 -12.888  1.00  0.00     0.007 A 
ATOM     38  C   UNL     1       0.766   1.993 -13.605  1.00  0.00     0.007 A 
ATOM     39  C   UNL     1      -0.676   4.102 -12.481  1.00  0.00     0.046 A 
ATOM     40  C   UNL     1       1.429   3.153 -13.200  1.00  0.00     0.046 A 
ATOM     41  C   UNL     1       0.702   4.198 -12.640  1.00  0.00     0.115 A 
BRANCH  41  42
ATOM     42  O   UNL     1       1.310   5.348 -12.233  1.00  0.00    -0.508 OA
ATOM     43  H   UNL     1       1.026   5.537 -11.323  1.00  0.00     0.293 HD
ENDBRANCH  41  42
ENDBRANCH  35  36
ENDBRANCH  34  35
BRANCH  34  44
ATOM     44  C   UNL     1      -0.036  -0.908 -12.342  1.00  0.00     0.243 C 
ATOM     45  O   UNL     1       0.670  -1.698 -12.963  1.00  0.00    -0.273 OA
ATOM     46  N   UNL     1       0.310  -0.454 -11.087  1.00  0.00    -0.341 N 
ATOM     47  H   UNL     1      -0.358   0.104 -10.562  1.00  0.00     0.164 HD
BRANCH  46  48
ATOM     48  C   UNL     1       1.558  -0.821 -10.413  1.00  0.00     0.196 C 
BRANCH  48  49
ATOM     49  C   UNL     1       2.356   0.426  -9.996  1.00  0.00     0.072 C 
BRANCH  49  50
ATOM     50  C   UNL     1       3.550   0.678 -10.888  1.00  0.00    -0.045 A 
ATOM     51  C   UNL     1       4.598   1.495 -10.440  1.00  0.00     0.007 A 
ATOM     52  C   UNL     1       3.620   0.123 -12.173  1.00  0.00     0.007 A 
ATOM     53  C   UNL     1       5.698   1.745 -11.260  1.00  0.00     0.046 A 
ATOM     54  C   UNL     1       4.721   0.374 -12.994  1.00  0.00     0.046 A 
ATOM     55  C   UNL     1       5.752   1.183 -12.530  1.00  0.00     0.115 A 
BRANCH  55  56
ATOM     56  O   UNL     1       6.844   1.454 -13.300  1.00  0.00    -0.508 OA
ATOM     57  H   UNL     1       7.044   2.401 -13.226  1.00  0.00     0.293 HD
ENDBRANCH  55  56
ENDBRANCH  49  50
ENDBRANCH  48  49
BRANCH  48  58
ATOM     58  C   UNL     1       1.227  -1.660  -9.171  1.00  0.00     0.326 C 
ATOM     59  O   UNL     1       1.454  -1.377  -8.006  1.00  0.00    -0.250 OA
BRANCH  58  60
ATOM     60  O   UNL     1       0.600  -2.828  -9.458  1.00  0.00    -0.480 OA
ATOM     61  H   UNL     1       0.765  -3.375  -8.660  1.00  0.00     0.296 HD
ENDBRANCH  58  60
ENDBRANCH  48  58
ENDBRANCH  46  48
ENDBRANCH  34  44
ENDBRANCH  32  34
ENDBRANCH  25  30
ENDBRANCH  23  25
ENDBRANCH   2  23
TORSDOF 28
ENDMDL
MODEL 10
REMARK VINA RESULT:    -6.439      2.564      5.622
REMARK INTER + INTRA:         -20.557
REMARK INTER:                 -15.899
REMARK INTRA:                  -4.658
REMARK UNBOUND:                -4.520
REMARK SMILES CCCCCCC[C@H](N)[C@H](O)C(=O)N[C@H](C)C(=O)N(C)[C@H](CC(C)C)C(=O)N[C@@H](Cc1ccc(O)cc1)C(=O)N[C@@H](Cc1ccc(O)cc1)C(=O)O
REMARK SMILES IDX 18 1 17 2 15 3 16 4 14 5 12 6 13 7 10 9 11 10 8 12 9 13 7 16
REMARK SMILES IDX 6 17 5 18 4 19 3 20 2 21 1 22 19 23 20 24 21 25 22 26 23 27
REMARK SMILES IDX 24 28 25 29 26 30 27 31 28 32 29 34 30 35 31 36 32 37 37 38
REMARK SMILES IDX 33 39 36 40 34 41 35 42 38 44 39 45 40 46 41 48 42 49 43 50
REMARK SMILES IDX 44 51 49 52 45 53 48 54 46 55 47 56 50 58 51 59 52 60
REMARK H PARENT 14 8 11 11 9 14 9 15 28 33 35 43 40 47 47 57 52 61
ROOT
ATOM      1  O   UNL     1      -4.856  -3.255 -11.045  1.00  0.00    -0.272 OA
ATOM      2  C   UNL     1      -5.569  -3.283 -10.031  1.00  0.00     0.245 C 
ENDROOT
BRANCH   2   3
ATOM      3  C   UNL     1      -5.381  -4.446  -9.025  1.00  0.00     0.168 C 
ATOM      4  C   UNL     1      -6.476  -5.493  -9.196  1.00  0.00     0.041 C 
BRANCH   3   5
ATOM      5  N   UNL     1      -4.055  -5.044  -9.022  1.00  0.00    -0.342 N 
ATOM      6  C   UNL     1      -3.065  -4.618  -8.161  1.00  0.00     0.251 C 
ATOM      7  O   UNL     1      -3.209  -3.690  -7.372  1.00  0.00    -0.272 OA
ATOM      8  H   UNL     1      -3.806  -5.799  -9.657  1.00  0.00     0.164 HD
BRANCH   6   9
ATOM      9  C   UNL     1      -1.798  -5.484  -8.237  1.00  0.00     0.219 C 
BRANCH   9  10
ATOM     10  O   UNL     1      -1.244  -5.539  -9.557  1.00  0.00    -0.382 OA
ATOM     11  H   UNL     1      -0.365  -5.958  -9.422  1.00  0.00     0.211 HD
ENDBRANCH   9  10
BRANCH   9  12
ATOM     12  C   UNL     1      -0.717  -5.075  -7.202  1.00  0.00     0.089 C 
BRANCH  12  13
ATOM     13  N   UNL     1      -0.410  -3.639  -7.392  1.00  0.00    -0.325 NA
ATOM     14  H   UNL     1      -0.179  -3.222  -6.488  1.00  0.00     0.119 HD
ATOM     15  H   UNL     1      -1.257  -3.156  -7.700  1.00  0.00     0.119 HD
ENDBRANCH  12  13
BRANCH  12  16
ATOM     16  C   UNL     1      -1.059  -5.353  -5.719  1.00  0.00     0.022 C 
BRANCH  16  17
ATOM     17  C   UNL     1       0.080  -5.658  -4.735  1.00  0.00     0.002 C 
BRANCH  17  18
ATOM     18  C   UNL     1      -0.371  -6.103  -3.346  1.00  0.00     0.000 C 
BRANCH  18  19
ATOM     19  C   UNL     1      -1.806  -5.690  -2.992  1.00  0.00    -0.000 C 
BRANCH  19  20
ATOM     20  C   UNL     1      -1.926  -4.649  -1.875  1.00  0.00    -0.000 C 
BRANCH  20  21
ATOM     21  C   UNL     1      -3.032  -3.622  -2.129  1.00  0.00    -0.003 C 
ATOM     22  C   UNL     1      -2.987  -3.100  -3.557  1.00  0.00     0.004 C 
ENDBRANCH  20  21
ENDBRANCH  19  20
ENDBRANCH  18  19
ENDBRANCH  17  18
ENDBRANCH  16  17
ENDBRANCH  12  16
ENDBRANCH   9  12
ENDBRANCH   6   9
ENDBRANCH   3   5
ENDBRANCH   2   3
BRANCH   2  23
ATOM     23  N   UNL     1      -6.426  -2.224  -9.754  1.00  0.00    -0.332 N 
ATOM     24  C   UNL     1      -7.878  -2.295  -9.831  1.00  0.00     0.147 C 
BRANCH  23  25
ATOM     25  C   UNL     1      -5.889  -0.943  -9.220  1.00  0.00     0.174 C 
BRANCH  25  26
ATOM     26  C   UNL     1      -6.863  -0.241  -8.244  1.00  0.00     0.038 C 
BRANCH  26  27
ATOM     27  C   UNL     1      -6.389   1.089  -7.618  1.00  0.00    -0.015 C 
ATOM     28  C   UNL     1      -7.529   1.862  -6.955  1.00  0.00     0.007 C 
ATOM     29  C   UNL     1      -5.220   0.922  -6.650  1.00  0.00     0.007 C 
ENDBRANCH  26  27
ENDBRANCH  25  26
BRANCH  25  30
ATOM     30  C   UNL     1      -5.415  -0.039 -10.382  1.00  0.00     0.243 C 
ATOM     31  O   UNL     1      -6.065   0.081 -11.419  1.00  0.00    -0.273 OA
ATOM     32  N   UNL     1      -4.224   0.609 -10.181  1.00  0.00    -0.342 N 
ATOM     33  H   UNL     1      -3.816   0.571  -9.243  1.00  0.00     0.164 HD
BRANCH  32  34
ATOM     34  C   UNL     1      -3.608   1.484 -11.182  1.00  0.00     0.175 C 
BRANCH  34  35
ATOM     35  C   UNL     1      -3.385   2.899 -10.627  1.00  0.00     0.070 C 
BRANCH  35  36
ATOM     36  C   UNL     1      -4.428   3.885 -11.102  1.00  0.00    -0.045 A 
ATOM     37  C   UNL     1      -4.034   5.134 -11.607  1.00  0.00     0.007 A 
ATOM     38  C   UNL     1      -5.793   3.580 -11.026  1.00  0.00     0.007 A 
ATOM     39  C   UNL     1      -4.990   6.056 -12.035  1.00  0.00     0.046 A 
ATOM     40  C   UNL     1      -6.751   4.503 -11.453  1.00  0.00     0.046 A 
ATOM     41  C   UNL     1      -6.339   5.733 -11.956  1.00  0.00     0.115 A 
BRANCH  41  42
ATOM     42  O   UNL     1      -7.241   6.663 -12.382  1.00  0.00    -0.508 OA
ATOM     43  H   UNL     1      -7.737   6.287 -13.128  1.00  0.00     0.293 HD
ENDBRANCH  41  42
ENDBRANCH  35  36
ENDBRANCH  34  35
BRANCH  34  44
ATOM     44  C   UNL     1      -2.286   0.829 -11.642  1.00  0.00     0.243 C 
ATOM     45  O   UNL     1      -1.805   0.951 -12.765  1.00  0.00    -0.273 OA
ATOM     46  N   UNL     1      -1.744  -0.027 -10.707  1.00  0.00    -0.341 N 
ATOM     47  H   UNL     1      -2.242  -0.186  -9.835  1.00  0.00     0.164 HD
BRANCH  46  48
ATOM     48  C   UNL     1      -0.531  -0.814 -10.943  1.00  0.00     0.196 C 
BRANCH  48  49
ATOM     49  C   UNL     1       0.680  -0.208 -10.213  1.00  0.00     0.072 C 
BRANCH  49  50
ATOM     50  C   UNL     1       1.844   0.060 -11.141  1.00  0.00    -0.045 A 
ATOM     51  C   UNL     1       1.647   0.051 -12.529  1.00  0.00     0.007 A 
ATOM     52  C   UNL     1       3.129   0.296 -10.635  1.00  0.00     0.007 A 
ATOM     53  C   UNL     1       2.716   0.283 -13.395  1.00  0.00     0.046 A 
ATOM     54  C   UNL     1       4.199   0.527 -11.502  1.00  0.00     0.046 A 
ATOM     55  C   UNL     1       3.983   0.520 -12.876  1.00  0.00     0.115 A 
BRANCH  55  56
ATOM     56  O   UNL     1       5.001   0.740 -13.756  1.00  0.00    -0.508 OA
ATOM     57  H   UNL     1       4.667   0.588 -14.654  1.00  0.00     0.293 HD
ENDBRANCH  55  56
ENDBRANCH  49  50
ENDBRANCH  48  49
BRANCH  48  58
ATOM     58  C   UNL     1      -0.763  -2.249 -10.450  1.00  0.00     0.326 C 
ATOM     59  O   UNL     1       0.067  -3.137 -10.344  1.00  0.00    -0.250 OA
BRANCH  58  60
ATOM     60  O   UNL     1      -2.048  -2.498 -10.094  1.00  0.00    -0.480 OA
ATOM     61  H   UNL     1      -2.472  -1.614 -10.144  1.00  0.00     0.296 HD
ENDBRANCH  58  60
ENDBRANCH  48  58
ENDBRANCH  46  48
ENDBRANCH  34  44
ENDBRANCH  32  34
ENDBRANCH  25  30
ENDBRANCH  23  25
ENDBRANCH   2  23
TORSDOF 28
ENDMDL
MODEL 11
REMARK VINA RESULT:    -6.416      2.072      9.690
REMARK INTER + INTRA:         -20.501
REMARK INTER:                 -17.146
REMARK INTRA:                  -3.355
REMARK UNBOUND:                -4.520
REMARK SMILES CCCCCCC[C@H](N)[C@H](O)C(=O)N[C@H](C)C(=O)N(C)[C@H](CC(C)C)C(=O)N[C@@H](Cc1ccc(O)cc1)C(=O)N[C@@H](Cc1ccc(O)cc1)C(=O)O
REMARK SMILES IDX 18 1 17 2 15 3 16 4 14 5 12 6 13 7 10 9 11 10 8 12 9 13 7 16
REMARK SMILES IDX 6 17 5 18 4 19 3 20 2 21 1 22 19 23 20 24 21 25 22 26 23 27
REMARK SMILES IDX 24 28 25 29 26 30 27 31 28 32 29 34 30 35 31 36 32 37 37 38
REMARK SMILES IDX 33 39 36 40 34 41 35 42 38 44 39 45 40 46 41 48 42 49 43 50
REMARK SMILES IDX 44 51 49 52 45 53 48 54 46 55 47 56 50 58 51 59 52 60
REMARK H PARENT 14 8 11 11 9 14 9 15 28 33 35 43 40 47 47 57 52 61
ROOT
ATOM      1  O   UNL     1      -0.217   1.119 -10.379  1.00  0.00    -0.272 OA
ATOM      2  C   UNL     1       0.373   0.032 -10.300  1.00  0.00     0.245 C 
ENDROOT
BRANCH   2   3
ATOM      3  C   UNL     1       0.973  -0.582 -11.589  1.00  0.00     0.168 C 
ATOM      4  C   UNL     1      -0.113  -1.245 -12.429  1.00  0.00     0.041 C 
BRANCH   3   5
ATOM      5  N   UNL     1       1.788   0.329 -12.378  1.00  0.00    -0.342 N 
ATOM      6  C   UNL     1       3.132   0.508 -12.126  1.00  0.00     0.251 C 
ATOM      7  O   UNL     1       3.727  -0.045 -11.207  1.00  0.00    -0.272 OA
ATOM      8  H   UNL     1       1.397   0.870 -13.145  1.00  0.00     0.164 HD
BRANCH   6   9
ATOM      9  C   UNL     1       3.818   1.404 -13.169  1.00  0.00     0.219 C 
BRANCH   9  10
ATOM     10  O   UNL     1       3.049   2.570 -13.488  1.00  0.00    -0.382 OA
ATOM     11  H   UNL     1       2.224   2.452 -12.967  1.00  0.00     0.211 HD
ENDBRANCH   9  10
BRANCH   9  12
ATOM     12  C   UNL     1       5.268   1.791 -12.779  1.00  0.00     0.089 C 
BRANCH  12  13
ATOM     13  N   UNL     1       6.201   1.086 -13.689  1.00  0.00    -0.325 NA
ATOM     14  H   UNL     1       7.068   1.622 -13.762  1.00  0.00     0.119 HD
ATOM     15  H   UNL     1       5.806   1.086 -14.632  1.00  0.00     0.119 HD
ENDBRANCH  12  13
BRANCH  12  16
ATOM     16  C   UNL     1       5.585   3.306 -12.764  1.00  0.00     0.022 C 
BRANCH  16  17
ATOM     17  C   UNL     1       5.421   4.090 -11.454  1.00  0.00     0.002 C 
BRANCH  17  18
ATOM     18  C   UNL     1       4.992   3.253 -10.251  1.00  0.00     0.000 C 
BRANCH  18  19
ATOM     19  C   UNL     1       3.637   3.662  -9.658  1.00  0.00    -0.000 C 
BRANCH  19  20
ATOM     20  C   UNL     1       2.882   2.545  -8.932  1.00  0.00    -0.000 C 
BRANCH  20  21
ATOM     21  C   UNL     1       3.020   2.619  -7.409  1.00  0.00    -0.003 C 
ATOM     22  C   UNL     1       3.402   4.019  -6.954  1.00  0.00     0.004 C 
ENDBRANCH  20  21
ENDBRANCH  19  20
ENDBRANCH  18  19
ENDBRANCH  17  18
ENDBRANCH  16  17
ENDBRANCH  12  16
ENDBRANCH   9  12
ENDBRANCH   6   9
ENDBRANCH   3   5
ENDBRANCH   2   3
BRANCH   2  23
ATOM     23  N   UNL     1       0.591  -0.552  -9.056  1.00  0.00    -0.332 N 
ATOM     24  C   UNL     1       1.786  -1.298  -8.692  1.00  0.00     0.147 C 
BRANCH  23  25
ATOM     25  C   UNL     1      -0.371  -0.328  -7.942  1.00  0.00     0.174 C 
BRANCH  25  26
ATOM     26  C   UNL     1       0.295   0.269  -6.681  1.00  0.00     0.038 C 
BRANCH  26  27
ATOM     27  C   UNL     1      -0.486   1.372  -5.932  1.00  0.00    -0.015 C 
ATOM     28  C   UNL     1       0.382   2.117  -4.919  1.00  0.00     0.007 C 
ATOM     29  C   UNL     1      -1.190   2.356  -6.863  1.00  0.00     0.007 C 
ENDBRANCH  26  27
ENDBRANCH  25  26
BRANCH  25  30
ATOM     30  C   UNL     1      -1.176  -1.619  -7.668  1.00  0.00     0.243 C 
ATOM     31  O   UNL     1      -2.369  -1.714  -7.952  1.00  0.00    -0.273 OA
ATOM     32  N   UNL     1      -0.475  -2.642  -7.083  1.00  0.00    -0.342 N 
ATOM     33  H   UNL     1       0.540  -2.538  -7.008  1.00  0.00     0.164 HD
BRANCH  32  34
ATOM     34  C   UNL     1      -1.081  -3.928  -6.726  1.00  0.00     0.175 C 
BRANCH  34  35
ATOM     35  C   UNL     1      -2.123  -3.763  -5.609  1.00  0.00     0.070 C 
BRANCH  35  36
ATOM     36  C   UNL     1      -1.810  -4.601  -4.389  1.00  0.00    -0.045 A 
ATOM     37  C   UNL     1      -2.620  -4.507  -3.247  1.00  0.00     0.007 A 
ATOM     38  C   UNL     1      -0.704  -5.460  -4.371  1.00  0.00     0.007 A 
ATOM     39  C   UNL     1      -2.331  -5.266  -2.112  1.00  0.00     0.046 A 
ATOM     40  C   UNL     1      -0.413  -6.219  -3.235  1.00  0.00     0.046 A 
ATOM     41  C   UNL     1      -1.232  -6.116  -2.115  1.00  0.00     0.115 A 
BRANCH  41  42
ATOM     42  O   UNL     1      -0.983  -6.837  -0.985  1.00  0.00    -0.508 OA
ATOM     43  H   UNL     1      -1.247  -7.758  -1.148  1.00  0.00     0.293 HD
ENDBRANCH  41  42
ENDBRANCH  35  36
ENDBRANCH  34  35
BRANCH  34  44
ATOM     44  C   UNL     1      -1.696  -4.539  -8.005  1.00  0.00     0.243 C 
ATOM     45  O   UNL     1      -1.069  -4.770  -9.034  1.00  0.00    -0.273 OA
ATOM     46  N   UNL     1      -3.066  -4.687  -7.937  1.00  0.00    -0.341 N 
ATOM     47  H   UNL     1      -3.556  -4.372  -7.104  1.00  0.00     0.164 HD
BRANCH  46  48
ATOM     48  C   UNL     1      -3.878  -5.182  -9.051  1.00  0.00     0.196 C 
BRANCH  48  49
ATOM     49  C   UNL     1      -3.551  -4.439 -10.357  1.00  0.00     0.072 C 
BRANCH  49  50
ATOM     50  C   UNL     1      -4.349  -3.164 -10.516  1.00  0.00    -0.045 A 
ATOM     51  C   UNL     1      -3.739  -2.020 -11.052  1.00  0.00     0.007 A 
ATOM     52  C   UNL     1      -5.689  -3.098 -10.116  1.00  0.00     0.007 A 
ATOM     53  C   UNL     1      -4.461  -0.835 -11.191  1.00  0.00     0.046 A 
ATOM     54  C   UNL     1      -6.412  -1.911 -10.255  1.00  0.00     0.046 A 
ATOM     55  C   UNL     1      -5.792  -0.789 -10.793  1.00  0.00     0.115 A 
BRANCH  55  56
ATOM     56  O   UNL     1      -6.462   0.388 -10.944  1.00  0.00    -0.508 OA
ATOM     57  H   UNL     1      -7.412   0.213 -10.856  1.00  0.00     0.293 HD
ENDBRANCH  55  56
ENDBRANCH  49  50
ENDBRANCH  48  49
BRANCH  48  58
ATOM     58  C   UNL     1      -3.614  -6.683  -9.233  1.00  0.00     0.326 C 
ATOM     59  O   UNL     1      -4.147  -7.605  -8.638  1.00  0.00    -0.250 OA
BRANCH  58  60
ATOM     60  O   UNL     1      -2.685  -6.958 -10.183  1.00  0.00    -0.480 OA
ATOM     61  H   UNL     1      -3.113  -7.658 -10.722  1.00  0.00     0.296 HD
ENDBRANCH  58  60
ENDBRANCH  48  58
ENDBRANCH  46  48
ENDBRANCH  34  44
ENDBRANCH  32  34
ENDBRANCH  25  30
ENDBRANCH  23  25
ENDBRANCH   2  23
TORSDOF 28
ENDMDL
MODEL 12
REMARK VINA RESULT:    -6.413     11.471     16.338
REMARK INTER + INTRA:         -20.493
REMARK INTER:                 -16.056
REMARK INTRA:                  -4.436
REMARK UNBOUND:                -4.520
REMARK SMILES CCCCCCC[C@H](N)[C@H](O)C(=O)N[C@H](C)C(=O)N(C)[C@H](CC(C)C)C(=O)N[C@@H](Cc1ccc(O)cc1)C(=O)N[C@@H](Cc1ccc(O)cc1)C(=O)O
REMARK SMILES IDX 18 1 17 2 15 3 16 4 14 5 12 6 13 7 10 9 11 10 8 12 9 13 7 16
REMARK SMILES IDX 6 17 5 18 4 19 3 20 2 21 1 22 19 23 20 24 21 25 22 26 23 27
REMARK SMILES IDX 24 28 25 29 26 30 27 31 28 32 29 34 30 35 31 36 32 37 37 38
REMARK SMILES IDX 33 39 36 40 34 41 35 42 38 44 39 45 40 46 41 48 42 49 43 50
REMARK SMILES IDX 44 51 49 52 45 53 48 54 46 55 47 56 50 58 51 59 52 60
REMARK H PARENT 14 8 11 11 9 14 9 15 28 33 35 43 40 47 47 57 52 61
ROOT
ATOM      1  O   UNL     1      -6.901  -2.050   2.201  1.00  0.00    -0.272 OA
ATOM      2  C   UNL     1      -6.404  -2.511   1.164  1.00  0.00     0.245 C 
ENDROOT
BRANCH   2   3
ATOM      3  C   UNL     1      -5.265  -1.721   0.473  1.00  0.00     0.168 C 
ATOM      4  C   UNL     1      -4.997  -0.408   1.201  1.00  0.00     0.041 C 
BRANCH   3   5
ATOM      5  N   UNL     1      -4.042  -2.477   0.252  1.00  0.00    -0.342 N 
ATOM      6  C   UNL     1      -3.705  -2.970  -0.991  1.00  0.00     0.251 C 
ATOM      7  O   UNL     1      -4.417  -2.849  -1.982  1.00  0.00    -0.272 OA
ATOM      8  H   UNL     1      -3.389  -2.672   1.007  1.00  0.00     0.164 HD
BRANCH   6   9
ATOM      9  C   UNL     1      -2.308  -3.610  -1.018  1.00  0.00     0.219 C 
BRANCH   9  10
ATOM     10  O   UNL     1      -1.480  -3.175   0.067  1.00  0.00    -0.382 OA
ATOM     11  H   UNL     1      -0.568  -3.356  -0.251  1.00  0.00     0.211 HD
ENDBRANCH   9  10
BRANCH   9  12
ATOM     12  C   UNL     1      -2.348  -5.158  -1.094  1.00  0.00     0.089 C 
BRANCH  12  13
ATOM     13  N   UNL     1      -3.604  -5.624  -0.462  1.00  0.00    -0.325 NA
ATOM     14  H   UNL     1      -4.318  -4.899  -0.558  1.00  0.00     0.119 HD
ATOM     15  H   UNL     1      -3.453  -5.719   0.545  1.00  0.00     0.119 HD
ENDBRANCH  12  13
BRANCH  12  16
ATOM     16  C   UNL     1      -2.204  -5.772  -2.507  1.00  0.00     0.022 C 
BRANCH  16  17
ATOM     17  C   UNL     1      -0.805  -6.137  -3.023  1.00  0.00     0.002 C 
BRANCH  17  18
ATOM     18  C   UNL     1      -0.449  -5.551  -4.388  1.00  0.00     0.000 C 
BRANCH  18  19
ATOM     19  C   UNL     1      -1.585  -4.751  -5.040  1.00  0.00    -0.000 C 
BRANCH  19  20
ATOM     20  C   UNL     1      -1.738  -4.953  -6.550  1.00  0.00    -0.000 C 
BRANCH  20  21
ATOM     21  C   UNL     1      -0.641  -5.835  -7.152  1.00  0.00    -0.003 C 
ATOM     22  C   UNL     1      -0.740  -5.885  -8.669  1.00  0.00     0.004 C 
ENDBRANCH  20  21
ENDBRANCH  19  20
ENDBRANCH  18  19
ENDBRANCH  17  18
ENDBRANCH  16  17
ENDBRANCH  12  16
ENDBRANCH   9  12
ENDBRANCH   6   9
ENDBRANCH   3   5
ENDBRANCH   2   3
BRANCH   2  23
ATOM     23  N   UNL     1      -6.783  -3.770   0.710  1.00  0.00    -0.332 N 
ATOM     24  C   UNL     1      -7.428  -4.028  -0.568  1.00  0.00     0.147 C 
BRANCH  23  25
ATOM     25  C   UNL     1      -6.421  -4.988   1.486  1.00  0.00     0.174 C 
BRANCH  25  26
ATOM     26  C   UNL     1      -7.652  -5.833   1.890  1.00  0.00     0.038 C 
BRANCH  26  27
ATOM     27  C   UNL     1      -7.774  -7.238   1.259  1.00  0.00    -0.015 C 
ATOM     28  C   UNL     1      -9.149  -7.483   0.638  1.00  0.00     0.007 C 
ATOM     29  C   UNL     1      -6.668  -7.551   0.254  1.00  0.00     0.007 C 
ENDBRANCH  26  27
ENDBRANCH  25  26
BRANCH  25  30
ATOM     30  C   UNL     1      -5.509  -4.610   2.676  1.00  0.00     0.243 C 
ATOM     31  O   UNL     1      -4.311  -4.376   2.528  1.00  0.00    -0.273 OA
ATOM     32  N   UNL     1      -6.123  -4.560   3.901  1.00  0.00    -0.342 N 
ATOM     33  H   UNL     1      -7.144  -4.627   3.922  1.00  0.00     0.164 HD
BRANCH  32  34
ATOM     34  C   UNL     1      -5.411  -4.245   5.143  1.00  0.00     0.175 C 
BRANCH  34  35
ATOM     35  C   UNL     1      -6.260  -3.355   6.064  1.00  0.00     0.070 C 
BRANCH  35  36
ATOM     36  C   UNL     1      -5.709  -1.953   6.193  1.00  0.00    -0.045 A 
ATOM     37  C   UNL     1      -5.755  -1.292   7.430  1.00  0.00     0.007 A 
ATOM     38  C   UNL     1      -5.169  -1.288   5.084  1.00  0.00     0.007 A 
ATOM     39  C   UNL     1      -5.261   0.007   7.555  1.00  0.00     0.046 A 
ATOM     40  C   UNL     1      -4.676   0.013   5.209  1.00  0.00     0.046 A 
ATOM     41  C   UNL     1      -4.725   0.649   6.445  1.00  0.00     0.115 A 
BRANCH  41  42
ATOM     42  O   UNL     1      -4.257   1.918   6.610  1.00  0.00    -0.508 OA
ATOM     43  H   UNL     1      -5.018   2.514   6.704  1.00  0.00     0.293 HD
ENDBRANCH  41  42
ENDBRANCH  35  36
ENDBRANCH  34  35
BRANCH  34  44
ATOM     44  C   UNL     1      -5.024  -5.577   5.823  1.00  0.00     0.243 C 
ATOM     45  O   UNL     1      -3.951  -6.152   5.663  1.00  0.00    -0.273 OA
ATOM     46  N   UNL     1      -6.055  -6.147   6.541  1.00  0.00    -0.341 N 
ATOM     47  H   UNL     1      -6.963  -5.690   6.548  1.00  0.00     0.164 HD
BRANCH  46  48
ATOM     48  C   UNL     1      -5.947  -7.442   7.216  1.00  0.00     0.196 C 
BRANCH  48  49
ATOM     49  C   UNL     1      -6.231  -7.313   8.722  1.00  0.00     0.072 C 
BRANCH  49  50
ATOM     50  C   UNL     1      -7.239  -6.230   9.034  1.00  0.00    -0.045 A 
ATOM     51  C   UNL     1      -6.803  -4.921   9.285  1.00  0.00     0.007 A 
ATOM     52  C   UNL     1      -8.609  -6.516   9.097  1.00  0.00     0.007 A 
ATOM     53  C   UNL     1      -7.723  -3.916   9.586  1.00  0.00     0.046 A 
ATOM     54  C   UNL     1      -9.529  -5.510   9.400  1.00  0.00     0.046 A 
ATOM     55  C   UNL     1      -9.078  -4.218   9.641  1.00  0.00     0.115 A 
BRANCH  55  56
ATOM     56  O   UNL     1      -9.944  -3.208   9.941  1.00  0.00    -0.508 OA
ATOM     57  H   UNL     1      -9.662  -2.411   9.463  1.00  0.00     0.293 HD
ENDBRANCH  55  56
ENDBRANCH  49  50
ENDBRANCH  48  49
BRANCH  48  58
ATOM     58  C   UNL     1      -6.948  -8.419   6.585  1.00  0.00     0.326 C 
ATOM     59  O   UNL     1      -7.118  -9.592   6.874  1.00  0.00    -0.250 OA
BRANCH  58  60
ATOM     60  O   UNL     1      -7.712  -7.859   5.614  1.00  0.00    -0.480 OA
ATOM     61  H   UNL     1      -7.946  -8.622   5.042  1.00  0.00     0.296 HD
ENDBRANCH  58  60
ENDBRANCH  48  58
ENDBRANCH  46  48
ENDBRANCH  34  44
ENDBRANCH  32  34
ENDBRANCH  25  30
ENDBRANCH  23  25
ENDBRANCH   2  23
TORSDOF 28
ENDMDL
MODEL 13
REMARK VINA RESULT:    -6.355      2.546      7.478
REMARK INTER + INTRA:         -20.348
REMARK INTER:                 -14.763
REMARK INTRA:                  -5.585
REMARK UNBOUND:                -4.520
REMARK SMILES CCCCCCC[C@H](N)[C@H](O)C(=O)N[C@H](C)C(=O)N(C)[C@H](CC(C)C)C(=O)N[C@@H](Cc1ccc(O)cc1)C(=O)N[C@@H](Cc1ccc(O)cc1)C(=O)O
REMARK SMILES IDX 18 1 17 2 15 3 16 4 14 5 12 6 13 7 10 9 11 10 8 12 9 13 7 16
REMARK SMILES IDX 6 17 5 18 4 19 3 20 2 21 1 22 19 23 20 24 21 25 22 26 23 27
REMARK SMILES IDX 24 28 25 29 26 30 27 31 28 32 29 34 30 35 31 36 32 37 37 38
REMARK SMILES IDX 33 39 36 40 34 41 35 42 38 44 39 45 40 46 41 48 42 49 43 50
REMARK SMILES IDX 44 51 49 52 45 53 48 54 46 55 47 56 50 58 51 59 52 60
REMARK H PARENT 14 8 11 11 9 14 9 15 28 33 35 43 40 47 47 57 52 61
ROOT
ATOM      1  O   UNL     1      -2.660   1.478 -11.500  1.00  0.00    -0.272 OA
ATOM      2  C   UNL     1      -2.308   0.311 -11.723  1.00  0.00     0.245 C 
ENDROOT
BRANCH   2   3
ATOM      3  C   UNL     1      -3.088  -0.842 -11.044  1.00  0.00     0.168 C 
ATOM      4  C   UNL     1      -4.401  -1.110 -11.772  1.00  0.00     0.041 C 
BRANCH   3   5
ATOM      5  N   UNL     1      -2.323  -2.061 -10.839  1.00  0.00    -0.342 N 
ATOM      6  C   UNL     1      -2.603  -2.934  -9.809  1.00  0.00     0.251 C 
ATOM      7  O   UNL     1      -3.478  -2.733  -8.973  1.00  0.00    -0.272 OA
ATOM      8  H   UNL     1      -1.550  -2.318 -11.449  1.00  0.00     0.164 HD
BRANCH   6   9
ATOM      9  C   UNL     1      -1.764  -4.219  -9.873  1.00  0.00     0.219 C 
BRANCH   9  10
ATOM     10  O   UNL     1      -0.361  -3.972  -9.713  1.00  0.00    -0.382 OA
ATOM     11  H   UNL     1      -0.040  -4.768  -9.235  1.00  0.00     0.211 HD
ENDBRANCH   9  10
BRANCH   9  12
ATOM     12  C   UNL     1      -2.247  -5.312  -8.884  1.00  0.00     0.089 C 
BRANCH  12  13
ATOM     13  N   UNL     1      -2.425  -6.576  -9.634  1.00  0.00    -0.325 NA
ATOM     14  H   UNL     1      -3.308  -6.541 -10.146  1.00  0.00     0.119 HD
ATOM     15  H   UNL     1      -2.532  -7.344  -8.968  1.00  0.00     0.119 HD
ENDBRANCH  12  13
BRANCH  12  16
ATOM     16  C   UNL     1      -1.349  -5.551  -7.646  1.00  0.00     0.022 C 
BRANCH  16  17
ATOM     17  C   UNL     1      -1.474  -4.610  -6.440  1.00  0.00     0.002 C 
BRANCH  17  18
ATOM     18  C   UNL     1      -0.898  -5.154  -5.135  1.00  0.00     0.000 C 
BRANCH  18  19
ATOM     19  C   UNL     1      -1.958  -5.522  -4.089  1.00  0.00    -0.000 C 
BRANCH  19  20
ATOM     20  C   UNL     1      -2.080  -4.546  -2.915  1.00  0.00    -0.000 C 
BRANCH  20  21
ATOM     21  C   UNL     1      -1.612  -5.146  -1.586  1.00  0.00    -0.003 C 
ATOM     22  C   UNL     1      -0.890  -6.468  -1.798  1.00  0.00     0.004 C 
ENDBRANCH  20  21
ENDBRANCH  19  20
ENDBRANCH  18  19
ENDBRANCH  17  18
ENDBRANCH  16  17
ENDBRANCH  12  16
ENDBRANCH   9  12
ENDBRANCH   6   9
ENDBRANCH   3   5
ENDBRANCH   2   3
BRANCH   2  23
ATOM     23  N   UNL     1      -1.313   0.051 -12.661  1.00  0.00    -0.332 N 
ATOM     24  C   UNL     1      -1.559  -0.399 -14.023  1.00  0.00     0.147 C 
BRANCH  23  25
ATOM     25  C   UNL     1       0.111   0.353 -12.348  1.00  0.00     0.174 C 
BRANCH  25  26
ATOM     26  C   UNL     1       1.048   0.163 -13.564  1.00  0.00     0.038 C 
BRANCH  26  27
ATOM     27  C   UNL     1       2.099   1.266 -13.816  1.00  0.00    -0.015 C 
ATOM     28  C   UNL     1       2.012   2.401 -12.797  1.00  0.00     0.007 C 
ATOM     29  C   UNL     1       3.527   0.734 -13.907  1.00  0.00     0.007 C 
ENDBRANCH  26  27
ENDBRANCH  25  26
BRANCH  25  30
ATOM     30  C   UNL     1       0.557  -0.430 -11.092  1.00  0.00     0.243 C 
ATOM     31  O   UNL     1       0.657  -1.656 -11.091  1.00  0.00    -0.273 OA
ATOM     32  N   UNL     1       0.825   0.331  -9.983  1.00  0.00    -0.342 N 
ATOM     33  H   UNL     1       0.856   1.347 -10.102  1.00  0.00     0.164 HD
BRANCH  32  34
ATOM     34  C   UNL     1       1.233  -0.241  -8.697  1.00  0.00     0.175 C 
BRANCH  34  35
ATOM     35  C   UNL     1       2.250   0.661  -7.981  1.00  0.00     0.070 C 
BRANCH  35  36
ATOM     36  C   UNL     1       3.257   1.274  -8.928  1.00  0.00    -0.045 A 
ATOM     37  C   UNL     1       4.015   0.451  -9.775  1.00  0.00     0.007 A 
ATOM     38  C   UNL     1       3.464   2.659  -8.960  1.00  0.00     0.007 A 
ATOM     39  C   UNL     1       4.956   1.006 -10.642  1.00  0.00     0.046 A 
ATOM     40  C   UNL     1       4.407   3.216  -9.827  1.00  0.00     0.046 A 
ATOM     41  C   UNL     1       5.144   2.383 -10.662  1.00  0.00     0.115 A 
BRANCH  41  42
ATOM     42  O   UNL     1       6.076   2.884 -11.522  1.00  0.00    -0.508 OA
ATOM     43  H   UNL     1       6.946   2.535 -11.267  1.00  0.00     0.293 HD
ENDBRANCH  41  42
ENDBRANCH  35  36
ENDBRANCH  34  35
BRANCH  34  44
ATOM     44  C   UNL     1      -0.038  -0.466  -7.848  1.00  0.00     0.243 C 
ATOM     45  O   UNL     1      -0.467  -1.568  -7.519  1.00  0.00    -0.273 OA
ATOM     46  N   UNL     1      -0.739   0.694  -7.592  1.00  0.00    -0.341 N 
ATOM     47  H   UNL     1      -0.405   1.570  -7.985  1.00  0.00     0.164 HD
BRANCH  46  48
ATOM     48  C   UNL     1      -2.010   0.723  -6.864  1.00  0.00     0.196 C 
BRANCH  48  49
ATOM     49  C   UNL     1      -1.788   0.622  -5.346  1.00  0.00     0.072 C 
BRANCH  49  50
ATOM     50  C   UNL     1      -2.761  -0.324  -4.678  1.00  0.00    -0.045 A 
ATOM     51  C   UNL     1      -3.329  -1.375  -5.411  1.00  0.00     0.007 A 
ATOM     52  C   UNL     1      -3.122  -0.156  -3.335  1.00  0.00     0.007 A 
ATOM     53  C   UNL     1      -4.237  -2.246  -4.809  1.00  0.00     0.046 A 
ATOM     54  C   UNL     1      -4.033  -1.027  -2.732  1.00  0.00     0.046 A 
ATOM     55  C   UNL     1      -4.582  -2.066  -3.475  1.00  0.00     0.115 A 
BRANCH  55  56
ATOM     56  O   UNL     1      -5.474  -2.938  -2.925  1.00  0.00    -0.508 OA
ATOM     57  H   UNL     1      -6.120  -2.429  -2.409  1.00  0.00     0.293 HD
ENDBRANCH  55  56
ENDBRANCH  49  50
ENDBRANCH  48  49
BRANCH  48  58
ATOM     58  C   UNL     1      -2.742   2.031  -7.192  1.00  0.00     0.326 C 
ATOM     59  O   UNL     1      -2.409   3.163  -6.880  1.00  0.00    -0.250 OA
BRANCH  58  60
ATOM     60  O   UNL     1      -3.871   1.851  -7.923  1.00  0.00    -0.480 OA
ATOM     61  H   UNL     1      -4.362   2.691  -7.791  1.00  0.00     0.296 HD
ENDBRANCH  58  60
ENDBRANCH  48  58
ENDBRANCH  46  48
ENDBRANCH  34  44
ENDBRANCH  32  34
ENDBRANCH  25  30
ENDBRANCH  23  25
ENDBRANCH   2  23
TORSDOF 28
ENDMDL
MODEL 14
REMARK VINA RESULT:    -6.324      2.508      7.368
REMARK INTER + INTRA:         -20.271
REMARK INTER:                 -13.807
REMARK INTRA:                  -6.464
REMARK UNBOUND:                -4.520
REMARK SMILES CCCCCCC[C@H](N)[C@H](O)C(=O)N[C@H](C)C(=O)N(C)[C@H](CC(C)C)C(=O)N[C@@H](Cc1ccc(O)cc1)C(=O)N[C@@H](Cc1ccc(O)cc1)C(=O)O
REMARK SMILES IDX 18 1 17 2 15 3 16 4 14 5 12 6 13 7 10 9 11 10 8 12 9 13 7 16
REMARK SMILES IDX 6 17 5 18 4 19 3 20 2 21 1 22 19 23 20 24 21 25 22 26 23 27
REMARK SMILES IDX 24 28 25 29 26 30 27 31 28 32 29 34 30 35 31 36 32 37 37 38
REMARK SMILES IDX 33 39 36 40 34 41 35 42 38 44 39 45 40 46 41 48 42 49 43 50
REMARK SMILES IDX 44 51 49 52 45 53 48 54 46 55 47 56 50 58 51 59 52 60
REMARK H PARENT 14 8 11 11 9 14 9 15 28 33 35 43 40 47 47 57 52 61
ROOT
ATOM      1  O   UNL     1      -3.496  -0.664  -8.690  1.00  0.00    -0.272 OA
ATOM      2  C   UNL     1      -3.822  -0.045  -9.714  1.00  0.00     0.245 C 
ENDROOT
BRANCH   2   3
ATOM      3  C   UNL     1      -5.028  -0.559 -10.538  1.00  0.00     0.168 C 
ATOM      4  C   UNL     1      -4.557  -1.280 -11.797  1.00  0.00     0.041 C 
BRANCH   3   5
ATOM      5  N   UNL     1      -5.988  -1.353  -9.786  1.00  0.00    -0.342 N 
ATOM      6  C   UNL     1      -6.942  -0.769  -8.980  1.00  0.00     0.251 C 
ATOM      7  O   UNL     1      -7.029   0.441  -8.802  1.00  0.00    -0.272 OA
ATOM      8  H   UNL     1      -5.992  -2.369  -9.827  1.00  0.00     0.164 HD
BRANCH   6   9
ATOM      9  C   UNL     1      -7.934  -1.789  -8.399  1.00  0.00     0.219 C 
BRANCH   9  10
ATOM     10  O   UNL     1      -7.936  -3.029  -9.117  1.00  0.00    -0.382 OA
ATOM     11  H   UNL     1      -7.956  -2.751 -10.059  1.00  0.00     0.211 HD
ENDBRANCH   9  10
BRANCH   9  12
ATOM     12  C   UNL     1      -7.738  -2.033  -6.880  1.00  0.00     0.089 C 
BRANCH  12  13
ATOM     13  N   UNL     1      -8.352  -3.335  -6.532  1.00  0.00    -0.325 NA
ATOM     14  H   UNL     1      -8.897  -3.672  -7.327  1.00  0.00     0.119 HD
ATOM     15  H   UNL     1      -9.034  -3.189  -5.784  1.00  0.00     0.119 HD
ENDBRANCH  12  13
BRANCH  12  16
ATOM     16  C   UNL     1      -6.278  -1.980  -6.368  1.00  0.00     0.022 C 
BRANCH  16  17
ATOM     17  C   UNL     1      -5.970  -1.228  -5.066  1.00  0.00     0.002 C 
BRANCH  17  18
ATOM     18  C   UNL     1      -4.778  -1.765  -4.278  1.00  0.00     0.000 C 
BRANCH  18  19
ATOM     19  C   UNL     1      -3.637  -0.753  -4.104  1.00  0.00    -0.000 C 
BRANCH  19  20
ATOM     20  C   UNL     1      -3.401   0.172  -5.302  1.00  0.00    -0.000 C 
BRANCH  20  21
ATOM     21  C   UNL     1      -1.933   0.231  -5.733  1.00  0.00    -0.003 C 
ATOM     22  C   UNL     1      -1.197   1.368  -5.041  1.00  0.00     0.004 C 
ENDBRANCH  20  21
ENDBRANCH  19  20
ENDBRANCH  18  19
ENDBRANCH  17  18
ENDBRANCH  16  17
ENDBRANCH  12  16
ENDBRANCH   9  12
ENDBRANCH   6   9
ENDBRANCH   3   5
ENDBRANCH   2   3
BRANCH   2  23
ATOM     23  N   UNL     1      -3.188   1.151 -10.035  1.00  0.00    -0.332 N 
ATOM     24  C   UNL     1      -3.825   2.263 -10.724  1.00  0.00     0.147 C 
BRANCH  23  25
ATOM     25  C   UNL     1      -1.803   1.418  -9.560  1.00  0.00     0.174 C 
BRANCH  25  26
ATOM     26  C   UNL     1      -1.333   2.862  -9.856  1.00  0.00     0.038 C 
BRANCH  26  27
ATOM     27  C   UNL     1      -0.139   3.392  -9.032  1.00  0.00    -0.015 C 
ATOM     28  C   UNL     1       0.706   4.402  -9.810  1.00  0.00     0.007 C 
ATOM     29  C   UNL     1      -0.543   3.962  -7.675  1.00  0.00     0.007 C 
ENDBRANCH  26  27
ENDBRANCH  25  26
BRANCH  25  30
ATOM     30  C   UNL     1      -0.840   0.330 -10.087  1.00  0.00     0.243 C 
ATOM     31  O   UNL     1      -0.527   0.260 -11.275  1.00  0.00    -0.273 OA
ATOM     32  N   UNL     1      -0.367  -0.550  -9.148  1.00  0.00    -0.342 N 
ATOM     33  H   UNL     1      -0.559  -0.341  -8.165  1.00  0.00     0.164 HD
BRANCH  32  34
ATOM     34  C   UNL     1       0.533  -1.660  -9.471  1.00  0.00     0.175 C 
BRANCH  34  35
ATOM     35  C   UNL     1       1.818  -1.599  -8.632  1.00  0.00     0.070 C 
BRANCH  35  36
ATOM     36  C   UNL     1       2.224  -0.185  -8.284  1.00  0.00    -0.045 A 
ATOM     37  C   UNL     1       1.859   0.365  -7.046  1.00  0.00     0.007 A 
ATOM     38  C   UNL     1       2.943   0.601  -9.194  1.00  0.00     0.007 A 
ATOM     39  C   UNL     1       2.217   1.674  -6.722  1.00  0.00     0.046 A 
ATOM     40  C   UNL     1       3.300   1.912  -8.870  1.00  0.00     0.046 A 
ATOM     41  C   UNL     1       2.934   2.437  -7.635  1.00  0.00     0.115 A 
BRANCH  41  42
ATOM     42  O   UNL     1       3.261   3.712  -7.281  1.00  0.00    -0.508 OA
ATOM     43  H   UNL     1       2.455   4.253  -7.311  1.00  0.00     0.293 HD
ENDBRANCH  41  42
ENDBRANCH  35  36
ENDBRANCH  34  35
BRANCH  34  44
ATOM     44  C   UNL     1      -0.239  -2.981  -9.250  1.00  0.00     0.243 C 
ATOM     45  O   UNL     1      -0.034  -4.017  -9.877  1.00  0.00    -0.273 OA
ATOM     46  N   UNL     1      -1.287  -2.862  -8.363  1.00  0.00    -0.341 N 
ATOM     47  H   UNL     1      -1.490  -1.952  -7.957  1.00  0.00     0.164 HD
BRANCH  46  48
ATOM     48  C   UNL     1      -2.202  -3.961  -8.045  1.00  0.00     0.196 C 
BRANCH  48  49
ATOM     49  C   UNL     1      -2.862  -3.761  -6.671  1.00  0.00     0.072 C 
BRANCH  49  50
ATOM     50  C   UNL     1      -2.130  -4.484  -5.563  1.00  0.00    -0.045 A 
ATOM     51  C   UNL     1      -2.717  -4.597  -4.294  1.00  0.00     0.007 A 
ATOM     52  C   UNL     1      -0.858  -5.030  -5.776  1.00  0.00     0.007 A 
ATOM     53  C   UNL     1      -2.046  -5.251  -3.261  1.00  0.00     0.046 A 
ATOM     54  C   UNL     1      -0.185  -5.683  -4.741  1.00  0.00     0.046 A 
ATOM     55  C   UNL     1      -0.786  -5.789  -3.492  1.00  0.00     0.115 A 
BRANCH  55  56
ATOM     56  O   UNL     1      -0.162  -6.418  -2.455  1.00  0.00    -0.508 OA
ATOM     57  H   UNL     1      -0.627  -7.251  -2.279  1.00  0.00     0.293 HD
ENDBRANCH  55  56
ENDBRANCH  49  50
ENDBRANCH  48  49
BRANCH  48  58
ATOM     58  C   UNL     1      -3.286  -4.037  -9.130  1.00  0.00     0.326 C 
ATOM     59  O   UNL     1      -4.456  -3.706  -9.030  1.00  0.00    -0.250 OA
BRANCH  58  60
ATOM     60  O   UNL     1      -2.833  -4.521 -10.314  1.00  0.00    -0.480 OA
ATOM     61  H   UNL     1      -2.310  -5.310 -10.051  1.00  0.00     0.296 HD
ENDBRANCH  58  60
ENDBRANCH  48  58
ENDBRANCH  46  48
ENDBRANCH  34  44
ENDBRANCH  32  34
ENDBRANCH  25  30
ENDBRANCH  23  25
ENDBRANCH   2  23
TORSDOF 28
ENDMDL
MODEL 15
REMARK VINA RESULT:    -6.318      2.339      9.551
REMARK INTER + INTRA:         -20.258
REMARK INTER:                 -15.748
REMARK INTRA:                  -4.509
REMARK UNBOUND:                -4.520
REMARK SMILES CCCCCCC[C@H](N)[C@H](O)C(=O)N[C@H](C)C(=O)N(C)[C@H](CC(C)C)C(=O)N[C@@H](Cc1ccc(O)cc1)C(=O)N[C@@H](Cc1ccc(O)cc1)C(=O)O
REMARK SMILES IDX 18 1 17 2 15 3 16 4 14 5 12 6 13 7 10 9 11 10 8 12 9 13 7 16
REMARK SMILES IDX 6 17 5 18 4 19 3 20 2 21 1 22 19 23 20 24 21 25 22 26 23 27
REMARK SMILES IDX 24 28 25 29 26 30 27 31 28 32 29 34 30 35 31 36 32 37 37 38
REMARK SMILES IDX 33 39 36 40 34 41 35 42 38 44 39 45 40 46 41 48 42 49 43 50
REMARK SMILES IDX 44 51 49 52 45 53 48 54 46 55 47 56 50 58 51 59 52 60
REMARK H PARENT 14 8 11 11 9 14 9 15 28 33 35 43 40 47 47 57 52 61
ROOT
ATOM      1  O   UNL     1      -2.757   0.693  -8.565  1.00  0.00    -0.272 OA
ATOM      2  C   UNL     1      -1.621   1.189  -8.520  1.00  0.00     0.245 C 
ENDROOT
BRANCH   2   3
ATOM      3  C   UNL     1      -1.393   2.577  -9.171  1.00  0.00     0.168 C 
ATOM      4  C   UNL     1      -1.312   3.667  -8.107  1.00  0.00     0.041 C 
BRANCH   3   5
ATOM      5  N   UNL     1      -0.274   2.640 -10.098  1.00  0.00    -0.342 N 
ATOM      6  C   UNL     1      -0.463   2.716 -11.462  1.00  0.00     0.251 C 
ATOM      7  O   UNL     1      -1.568   2.694 -11.994  1.00  0.00    -0.272 OA
ATOM      8  H   UNL     1       0.691   2.630  -9.776  1.00  0.00     0.164 HD
BRANCH   6   9
ATOM      9  C   UNL     1       0.851   2.917 -12.234  1.00  0.00     0.219 C 
BRANCH   9  10
ATOM     10  O   UNL     1       1.883   3.495 -11.426  1.00  0.00    -0.382 OA
ATOM     11  H   UNL     1       1.904   4.434 -11.713  1.00  0.00     0.211 HD
ENDBRANCH   9  10
BRANCH   9  12
ATOM     12  C   UNL     1       1.354   1.625 -12.928  1.00  0.00     0.089 C 
BRANCH  12  13
ATOM     13  N   UNL     1       0.349   1.215 -13.937  1.00  0.00    -0.325 NA
ATOM     14  H   UNL     1      -0.392   0.685 -13.476  1.00  0.00     0.119 HD
ATOM     15  H   UNL     1       0.783   0.557 -14.588  1.00  0.00     0.119 HD
ENDBRANCH  12  13
BRANCH  12  16
ATOM     16  C   UNL     1       2.756   1.705 -13.577  1.00  0.00     0.022 C 
BRANCH  16  17
ATOM     17  C   UNL     1       3.584   0.422 -13.729  1.00  0.00     0.002 C 
BRANCH  17  18
ATOM     18  C   UNL     1       4.829   0.350 -12.848  1.00  0.00     0.000 C 
BRANCH  18  19
ATOM     19  C   UNL     1       4.909   1.456 -11.788  1.00  0.00    -0.000 C 
BRANCH  19  20
ATOM     20  C   UNL     1       4.854   0.971 -10.337  1.00  0.00    -0.000 C 
BRANCH  20  21
ATOM     21  C   UNL     1       3.434   0.639  -9.869  1.00  0.00    -0.003 C 
ATOM     22  C   UNL     1       3.025   1.500  -8.684  1.00  0.00     0.004 C 
ENDBRANCH  20  21
ENDBRANCH  19  20
ENDBRANCH  18  19
ENDBRANCH  17  18
ENDBRANCH  16  17
ENDBRANCH  12  16
ENDBRANCH   9  12
ENDBRANCH   6   9
ENDBRANCH   3   5
ENDBRANCH   2   3
BRANCH   2  23
ATOM     23  N   UNL     1      -0.616   0.561  -7.794  1.00  0.00    -0.332 N 
ATOM     24  C   UNL     1      -0.173   0.973  -6.470  1.00  0.00     0.147 C 
BRANCH  23  25
ATOM     25  C   UNL     1       0.002  -0.696  -8.298  1.00  0.00     0.174 C 
BRANCH  25  26
ATOM     26  C   UNL     1       0.018  -0.782  -9.842  1.00  0.00     0.038 C 
BRANCH  26  27
ATOM     27  C   UNL     1      -1.128  -1.574 -10.511  1.00  0.00    -0.015 C 
ATOM     28  C   UNL     1      -1.675  -0.873 -11.754  1.00  0.00     0.007 C 
ATOM     29  C   UNL     1      -0.761  -3.021 -10.828  1.00  0.00     0.007 C 
ENDBRANCH  26  27
ENDBRANCH  25  26
BRANCH  25  30
ATOM     30  C   UNL     1      -0.649  -1.920  -7.614  1.00  0.00     0.243 C 
ATOM     31  O   UNL     1      -0.034  -2.971  -7.440  1.00  0.00    -0.273 OA
ATOM     32  N   UNL     1      -1.953  -1.758  -7.223  1.00  0.00    -0.342 N 
ATOM     33  H   UNL     1      -2.349  -0.815  -7.273  1.00  0.00     0.164 HD
BRANCH  32  34
ATOM     34  C   UNL     1      -2.737  -2.818  -6.585  1.00  0.00     0.175 C 
BRANCH  34  35
ATOM     35  C   UNL     1      -2.831  -2.607  -5.066  1.00  0.00     0.070 C 
BRANCH  35  36
ATOM     36  C   UNL     1      -2.325  -3.794  -4.278  1.00  0.00    -0.045 A 
ATOM     37  C   UNL     1      -2.807  -4.034  -2.982  1.00  0.00     0.007 A 
ATOM     38  C   UNL     1      -1.357  -4.653  -4.815  1.00  0.00     0.007 A 
ATOM     39  C   UNL     1      -2.336  -5.119  -2.242  1.00  0.00     0.046 A 
ATOM     40  C   UNL     1      -0.883  -5.739  -4.074  1.00  0.00     0.046 A 
ATOM     41  C   UNL     1      -1.379  -5.963  -2.793  1.00  0.00     0.115 A 
BRANCH  41  42
ATOM     42  O   UNL     1      -0.943  -7.009  -2.036  1.00  0.00    -0.508 OA
ATOM     43  H   UNL     1      -1.521  -7.084  -1.259  1.00  0.00     0.293 HD
ENDBRANCH  41  42
ENDBRANCH  35  36
ENDBRANCH  34  35
BRANCH  34  44
ATOM     44  C   UNL     1      -4.131  -2.850  -7.250  1.00  0.00     0.243 C 
ATOM     45  O   UNL     1      -5.122  -2.271  -6.813  1.00  0.00    -0.273 OA
ATOM     46  N   UNL     1      -4.205  -3.705  -8.330  1.00  0.00    -0.341 N 
ATOM     47  H   UNL     1      -3.386  -4.252  -8.583  1.00  0.00     0.164 HD
BRANCH  46  48
ATOM     48  C   UNL     1      -5.439  -3.953  -9.079  1.00  0.00     0.196 C 
BRANCH  48  49
ATOM     49  C   UNL     1      -5.341  -3.411 -10.515  1.00  0.00     0.072 C 
BRANCH  49  50
ATOM     50  C   UNL     1      -5.664  -1.937 -10.604  1.00  0.00    -0.045 A 
ATOM     51  C   UNL     1      -6.723  -1.407  -9.852  1.00  0.00     0.007 A 
ATOM     52  C   UNL     1      -4.933  -1.088 -11.445  1.00  0.00     0.007 A 
ATOM     53  C   UNL     1      -7.039  -0.051  -9.936  1.00  0.00     0.046 A 
ATOM     54  C   UNL     1      -5.251   0.269 -11.530  1.00  0.00     0.046 A 
ATOM     55  C   UNL     1      -6.301   0.777 -10.773  1.00  0.00     0.115 A 
BRANCH  55  56
ATOM     56  O   UNL     1      -6.644   2.096 -10.828  1.00  0.00    -0.508 OA
ATOM     57  H   UNL     1      -5.988   2.559 -11.373  1.00  0.00     0.293 HD
ENDBRANCH  55  56
ENDBRANCH  49  50
ENDBRANCH  48  49
BRANCH  48  58
ATOM     58  C   UNL     1      -5.705  -5.464  -9.116  1.00  0.00     0.326 C 
ATOM     59  O   UNL     1      -4.880  -6.362  -9.068  1.00  0.00    -0.250 OA
BRANCH  58  60
ATOM     60  O   UNL     1      -7.022  -5.780  -9.198  1.00  0.00    -0.480 OA
ATOM     61  H   UNL     1      -7.040  -6.736  -8.978  1.00  0.00     0.296 HD
ENDBRANCH  58  60
ENDBRANCH  48  58
ENDBRANCH  46  48
ENDBRANCH  34  44
ENDBRANCH  32  34
ENDBRANCH  25  30
ENDBRANCH  23  25
ENDBRANCH   2  23
TORSDOF 28
ENDMDL
MODEL 16
REMARK VINA RESULT:    -6.316      3.312      7.920
REMARK INTER + INTRA:         -20.253
REMARK INTER:                 -15.019
REMARK INTRA:                  -5.233
REMARK UNBOUND:                -4.520
REMARK SMILES CCCCCCC[C@H](N)[C@H](O)C(=O)N[C@H](C)C(=O)N(C)[C@H](CC(C)C)C(=O)N[C@@H](Cc1ccc(O)cc1)C(=O)N[C@@H](Cc1ccc(O)cc1)C(=O)O
REMARK SMILES IDX 18 1 17 2 15 3 16 4 14 5 12 6 13 7 10 9 11 10 8 12 9 13 7 16
REMARK SMILES IDX 6 17 5 18 4 19 3 20 2 21 1 22 19 23 20 24 21 25 22 26 23 27
REMARK SMILES IDX 24 28 25 29 26 30 27 31 28 32 29 34 30 35 31 36 32 37 37 38
REMARK SMILES IDX 33 39 36 40 34 41 35 42 38 44 39 45 40 46 41 48 42 49 43 50
REMARK SMILES IDX 44 51 49 52 45 53 48 54 46 55 47 56 50 58 51 59 52 60
REMARK H PARENT 14 8 11 11 9 14 9 15 28 33 35 43 40 47 47 57 52 61
ROOT
ATOM      1  O   UNL     1      -4.948  -2.840 -11.403  1.00  0.00    -0.272 OA
ATOM      2  C   UNL     1      -5.233  -2.111 -10.441  1.00  0.00     0.245 C 
ENDROOT
BRANCH   2   3
ATOM      3  C   UNL     1      -5.669  -2.776  -9.112  1.00  0.00     0.168 C 
ATOM      4  C   UNL     1      -7.158  -3.103  -9.131  1.00  0.00     0.041 C 
BRANCH   3   5
ATOM      5  N   UNL     1      -4.868  -3.923  -8.711  1.00  0.00    -0.342 N 
ATOM      6  C   UNL     1      -5.160  -5.200  -9.139  1.00  0.00     0.251 C 
ATOM      7  O   UNL     1      -6.126  -5.473  -9.845  1.00  0.00    -0.272 OA
ATOM      8  H   UNL     1      -4.062  -3.826  -8.098  1.00  0.00     0.164 HD
BRANCH   6   9
ATOM      9  C   UNL     1      -4.101  -6.228  -8.710  1.00  0.00     0.219 C 
BRANCH   9  10
ATOM     10  O   UNL     1      -4.558  -7.580  -8.841  1.00  0.00    -0.382 OA
ATOM     11  H   UNL     1      -4.336  -7.810  -9.770  1.00  0.00     0.211 HD
ENDBRANCH   9  10
BRANCH   9  12
ATOM     12  C   UNL     1      -2.739  -6.035  -9.427  1.00  0.00     0.089 C 
BRANCH  12  13
ATOM     13  N   UNL     1      -2.946  -5.142 -10.589  1.00  0.00    -0.325 NA
ATOM     14  H   UNL     1      -3.304  -5.689 -11.374  1.00  0.00     0.119 HD
ATOM     15  H   UNL     1      -2.037  -4.790 -10.901  1.00  0.00     0.119 HD
ENDBRANCH  12  13
BRANCH  12  16
ATOM     16  C   UNL     1      -1.580  -5.507  -8.548  1.00  0.00     0.022 C 
BRANCH  16  17
ATOM     17  C   UNL     1      -1.644  -5.705  -7.028  1.00  0.00     0.002 C 
BRANCH  17  18
ATOM     18  C   UNL     1      -0.449  -5.152  -6.255  1.00  0.00     0.000 C 
BRANCH  18  19
ATOM     19  C   UNL     1      -0.532  -5.369  -4.738  1.00  0.00    -0.000 C 
BRANCH  19  20
ATOM     20  C   UNL     1      -1.835  -4.900  -4.084  1.00  0.00    -0.000 C 
BRANCH  20  21
ATOM     21  C   UNL     1      -2.285  -5.800  -2.930  1.00  0.00    -0.003 C 
ATOM     22  C   UNL     1      -1.189  -5.953  -1.887  1.00  0.00     0.004 C 
ENDBRANCH  20  21
ENDBRANCH  19  20
ENDBRANCH  18  19
ENDBRANCH  17  18
ENDBRANCH  16  17
ENDBRANCH  12  16
ENDBRANCH   9  12
ENDBRANCH   6   9
ENDBRANCH   3   5
ENDBRANCH   2   3
BRANCH   2  23
ATOM     23  N   UNL     1      -5.044  -0.736 -10.530  1.00  0.00    -0.332 N 
ATOM     24  C   UNL     1      -6.115   0.248 -10.502  1.00  0.00     0.147 C 
BRANCH  23  25
ATOM     25  C   UNL     1      -3.669  -0.166 -10.531  1.00  0.00     0.174 C 
BRANCH  25  26
ATOM     26  C   UNL     1      -2.784  -0.731 -11.668  1.00  0.00     0.038 C 
BRANCH  26  27
ATOM     27  C   UNL     1      -1.710   0.213 -12.253  1.00  0.00    -0.015 C 
ATOM     28  C   UNL     1      -1.340  -0.144 -13.692  1.00  0.00     0.007 C 
ATOM     29  C   UNL     1      -2.074   1.691 -12.142  1.00  0.00     0.007 C 
ENDBRANCH  26  27
ENDBRANCH  25  26
BRANCH  25  30
ATOM     30  C   UNL     1      -3.036  -0.299  -9.127  1.00  0.00     0.243 C 
ATOM     31  O   UNL     1      -3.252   0.522  -8.237  1.00  0.00    -0.273 OA
ATOM     32  N   UNL     1      -2.218  -1.384  -8.945  1.00  0.00    -0.342 N 
ATOM     33  H   UNL     1      -2.201  -2.093  -9.682  1.00  0.00     0.164 HD
BRANCH  32  34
ATOM     34  C   UNL     1      -1.513  -1.654  -7.689  1.00  0.00     0.175 C 
BRANCH  34  35
ATOM     35  C   UNL     1      -0.616  -0.474  -7.287  1.00  0.00     0.070 C 
BRANCH  35  36
ATOM     36  C   UNL     1       0.583  -0.314  -8.194  1.00  0.00    -0.045 A 
ATOM     37  C   UNL     1       1.682  -1.177  -8.064  1.00  0.00     0.007 A 
ATOM     38  C   UNL     1       0.626   0.704  -9.156  1.00  0.00     0.007 A 
ATOM     39  C   UNL     1       2.798  -1.029  -8.888  1.00  0.00     0.046 A 
ATOM     40  C   UNL     1       1.744   0.854  -9.980  1.00  0.00     0.046 A 
ATOM     41  C   UNL     1       2.820  -0.016  -9.839  1.00  0.00     0.115 A 
BRANCH  41  42
ATOM     42  O   UNL     1       3.931   0.096 -10.622  1.00  0.00    -0.508 OA
ATOM     43  H   UNL     1       4.617   0.558 -10.112  1.00  0.00     0.293 HD
ENDBRANCH  41  42
ENDBRANCH  35  36
ENDBRANCH  34  35
BRANCH  34  44
ATOM     44  C   UNL     1      -2.568  -1.973  -6.606  1.00  0.00     0.243 C 
ATOM     45  O   UNL     1      -3.283  -2.971  -6.607  1.00  0.00    -0.273 OA
ATOM     46  N   UNL     1      -2.736  -0.958  -5.688  1.00  0.00    -0.341 N 
ATOM     47  H   UNL     1      -2.202  -0.099  -5.798  1.00  0.00     0.164 HD
BRANCH  46  48
ATOM     48  C   UNL     1      -3.726  -1.002  -4.610  1.00  0.00     0.196 C 
BRANCH  48  49
ATOM     49  C   UNL     1      -3.073  -0.756  -3.239  1.00  0.00     0.072 C 
BRANCH  49  50
ATOM     50  C   UNL     1      -3.399  -1.840  -2.237  1.00  0.00    -0.045 A 
ATOM     51  C   UNL     1      -4.511  -2.669  -2.441  1.00  0.00     0.007 A 
ATOM     52  C   UNL     1      -2.618  -2.018  -1.088  1.00  0.00     0.007 A 
ATOM     53  C   UNL     1      -4.830  -3.664  -1.516  1.00  0.00     0.046 A 
ATOM     54  C   UNL     1      -2.937  -3.012  -0.161  1.00  0.00     0.046 A 
ATOM     55  C   UNL     1      -4.041  -3.828  -0.384  1.00  0.00     0.115 A 
BRANCH  55  56
ATOM     56  O   UNL     1      -4.387  -4.810   0.496  1.00  0.00    -0.508 OA
ATOM     57  H   UNL     1      -3.986  -4.606   1.356  1.00  0.00     0.293 HD
ENDBRANCH  55  56
ENDBRANCH  49  50
ENDBRANCH  48  49
BRANCH  48  58
ATOM     58  C   UNL     1      -4.796   0.067  -4.870  1.00  0.00     0.326 C 
ATOM     59  O   UNL     1      -5.900   0.148  -4.358  1.00  0.00    -0.250 OA
BRANCH  58  60
ATOM     60  O   UNL     1      -4.412   1.010  -5.768  1.00  0.00    -0.480 OA
ATOM     61  H   UNL     1      -5.216   1.563  -5.872  1.00  0.00     0.296 HD
ENDBRANCH  58  60
ENDBRANCH  48  58
ENDBRANCH  46  48
ENDBRANCH  34  44
ENDBRANCH  32  34
ENDBRANCH  25  30
ENDBRANCH  23  25
ENDBRANCH   2  23
TORSDOF 28
ENDMDL
MODEL 17
REMARK VINA RESULT:    -6.304     13.405     17.760
REMARK INTER + INTRA:         -20.222
REMARK INTER:                 -15.925
REMARK INTRA:                  -4.297
REMARK UNBOUND:                -4.520
REMARK SMILES CCCCCCC[C@H](N)[C@H](O)C(=O)N[C@H](C)C(=O)N(C)[C@H](CC(C)C)C(=O)N[C@@H](Cc1ccc(O)cc1)C(=O)N[C@@H](Cc1ccc(O)cc1)C(=O)O
REMARK SMILES IDX 18 1 17 2 15 3 16 4 14 5 12 6 13 7 10 9 11 10 8 12 9 13 7 16
REMARK SMILES IDX 6 17 5 18 4 19 3 20 2 21 1 22 19 23 20 24 21 25 22 26 23 27
REMARK SMILES IDX 24 28 25 29 26 30 27 31 28 32 29 34 30 35 31 36 32 37 37 38
REMARK SMILES IDX 33 39 36 40 34 41 35 42 38 44 39 45 40 46 41 48 42 49 43 50
REMARK SMILES IDX 44 51 49 52 45 53 48 54 46 55 47 56 50 58 51 59 52 60
REMARK H PARENT 14 8 11 11 9 14 9 15 28 33 35 43 40 47 47 57 52 61
ROOT
ATOM      1  O   UNL     1      -7.747  -0.196   4.729  1.00  0.00    -0.272 OA
ATOM      2  C   UNL     1      -7.089  -1.073   4.150  1.00  0.00     0.245 C 
ENDROOT
BRANCH   2   3
ATOM      3  C   UNL     1      -5.668  -0.718   3.643  1.00  0.00     0.168 C 
ATOM      4  C   UNL     1      -4.609  -1.166   4.645  1.00  0.00     0.041 C 
BRANCH   3   5
ATOM      5  N   UNL     1      -5.368  -1.176   2.296  1.00  0.00    -0.342 N 
ATOM      6  C   UNL     1      -4.492  -0.498   1.475  1.00  0.00     0.251 C 
ATOM      7  O   UNL     1      -3.939   0.549   1.794  1.00  0.00    -0.272 OA
ATOM      8  H   UNL     1      -5.794  -2.015   1.907  1.00  0.00     0.164 HD
BRANCH   6   9
ATOM      9  C   UNL     1      -4.219  -1.240   0.156  1.00  0.00     0.219 C 
BRANCH   9  10
ATOM     10  O   UNL     1      -4.347  -0.391  -0.991  1.00  0.00    -0.382 OA
ATOM     11  H   UNL     1      -3.608   0.248  -0.889  1.00  0.00     0.211 HD
ENDBRANCH   9  10
BRANCH   9  12
ATOM     12  C   UNL     1      -2.856  -1.980   0.144  1.00  0.00     0.089 C 
BRANCH  12  13
ATOM     13  N   UNL     1      -2.516  -2.353   1.536  1.00  0.00    -0.325 NA
ATOM     14  H   UNL     1      -2.979  -1.710   2.180  1.00  0.00     0.119 HD
ATOM     15  H   UNL     1      -1.515  -2.203   1.684  1.00  0.00     0.119 HD
ENDBRANCH  12  13
BRANCH  12  16
ATOM     16  C   UNL     1      -2.766  -3.221  -0.776  1.00  0.00     0.022 C 
BRANCH  16  17
ATOM     17  C   UNL     1      -2.628  -3.018  -2.291  1.00  0.00     0.002 C 
BRANCH  17  18
ATOM     18  C   UNL     1      -3.439  -3.988  -3.148  1.00  0.00     0.000 C 
BRANCH  18  19
ATOM     19  C   UNL     1      -2.783  -5.364  -3.325  1.00  0.00    -0.000 C 
BRANCH  19  20
ATOM     20  C   UNL     1      -1.352  -5.336  -3.871  1.00  0.00    -0.000 C 
BRANCH  20  21
ATOM     21  C   UNL     1      -0.401  -6.260  -3.106  1.00  0.00    -0.003 C 
ATOM     22  C   UNL     1      -0.874  -6.485  -1.678  1.00  0.00     0.004 C 
ENDBRANCH  20  21
ENDBRANCH  19  20
ENDBRANCH  18  19
ENDBRANCH  17  18
ENDBRANCH  16  17
ENDBRANCH  12  16
ENDBRANCH   9  12
ENDBRANCH   6   9
ENDBRANCH   3   5
ENDBRANCH   2   3
BRANCH   2  23
ATOM     23  N   UNL     1      -7.576  -2.373   4.073  1.00  0.00    -0.332 N 
ATOM     24  C   UNL     1      -8.327  -2.908   2.948  1.00  0.00     0.147 C 
BRANCH  23  25
ATOM     25  C   UNL     1      -7.234  -3.367   5.128  1.00  0.00     0.174 C 
BRANCH  25  26
ATOM     26  C   UNL     1      -7.108  -4.808   4.579  1.00  0.00     0.038 C 
BRANCH  26  27
ATOM     27  C   UNL     1      -5.686  -5.305   4.238  1.00  0.00    -0.015 C 
ATOM     28  C   UNL     1      -5.126  -4.654   2.974  1.00  0.00     0.007 C 
ATOM     29  C   UNL     1      -4.700  -5.167   5.396  1.00  0.00     0.007 C 
ENDBRANCH  26  27
ENDBRANCH  25  26
BRANCH  25  30
ATOM     30  C   UNL     1      -8.212  -3.238   6.318  1.00  0.00     0.243 C 
ATOM     31  O   UNL     1      -9.415  -3.040   6.152  1.00  0.00    -0.273 OA
ATOM     32  N   UNL     1      -7.650  -3.352   7.563  1.00  0.00    -0.342 N 
ATOM     33  H   UNL     1      -6.674  -3.656   7.616  1.00  0.00     0.164 HD
BRANCH  32  34
ATOM     34  C   UNL     1      -8.418  -3.230   8.805  1.00  0.00     0.175 C 
BRANCH  34  35
ATOM     35  C   UNL     1      -8.708  -4.607   9.421  1.00  0.00     0.070 C 
BRANCH  35  36
ATOM     36  C   UNL     1      -7.925  -5.720   8.760  1.00  0.00    -0.045 A 
ATOM     37  C   UNL     1      -6.561  -5.884   9.047  1.00  0.00     0.007 A 
ATOM     38  C   UNL     1      -8.537  -6.583   7.842  1.00  0.00     0.007 A 
ATOM     39  C   UNL     1      -5.827  -6.899   8.432  1.00  0.00     0.046 A 
ATOM     40  C   UNL     1      -7.802  -7.598   7.225  1.00  0.00     0.046 A 
ATOM     41  C   UNL     1      -6.453  -7.747   7.527  1.00  0.00     0.115 A 
BRANCH  41  42
ATOM     42  O   UNL     1      -5.699  -8.724   6.946  1.00  0.00    -0.508 OA
ATOM     43  H   UNL     1      -6.028  -8.865   6.042  1.00  0.00     0.293 HD
ENDBRANCH  41  42
ENDBRANCH  35  36
ENDBRANCH  34  35
BRANCH  34  44
ATOM     44  C   UNL     1      -7.627  -2.320   9.770  1.00  0.00     0.243 C 
ATOM     45  O   UNL     1      -6.838  -2.728  10.618  1.00  0.00    -0.273 OA
ATOM     46  N   UNL     1      -7.983  -0.991   9.688  1.00  0.00    -0.341 N 
ATOM     47  H   UNL     1      -8.727  -0.717   9.050  1.00  0.00     0.164 HD
BRANCH  46  48
ATOM     48  C   UNL     1      -7.418   0.050  10.550  1.00  0.00     0.196 C 
BRANCH  48  49
ATOM     49  C   UNL     1      -7.190   1.358   9.774  1.00  0.00     0.072 C 
BRANCH  49  50
ATOM     50  C   UNL     1      -5.875   1.369   9.026  1.00  0.00    -0.045 A 
ATOM     51  C   UNL     1      -5.495   2.505   8.298  1.00  0.00     0.007 A 
ATOM     52  C   UNL     1      -5.034   0.249   9.031  1.00  0.00     0.007 A 
ATOM     53  C   UNL     1      -4.291   2.522   7.594  1.00  0.00     0.046 A 
ATOM     54  C   UNL     1      -3.829   0.265   8.325  1.00  0.00     0.046 A 
ATOM     55  C   UNL     1      -3.467   1.403   7.613  1.00  0.00     0.115 A 
BRANCH  55  56
ATOM     56  O   UNL     1      -2.300   1.459   6.910  1.00  0.00    -0.508 OA
ATOM     57  H   UNL     1      -1.811   0.635   7.063  1.00  0.00     0.293 HD
ENDBRANCH  55  56
ENDBRANCH  49  50
ENDBRANCH  48  49
BRANCH  48  58
ATOM     58  C   UNL     1      -8.380   0.306  11.718  1.00  0.00     0.326 C 
ATOM     59  O   UNL     1      -8.738   1.387  12.158  1.00  0.00    -0.250 OA
BRANCH  58  60
ATOM     60  O   UNL     1      -8.866  -0.830  12.279  1.00  0.00    -0.480 OA
ATOM     61  H   UNL     1      -8.492  -1.539  11.713  1.00  0.00     0.296 HD
ENDBRANCH  58  60
ENDBRANCH  48  58
ENDBRANCH  46  48
ENDBRANCH  34  44
ENDBRANCH  32  34
ENDBRANCH  25  30
ENDBRANCH  23  25
ENDBRANCH   2  23
TORSDOF 28
ENDMDL
MODEL 18
REMARK VINA RESULT:    -6.292      2.782      7.815
REMARK INTER + INTRA:         -20.191
REMARK INTER:                 -15.613
REMARK INTRA:                  -4.577
REMARK UNBOUND:                -4.520
REMARK SMILES CCCCCCC[C@H](N)[C@H](O)C(=O)N[C@H](C)C(=O)N(C)[C@H](CC(C)C)C(=O)N[C@@H](Cc1ccc(O)cc1)C(=O)N[C@@H](Cc1ccc(O)cc1)C(=O)O
REMARK SMILES IDX 18 1 17 2 15 3 16 4 14 5 12 6 13 7 10 9 11 10 8 12 9 13 7 16
REMARK SMILES IDX 6 17 5 18 4 19 3 20 2 21 1 22 19 23 20 24 21 25 22 26 23 27
REMARK SMILES IDX 24 28 25 29 26 30 27 31 28 32 29 34 30 35 31 36 32 37 37 38
REMARK SMILES IDX 33 39 36 40 34 41 35 42 38 44 39 45 40 46 41 48 42 49 43 50
REMARK SMILES IDX 44 51 49 52 45 53 48 54 46 55 47 56 50 58 51 59 52 60
REMARK H PARENT 14 8 11 11 9 14 9 15 28 33 35 43 40 47 47 57 52 61
ROOT
ATOM      1  O   UNL     1      -3.491   0.651  -9.085  1.00  0.00    -0.272 OA
ATOM      2  C   UNL     1      -3.983  -0.129  -9.914  1.00  0.00     0.245 C 
ENDROOT
BRANCH   2   3
ATOM      3  C   UNL     1      -5.501  -0.036 -10.210  1.00  0.00     0.168 C 
ATOM      4  C   UNL     1      -5.762  -0.046 -11.712  1.00  0.00     0.041 C 
BRANCH   3   5
ATOM      5  N   UNL     1      -6.321  -1.013  -9.510  1.00  0.00    -0.342 N 
ATOM      6  C   UNL     1      -7.105  -0.666  -8.430  1.00  0.00     0.251 C 
ATOM      7  O   UNL     1      -7.140   0.465  -7.956  1.00  0.00    -0.272 OA
ATOM      8  H   UNL     1      -6.346  -1.990  -9.791  1.00  0.00     0.164 HD
BRANCH   6   9
ATOM      9  C   UNL     1      -7.990  -1.823  -7.942  1.00  0.00     0.219 C 
BRANCH   9  10
ATOM     10  O   UNL     1      -8.331  -2.738  -8.991  1.00  0.00    -0.382 OA
ATOM     11  H   UNL     1      -9.163  -3.154  -8.673  1.00  0.00     0.211 HD
ENDBRANCH   9  10
BRANCH   9  12
ATOM     12  C   UNL     1      -7.391  -2.577  -6.726  1.00  0.00     0.089 C 
BRANCH  12  13
ATOM     13  N   UNL     1      -6.248  -1.793  -6.206  1.00  0.00    -0.325 NA
ATOM     14  H   UNL     1      -5.462  -1.877  -6.853  1.00  0.00     0.119 HD
ATOM     15  H   UNL     1      -5.924  -2.218  -5.335  1.00  0.00     0.119 HD
ENDBRANCH  12  13
BRANCH  12  16
ATOM     16  C   UNL     1      -8.377  -2.905  -5.579  1.00  0.00     0.022 C 
BRANCH  16  17
ATOM     17  C   UNL     1      -9.848  -2.490  -5.717  1.00  0.00     0.002 C 
BRANCH  17  18
ATOM     18  C   UNL     1     -10.389  -1.641  -4.569  1.00  0.00     0.000 C 
BRANCH  18  19
ATOM     19  C   UNL     1      -9.302  -0.940  -3.744  1.00  0.00    -0.000 C 
BRANCH  19  20
ATOM     20  C   UNL     1      -9.746   0.347  -3.043  1.00  0.00    -0.000 C 
BRANCH  20  21
ATOM     21  C   UNL     1      -9.278   1.614  -3.763  1.00  0.00    -0.003 C 
ATOM     22  C   UNL     1      -8.126   1.320  -4.711  1.00  0.00     0.004 C 
ENDBRANCH  20  21
ENDBRANCH  19  20
ENDBRANCH  18  19
ENDBRANCH  17  18
ENDBRANCH  16  17
ENDBRANCH  12  16
ENDBRANCH   9  12
ENDBRANCH   6   9
ENDBRANCH   3   5
ENDBRANCH   2   3
BRANCH   2  23
ATOM     23  N   UNL     1      -3.159  -0.978 -10.644  1.00  0.00    -0.332 N 
ATOM     24  C   UNL     1      -3.488  -2.353 -10.989  1.00  0.00     0.147 C 
BRANCH  23  25
ATOM     25  C   UNL     1      -1.897  -0.466 -11.246  1.00  0.00     0.174 C 
BRANCH  25  26
ATOM     26  C   UNL     1      -1.896  -0.534 -12.792  1.00  0.00     0.038 C 
BRANCH  26  27
ATOM     27  C   UNL     1      -1.333   0.691 -13.546  1.00  0.00    -0.015 C 
ATOM     28  C   UNL     1      -1.585   2.002 -12.801  1.00  0.00     0.007 C 
ATOM     29  C   UNL     1       0.143   0.555 -13.909  1.00  0.00     0.007 C 
ENDBRANCH  26  27
ENDBRANCH  25  26
BRANCH  25  30
ATOM     30  C   UNL     1      -0.678  -1.156 -10.594  1.00  0.00     0.243 C 
ATOM     31  O   UNL     1       0.126  -1.815 -11.252  1.00  0.00    -0.273 OA
ATOM     32  N   UNL     1      -0.557  -0.991  -9.238  1.00  0.00    -0.342 N 
ATOM     33  H   UNL     1      -1.181  -0.316  -8.786  1.00  0.00     0.164 HD
BRANCH  32  34
ATOM     34  C   UNL     1       0.519  -1.594  -8.448  1.00  0.00     0.175 C 
BRANCH  34  35
ATOM     35  C   UNL     1       1.290  -0.532  -7.650  1.00  0.00     0.070 C 
BRANCH  35  36
ATOM     36  C   UNL     1       2.276   0.237  -8.499  1.00  0.00    -0.045 A 
ATOM     37  C   UNL     1       3.064  -0.437  -9.444  1.00  0.00     0.007 A 
ATOM     38  C   UNL     1       2.435   1.620  -8.342  1.00  0.00     0.007 A 
ATOM     39  C   UNL     1       3.987   0.262 -10.223  1.00  0.00     0.046 A 
ATOM     40  C   UNL     1       3.360   2.321  -9.120  1.00  0.00     0.046 A 
ATOM     41  C   UNL     1       4.127   1.634 -10.056  1.00  0.00     0.115 A 
BRANCH  41  42
ATOM     42  O   UNL     1       5.042   2.279 -10.834  1.00  0.00    -0.508 OA
ATOM     43  H   UNL     1       4.670   3.139 -11.092  1.00  0.00     0.293 HD
ENDBRANCH  41  42
ENDBRANCH  35  36
ENDBRANCH  34  35
BRANCH  34  44
ATOM     44  C   UNL     1      -0.105  -2.668  -7.529  1.00  0.00     0.243 C 
ATOM     45  O   UNL     1       0.541  -3.471  -6.862  1.00  0.00    -0.273 OA
ATOM     46  N   UNL     1      -1.479  -2.736  -7.620  1.00  0.00    -0.341 N 
ATOM     47  H   UNL     1      -1.962  -2.127  -8.276  1.00  0.00     0.164 HD
BRANCH  46  48
ATOM     48  C   UNL     1      -2.287  -3.720  -6.895  1.00  0.00     0.196 C 
BRANCH  48  49
ATOM     49  C   UNL     1      -2.753  -3.170  -5.536  1.00  0.00     0.072 C 
BRANCH  49  50
ATOM     50  C   UNL     1      -2.351  -4.057  -4.380  1.00  0.00    -0.045 A 
ATOM     51  C   UNL     1      -2.867  -3.813  -3.099  1.00  0.00     0.007 A 
ATOM     52  C   UNL     1      -1.450  -5.114  -4.563  1.00  0.00     0.007 A 
ATOM     53  C   UNL     1      -2.493  -4.617  -2.023  1.00  0.00     0.046 A 
ATOM     54  C   UNL     1      -1.074  -5.919  -3.484  1.00  0.00     0.046 A 
ATOM     55  C   UNL     1      -1.601  -5.664  -2.223  1.00  0.00     0.115 A 
BRANCH  55  56
ATOM     56  O   UNL     1      -1.259  -6.425  -1.144  1.00  0.00    -0.508 OA
ATOM     57  H   UNL     1      -0.497  -6.012  -0.708  1.00  0.00     0.293 HD
ENDBRANCH  55  56
ENDBRANCH  49  50
ENDBRANCH  48  49
BRANCH  48  58
ATOM     58  C   UNL     1      -3.509  -4.088  -7.748  1.00  0.00     0.326 C 
ATOM     59  O   UNL     1      -4.486  -3.395  -7.977  1.00  0.00    -0.250 OA
BRANCH  58  60
ATOM     60  O   UNL     1      -3.434  -5.329  -8.293  1.00  0.00    -0.480 OA
ATOM     61  H   UNL     1      -4.352  -5.497  -8.598  1.00  0.00     0.296 HD
ENDBRANCH  58  60
ENDBRANCH  48  58
ENDBRANCH  46  48
ENDBRANCH  34  44
ENDBRANCH  32  34
ENDBRANCH  25  30
ENDBRANCH  23  25
ENDBRANCH   2  23
TORSDOF 28
ENDMDL
MODEL 19
REMARK VINA RESULT:    -6.265      2.891      7.120
REMARK INTER + INTRA:         -20.125
REMARK INTER:                 -14.869
REMARK INTRA:                  -5.256
REMARK UNBOUND:                -4.520
REMARK SMILES CCCCCCC[C@H](N)[C@H](O)C(=O)N[C@H](C)C(=O)N(C)[C@H](CC(C)C)C(=O)N[C@@H](Cc1ccc(O)cc1)C(=O)N[C@@H](Cc1ccc(O)cc1)C(=O)O
REMARK SMILES IDX 18 1 17 2 15 3 16 4 14 5 12 6 13 7 10 9 11 10 8 12 9 13 7 16
REMARK SMILES IDX 6 17 5 18 4 19 3 20 2 21 1 22 19 23 20 24 21 25 22 26 23 27
REMARK SMILES IDX 24 28 25 29 26 30 27 31 28 32 29 34 30 35 31 36 32 37 37 38
REMARK SMILES IDX 33 39 36 40 34 41 35 42 38 44 39 45 40 46 41 48 42 49 43 50
REMARK SMILES IDX 44 51 49 52 45 53 48 54 46 55 47 56 50 58 51 59 52 60
REMARK H PARENT 14 8 11 11 9 14 9 15 28 33 35 43 40 47 47 57 52 61
ROOT
ATOM      1  O   UNL     1       0.822   0.506  -7.757  1.00  0.00    -0.272 OA
ATOM      2  C   UNL     1       0.896   0.197  -8.956  1.00  0.00     0.245 C 
ENDROOT
BRANCH   2   3
ATOM      3  C   UNL     1       1.471  -1.193  -9.328  1.00  0.00     0.168 C 
ATOM      4  C   UNL     1       2.878  -1.365  -8.768  1.00  0.00     0.041 C 
BRANCH   3   5
ATOM      5  N   UNL     1       0.612  -2.318  -8.993  1.00  0.00    -0.342 N 
ATOM      6  C   UNL     1      -0.148  -2.964  -9.945  1.00  0.00     0.251 C 
ATOM      7  O   UNL     1      -0.192  -2.620 -11.122  1.00  0.00    -0.272 OA
ATOM      8  H   UNL     1       0.540  -2.672  -8.042  1.00  0.00     0.164 HD
BRANCH   6   9
ATOM      9  C   UNL     1      -0.862  -4.207  -9.393  1.00  0.00     0.219 C 
BRANCH   9  10
ATOM     10  O   UNL     1      -1.177  -4.091  -8.000  1.00  0.00    -0.382 OA
ATOM     11  H   UNL     1      -0.302  -4.156  -7.559  1.00  0.00     0.211 HD
ENDBRANCH   9  10
BRANCH   9  12
ATOM     12  C   UNL     1      -2.119  -4.601 -10.212  1.00  0.00     0.089 C 
BRANCH  12  13
ATOM     13  N   UNL     1      -2.412  -6.031  -9.960  1.00  0.00    -0.325 NA
ATOM     14  H   UNL     1      -3.168  -6.333 -10.577  1.00  0.00     0.119 HD
ATOM     15  H   UNL     1      -2.785  -6.131  -9.013  1.00  0.00     0.119 HD
ENDBRANCH  12  13
BRANCH  12  16
ATOM     16  C   UNL     1      -3.386  -3.748  -9.962  1.00  0.00     0.022 C 
BRANCH  16  17
ATOM     17  C   UNL     1      -4.767  -4.370 -10.209  1.00  0.00     0.002 C 
BRANCH  17  18
ATOM     18  C   UNL     1      -5.902  -3.366 -10.397  1.00  0.00     0.000 C 
BRANCH  18  19
ATOM     19  C   UNL     1      -7.153  -3.675  -9.564  1.00  0.00    -0.000 C 
BRANCH  19  20
ATOM     20  C   UNL     1      -7.198  -3.007  -8.186  1.00  0.00    -0.000 C 
BRANCH  20  21
ATOM     21  C   UNL     1      -8.284  -1.935  -8.074  1.00  0.00    -0.003 C 
ATOM     22  C   UNL     1      -8.199  -1.195  -6.748  1.00  0.00     0.004 C 
ENDBRANCH  20  21
ENDBRANCH  19  20
ENDBRANCH  18  19
ENDBRANCH  17  18
ENDBRANCH  16  17
ENDBRANCH  12  16
ENDBRANCH   9  12
ENDBRANCH   6   9
ENDBRANCH   3   5
ENDBRANCH   2   3
BRANCH   2  23
ATOM     23  N   UNL     1       0.359   1.037  -9.926  1.00  0.00    -0.332 N 
ATOM     24  C   UNL     1       1.012   2.233 -10.436  1.00  0.00     0.147 C 
BRANCH  23  25
ATOM     25  C   UNL     1      -0.910   0.674 -10.614  1.00  0.00     0.174 C 
BRANCH  25  26
ATOM     26  C   UNL     1      -1.055   1.340 -12.002  1.00  0.00     0.038 C 
BRANCH  26  27
ATOM     27  C   UNL     1      -1.629   0.468 -13.141  1.00  0.00    -0.015 C 
ATOM     28  C   UNL     1      -0.542  -0.299 -13.894  1.00  0.00     0.007 C 
ATOM     29  C   UNL     1      -2.734  -0.479 -12.682  1.00  0.00     0.007 C 
ENDBRANCH  26  27
ENDBRANCH  25  26
BRANCH  25  30
ATOM     30  C   UNL     1      -2.114   0.925  -9.676  1.00  0.00     0.243 C 
ATOM     31  O   UNL     1      -2.553   2.055  -9.470  1.00  0.00    -0.273 OA
ATOM     32  N   UNL     1      -2.651  -0.192  -9.088  1.00  0.00    -0.342 N 
ATOM     33  H   UNL     1      -2.324  -1.104  -9.417  1.00  0.00     0.164 HD
BRANCH  32  34
ATOM     34  C   UNL     1      -3.776  -0.142  -8.151  1.00  0.00     0.175 C 
BRANCH  34  35
ATOM     35  C   UNL     1      -5.110  -0.414  -8.865  1.00  0.00     0.070 C 
BRANCH  35  36
ATOM     36  C   UNL     1      -5.835   0.855  -9.252  1.00  0.00    -0.045 A 
ATOM     37  C   UNL     1      -6.390   1.677  -8.259  1.00  0.00     0.007 A 
ATOM     38  C   UNL     1      -5.984   1.216 -10.597  1.00  0.00     0.007 A 
ATOM     39  C   UNL     1      -7.073   2.842  -8.607  1.00  0.00     0.046 A 
ATOM     40  C   UNL     1      -6.669   2.382 -10.947  1.00  0.00     0.046 A 
ATOM     41  C   UNL     1      -7.207   3.186  -9.947  1.00  0.00     0.115 A 
BRANCH  41  42
ATOM     42  O   UNL     1      -7.884   4.331 -10.245  1.00  0.00    -0.508 OA
ATOM     43  H   UNL     1      -7.385   5.083  -9.884  1.00  0.00     0.293 HD
ENDBRANCH  41  42
ENDBRANCH  35  36
ENDBRANCH  34  35
BRANCH  34  44
ATOM     44  C   UNL     1      -3.506  -1.164  -7.024  1.00  0.00     0.243 C 
ATOM     45  O   UNL     1      -2.577  -1.966  -7.023  1.00  0.00    -0.273 OA
ATOM     46  N   UNL     1      -4.489  -1.188  -6.058  1.00  0.00    -0.341 N 
ATOM     47  H   UNL     1      -5.301  -0.584  -6.164  1.00  0.00     0.164 HD
BRANCH  46  48
ATOM     48  C   UNL     1      -4.486  -2.119  -4.927  1.00  0.00     0.196 C 
BRANCH  48  49
ATOM     49  C   UNL     1      -3.260  -1.901  -4.026  1.00  0.00     0.072 C 
BRANCH  49  50
ATOM     50  C   UNL     1      -2.687  -3.197  -3.499  1.00  0.00    -0.045 A 
ATOM     51  C   UNL     1      -2.276  -4.195  -4.395  1.00  0.00     0.007 A 
ATOM     52  C   UNL     1      -2.577  -3.430  -2.122  1.00  0.00     0.007 A 
ATOM     53  C   UNL     1      -1.758  -5.400  -3.920  1.00  0.00     0.046 A 
ATOM     54  C   UNL     1      -2.060  -4.637  -1.647  1.00  0.00     0.046 A 
ATOM     55  C   UNL     1      -1.654  -5.612  -2.551  1.00  0.00     0.115 A 
BRANCH  55  56
ATOM     56  O   UNL     1      -1.144  -6.804  -2.128  1.00  0.00    -0.508 OA
ATOM     57  H   UNL     1      -1.764  -7.194  -1.491  1.00  0.00     0.293 HD
ENDBRANCH  55  56
ENDBRANCH  49  50
ENDBRANCH  48  49
BRANCH  48  58
ATOM     58  C   UNL     1      -5.769  -1.916  -4.110  1.00  0.00     0.326 C 
ATOM     59  O   UNL     1      -6.619  -2.752  -3.848  1.00  0.00    -0.250 OA
BRANCH  58  60
ATOM     60  O   UNL     1      -5.917  -0.652  -3.639  1.00  0.00    -0.480 OA
ATOM     61  H   UNL     1      -5.918  -0.106  -4.455  1.00  0.00     0.296 HD
ENDBRANCH  58  60
ENDBRANCH  48  58
ENDBRANCH  46  48
ENDBRANCH  34  44
ENDBRANCH  32  34
ENDBRANCH  25  30
ENDBRANCH  23  25
ENDBRANCH   2  23
TORSDOF 28
ENDMDL
MODEL 20
REMARK VINA RESULT:    -6.264      2.743      7.387
REMARK INTER + INTRA:         -20.122
REMARK INTER:                 -14.515
REMARK INTRA:                  -5.607
REMARK UNBOUND:                -4.520
REMARK SMILES CCCCCCC[C@H](N)[C@H](O)C(=O)N[C@H](C)C(=O)N(C)[C@H](CC(C)C)C(=O)N[C@@H](Cc1ccc(O)cc1)C(=O)N[C@@H](Cc1ccc(O)cc1)C(=O)O
REMARK SMILES IDX 18 1 17 2 15 3 16 4 14 5 12 6 13 7 10 9 11 10 8 12 9 13 7 16
REMARK SMILES IDX 6 17 5 18 4 19 3 20 2 21 1 22 19 23 20 24 21 25 22 26 23 27
REMARK SMILES IDX 24 28 25 29 26 30 27 31 28 32 29 34 30 35 31 36 32 37 37 38
REMARK SMILES IDX 33 39 36 40 34 41 35 42 38 44 39 45 40 46 41 48 42 49 43 50
REMARK SMILES IDX 44 51 49 52 45 53 48 54 46 55 47 56 50 58 51 59 52 60
REMARK H PARENT 14 8 11 11 9 14 9 15 28 33 35 43 40 47 47 57 52 61
ROOT
ATOM      1  O   UNL     1      -4.541   4.114  -6.954  1.00  0.00    -0.272 OA
ATOM      2  C   UNL     1      -4.151   2.985  -6.622  1.00  0.00     0.245 C 
ENDROOT
BRANCH   2   3
ATOM      3  C   UNL     1      -4.764   1.751  -7.331  1.00  0.00     0.168 C 
ATOM      4  C   UNL     1      -6.287   1.793  -7.270  1.00  0.00     0.041 C 
BRANCH   3   5
ATOM      5  N   UNL     1      -4.282   1.521  -8.683  1.00  0.00    -0.342 N 
ATOM      6  C   UNL     1      -3.671   0.339  -9.047  1.00  0.00     0.251 C 
ATOM      7  O   UNL     1      -3.452  -0.578  -8.263  1.00  0.00    -0.272 OA
ATOM      8  H   UNL     1      -4.376   2.223  -9.413  1.00  0.00     0.164 HD
BRANCH   6   9
ATOM      9  C   UNL     1      -3.374   0.263 -10.553  1.00  0.00     0.219 C 
BRANCH   9  10
ATOM     10  O   UNL     1      -2.131  -0.391 -10.839  1.00  0.00    -0.382 OA
ATOM     11  H   UNL     1      -1.759  -0.578  -9.949  1.00  0.00     0.211 HD
ENDBRANCH   9  10
BRANCH   9  12
ATOM     12  C   UNL     1      -4.530  -0.371 -11.370  1.00  0.00     0.089 C 
BRANCH  12  13
ATOM     13  N   UNL     1      -4.404  -1.844 -11.294  1.00  0.00    -0.325 NA
ATOM     14  H   UNL     1      -3.599  -2.142 -11.849  1.00  0.00     0.119 HD
ATOM     15  H   UNL     1      -5.214  -2.270 -11.751  1.00  0.00     0.119 HD
ENDBRANCH  12  13
BRANCH  12  16
ATOM     16  C   UNL     1      -5.961   0.062 -10.969  1.00  0.00     0.022 C 
BRANCH  16  17
ATOM     17  C   UNL     1      -6.996  -1.016 -10.617  1.00  0.00     0.002 C 
BRANCH  17  18
ATOM     18  C   UNL     1      -7.290  -1.164  -9.126  1.00  0.00     0.000 C 
BRANCH  18  19
ATOM     19  C   UNL     1      -7.519  -2.613  -8.675  1.00  0.00    -0.000 C 
BRANCH  19  20
ATOM     20  C   UNL     1      -7.166  -3.680  -9.715  1.00  0.00    -0.000 C 
BRANCH  20  21
ATOM     21  C   UNL     1      -6.599  -4.959  -9.093  1.00  0.00    -0.003 C 
ATOM     22  C   UNL     1      -5.087  -5.024  -9.240  1.00  0.00     0.004 C 
ENDBRANCH  20  21
ENDBRANCH  19  20
ENDBRANCH  18  19
ENDBRANCH  17  18
ENDBRANCH  16  17
ENDBRANCH  12  16
ENDBRANCH   9  12
ENDBRANCH   6   9
ENDBRANCH   3   5
ENDBRANCH   2   3
BRANCH   2  23
ATOM     23  N   UNL     1      -3.099   2.849  -5.722  1.00  0.00    -0.332 N 
ATOM     24  C   UNL     1      -2.693   3.869  -4.767  1.00  0.00     0.147 C 
BRANCH  23  25
ATOM     25  C   UNL     1      -2.382   1.551  -5.596  1.00  0.00     0.174 C 
BRANCH  25  26
ATOM     26  C   UNL     1      -2.038   1.193  -4.131  1.00  0.00     0.038 C 
BRANCH  26  27
ATOM     27  C   UNL     1      -3.101   0.403  -3.335  1.00  0.00    -0.015 C 
ATOM     28  C   UNL     1      -3.059  -1.096  -3.633  1.00  0.00     0.007 C 
ATOM     29  C   UNL     1      -3.044   0.654  -1.831  1.00  0.00     0.007 C 
ENDBRANCH  26  27
ENDBRANCH  25  26
BRANCH  25  30
ATOM     30  C   UNL     1      -1.162   1.522  -6.546  1.00  0.00     0.243 C 
ATOM     31  O   UNL     1      -0.700   2.549  -7.040  1.00  0.00    -0.273 OA
ATOM     32  N   UNL     1      -0.639   0.281  -6.802  1.00  0.00    -0.342 N 
ATOM     33  H   UNL     1      -0.987  -0.504  -6.246  1.00  0.00     0.164 HD
BRANCH  32  34
ATOM     34  C   UNL     1       0.499   0.060  -7.699  1.00  0.00     0.175 C 
BRANCH  34  35
ATOM     35  C   UNL     1       1.822   0.470  -7.034  1.00  0.00     0.070 C 
BRANCH  35  36
ATOM     36  C   UNL     1       2.626   1.432  -7.878  1.00  0.00    -0.045 A 
ATOM     37  C   UNL     1       2.896   2.725  -7.403  1.00  0.00     0.007 A 
ATOM     38  C   UNL     1       3.093   1.061  -9.146  1.00  0.00     0.007 A 
ATOM     39  C   UNL     1       3.626   3.625  -8.180  1.00  0.00     0.046 A 
ATOM     40  C   UNL     1       3.822   1.962  -9.925  1.00  0.00     0.046 A 
ATOM     41  C   UNL     1       4.084   3.237  -9.433  1.00  0.00     0.115 A 
BRANCH  41  42
ATOM     42  O   UNL     1       4.790   4.147 -10.162  1.00  0.00    -0.508 OA
ATOM     43  H   UNL     1       5.206   3.684 -10.908  1.00  0.00     0.293 HD
ENDBRANCH  41  42
ENDBRANCH  35  36
ENDBRANCH  34  35
BRANCH  34  44
ATOM     44  C   UNL     1       0.498  -1.428  -8.115  1.00  0.00     0.243 C 
ATOM     45  O   UNL     1       1.353  -1.950  -8.825  1.00  0.00    -0.273 OA
ATOM     46  N   UNL     1      -0.636  -2.108  -7.722  1.00  0.00    -0.341 N 
ATOM     47  H   UNL     1      -1.371  -1.601  -7.236  1.00  0.00     0.164 HD
BRANCH  46  48
ATOM     48  C   UNL     1      -0.892  -3.510  -8.060  1.00  0.00     0.196 C 
BRANCH  48  49
ATOM     49  C   UNL     1      -2.067  -4.076  -7.245  1.00  0.00     0.072 C 
BRANCH  49  50
ATOM     50  C   UNL     1      -1.633  -4.632  -5.908  1.00  0.00    -0.045 A 
ATOM     51  C   UNL     1      -0.372  -5.231  -5.776  1.00  0.00     0.007 A 
ATOM     52  C   UNL     1      -2.483  -4.579  -4.795  1.00  0.00     0.007 A 
ATOM     53  C   UNL     1       0.034  -5.759  -4.551  1.00  0.00     0.046 A 
ATOM     54  C   UNL     1      -2.077  -5.110  -3.569  1.00  0.00     0.046 A 
ATOM     55  C   UNL     1      -0.820  -5.695  -3.457  1.00  0.00     0.115 A 
BRANCH  55  56
ATOM     56  O   UNL     1      -0.386  -6.225  -2.278  1.00  0.00    -0.508 OA
ATOM     57  H   UNL     1       0.069  -7.061  -2.467  1.00  0.00     0.293 HD
ENDBRANCH  55  56
ENDBRANCH  49  50
ENDBRANCH  48  49
BRANCH  48  58
ATOM     58  C   UNL     1      -1.208  -3.612  -9.559  1.00  0.00     0.326 C 
ATOM     59  O   UNL     1      -2.211  -3.217 -10.131  1.00  0.00    -0.250 OA
BRANCH  58  60
ATOM     60  O   UNL     1      -0.224  -4.206 -10.280  1.00  0.00    -0.480 OA
ATOM     61  H   UNL     1      -0.121  -5.080  -9.845  1.00  0.00     0.296 HD
ENDBRANCH  58  60
ENDBRANCH  48  58
ENDBRANCH  46  48
ENDBRANCH  34  44
ENDBRANCH  32  34
ENDBRANCH  25  30
ENDBRANCH  23  25
ENDBRANCH   2  23
TORSDOF 28
ENDMDL
MODEL 21
REMARK VINA RESULT:    -6.248      2.306      8.690
REMARK INTER + INTRA:         -20.082
REMARK INTER:                 -16.144
REMARK INTRA:                  -3.937
REMARK UNBOUND:                -4.520
REMARK SMILES CCCCCCC[C@H](N)[C@H](O)C(=O)N[C@H](C)C(=O)N(C)[C@H](CC(C)C)C(=O)N[C@@H](Cc1ccc(O)cc1)C(=O)N[C@@H](Cc1ccc(O)cc1)C(=O)O
REMARK SMILES IDX 18 1 17 2 15 3 16 4 14 5 12 6 13 7 10 9 11 10 8 12 9 13 7 16
REMARK SMILES IDX 6 17 5 18 4 19 3 20 2 21 1 22 19 23 20 24 21 25 22 26 23 27
REMARK SMILES IDX 24 28 25 29 26 30 27 31 28 32 29 34 30 35 31 36 32 37 37 38
REMARK SMILES IDX 33 39 36 40 34 41 35 42 38 44 39 45 40 46 41 48 42 49 43 50
REMARK SMILES IDX 44 51 49 52 45 53 48 54 46 55 47 56 50 58 51 59 52 60
REMARK H PARENT 14 8 11 11 9 14 9 15 28 33 35 43 40 47 47 57 52 61
ROOT
ATOM      1  O   UNL     1      -0.104   3.868  -7.448  1.00  0.00    -0.272 OA
ATOM      2  C   UNL     1       0.506   2.790  -7.505  1.00  0.00     0.245 C 
ENDROOT
BRANCH   2   3
ATOM      3  C   UNL     1       1.547   2.586  -8.634  1.00  0.00     0.168 C 
ATOM      4  C   UNL     1       2.938   2.360  -8.054  1.00  0.00     0.041 C 
BRANCH   3   5
ATOM      5  N   UNL     1       1.196   1.569  -9.613  1.00  0.00    -0.342 N 
ATOM      6  C   UNL     1       1.720   0.295  -9.559  1.00  0.00     0.251 C 
ATOM      7  O   UNL     1       2.541  -0.063  -8.721  1.00  0.00    -0.272 OA
ATOM      8  H   UNL     1       0.550   1.759 -10.376  1.00  0.00     0.164 HD
BRANCH   6   9
ATOM      9  C   UNL     1       1.101  -0.647 -10.604  1.00  0.00     0.219 C 
BRANCH   9  10
ATOM     10  O   UNL     1      -0.126  -1.238 -10.158  1.00  0.00    -0.382 OA
ATOM     11  H   UNL     1      -0.193  -2.060 -10.690  1.00  0.00     0.211 HD
ENDBRANCH   9  10
BRANCH   9  12
ATOM     12  C   UNL     1       0.919   0.019 -11.992  1.00  0.00     0.089 C 
BRANCH  12  13
ATOM     13  N   UNL     1       2.248   0.450 -12.482  1.00  0.00    -0.325 NA
ATOM     14  H   UNL     1       2.773  -0.369 -12.794  1.00  0.00     0.119 HD
ATOM     15  H   UNL     1       2.784   0.828 -11.697  1.00  0.00     0.119 HD
ENDBRANCH  12  13
BRANCH  12  16
ATOM     16  C   UNL     1       0.208  -0.838 -13.068  1.00  0.00     0.022 C 
BRANCH  16  17
ATOM     17  C   UNL     1      -1.168  -0.397 -13.584  1.00  0.00     0.002 C 
BRANCH  17  18
ATOM     18  C   UNL     1      -1.728   0.865 -12.932  1.00  0.00     0.000 C 
BRANCH  18  19
ATOM     19  C   UNL     1      -2.758   0.593 -11.827  1.00  0.00    -0.000 C 
BRANCH  19  20
ATOM     20  C   UNL     1      -3.213  -0.864 -11.707  1.00  0.00    -0.000 C 
BRANCH  20  21
ATOM     21  C   UNL     1      -4.709  -1.049 -11.975  1.00  0.00    -0.003 C 
ATOM     22  C   UNL     1      -5.510   0.153 -11.501  1.00  0.00     0.004 C 
ENDBRANCH  20  21
ENDBRANCH  19  20
ENDBRANCH  18  19
ENDBRANCH  17  18
ENDBRANCH  16  17
ENDBRANCH  12  16
ENDBRANCH   9  12
ENDBRANCH   6   9
ENDBRANCH   3   5
ENDBRANCH   2   3
BRANCH   2  23
ATOM     23  N   UNL     1       0.340   1.842  -6.500  1.00  0.00    -0.332 N 
ATOM     24  C   UNL     1       1.421   1.298  -5.692  1.00  0.00     0.147 C 
BRANCH  23  25
ATOM     25  C   UNL     1      -1.025   1.409  -6.095  1.00  0.00     0.174 C 
BRANCH  25  26
ATOM     26  C   UNL     1      -1.234   1.434  -4.562  1.00  0.00     0.038 C 
BRANCH  26  27
ATOM     27  C   UNL     1      -2.396   2.301  -4.028  1.00  0.00    -0.015 C 
ATOM     28  C   UNL     1      -2.998   3.201  -5.108  1.00  0.00     0.007 C 
ATOM     29  C   UNL     1      -3.487   1.493  -3.332  1.00  0.00     0.007 C 
ENDBRANCH  26  27
ENDBRANCH  25  26
BRANCH  25  30
ATOM     30  C   UNL     1      -1.367   0.050  -6.747  1.00  0.00     0.243 C 
ATOM     31  O   UNL     1      -0.644  -0.462  -7.600  1.00  0.00    -0.273 OA
ATOM     32  N   UNL     1      -2.528  -0.540  -6.316  1.00  0.00    -0.342 N 
ATOM     33  H   UNL     1      -2.997  -0.125  -5.507  1.00  0.00     0.164 HD
BRANCH  32  34
ATOM     34  C   UNL     1      -3.023  -1.814  -6.842  1.00  0.00     0.175 C 
BRANCH  34  35
ATOM     35  C   UNL     1      -3.485  -2.745  -5.709  1.00  0.00     0.070 C 
BRANCH  35  36
ATOM     36  C   UNL     1      -2.412  -3.719  -5.278  1.00  0.00    -0.045 A 
ATOM     37  C   UNL     1      -1.453  -4.160  -6.202  1.00  0.00     0.007 A 
ATOM     38  C   UNL     1      -2.372  -4.211  -3.967  1.00  0.00     0.007 A 
ATOM     39  C   UNL     1      -0.467  -5.069  -5.817  1.00  0.00     0.046 A 
ATOM     40  C   UNL     1      -1.387  -5.122  -3.581  1.00  0.00     0.046 A 
ATOM     41  C   UNL     1      -0.441  -5.542  -4.511  1.00  0.00     0.115 A 
BRANCH  41  42
ATOM     42  O   UNL     1       0.537  -6.432  -4.176  1.00  0.00    -0.508 OA
ATOM     43  H   UNL     1       1.355  -5.936  -4.009  1.00  0.00     0.293 HD
ENDBRANCH  41  42
ENDBRANCH  35  36
ENDBRANCH  34  35
BRANCH  34  44
ATOM     44  C   UNL     1      -4.163  -1.510  -7.840  1.00  0.00     0.243 C 
ATOM     45  O   UNL     1      -4.407  -0.396  -8.296  1.00  0.00    -0.273 OA
ATOM     46  N   UNL     1      -4.982  -2.592  -8.084  1.00  0.00    -0.341 N 
ATOM     47  H   UNL     1      -4.808  -3.464  -7.591  1.00  0.00     0.164 HD
BRANCH  46  48
ATOM     48  C   UNL     1      -6.168  -2.527  -8.942  1.00  0.00     0.196 C 
BRANCH  48  49
ATOM     49  C   UNL     1      -6.201  -3.697  -9.939  1.00  0.00     0.072 C 
BRANCH  49  50
ATOM     50  C   UNL     1      -5.028  -4.637  -9.774  1.00  0.00    -0.045 A 
ATOM     51  C   UNL     1      -5.172  -5.809  -9.018  1.00  0.00     0.007 A 
ATOM     52  C   UNL     1      -3.784  -4.345 -10.348  1.00  0.00     0.007 A 
ATOM     53  C   UNL     1      -4.094  -6.677  -8.847  1.00  0.00     0.046 A 
ATOM     54  C   UNL     1      -2.703  -5.213 -10.176  1.00  0.00     0.046 A 
ATOM     55  C   UNL     1      -2.868  -6.373  -9.427  1.00  0.00     0.115 A 
BRANCH  55  56
ATOM     56  O   UNL     1      -1.839  -7.246  -9.234  1.00  0.00    -0.508 OA
ATOM     57  H   UNL     1      -2.021  -7.763  -8.434  1.00  0.00     0.293 HD
ENDBRANCH  55  56
ENDBRANCH  49  50
ENDBRANCH  48  49
BRANCH  48  58
ATOM     58  C   UNL     1      -7.424  -2.566  -8.061  1.00  0.00     0.326 C 
ATOM     59  O   UNL     1      -7.472  -2.665  -6.846  1.00  0.00    -0.250 OA
BRANCH  58  60
ATOM     60  O   UNL     1      -8.581  -2.460  -8.763  1.00  0.00    -0.480 OA
ATOM     61  H   UNL     1      -9.215  -2.107  -8.102  1.00  0.00     0.296 HD
ENDBRANCH  58  60
ENDBRANCH  48  58
ENDBRANCH  46  48
ENDBRANCH  34  44
ENDBRANCH  32  34
ENDBRANCH  25  30
ENDBRANCH  23  25
ENDBRANCH   2  23
TORSDOF 28
ENDMDL
MODEL 22
REMARK VINA RESULT:    -6.217      2.879      6.387
REMARK INTER + INTRA:         -20.006
REMARK INTER:                 -14.122
REMARK INTRA:                  -5.884
REMARK UNBOUND:                -4.520
REMARK SMILES CCCCCCC[C@H](N)[C@H](O)C(=O)N[C@H](C)C(=O)N(C)[C@H](CC(C)C)C(=O)N[C@@H](Cc1ccc(O)cc1)C(=O)N[C@@H](Cc1ccc(O)cc1)C(=O)O
REMARK SMILES IDX 18 1 17 2 15 3 16 4 14 5 12 6 13 7 10 9 11 10 8 12 9 13 7 16
REMARK SMILES IDX 6 17 5 18 4 19 3 20 2 21 1 22 19 23 20 24 21 25 22 26 23 27
REMARK SMILES IDX 24 28 25 29 26 30 27 31 28 32 29 34 30 35 31 36 32 37 37 38
REMARK SMILES IDX 33 39 36 40 34 41 35 42 38 44 39 45 40 46 41 48 42 49 43 50
REMARK SMILES IDX 44 51 49 52 45 53 48 54 46 55 47 56 50 58 51 59 52 60
REMARK H PARENT 14 8 11 11 9 14 9 15 28 33 35 43 40 47 47 57 52 61
ROOT
ATOM      1  O   UNL     1      -3.635  -0.951 -11.179  1.00  0.00    -0.272 OA
ATOM      2  C   UNL     1      -4.496  -1.362 -10.387  1.00  0.00     0.245 C 
ENDROOT
BRANCH   2   3
ATOM      3  C   UNL     1      -4.411  -2.828  -9.894  1.00  0.00     0.168 C 
ATOM      4  C   UNL     1      -4.962  -3.786 -10.944  1.00  0.00     0.041 C 
BRANCH   3   5
ATOM      5  N   UNL     1      -3.097  -3.238  -9.422  1.00  0.00    -0.342 N 
ATOM      6  C   UNL     1      -2.818  -3.383  -8.079  1.00  0.00     0.251 C 
ATOM      7  O   UNL     1      -3.628  -3.142  -7.190  1.00  0.00    -0.272 OA
ATOM      8  H   UNL     1      -2.333  -3.433 -10.065  1.00  0.00     0.164 HD
BRANCH   6   9
ATOM      9  C   UNL     1      -1.417  -3.961  -7.822  1.00  0.00     0.219 C 
BRANCH   9  10
ATOM     10  O   UNL     1      -0.486  -2.970  -7.369  1.00  0.00    -0.382 OA
ATOM     11  H   UNL     1      -0.972  -2.508  -6.651  1.00  0.00     0.211 HD
ENDBRANCH   9  10
BRANCH   9  12
ATOM     12  C   UNL     1      -1.428  -5.184  -6.868  1.00  0.00     0.089 C 
BRANCH  12  13
ATOM     13  N   UNL     1      -0.486  -6.196  -7.396  1.00  0.00    -0.325 NA
ATOM     14  H   UNL     1      -0.995  -6.852  -7.992  1.00  0.00     0.119 HD
ATOM     15  H   UNL     1      -0.135  -6.760  -6.618  1.00  0.00     0.119 HD
ENDBRANCH  12  13
BRANCH  12  16
ATOM     16  C   UNL     1      -1.113  -4.888  -5.382  1.00  0.00     0.022 C 
BRANCH  16  17
ATOM     17  C   UNL     1      -0.120  -5.789  -4.635  1.00  0.00     0.002 C 
BRANCH  17  18
ATOM     18  C   UNL     1      -0.441  -6.016  -3.160  1.00  0.00     0.000 C 
BRANCH  18  19
ATOM     19  C   UNL     1      -1.929  -5.871  -2.814  1.00  0.00    -0.000 C 
BRANCH  19  20
ATOM     20  C   UNL     1      -2.249  -4.809  -1.757  1.00  0.00    -0.000 C 
BRANCH  20  21
ATOM     21  C   UNL     1      -2.458  -3.414  -2.353  1.00  0.00    -0.003 C 
ATOM     22  C   UNL     1      -3.754  -3.337  -3.143  1.00  0.00     0.004 C 
ENDBRANCH  20  21
ENDBRANCH  19  20
ENDBRANCH  18  19
ENDBRANCH  17  18
ENDBRANCH  16  17
ENDBRANCH  12  16
ENDBRANCH   9  12
ENDBRANCH   6   9
ENDBRANCH   3   5
ENDBRANCH   2   3
BRANCH   2  23
ATOM     23  N   UNL     1      -5.439  -0.481  -9.867  1.00  0.00    -0.332 N 
ATOM     24  C   UNL     1      -6.218   0.458 -10.660  1.00  0.00     0.147 C 
BRANCH  23  25
ATOM     25  C   UNL     1      -5.808  -0.542  -8.426  1.00  0.00     0.174 C 
BRANCH  25  26
ATOM     26  C   UNL     1      -7.323  -0.347  -8.184  1.00  0.00     0.038 C 
BRANCH  26  27
ATOM     27  C   UNL     1      -8.069  -1.491  -7.462  1.00  0.00    -0.015 C 
ATOM     28  C   UNL     1      -7.369  -2.840  -7.625  1.00  0.00     0.007 C 
ATOM     29  C   UNL     1      -8.345  -1.203  -5.989  1.00  0.00     0.007 C 
ENDBRANCH  26  27
ENDBRANCH  25  26
BRANCH  25  30
ATOM     30  C   UNL     1      -4.919   0.423  -7.608  1.00  0.00     0.243 C 
ATOM     31  O   UNL     1      -5.232   1.598  -7.425  1.00  0.00    -0.273 OA
ATOM     32  N   UNL     1      -3.761  -0.116  -7.109  1.00  0.00    -0.342 N 
ATOM     33  H   UNL     1      -3.640  -1.130  -7.183  1.00  0.00     0.164 HD
BRANCH  32  34
ATOM     34  C   UNL     1      -2.786   0.656  -6.335  1.00  0.00     0.175 C 
BRANCH  34  35
ATOM     35  C   UNL     1      -2.253  -0.153  -5.142  1.00  0.00     0.070 C 
BRANCH  35  36
ATOM     36  C   UNL     1      -2.191   0.657  -3.867  1.00  0.00    -0.045 A 
ATOM     37  C   UNL     1      -3.041   0.344  -2.795  1.00  0.00     0.007 A 
ATOM     38  C   UNL     1      -1.309   1.739  -3.744  1.00  0.00     0.007 A 
ATOM     39  C   UNL     1      -3.001   1.094  -1.619  1.00  0.00     0.046 A 
ATOM     40  C   UNL     1      -1.269   2.491  -2.568  1.00  0.00     0.046 A 
ATOM     41  C   UNL     1      -2.116   2.161  -1.515  1.00  0.00     0.115 A 
BRANCH  41  42
ATOM     42  O   UNL     1      -2.110   2.870  -0.350  1.00  0.00    -0.508 OA
ATOM     43  H   UNL     1      -1.270   2.700   0.106  1.00  0.00     0.293 HD
ENDBRANCH  41  42
ENDBRANCH  35  36
ENDBRANCH  34  35
BRANCH  34  44
ATOM     44  C   UNL     1      -1.651   1.091  -7.290  1.00  0.00     0.243 C 
ATOM     45  O   UNL     1      -1.387   2.257  -7.568  1.00  0.00    -0.273 OA
ATOM     46  N   UNL     1      -1.029   0.033  -7.920  1.00  0.00    -0.341 N 
ATOM     47  H   UNL     1      -1.362  -0.911  -7.745  1.00  0.00     0.164 HD
BRANCH  46  48
ATOM     48  C   UNL     1       0.029   0.200  -8.919  1.00  0.00     0.196 C 
BRANCH  48  49
ATOM     49  C   UNL     1       1.409  -0.146  -8.337  1.00  0.00     0.072 C 
BRANCH  49  50
ATOM     50  C   UNL     1       2.531   0.613  -9.008  1.00  0.00    -0.045 A 
ATOM     51  C   UNL     1       2.657   1.995  -8.810  1.00  0.00     0.007 A 
ATOM     52  C   UNL     1       3.442  -0.041  -9.848  1.00  0.00     0.007 A 
ATOM     53  C   UNL     1       3.680   2.708  -9.435  1.00  0.00     0.046 A 
ATOM     54  C   UNL     1       4.465   0.673 -10.475  1.00  0.00     0.046 A 
ATOM     55  C   UNL     1       4.577   2.042 -10.262  1.00  0.00     0.115 A 
BRANCH  55  56
ATOM     56  O   UNL     1       5.561   2.776 -10.855  1.00  0.00    -0.508 OA
ATOM     57  H   UNL     1       5.741   3.551 -10.300  1.00  0.00     0.293 HD
ENDBRANCH  55  56
ENDBRANCH  49  50
ENDBRANCH  48  49
BRANCH  48  58
ATOM     58  C   UNL     1      -0.268  -0.712 -10.117  1.00  0.00     0.326 C 
ATOM     59  O   UNL     1      -0.106  -1.919 -10.185  1.00  0.00    -0.250 OA
BRANCH  58  60
ATOM     60  O   UNL     1      -0.778  -0.051 -11.187  1.00  0.00    -0.480 OA
ATOM     61  H   UNL     1      -1.734   0.021 -10.974  1.00  0.00     0.296 HD
ENDBRANCH  58  60
ENDBRANCH  48  58
ENDBRANCH  46  48
ENDBRANCH  34  44
ENDBRANCH  32  34
ENDBRANCH  25  30
ENDBRANCH  23  25
ENDBRANCH   2  23
TORSDOF 28
ENDMDL
MODEL 23
REMARK VINA RESULT:    -6.191      2.123      9.084
REMARK INTER + INTRA:         -19.940
REMARK INTER:                 -14.941
REMARK INTRA:                  -4.999
REMARK UNBOUND:                -4.520
REMARK SMILES CCCCCCC[C@H](N)[C@H](O)C(=O)N[C@H](C)C(=O)N(C)[C@H](CC(C)C)C(=O)N[C@@H](Cc1ccc(O)cc1)C(=O)N[C@@H](Cc1ccc(O)cc1)C(=O)O
REMARK SMILES IDX 18 1 17 2 15 3 16 4 14 5 12 6 13 7 10 9 11 10 8 12 9 13 7 16
REMARK SMILES IDX 6 17 5 18 4 19 3 20 2 21 1 22 19 23 20 24 21 25 22 26 23 27
REMARK SMILES IDX 24 28 25 29 26 30 27 31 28 32 29 34 30 35 31 36 32 37 37 38
REMARK SMILES IDX 33 39 36 40 34 41 35 42 38 44 39 45 40 46 41 48 42 49 43 50
REMARK SMILES IDX 44 51 49 52 45 53 48 54 46 55 47 56 50 58 51 59 52 60
REMARK H PARENT 14 8 11 11 9 14 9 15 28 33 35 43 40 47 47 57 52 61
ROOT
ATOM      1  O   UNL     1       2.279  -1.188  -8.301  1.00  0.00    -0.272 OA
ATOM      2  C   UNL     1       1.422  -1.136  -9.196  1.00  0.00     0.245 C 
ENDROOT
BRANCH   2   3
ATOM      3  C   UNL     1       1.682  -0.220 -10.418  1.00  0.00     0.168 C 
ATOM      4  C   UNL     1       0.728   0.970 -10.414  1.00  0.00     0.041 C 
BRANCH   3   5
ATOM      5  N   UNL     1       3.066   0.195 -10.587  1.00  0.00    -0.342 N 
ATOM      6  C   UNL     1       3.644   0.310 -11.834  1.00  0.00     0.251 C 
ATOM      7  O   UNL     1       3.061   0.037 -12.878  1.00  0.00    -0.272 OA
ATOM      8  H   UNL     1       3.661   0.416  -9.792  1.00  0.00     0.164 HD
BRANCH   6   9
ATOM      9  C   UNL     1       5.063   0.899 -11.779  1.00  0.00     0.219 C 
BRANCH   9  10
ATOM     10  O   UNL     1       5.945   0.303 -12.738  1.00  0.00    -0.382 OA
ATOM     11  H   UNL     1       6.726   0.899 -12.734  1.00  0.00     0.211 HD
ENDBRANCH   9  10
BRANCH   9  12
ATOM     12  C   UNL     1       5.086   2.445 -11.896  1.00  0.00     0.089 C 
BRANCH  12  13
ATOM     13  N   UNL     1       3.747   2.900 -12.335  1.00  0.00    -0.325 NA
ATOM     14  H   UNL     1       3.461   2.360 -13.154  1.00  0.00     0.119 HD
ATOM     15  H   UNL     1       3.818   3.866 -12.665  1.00  0.00     0.119 HD
ENDBRANCH  12  13
BRANCH  12  16
ATOM     16  C   UNL     1       5.518   3.214 -10.624  1.00  0.00     0.022 C 
BRANCH  16  17
ATOM     17  C   UNL     1       4.818   4.535 -10.276  1.00  0.00     0.002 C 
BRANCH  17  18
ATOM     18  C   UNL     1       3.991   4.508  -8.993  1.00  0.00     0.000 C 
BRANCH  18  19
ATOM     19  C   UNL     1       3.599   3.097  -8.532  1.00  0.00    -0.000 C 
BRANCH  19  20
ATOM     20  C   UNL     1       3.003   3.015  -7.124  1.00  0.00    -0.000 C 
BRANCH  20  21
ATOM     21  C   UNL     1       1.920   1.942  -6.993  1.00  0.00    -0.003 C 
ATOM     22  C   UNL     1       2.015   1.218  -5.659  1.00  0.00     0.004 C 
ENDBRANCH  20  21
ENDBRANCH  19  20
ENDBRANCH  18  19
ENDBRANCH  17  18
ENDBRANCH  16  17
ENDBRANCH  12  16
ENDBRANCH   9  12
ENDBRANCH   6   9
ENDBRANCH   3   5
ENDBRANCH   2   3
BRANCH   2  23
ATOM     23  N   UNL     1       0.318  -1.980  -9.152  1.00  0.00    -0.332 N 
ATOM     24  C   UNL     1       0.200  -3.226  -9.895  1.00  0.00     0.147 C 
BRANCH  23  25
ATOM     25  C   UNL     1      -0.799  -1.707  -8.206  1.00  0.00     0.174 C 
BRANCH  25  26
ATOM     26  C   UNL     1      -1.604  -2.977  -7.841  1.00  0.00     0.038 C 
BRANCH  26  27
ATOM     27  C   UNL     1      -1.213  -3.702  -6.534  1.00  0.00    -0.015 C 
ATOM     28  C   UNL     1      -2.356  -3.735  -5.520  1.00  0.00     0.007 C 
ATOM     29  C   UNL     1      -0.656  -5.105  -6.761  1.00  0.00     0.007 C 
ENDBRANCH  26  27
ENDBRANCH  25  26
BRANCH  25  30
ATOM     30  C   UNL     1      -1.673  -0.547  -8.736  1.00  0.00     0.243 C 
ATOM     31  O   UNL     1      -1.702   0.551  -8.182  1.00  0.00    -0.273 OA
ATOM     32  N   UNL     1      -2.415  -0.827  -9.854  1.00  0.00    -0.342 N 
ATOM     33  H   UNL     1      -2.231  -1.711 -10.336  1.00  0.00     0.164 HD
BRANCH  32  34
ATOM     34  C   UNL     1      -3.321   0.141 -10.478  1.00  0.00     0.175 C 
BRANCH  34  35
ATOM     35  C   UNL     1      -2.898   0.451 -11.922  1.00  0.00     0.070 C 
BRANCH  35  36
ATOM     36  C   UNL     1      -2.437   1.880 -12.103  1.00  0.00    -0.045 A 
ATOM     37  C   UNL     1      -2.960   2.894 -11.286  1.00  0.00     0.007 A 
ATOM     38  C   UNL     1      -1.507   2.216 -13.095  1.00  0.00     0.007 A 
ATOM     39  C   UNL     1      -2.551   4.218 -11.454  1.00  0.00     0.046 A 
ATOM     40  C   UNL     1      -1.099   3.541 -13.265  1.00  0.00     0.046 A 
ATOM     41  C   UNL     1      -1.624   4.531 -12.441  1.00  0.00     0.115 A 
BRANCH  41  42
ATOM     42  O   UNL     1      -1.254   5.836 -12.575  1.00  0.00    -0.508 OA
ATOM     43  H   UNL     1      -2.049   6.360 -12.767  1.00  0.00     0.293 HD
ENDBRANCH  41  42
ENDBRANCH  35  36
ENDBRANCH  34  35
BRANCH  34  44
ATOM     44  C   UNL     1      -4.755  -0.429 -10.407  1.00  0.00     0.243 C 
ATOM     45  O   UNL     1      -5.717   0.033 -11.015  1.00  0.00    -0.273 OA
ATOM     46  N   UNL     1      -4.897  -1.443  -9.484  1.00  0.00    -0.341 N 
ATOM     47  H   UNL     1      -4.095  -1.713  -8.919  1.00  0.00     0.164 HD
BRANCH  46  48
ATOM     48  C   UNL     1      -6.176  -2.093  -9.190  1.00  0.00     0.196 C 
BRANCH  48  49
ATOM     49  C   UNL     1      -6.347  -3.388 -10.003  1.00  0.00     0.072 C 
BRANCH  49  50
ATOM     50  C   UNL     1      -5.148  -4.303  -9.898  1.00  0.00    -0.045 A 
ATOM     51  C   UNL     1      -5.158  -5.366  -8.983  1.00  0.00     0.007 A 
ATOM     52  C   UNL     1      -4.010  -4.094 -10.688  1.00  0.00     0.007 A 
ATOM     53  C   UNL     1      -4.052  -6.208  -8.867  1.00  0.00     0.046 A 
ATOM     54  C   UNL     1      -2.903  -4.937 -10.572  1.00  0.00     0.046 A 
ATOM     55  C   UNL     1      -2.934  -5.989  -9.662  1.00  0.00     0.115 A 
BRANCH  55  56
ATOM     56  O   UNL     1      -1.874  -6.834  -9.517  1.00  0.00    -0.508 OA
ATOM     57  H   UNL     1      -1.062  -6.346  -9.731  1.00  0.00     0.293 HD
ENDBRANCH  55  56
ENDBRANCH  49  50
ENDBRANCH  48  49
BRANCH  48  58
ATOM     58  C   UNL     1      -6.241  -2.415  -7.691  1.00  0.00     0.326 C 
ATOM     59  O   UNL     1      -7.207  -2.815  -7.062  1.00  0.00    -0.250 OA
BRANCH  58  60
ATOM     60  O   UNL     1      -5.062  -2.228  -7.046  1.00  0.00    -0.480 OA
ATOM     61  H   UNL     1      -4.640  -3.113  -7.084  1.00  0.00     0.296 HD
ENDBRANCH  58  60
ENDBRANCH  48  58
ENDBRANCH  46  48
ENDBRANCH  34  44
ENDBRANCH  32  34
ENDBRANCH  25  30
ENDBRANCH  23  25
ENDBRANCH   2  23
TORSDOF 28
ENDMDL
MODEL 24
REMARK VINA RESULT:    -6.181      2.309      7.432
REMARK INTER + INTRA:         -19.916
REMARK INTER:                 -13.322
REMARK INTRA:                  -6.594
REMARK UNBOUND:                -4.520
REMARK SMILES CCCCCCC[C@H](N)[C@H](O)C(=O)N[C@H](C)C(=O)N(C)[C@H](CC(C)C)C(=O)N[C@@H](Cc1ccc(O)cc1)C(=O)N[C@@H](Cc1ccc(O)cc1)C(=O)O
REMARK SMILES IDX 18 1 17 2 15 3 16 4 14 5 12 6 13 7 10 9 11 10 8 12 9 13 7 16
REMARK SMILES IDX 6 17 5 18 4 19 3 20 2 21 1 22 19 23 20 24 21 25 22 26 23 27
REMARK SMILES IDX 24 28 25 29 26 30 27 31 28 32 29 34 30 35 31 36 32 37 37 38
REMARK SMILES IDX 33 39 36 40 34 41 35 42 38 44 39 45 40 46 41 48 42 49 43 50
REMARK SMILES IDX 44 51 49 52 45 53 48 54 46 55 47 56 50 58 51 59 52 60
REMARK H PARENT 14 8 11 11 9 14 9 15 28 33 35 43 40 47 47 57 52 61
ROOT
ATOM      1  O   UNL     1      -1.392  -0.650 -12.607  1.00  0.00    -0.272 OA
ATOM      2  C   UNL     1      -0.803   0.410 -12.348  1.00  0.00     0.245 C 
ENDROOT
BRANCH   2   3
ATOM      3  C   UNL     1      -1.639   1.625 -11.875  1.00  0.00     0.168 C 
ATOM      4  C   UNL     1      -1.590   2.749 -12.904  1.00  0.00     0.041 C 
BRANCH   3   5
ATOM      5  N   UNL     1      -3.003   1.312 -11.479  1.00  0.00    -0.342 N 
ATOM      6  C   UNL     1      -3.290   0.700 -10.276  1.00  0.00     0.251 C 
ATOM      7  O   UNL     1      -2.430   0.340  -9.479  1.00  0.00    -0.272 OA
ATOM      8  H   UNL     1      -3.798   1.531 -12.074  1.00  0.00     0.164 HD
BRANCH   6   9
ATOM      9  C   UNL     1      -4.799   0.597 -10.007  1.00  0.00     0.219 C 
BRANCH   9  10
ATOM     10  O   UNL     1      -5.464   1.863 -10.098  1.00  0.00    -0.382 OA
ATOM     11  H   UNL     1      -6.181   1.796  -9.429  1.00  0.00     0.211 HD
ENDBRANCH   9  10
BRANCH   9  12
ATOM     12  C   UNL     1      -5.506  -0.461 -10.894  1.00  0.00     0.089 C 
BRANCH  12  13
ATOM     13  N   UNL     1      -4.473  -1.183 -11.672  1.00  0.00    -0.325 NA
ATOM     14  H   UNL     1      -3.547  -0.907 -11.338  1.00  0.00     0.119 HD
ATOM     15  H   UNL     1      -4.511  -0.868 -12.644  1.00  0.00     0.119 HD
ENDBRANCH  12  13
BRANCH  12  16
ATOM     16  C   UNL     1      -6.414  -1.470 -10.152  1.00  0.00     0.022 C 
BRANCH  16  17
ATOM     17  C   UNL     1      -6.095  -2.969 -10.241  1.00  0.00     0.002 C 
BRANCH  17  18
ATOM     18  C   UNL     1      -5.475  -3.572  -8.982  1.00  0.00     0.000 C 
BRANCH  18  19
ATOM     19  C   UNL     1      -5.145  -5.065  -9.103  1.00  0.00    -0.000 C 
BRANCH  19  20
ATOM     20  C   UNL     1      -3.708  -5.381  -9.531  1.00  0.00    -0.000 C 
BRANCH  20  21
ATOM     21  C   UNL     1      -2.969  -6.276  -8.533  1.00  0.00    -0.003 C 
ATOM     22  C   UNL     1      -1.539  -6.539  -8.979  1.00  0.00     0.004 C 
ENDBRANCH  20  21
ENDBRANCH  19  20
ENDBRANCH  18  19
ENDBRANCH  17  18
ENDBRANCH  16  17
ENDBRANCH  12  16
ENDBRANCH   9  12
ENDBRANCH   6   9
ENDBRANCH   3   5
ENDBRANCH   2   3
BRANCH   2  23
ATOM     23  N   UNL     1       0.587   0.456 -12.367  1.00  0.00    -0.332 N 
ATOM     24  C   UNL     1       1.432  -0.438 -13.144  1.00  0.00     0.147 C 
BRANCH  23  25
ATOM     25  C   UNL     1       1.312   1.549 -11.662  1.00  0.00     0.174 C 
BRANCH  25  26
ATOM     26  C   UNL     1       2.167   2.417 -12.614  1.00  0.00     0.038 C 
BRANCH  26  27
ATOM     27  C   UNL     1       2.465   3.864 -12.164  1.00  0.00    -0.015 C 
ATOM     28  C   UNL     1       2.659   4.815 -13.345  1.00  0.00     0.007 C 
ATOM     29  C   UNL     1       1.432   4.422 -11.189  1.00  0.00     0.007 C 
ENDBRANCH  26  27
ENDBRANCH  25  26
BRANCH  25  30
ATOM     30  C   UNL     1       2.103   0.976 -10.464  1.00  0.00     0.243 C 
ATOM     31  O   UNL     1       3.306   0.731 -10.538  1.00  0.00    -0.273 OA
ATOM     32  N   UNL     1       1.376   0.754  -9.323  1.00  0.00    -0.342 N 
ATOM     33  H   UNL     1       0.418   1.114  -9.295  1.00  0.00     0.164 HD
BRANCH  32  34
ATOM     34  C   UNL     1       1.954   0.190  -8.100  1.00  0.00     0.175 C 
BRANCH  34  35
ATOM     35  C   UNL     1       1.686   1.094  -6.887  1.00  0.00     0.070 C 
BRANCH  35  36
ATOM     36  C   UNL     1       1.973   2.552  -7.169  1.00  0.00    -0.045 A 
ATOM     37  C   UNL     1       0.934   3.493  -7.125  1.00  0.00     0.007 A 
ATOM     38  C   UNL     1       3.266   2.979  -7.498  1.00  0.00     0.007 A 
ATOM     39  C   UNL     1       1.186   4.838  -7.398  1.00  0.00     0.046 A 
ATOM     40  C   UNL     1       3.520   4.325  -7.772  1.00  0.00     0.046 A 
ATOM     41  C   UNL     1       2.477   5.243  -7.718  1.00  0.00     0.115 A 
BRANCH  41  42
ATOM     42  O   UNL     1       2.681   6.566  -7.980  1.00  0.00    -0.508 OA
ATOM     43  H   UNL     1       2.736   7.039  -7.134  1.00  0.00     0.293 HD
ENDBRANCH  41  42
ENDBRANCH  35  36
ENDBRANCH  34  35
BRANCH  34  44
ATOM     44  C   UNL     1       1.370  -1.227  -7.904  1.00  0.00     0.243 C 
ATOM     45  O   UNL     1       1.922  -2.124  -7.273  1.00  0.00    -0.273 OA
ATOM     46  N   UNL     1       0.212  -1.447  -8.619  1.00  0.00    -0.341 N 
ATOM     47  H   UNL     1      -0.145  -0.709  -9.221  1.00  0.00     0.164 HD
BRANCH  46  48
ATOM     48  C   UNL     1      -0.487  -2.734  -8.645  1.00  0.00     0.196 C 
BRANCH  48  49
ATOM     49  C   UNL     1      -1.713  -2.725  -7.716  1.00  0.00     0.072 C 
BRANCH  49  50
ATOM     50  C   UNL     1      -1.524  -3.597  -6.496  1.00  0.00    -0.045 A 
ATOM     51  C   UNL     1      -0.434  -4.476  -6.427  1.00  0.00     0.007 A 
ATOM     52  C   UNL     1      -2.437  -3.559  -5.435  1.00  0.00     0.007 A 
ATOM     53  C   UNL     1      -0.257  -5.296  -5.312  1.00  0.00     0.046 A 
ATOM     54  C   UNL     1      -2.261  -4.380  -4.319  1.00  0.00     0.046 A 
ATOM     55  C   UNL     1      -1.171  -5.241  -4.267  1.00  0.00     0.115 A 
BRANCH  55  56
ATOM     56  O   UNL     1      -0.963  -6.060  -3.196  1.00  0.00    -0.508 OA
ATOM     57  H   UNL     1      -1.824  -6.267  -2.798  1.00  0.00     0.293 HD
ENDBRANCH  55  56
ENDBRANCH  49  50
ENDBRANCH  48  49
BRANCH  48  58
ATOM     58  C   UNL     1      -0.933  -3.031 -10.084  1.00  0.00     0.326 C 
ATOM     59  O   UNL     1      -0.370  -3.741 -10.901  1.00  0.00    -0.250 OA
BRANCH  58  60
ATOM     60  O   UNL     1      -2.096  -2.421 -10.426  1.00  0.00    -0.480 OA
ATOM     61  H   UNL     1      -2.599  -2.403  -9.583  1.00  0.00     0.296 HD
ENDBRANCH  58  60
ENDBRANCH  48  58
ENDBRANCH  46  48
ENDBRANCH  34  44
ENDBRANCH  32  34
ENDBRANCH  25  30
ENDBRANCH  23  25
ENDBRANCH   2  23
TORSDOF 28
ENDMDL
MODEL 25
REMARK VINA RESULT:    -6.151      2.282      5.127
REMARK INTER + INTRA:         -19.840
REMARK INTER:                 -14.912
REMARK INTRA:                  -4.928
REMARK UNBOUND:                -4.520
REMARK SMILES CCCCCCC[C@H](N)[C@H](O)C(=O)N[C@H](C)C(=O)N(C)[C@H](CC(C)C)C(=O)N[C@@H](Cc1ccc(O)cc1)C(=O)N[C@@H](Cc1ccc(O)cc1)C(=O)O
REMARK SMILES IDX 18 1 17 2 15 3 16 4 14 5 12 6 13 7 10 9 11 10 8 12 9 13 7 16
REMARK SMILES IDX 6 17 5 18 4 19 3 20 2 21 1 22 19 23 20 24 21 25 22 26 23 27
REMARK SMILES IDX 24 28 25 29 26 30 27 31 28 32 29 34 30 35 31 36 32 37 37 38
REMARK SMILES IDX 33 39 36 40 34 41 35 42 38 44 39 45 40 46 41 48 42 49 43 50
REMARK SMILES IDX 44 51 49 52 45 53 48 54 46 55 47 56 50 58 51 59 52 60
REMARK H PARENT 14 8 11 11 9 14 9 15 28 33 35 43 40 47 47 57 52 61
ROOT
ATOM      1  O   UNL     1      -5.931   0.120  -8.065  1.00  0.00    -0.272 OA
ATOM      2  C   UNL     1      -5.744  -0.706  -8.972  1.00  0.00     0.245 C 
ENDROOT
BRANCH   2   3
ATOM      3  C   UNL     1      -6.186  -2.172  -8.741  1.00  0.00     0.168 C 
ATOM      4  C   UNL     1      -7.586  -2.410  -9.296  1.00  0.00     0.041 C 
BRANCH   3   5
ATOM      5  N   UNL     1      -5.241  -3.176  -9.206  1.00  0.00    -0.342 N 
ATOM      6  C   UNL     1      -4.196  -3.612  -8.419  1.00  0.00     0.251 C 
ATOM      7  O   UNL     1      -3.959  -3.166  -7.301  1.00  0.00    -0.272 OA
ATOM      8  H   UNL     1      -5.315  -3.594 -10.130  1.00  0.00     0.164 HD
BRANCH   6   9
ATOM      9  C   UNL     1      -3.416  -4.773  -9.057  1.00  0.00     0.219 C 
BRANCH   9  10
ATOM     10  O   UNL     1      -2.514  -4.336 -10.081  1.00  0.00    -0.382 OA
ATOM     11  H   UNL     1      -3.068  -3.749 -10.641  1.00  0.00     0.211 HD
ENDBRANCH   9  10
BRANCH   9  12
ATOM     12  C   UNL     1      -2.680  -5.656  -8.016  1.00  0.00     0.089 C 
BRANCH  12  13
ATOM     13  N   UNL     1      -2.844  -7.075  -8.408  1.00  0.00    -0.325 NA
ATOM     14  H   UNL     1      -2.016  -7.378  -8.924  1.00  0.00     0.119 HD
ATOM     15  H   UNL     1      -3.615  -7.147  -9.076  1.00  0.00     0.119 HD
ENDBRANCH  12  13
BRANCH  12  16
ATOM     16  C   UNL     1      -1.183  -5.336  -7.792  1.00  0.00     0.022 C 
BRANCH  16  17
ATOM     17  C   UNL     1      -0.520  -5.750  -6.471  1.00  0.00     0.002 C 
BRANCH  17  18
ATOM     18  C   UNL     1      -1.080  -5.065  -5.226  1.00  0.00     0.000 C 
BRANCH  18  19
ATOM     19  C   UNL     1      -0.609  -5.688  -3.905  1.00  0.00    -0.000 C 
BRANCH  19  20
ATOM     20  C   UNL     1      -1.574  -5.523  -2.728  1.00  0.00    -0.000 C 
BRANCH  20  21
ATOM     21  C   UNL     1      -2.255  -4.152  -2.700  1.00  0.00    -0.003 C 
ATOM     22  C   UNL     1      -2.439  -3.653  -1.275  1.00  0.00     0.004 C 
ENDBRANCH  20  21
ENDBRANCH  19  20
ENDBRANCH  18  19
ENDBRANCH  17  18
ENDBRANCH  16  17
ENDBRANCH  12  16
ENDBRANCH   9  12
ENDBRANCH   6   9
ENDBRANCH   3   5
ENDBRANCH   2   3
BRANCH   2  23
ATOM     23  N   UNL     1      -5.262  -0.286 -10.207  1.00  0.00    -0.332 N 
ATOM     24  C   UNL     1      -6.072  -0.154 -11.408  1.00  0.00     0.147 C 
BRANCH  23  25
ATOM     25  C   UNL     1      -3.858   0.192 -10.342  1.00  0.00     0.174 C 
BRANCH  25  26
ATOM     26  C   UNL     1      -3.749   1.528 -11.115  1.00  0.00     0.038 C 
BRANCH  26  27
ATOM     27  C   UNL     1      -4.041   2.821 -10.322  1.00  0.00    -0.015 C 
ATOM     28  C   UNL     1      -3.047   3.938 -10.640  1.00  0.00     0.007 C 
ATOM     29  C   UNL     1      -5.476   3.318 -10.478  1.00  0.00     0.007 C 
ENDBRANCH  26  27
ENDBRANCH  25  26
BRANCH  25  30
ATOM     30  C   UNL     1      -2.966  -0.933 -10.916  1.00  0.00     0.243 C 
ATOM     31  O   UNL     1      -3.433  -2.013 -11.275  1.00  0.00    -0.273 OA
ATOM     32  N   UNL     1      -1.627  -0.648 -10.989  1.00  0.00    -0.342 N 
ATOM     33  H   UNL     1      -1.337   0.315 -10.806  1.00  0.00     0.164 HD
BRANCH  32  34
ATOM     34  C   UNL     1      -0.630  -1.604 -11.481  1.00  0.00     0.175 C 
BRANCH  34  35
ATOM     35  C   UNL     1       0.215  -0.998 -12.612  1.00  0.00     0.070 C 
BRANCH  35  36
ATOM     36  C   UNL     1      -0.024   0.484 -12.790  1.00  0.00    -0.045 A 
ATOM     37  C   UNL     1       0.647   1.407 -11.973  1.00  0.00     0.007 A 
ATOM     38  C   UNL     1      -0.928   0.956 -13.751  1.00  0.00     0.007 A 
ATOM     39  C   UNL     1       0.423   2.776 -12.121  1.00  0.00     0.046 A 
ATOM     40  C   UNL     1      -1.154   2.327 -13.899  1.00  0.00     0.046 A 
ATOM     41  C   UNL     1      -0.474   3.225 -13.082  1.00  0.00     0.115 A 
BRANCH  41  42
ATOM     42  O   UNL     1      -0.667   4.570 -13.193  1.00  0.00    -0.508 OA
ATOM     43  H   UNL     1       0.200   5.006 -13.154  1.00  0.00     0.293 HD
ENDBRANCH  41  42
ENDBRANCH  35  36
ENDBRANCH  34  35
BRANCH  34  44
ATOM     44  C   UNL     1       0.240  -2.046 -10.283  1.00  0.00     0.243 C 
ATOM     45  O   UNL     1       0.265  -3.186  -9.826  1.00  0.00    -0.273 OA
ATOM     46  N   UNL     1       0.904  -1.003  -9.672  1.00  0.00    -0.341 N 
ATOM     47  H   UNL     1       0.759  -0.057 -10.016  1.00  0.00     0.164 HD
BRANCH  46  48
ATOM     48  C   UNL     1       1.735  -1.166  -8.477  1.00  0.00     0.196 C 
BRANCH  48  49
ATOM     49  C   UNL     1       3.227  -0.987  -8.804  1.00  0.00     0.072 C 
BRANCH  49  50
ATOM     50  C   UNL     1       3.500   0.259  -9.615  1.00  0.00    -0.045 A 
ATOM     51  C   UNL     1       3.947   0.147 -10.940  1.00  0.00     0.007 A 
ATOM     52  C   UNL     1       3.333   1.533  -9.058  1.00  0.00     0.007 A 
ATOM     53  C   UNL     1       4.215   1.290 -11.694  1.00  0.00     0.046 A 
ATOM     54  C   UNL     1       3.602   2.677  -9.812  1.00  0.00     0.046 A 
ATOM     55  C   UNL     1       4.040   2.545 -11.125  1.00  0.00     0.115 A 
BRANCH  55  56
ATOM     56  O   UNL     1       4.314   3.637 -11.895  1.00  0.00    -0.508 OA
ATOM     57  H   UNL     1       3.924   3.498 -12.773  1.00  0.00     0.293 HD
ENDBRANCH  55  56
ENDBRANCH  49  50
ENDBRANCH  48  49
BRANCH  48  58
ATOM     58  C   UNL     1       1.310  -0.129  -7.429  1.00  0.00     0.326 C 
ATOM     59  O   UNL     1       1.886   0.150  -6.389  1.00  0.00    -0.250 OA
BRANCH  58  60
ATOM     60  O   UNL     1       0.168   0.530  -7.750  1.00  0.00    -0.480 OA
ATOM     61  H   UNL     1      -0.288   0.626  -6.887  1.00  0.00     0.296 HD
ENDBRANCH  58  60
ENDBRANCH  48  58
ENDBRANCH  46  48
ENDBRANCH  34  44
ENDBRANCH  32  34
ENDBRANCH  25  30
ENDBRANCH  23  25
ENDBRANCH   2  23
TORSDOF 28
ENDMDL
MODEL 26
REMARK VINA RESULT:    -6.147      2.654      5.729
REMARK INTER + INTRA:         -19.830
REMARK INTER:                 -15.428
REMARK INTRA:                  -4.403
REMARK UNBOUND:                -4.520
REMARK SMILES CCCCCCC[C@H](N)[C@H](O)C(=O)N[C@H](C)C(=O)N(C)[C@H](CC(C)C)C(=O)N[C@@H](Cc1ccc(O)cc1)C(=O)N[C@@H](Cc1ccc(O)cc1)C(=O)O
REMARK SMILES IDX 18 1 17 2 15 3 16 4 14 5 12 6 13 7 10 9 11 10 8 12 9 13 7 16
REMARK SMILES IDX 6 17 5 18 4 19 3 20 2 21 1 22 19 23 20 24 21 25 22 26 23 27
REMARK SMILES IDX 24 28 25 29 26 30 27 31 28 32 29 34 30 35 31 36 32 37 37 38
REMARK SMILES IDX 33 39 36 40 34 41 35 42 38 44 39 45 40 46 41 48 42 49 43 50
REMARK SMILES IDX 44 51 49 52 45 53 48 54 46 55 47 56 50 58 51 59 52 60
REMARK H PARENT 14 8 11 11 9 14 9 15 28 33 35 43 40 47 47 57 52 61
ROOT
ATOM      1  O   UNL     1      -4.178   1.637  -9.535  1.00  0.00    -0.272 OA
ATOM      2  C   UNL     1      -3.860   0.740 -10.330  1.00  0.00     0.245 C 
ENDROOT
BRANCH   2   3
ATOM      3  C   UNL     1      -4.935  -0.295 -10.747  1.00  0.00     0.168 C 
ATOM      4  C   UNL     1      -4.566  -0.957 -12.070  1.00  0.00     0.041 C 
BRANCH   3   5
ATOM      5  N   UNL     1      -5.268  -1.275  -9.725  1.00  0.00    -0.342 N 
ATOM      6  C   UNL     1      -6.561  -1.716  -9.533  1.00  0.00     0.251 C 
ATOM      7  O   UNL     1      -7.521  -1.294 -10.169  1.00  0.00    -0.272 OA
ATOM      8  H   UNL     1      -4.560  -1.673  -9.112  1.00  0.00     0.164 HD
BRANCH   6   9
ATOM      9  C   UNL     1      -6.654  -2.852  -8.501  1.00  0.00     0.219 C 
BRANCH   9  10
ATOM     10  O   UNL     1      -7.985  -3.039  -8.005  1.00  0.00    -0.382 OA
ATOM     11  H   UNL     1      -7.849  -3.502  -7.149  1.00  0.00     0.211 HD
ENDBRANCH   9  10
BRANCH   9  12
ATOM     12  C   UNL     1      -6.065  -4.191  -9.015  1.00  0.00     0.089 C 
BRANCH  12  13
ATOM     13  N   UNL     1      -6.269  -4.261 -10.480  1.00  0.00    -0.325 NA
ATOM     14  H   UNL     1      -6.221  -3.318 -10.871  1.00  0.00     0.119 HD
ATOM     15  H   UNL     1      -7.223  -4.578 -10.666  1.00  0.00     0.119 HD
ENDBRANCH  12  13
BRANCH  12  16
ATOM     16  C   UNL     1      -4.578  -4.454  -8.672  1.00  0.00     0.022 C 
BRANCH  16  17
ATOM     17  C   UNL     1      -3.659  -5.050  -9.747  1.00  0.00     0.002 C 
BRANCH  17  18
ATOM     18  C   UNL     1      -2.480  -5.859  -9.209  1.00  0.00     0.000 C 
BRANCH  18  19
ATOM     19  C   UNL     1      -2.256  -5.709  -7.699  1.00  0.00    -0.000 C 
BRANCH  19  20
ATOM     20  C   UNL     1      -0.791  -5.706  -7.256  1.00  0.00    -0.000 C 
BRANCH  20  21
ATOM     21  C   UNL     1      -0.586  -5.100  -5.865  1.00  0.00    -0.003 C 
ATOM     22  C   UNL     1      -1.783  -4.261  -5.444  1.00  0.00     0.004 C 
ENDBRANCH  20  21
ENDBRANCH  19  20
ENDBRANCH  18  19
ENDBRANCH  17  18
ENDBRANCH  16  17
ENDBRANCH  12  16
ENDBRANCH   9  12
ENDBRANCH   6   9
ENDBRANCH   3   5
ENDBRANCH   2   3
BRANCH   2  23
ATOM     23  N   UNL     1      -2.601   0.746 -10.920  1.00  0.00    -0.332 N 
ATOM     24  C   UNL     1      -2.254   1.498 -12.118  1.00  0.00     0.147 C 
BRANCH  23  25
ATOM     25  C   UNL     1      -1.458   0.056 -10.261  1.00  0.00     0.174 C 
BRANCH  25  26
ATOM     26  C   UNL     1      -1.910  -1.004  -9.229  1.00  0.00     0.038 C 
BRANCH  26  27
ATOM     27  C   UNL     1      -1.129  -2.337  -9.207  1.00  0.00    -0.015 C 
ATOM     28  C   UNL     1      -0.736  -2.806 -10.608  1.00  0.00     0.007 C 
ATOM     29  C   UNL     1       0.089  -2.312  -8.287  1.00  0.00     0.007 C 
ENDBRANCH  26  27
ENDBRANCH  25  26
BRANCH  25  30
ATOM     30  C   UNL     1      -0.466   1.096  -9.691  1.00  0.00     0.243 C 
ATOM     31  O   UNL     1      -0.814   1.945  -8.871  1.00  0.00    -0.273 OA
ATOM     32  N   UNL     1       0.818   1.012 -10.163  1.00  0.00    -0.342 N 
ATOM     33  H   UNL     1       1.061   0.196 -10.731  1.00  0.00     0.164 HD
BRANCH  32  34
ATOM     34  C   UNL     1       1.884   1.931  -9.755  1.00  0.00     0.175 C 
BRANCH  34  35
ATOM     35  C   UNL     1       2.782   1.301  -8.679  1.00  0.00     0.070 C 
BRANCH  35  36
ATOM     36  C   UNL     1       2.781   2.085  -7.386  1.00  0.00    -0.045 A 
ATOM     37  C   UNL     1       3.331   3.375  -7.346  1.00  0.00     0.007 A 
ATOM     38  C   UNL     1       2.257   1.531  -6.211  1.00  0.00     0.007 A 
ATOM     39  C   UNL     1       3.347   4.100  -6.154  1.00  0.00     0.046 A 
ATOM     40  C   UNL     1       2.274   2.255  -5.016  1.00  0.00     0.046 A 
ATOM     41  C   UNL     1       2.818   3.535  -5.000  1.00  0.00     0.115 A 
BRANCH  41  42
ATOM     42  O   UNL     1       2.856   4.275  -3.855  1.00  0.00    -0.508 OA
ATOM     43  H   UNL     1       1.945   4.515  -3.617  1.00  0.00     0.293 HD
ENDBRANCH  41  42
ENDBRANCH  35  36
ENDBRANCH  34  35
BRANCH  34  44
ATOM     44  C   UNL     1       2.685   2.325 -11.017  1.00  0.00     0.243 C 
ATOM     45  O   UNL     1       2.200   2.874 -12.003  1.00  0.00    -0.273 OA
ATOM     46  N   UNL     1       3.991   1.885 -10.998  1.00  0.00    -0.341 N 
ATOM     47  H   UNL     1       4.315   1.332 -10.208  1.00  0.00     0.164 HD
BRANCH  46  48
ATOM     48  C   UNL     1       4.924   2.081 -12.110  1.00  0.00     0.196 C 
BRANCH  48  49
ATOM     49  C   UNL     1       6.353   2.337 -11.605  1.00  0.00     0.072 C 
BRANCH  49  50
ATOM     50  C   UNL     1       6.500   3.683 -10.933  1.00  0.00    -0.045 A 
ATOM     51  C   UNL     1       7.723   4.366 -10.996  1.00  0.00     0.007 A 
ATOM     52  C   UNL     1       5.435   4.256 -10.225  1.00  0.00     0.007 A 
ATOM     53  C   UNL     1       7.875   5.603 -10.369  1.00  0.00     0.046 A 
ATOM     54  C   UNL     1       5.587   5.494  -9.597  1.00  0.00     0.046 A 
ATOM     55  C   UNL     1       6.807   6.158  -9.675  1.00  0.00     0.115 A 
BRANCH  55  56
ATOM     56  O   UNL     1       6.996   7.367  -9.075  1.00  0.00    -0.508 OA
ATOM     57  H   UNL     1       7.806   7.763  -9.434  1.00  0.00     0.293 HD
ENDBRANCH  55  56
ENDBRANCH  49  50
ENDBRANCH  48  49
BRANCH  48  58
ATOM     58  C   UNL     1       4.909   0.830 -13.000  1.00  0.00     0.326 C 
ATOM     59  O   UNL     1       4.002   0.022 -13.125  1.00  0.00    -0.250 OA
BRANCH  58  60
ATOM     60  O   UNL     1       6.050   0.660 -13.714  1.00  0.00    -0.480 OA
ATOM     61  H   UNL     1       5.962  -0.252 -14.067  1.00  0.00     0.296 HD
ENDBRANCH  58  60
ENDBRANCH  48  58
ENDBRANCH  46  48
ENDBRANCH  34  44
ENDBRANCH  32  34
ENDBRANCH  25  30
ENDBRANCH  23  25
ENDBRANCH   2  23
TORSDOF 28
ENDMDL
MODEL 27
REMARK VINA RESULT:    -6.142      2.703     10.728
REMARK INTER + INTRA:         -19.818
REMARK INTER:                 -16.609
REMARK INTRA:                  -3.209
REMARK UNBOUND:                -4.520
REMARK SMILES CCCCCCC[C@H](N)[C@H](O)C(=O)N[C@H](C)C(=O)N(C)[C@H](CC(C)C)C(=O)N[C@@H](Cc1ccc(O)cc1)C(=O)N[C@@H](Cc1ccc(O)cc1)C(=O)O
REMARK SMILES IDX 18 1 17 2 15 3 16 4 14 5 12 6 13 7 10 9 11 10 8 12 9 13 7 16
REMARK SMILES IDX 6 17 5 18 4 19 3 20 2 21 1 22 19 23 20 24 21 25 22 26 23 27
REMARK SMILES IDX 24 28 25 29 26 30 27 31 28 32 29 34 30 35 31 36 32 37 37 38
REMARK SMILES IDX 33 39 36 40 34 41 35 42 38 44 39 45 40 46 41 48 42 49 43 50
REMARK SMILES IDX 44 51 49 52 45 53 48 54 46 55 47 56 50 58 51 59 52 60
REMARK H PARENT 14 8 11 11 9 14 9 15 28 33 35 43 40 47 47 57 52 61
ROOT
ATOM      1  O   UNL     1      -0.383  -1.710 -10.492  1.00  0.00    -0.272 OA
ATOM      2  C   UNL     1       0.664  -1.048 -10.441  1.00  0.00     0.245 C 
ENDROOT
BRANCH   2   3
ATOM      3  C   UNL     1       1.032  -0.150 -11.649  1.00  0.00     0.168 C 
ATOM      4  C   UNL     1      -0.224   0.357 -12.349  1.00  0.00     0.041 C 
BRANCH   3   5
ATOM      5  N   UNL     1       1.958   0.930 -11.347  1.00  0.00    -0.342 N 
ATOM      6  C   UNL     1       2.981   1.274 -12.205  1.00  0.00     0.251 C 
ATOM      7  O   UNL     1       3.213   0.679 -13.253  1.00  0.00    -0.272 OA
ATOM      8  H   UNL     1       1.887   1.474 -10.490  1.00  0.00     0.164 HD
BRANCH   6   9
ATOM      9  C   UNL     1       3.741   2.530 -11.752  1.00  0.00     0.219 C 
BRANCH   9  10
ATOM     10  O   UNL     1       3.039   3.267 -10.743  1.00  0.00    -0.382 OA
ATOM     11  H   UNL     1       3.126   4.201 -11.036  1.00  0.00     0.211 HD
ENDBRANCH   9  10
BRANCH   9  12
ATOM     12  C   UNL     1       5.196   2.234 -11.304  1.00  0.00     0.089 C 
BRANCH  12  13
ATOM     13  N   UNL     1       5.304   0.790 -10.994  1.00  0.00    -0.325 NA
ATOM     14  H   UNL     1       5.378   0.669  -9.982  1.00  0.00     0.119 HD
ATOM     15  H   UNL     1       6.186   0.435 -11.370  1.00  0.00     0.119 HD
ENDBRANCH  12  13
BRANCH  12  16
ATOM     16  C   UNL     1       6.309   2.649 -12.296  1.00  0.00     0.022 C 
BRANCH  16  17
ATOM     17  C   UNL     1       7.167   3.882 -11.983  1.00  0.00     0.002 C 
BRANCH  17  18
ATOM     18  C   UNL     1       6.979   4.459 -10.582  1.00  0.00     0.000 C 
BRANCH  18  19
ATOM     19  C   UNL     1       8.242   5.107  -9.999  1.00  0.00    -0.000 C 
BRANCH  19  20
ATOM     20  C   UNL     1       9.064   5.935 -10.990  1.00  0.00    -0.000 C 
BRANCH  20  21
ATOM     21  C   UNL     1       8.663   7.413 -11.014  1.00  0.00    -0.003 C 
ATOM     22  C   UNL     1       7.926   7.766 -12.296  1.00  0.00     0.004 C 
ENDBRANCH  20  21
ENDBRANCH  19  20
ENDBRANCH  18  19
ENDBRANCH  17  18
ENDBRANCH  16  17
ENDBRANCH  12  16
ENDBRANCH   9  12
ENDBRANCH   6   9
ENDBRANCH   3   5
ENDBRANCH   2   3
BRANCH   2  23
ATOM     23  N   UNL     1       1.416  -1.026  -9.272  1.00  0.00    -0.332 N 
ATOM     24  C   UNL     1       2.853  -1.252  -9.210  1.00  0.00     0.147 C 
BRANCH  23  25
ATOM     25  C   UNL     1       0.788  -0.629  -7.982  1.00  0.00     0.174 C 
BRANCH  25  26
ATOM     26  C   UNL     1       1.826  -0.324  -6.876  1.00  0.00     0.038 C 
BRANCH  26  27
ATOM     27  C   UNL     1       1.866   1.122  -6.334  1.00  0.00    -0.015 C 
ATOM     28  C   UNL     1       2.563   2.086  -7.293  1.00  0.00     0.007 C 
ATOM     29  C   UNL     1       0.494   1.659  -5.934  1.00  0.00     0.007 C 
ENDBRANCH  26  27
ENDBRANCH  25  26
BRANCH  25  30
ATOM     30  C   UNL     1      -0.276  -1.671  -7.566  1.00  0.00     0.243 C 
ATOM     31  O   UNL     1       0.006  -2.856  -7.395  1.00  0.00    -0.273 OA
ATOM     32  N   UNL     1      -1.549  -1.187  -7.408  1.00  0.00    -0.342 N 
ATOM     33  H   UNL     1      -1.676  -0.172  -7.430  1.00  0.00     0.164 HD
BRANCH  32  34
ATOM     34  C   UNL     1      -2.689  -2.033  -7.044  1.00  0.00     0.175 C 
BRANCH  34  35
ATOM     35  C   UNL     1      -3.096  -1.821  -5.578  1.00  0.00     0.070 C 
BRANCH  35  36
ATOM     36  C   UNL     1      -2.814  -3.028  -4.712  1.00  0.00    -0.045 A 
ATOM     37  C   UNL     1      -2.344  -4.215  -5.294  1.00  0.00     0.007 A 
ATOM     38  C   UNL     1      -3.037  -2.989  -3.329  1.00  0.00     0.007 A 
ATOM     39  C   UNL     1      -2.094  -5.339  -4.505  1.00  0.00     0.046 A 
ATOM     40  C   UNL     1      -2.788  -4.114  -2.539  1.00  0.00     0.046 A 
ATOM     41  C   UNL     1      -2.317  -5.279  -3.135  1.00  0.00     0.115 A 
BRANCH  41  42
ATOM     42  O   UNL     1      -2.063  -6.399  -2.400  1.00  0.00    -0.508 OA
ATOM     43  H   UNL     1      -1.477  -6.155  -1.665  1.00  0.00     0.293 HD
ENDBRANCH  41  42
ENDBRANCH  35  36
ENDBRANCH  34  35
BRANCH  34  44
ATOM     44  C   UNL     1      -3.848  -1.720  -8.017  1.00  0.00     0.243 C 
ATOM     45  O   UNL     1      -3.977  -0.661  -8.624  1.00  0.00    -0.273 OA
ATOM     46  N   UNL     1      -4.817  -2.700  -8.049  1.00  0.00    -0.341 N 
ATOM     47  H   UNL     1      -4.724  -3.508  -7.438  1.00  0.00     0.164 HD
BRANCH  46  48
ATOM     48  C   UNL     1      -6.043  -2.596  -8.844  1.00  0.00     0.196 C 
BRANCH  48  49
ATOM     49  C   UNL     1      -6.133  -3.723  -9.886  1.00  0.00     0.072 C 
BRANCH  49  50
ATOM     50  C   UNL     1      -5.022  -4.739  -9.740  1.00  0.00    -0.045 A 
ATOM     51  C   UNL     1      -5.220  -5.883  -8.954  1.00  0.00     0.007 A 
ATOM     52  C   UNL     1      -3.783  -4.547 -10.365  1.00  0.00     0.007 A 
ATOM     53  C   UNL     1      -4.198  -6.821  -8.801  1.00  0.00     0.046 A 
ATOM     54  C   UNL     1      -2.760  -5.485 -10.211  1.00  0.00     0.046 A 
ATOM     55  C   UNL     1      -2.977  -6.615  -9.431  1.00  0.00     0.115 A 
BRANCH  55  56
ATOM     56  O   UNL     1      -2.004  -7.554  -9.256  1.00  0.00    -0.508 OA
ATOM     57  H   UNL     1      -1.232  -7.298  -9.785  1.00  0.00     0.293 HD
ENDBRANCH  55  56
ENDBRANCH  49  50
ENDBRANCH  48  49
BRANCH  48  58
ATOM     58  C   UNL     1      -7.255  -2.665  -7.904  1.00  0.00     0.326 C 
ATOM     59  O   UNL     1      -7.244  -2.695  -6.685  1.00  0.00    -0.250 OA
BRANCH  58  60
ATOM     60  O   UNL     1      -8.445  -2.678  -8.556  1.00  0.00    -0.480 OA
ATOM     61  H   UNL     1      -8.264  -3.232  -9.346  1.00  0.00     0.296 HD
ENDBRANCH  58  60
ENDBRANCH  48  58
ENDBRANCH  46  48
ENDBRANCH  34  44
ENDBRANCH  32  34
ENDBRANCH  25  30
ENDBRANCH  23  25
ENDBRANCH   2  23
TORSDOF 28
ENDMDL
MODEL 28
REMARK VINA RESULT:    -6.122      2.736      7.446
REMARK INTER + INTRA:         -19.769
REMARK INTER:                 -14.838
REMARK INTRA:                  -4.931
REMARK UNBOUND:                -4.520
REMARK SMILES CCCCCCC[C@H](N)[C@H](O)C(=O)N[C@H](C)C(=O)N(C)[C@H](CC(C)C)C(=O)N[C@@H](Cc1ccc(O)cc1)C(=O)N[C@@H](Cc1ccc(O)cc1)C(=O)O
REMARK SMILES IDX 18 1 17 2 15 3 16 4 14 5 12 6 13 7 10 9 11 10 8 12 9 13 7 16
REMARK SMILES IDX 6 17 5 18 4 19 3 20 2 21 1 22 19 23 20 24 21 25 22 26 23 27
REMARK SMILES IDX 24 28 25 29 26 30 27 31 28 32 29 34 30 35 31 36 32 37 37 38
REMARK SMILES IDX 33 39 36 40 34 41 35 42 38 44 39 45 40 46 41 48 42 49 43 50
REMARK SMILES IDX 44 51 49 52 45 53 48 54 46 55 47 56 50 58 51 59 52 60
REMARK H PARENT 14 8 11 11 9 14 9 15 28 33 35 43 40 47 47 57 52 61
ROOT
ATOM      1  O   UNL     1      -2.367  -4.881  -7.430  1.00  0.00    -0.272 OA
ATOM      2  C   UNL     1      -2.271  -5.054  -8.654  1.00  0.00     0.245 C 
ENDROOT
BRANCH   2   3
ATOM      3  C   UNL     1      -3.366  -5.879  -9.374  1.00  0.00     0.168 C 
ATOM      4  C   UNL     1      -3.174  -7.371  -9.123  1.00  0.00     0.041 C 
BRANCH   3   5
ATOM      5  N   UNL     1      -4.731  -5.455  -9.100  1.00  0.00    -0.342 N 
ATOM      6  C   UNL     1      -5.357  -4.485  -9.853  1.00  0.00     0.251 C 
ATOM      7  O   UNL     1      -4.809  -3.883 -10.771  1.00  0.00    -0.272 OA
ATOM      8  H   UNL     1      -5.275  -5.858  -8.341  1.00  0.00     0.164 HD
BRANCH   6   9
ATOM      9  C   UNL     1      -6.835  -4.301  -9.476  1.00  0.00     0.219 C 
BRANCH   9  10
ATOM     10  O   UNL     1      -7.338  -5.376  -8.673  1.00  0.00    -0.382 OA
ATOM     11  H   UNL     1      -8.229  -5.548  -9.049  1.00  0.00     0.211 HD
ENDBRANCH   9  10
BRANCH   9  12
ATOM     12  C   UNL     1      -7.128  -2.932  -8.809  1.00  0.00     0.089 C 
BRANCH  12  13
ATOM     13  N   UNL     1      -5.893  -2.464  -8.140  1.00  0.00    -0.325 NA
ATOM     14  H   UNL     1      -6.093  -2.278  -7.156  1.00  0.00     0.119 HD
ATOM     15  H   UNL     1      -5.626  -1.559  -8.534  1.00  0.00     0.119 HD
ENDBRANCH  12  13
BRANCH  12  16
ATOM     16  C   UNL     1      -7.679  -1.827  -9.742  1.00  0.00     0.022 C 
BRANCH  16  17
ATOM     17  C   UNL     1      -6.691  -0.931 -10.502  1.00  0.00     0.002 C 
BRANCH  17  18
ATOM     18  C   UNL     1      -6.625   0.514 -10.012  1.00  0.00     0.000 C 
BRANCH  18  19
ATOM     19  C   UNL     1      -6.139   1.511 -11.073  1.00  0.00    -0.000 C 
BRANCH  19  20
ATOM     20  C   UNL     1      -6.823   2.881 -11.040  1.00  0.00    -0.000 C 
BRANCH  20  21
ATOM     21  C   UNL     1      -5.830   4.045 -10.982  1.00  0.00    -0.003 C 
ATOM     22  C   UNL     1      -4.393   3.549 -10.955  1.00  0.00     0.004 C 
ENDBRANCH  20  21
ENDBRANCH  19  20
ENDBRANCH  18  19
ENDBRANCH  17  18
ENDBRANCH  16  17
ENDBRANCH  12  16
ENDBRANCH   9  12
ENDBRANCH   6   9
ENDBRANCH   3   5
ENDBRANCH   2   3
BRANCH   2  23
ATOM     23  N   UNL     1      -1.266  -4.413  -9.370  1.00  0.00    -0.332 N 
ATOM     24  C   UNL     1      -0.096  -5.076  -9.926  1.00  0.00     0.147 C 
BRANCH  23  25
ATOM     25  C   UNL     1      -1.401  -2.974  -9.730  1.00  0.00     0.174 C 
BRANCH  25  26
ATOM     26  C   UNL     1      -0.877  -2.658 -11.151  1.00  0.00     0.038 C 
BRANCH  26  27
ATOM     27  C   UNL     1      -0.686  -1.167 -11.511  1.00  0.00    -0.015 C 
ATOM     28  C   UNL     1       0.460  -0.946 -12.497  1.00  0.00     0.007 C 
ATOM     29  C   UNL     1      -1.963  -0.495 -12.011  1.00  0.00     0.007 C 
ENDBRANCH  26  27
ENDBRANCH  25  26
BRANCH  25  30
ATOM     30  C   UNL     1      -0.778  -2.089  -8.627  1.00  0.00     0.243 C 
ATOM     31  O   UNL     1       0.400  -2.202  -8.290  1.00  0.00    -0.273 OA
ATOM     32  N   UNL     1      -1.625  -1.179  -8.048  1.00  0.00    -0.342 N 
ATOM     33  H   UNL     1      -2.545  -1.048  -8.477  1.00  0.00     0.164 HD
BRANCH  32  34
ATOM     34  C   UNL     1      -1.216  -0.277  -6.968  1.00  0.00     0.175 C 
BRANCH  34  35
ATOM     35  C   UNL     1      -1.108   1.174  -7.463  1.00  0.00     0.070 C 
BRANCH  35  36
ATOM     36  C   UNL     1       0.118   1.412  -8.315  1.00  0.00    -0.045 A 
ATOM     37  C   UNL     1      -0.020   1.904  -9.622  1.00  0.00     0.007 A 
ATOM     38  C   UNL     1       1.400   1.124  -7.827  1.00  0.00     0.007 A 
ATOM     39  C   UNL     1       1.105   2.114 -10.420  1.00  0.00     0.046 A 
ATOM     40  C   UNL     1       2.526   1.332  -8.627  1.00  0.00     0.046 A 
ATOM     41  C   UNL     1       2.368   1.827  -9.917  1.00  0.00     0.115 A 
BRANCH  41  42
ATOM     42  O   UNL     1       3.440   2.043 -10.731  1.00  0.00    -0.508 OA
ATOM     43  H   UNL     1       3.438   1.363 -11.424  1.00  0.00     0.293 HD
ENDBRANCH  41  42
ENDBRANCH  35  36
ENDBRANCH  34  35
BRANCH  34  44
ATOM     44  C   UNL     1      -2.233  -0.419  -5.814  1.00  0.00     0.243 C 
ATOM     45  O   UNL     1      -2.361   0.389  -4.898  1.00  0.00    -0.273 OA
ATOM     46  N   UNL     1      -2.913  -1.619  -5.826  1.00  0.00    -0.341 N 
ATOM     47  H   UNL     1      -2.688  -2.307  -6.541  1.00  0.00     0.164 HD
BRANCH  46  48
ATOM     48  C   UNL     1      -3.878  -2.009  -4.796  1.00  0.00     0.196 C 
BRANCH  48  49
ATOM     49  C   UNL     1      -3.235  -2.014  -3.399  1.00  0.00     0.072 C 
BRANCH  49  50
ATOM     50  C   UNL     1      -2.631  -3.353  -3.041  1.00  0.00    -0.045 A 
ATOM     51  C   UNL     1      -2.380  -3.670  -1.699  1.00  0.00     0.007 A 
ATOM     52  C   UNL     1      -2.296  -4.281  -4.035  1.00  0.00     0.007 A 
ATOM     53  C   UNL     1      -1.812  -4.897  -1.357  1.00  0.00     0.046 A 
ATOM     54  C   UNL     1      -1.726  -5.509  -3.694  1.00  0.00     0.046 A 
ATOM     55  C   UNL     1      -1.489  -5.807  -2.356  1.00  0.00     0.115 A 
BRANCH  55  56
ATOM     56  O   UNL     1      -0.933  -6.994  -1.981  1.00  0.00    -0.508 OA
ATOM     57  H   UNL     1       0.029  -6.929  -2.088  1.00  0.00     0.293 HD
ENDBRANCH  55  56
ENDBRANCH  49  50
ENDBRANCH  48  49
BRANCH  48  58
ATOM     58  C   UNL     1      -5.056  -1.024  -4.818  1.00  0.00     0.326 C 
ATOM     59  O   UNL     1      -5.928  -0.933  -5.666  1.00  0.00    -0.250 OA
BRANCH  58  60
ATOM     60  O   UNL     1      -5.089  -0.197  -3.743  1.00  0.00    -0.480 OA
ATOM     61  H   UNL     1      -5.933  -0.433  -3.301  1.00  0.00     0.296 HD
ENDBRANCH  58  60
ENDBRANCH  48  58
ENDBRANCH  46  48
ENDBRANCH  34  44
ENDBRANCH  32  34
ENDBRANCH  25  30
ENDBRANCH  23  25
ENDBRANCH   2  23
TORSDOF 28
ENDMDL
MODEL 29
REMARK VINA RESULT:    -6.117      2.316      8.459
REMARK INTER + INTRA:         -19.755
REMARK INTER:                 -14.479
REMARK INTRA:                  -5.277
REMARK UNBOUND:                -4.520
REMARK SMILES CCCCCCC[C@H](N)[C@H](O)C(=O)N[C@H](C)C(=O)N(C)[C@H](CC(C)C)C(=O)N[C@@H](Cc1ccc(O)cc1)C(=O)N[C@@H](Cc1ccc(O)cc1)C(=O)O
REMARK SMILES IDX 18 1 17 2 15 3 16 4 14 5 12 6 13 7 10 9 11 10 8 12 9 13 7 16
REMARK SMILES IDX 6 17 5 18 4 19 3 20 2 21 1 22 19 23 20 24 21 25 22 26 23 27
REMARK SMILES IDX 24 28 25 29 26 30 27 31 28 32 29 34 30 35 31 36 32 37 37 38
REMARK SMILES IDX 33 39 36 40 34 41 35 42 38 44 39 45 40 46 41 48 42 49 43 50
REMARK SMILES IDX 44 51 49 52 45 53 48 54 46 55 47 56 50 58 51 59 52 60
REMARK H PARENT 14 8 11 11 9 14 9 15 28 33 35 43 40 47 47 57 52 61
ROOT
ATOM      1  O   UNL     1      -2.257  -2.251 -10.642  1.00  0.00    -0.272 OA
ATOM      2  C   UNL     1      -3.431  -1.853 -10.687  1.00  0.00     0.245 C 
ENDROOT
BRANCH   2   3
ATOM      3  C   UNL     1      -3.759  -0.613 -11.555  1.00  0.00     0.168 C 
ATOM      4  C   UNL     1      -5.258  -0.514 -11.813  1.00  0.00     0.041 C 
BRANCH   3   5
ATOM      5  N   UNL     1      -3.209   0.641 -11.063  1.00  0.00    -0.342 N 
ATOM      6  C   UNL     1      -2.254   1.344 -11.767  1.00  0.00     0.251 C 
ATOM      7  O   UNL     1      -1.770   0.954 -12.824  1.00  0.00    -0.272 OA
ATOM      8  H   UNL     1      -3.509   1.047 -10.179  1.00  0.00     0.164 HD
BRANCH   6   9
ATOM      9  C   UNL     1      -1.927   2.704 -11.129  1.00  0.00     0.219 C 
BRANCH   9  10
ATOM     10  O   UNL     1      -2.048   2.688  -9.702  1.00  0.00    -0.382 OA
ATOM     11  H   UNL     1      -1.474   1.939  -9.430  1.00  0.00     0.211 HD
ENDBRANCH   9  10
BRANCH   9  12
ATOM     12  C   UNL     1      -0.546   3.262 -11.560  1.00  0.00     0.089 C 
BRANCH  12  13
ATOM     13  N   UNL     1      -0.716   4.005 -12.829  1.00  0.00    -0.325 NA
ATOM     14  H   UNL     1      -1.627   3.776 -13.232  1.00  0.00     0.119 HD
ATOM     15  H   UNL     1      -0.031   3.663 -13.507  1.00  0.00     0.119 HD
ENDBRANCH  12  13
BRANCH  12  16
ATOM     16  C   UNL     1       0.182   4.147 -10.520  1.00  0.00     0.022 C 
BRANCH  16  17
ATOM     17  C   UNL     1       1.684   3.937 -10.281  1.00  0.00     0.002 C 
BRANCH  17  18
ATOM     18  C   UNL     1       2.086   3.762  -8.819  1.00  0.00     0.000 C 
BRANCH  18  19
ATOM     19  C   UNL     1       3.602   3.774  -8.582  1.00  0.00    -0.000 C 
BRANCH  19  20
ATOM     20  C   UNL     1       4.454   3.417  -9.804  1.00  0.00    -0.000 C 
BRANCH  20  21
ATOM     21  C   UNL     1       5.500   4.484 -10.138  1.00  0.00    -0.003 C 
ATOM     22  C   UNL     1       6.576   3.935 -11.062  1.00  0.00     0.004 C 
ENDBRANCH  20  21
ENDBRANCH  19  20
ENDBRANCH  18  19
ENDBRANCH  17  18
ENDBRANCH  16  17
ENDBRANCH  12  16
ENDBRANCH   9  12
ENDBRANCH   6   9
ENDBRANCH   3   5
ENDBRANCH   2   3
BRANCH   2  23
ATOM     23  N   UNL     1      -4.438  -2.584 -10.067  1.00  0.00    -0.332 N 
ATOM     24  C   UNL     1      -5.056  -3.777 -10.626  1.00  0.00     0.147 C 
BRANCH  23  25
ATOM     25  C   UNL     1      -4.870  -2.244  -8.683  1.00  0.00     0.174 C 
BRANCH  25  26
ATOM     26  C   UNL     1      -5.786  -0.999  -8.627  1.00  0.00     0.038 C 
BRANCH  26  27
ATOM     27  C   UNL     1      -7.265  -1.234  -8.246  1.00  0.00    -0.015 C 
ATOM     28  C   UNL     1      -7.596  -2.717  -8.075  1.00  0.00     0.007 C 
ATOM     29  C   UNL     1      -7.710  -0.440  -7.021  1.00  0.00     0.007 C 
ENDBRANCH  26  27
ENDBRANCH  25  26
BRANCH  25  30
ATOM     30  C   UNL     1      -3.642  -2.155  -7.749  1.00  0.00     0.243 C 
ATOM     31  O   UNL     1      -3.454  -1.187  -7.013  1.00  0.00    -0.273 OA
ATOM     32  N   UNL     1      -2.778  -3.218  -7.802  1.00  0.00    -0.342 N 
ATOM     33  H   UNL     1      -3.074  -4.043  -8.330  1.00  0.00     0.164 HD
BRANCH  32  34
ATOM     34  C   UNL     1      -1.548  -3.292  -7.008  1.00  0.00     0.175 C 
BRANCH  34  35
ATOM     35  C   UNL     1      -1.113  -4.749  -6.786  1.00  0.00     0.070 C 
BRANCH  35  36
ATOM     36  C   UNL     1      -1.186  -5.166  -5.335  1.00  0.00    -0.045 A 
ATOM     37  C   UNL     1      -2.371  -4.977  -4.608  1.00  0.00     0.007 A 
ATOM     38  C   UNL     1      -0.073  -5.723  -4.690  1.00  0.00     0.007 A 
ATOM     39  C   UNL     1      -2.443  -5.347  -3.265  1.00  0.00     0.046 A 
ATOM     40  C   UNL     1      -0.144  -6.092  -3.345  1.00  0.00     0.046 A 
ATOM     41  C   UNL     1      -1.330  -5.901  -2.644  1.00  0.00     0.115 A 
BRANCH  41  42
ATOM     42  O   UNL     1      -1.441  -6.246  -1.330  1.00  0.00    -0.508 OA
ATOM     43  H   UNL     1      -1.875  -7.114  -1.278  1.00  0.00     0.293 HD
ENDBRANCH  41  42
ENDBRANCH  35  36
ENDBRANCH  34  35
BRANCH  34  44
ATOM     44  C   UNL     1      -0.460  -2.468  -7.732  1.00  0.00     0.243 C 
ATOM     45  O   UNL     1       0.363  -2.940  -8.512  1.00  0.00    -0.273 OA
ATOM     46  N   UNL     1      -0.405  -1.153  -7.324  1.00  0.00    -0.341 N 
ATOM     47  H   UNL     1      -1.032  -0.837  -6.588  1.00  0.00     0.164 HD
BRANCH  46  48
ATOM     48  C   UNL     1       0.588  -0.196  -7.819  1.00  0.00     0.196 C 
BRANCH  48  49
ATOM     49  C   UNL     1       0.368   0.118  -9.308  1.00  0.00     0.072 C 
BRANCH  49  50
ATOM     50  C   UNL     1       1.664   0.192 -10.084  1.00  0.00    -0.045 A 
ATOM     51  C   UNL     1       2.886  -0.001  -9.424  1.00  0.00     0.007 A 
ATOM     52  C   UNL     1       1.667   0.472 -11.457  1.00  0.00     0.007 A 
ATOM     53  C   UNL     1       4.088   0.077 -10.127  1.00  0.00     0.046 A 
ATOM     54  C   UNL     1       2.871   0.552 -12.160  1.00  0.00     0.046 A 
ATOM     55  C   UNL     1       4.072   0.353 -11.489  1.00  0.00     0.115 A 
BRANCH  55  56
ATOM     56  O   UNL     1       5.269   0.423 -12.139  1.00  0.00    -0.508 OA
ATOM     57  H   UNL     1       5.907   0.867 -11.558  1.00  0.00     0.293 HD
ENDBRANCH  55  56
ENDBRANCH  49  50
ENDBRANCH  48  49
BRANCH  48  58
ATOM     58  C   UNL     1       0.487   1.098  -6.999  1.00  0.00     0.326 C 
ATOM     59  O   UNL     1       1.250   1.483  -6.128  1.00  0.00    -0.250 OA
BRANCH  58  60
ATOM     60  O   UNL     1      -0.581   1.866  -7.330  1.00  0.00    -0.480 OA
ATOM     61  H   UNL     1      -0.180   2.744  -7.513  1.00  0.00     0.296 HD
ENDBRANCH  58  60
ENDBRANCH  48  58
ENDBRANCH  46  48
ENDBRANCH  34  44
ENDBRANCH  32  34
ENDBRANCH  25  30
ENDBRANCH  23  25
ENDBRANCH   2  23
TORSDOF 28
ENDMDL
MODEL 30
REMARK VINA RESULT:    -6.105      2.459      9.976
REMARK INTER + INTRA:         -19.725
REMARK INTER:                 -16.330
REMARK INTRA:                  -3.396
REMARK UNBOUND:                -4.520
REMARK SMILES CCCCCCC[C@H](N)[C@H](O)C(=O)N[C@H](C)C(=O)N(C)[C@H](CC(C)C)C(=O)N[C@@H](Cc1ccc(O)cc1)C(=O)N[C@@H](Cc1ccc(O)cc1)C(=O)O
REMARK SMILES IDX 18 1 17 2 15 3 16 4 14 5 12 6 13 7 10 9 11 10 8 12 9 13 7 16
REMARK SMILES IDX 6 17 5 18 4 19 3 20 2 21 1 22 19 23 20 24 21 25 22 26 23 27
REMARK SMILES IDX 24 28 25 29 26 30 27 31 28 32 29 34 30 35 31 36 32 37 37 38
REMARK SMILES IDX 33 39 36 40 34 41 35 42 38 44 39 45 40 46 41 48 42 49 43 50
REMARK SMILES IDX 44 51 49 52 45 53 48 54 46 55 47 56 50 58 51 59 52 60
REMARK H PARENT 14 8 11 11 9 14 9 15 28 33 35 43 40 47 47 57 52 61
ROOT
ATOM      1  O   UNL     1       0.270   0.926  -8.049  1.00  0.00    -0.272 OA
ATOM      2  C   UNL     1       1.201   0.639  -8.816  1.00  0.00     0.245 C 
ENDROOT
BRANCH   2   3
ATOM      3  C   UNL     1       2.307   1.693  -9.066  1.00  0.00     0.168 C 
ATOM      4  C   UNL     1       2.751   2.335  -7.756  1.00  0.00     0.041 C 
BRANCH   3   5
ATOM      5  N   UNL     1       3.439   1.218  -9.847  1.00  0.00    -0.342 N 
ATOM      6  C   UNL     1       3.605   1.562 -11.172  1.00  0.00     0.251 C 
ATOM      7  O   UNL     1       2.804   2.249 -11.798  1.00  0.00    -0.272 OA
ATOM      8  H   UNL     1       4.151   0.613  -9.446  1.00  0.00     0.164 HD
BRANCH   6   9
ATOM      9  C   UNL     1       4.939   1.066 -11.753  1.00  0.00     0.219 C 
BRANCH   9  10
ATOM     10  O   UNL     1       4.763   0.208 -12.887  1.00  0.00    -0.382 OA
ATOM     11  H   UNL     1       4.165   0.721 -13.474  1.00  0.00     0.211 HD
ENDBRANCH   9  10
BRANCH   9  12
ATOM     12  C   UNL     1       5.926   2.217 -12.081  1.00  0.00     0.089 C 
BRANCH  12  13
ATOM     13  N   UNL     1       5.534   2.813 -13.378  1.00  0.00    -0.325 NA
ATOM     14  H   UNL     1       4.770   3.473 -13.228  1.00  0.00     0.119 HD
ATOM     15  H   UNL     1       5.141   2.080 -13.974  1.00  0.00     0.119 HD
ENDBRANCH  12  13
BRANCH  12  16
ATOM     16  C   UNL     1       6.059   3.322 -11.006  1.00  0.00     0.022 C 
BRANCH  16  17
ATOM     17  C   UNL     1       7.378   4.098 -10.892  1.00  0.00     0.002 C 
BRANCH  17  18
ATOM     18  C   UNL     1       7.372   5.479 -11.544  1.00  0.00     0.000 C 
BRANCH  18  19
ATOM     19  C   UNL     1       6.954   6.614 -10.600  1.00  0.00    -0.000 C 
BRANCH  19  20
ATOM     20  C   UNL     1       6.978   6.262  -9.110  1.00  0.00    -0.000 C 
BRANCH  20  21
ATOM     21  C   UNL     1       5.691   6.654  -8.380  1.00  0.00    -0.003 C 
ATOM     22  C   UNL     1       4.782   5.453  -8.175  1.00  0.00     0.004 C 
ENDBRANCH  20  21
ENDBRANCH  19  20
ENDBRANCH  18  19
ENDBRANCH  17  18
ENDBRANCH  16  17
ENDBRANCH  12  16
ENDBRANCH   9  12
ENDBRANCH   6   9
ENDBRANCH   3   5
ENDBRANCH   2   3
BRANCH   2  23
ATOM     23  N   UNL     1       1.302  -0.647  -9.335  1.00  0.00    -0.332 N 
ATOM     24  C   UNL     1       2.096  -1.716  -8.747  1.00  0.00     0.147 C 
BRANCH  23  25
ATOM     25  C   UNL     1       0.470  -1.054 -10.501  1.00  0.00     0.174 C 
BRANCH  25  26
ATOM     26  C   UNL     1      -0.233   0.141 -11.186  1.00  0.00     0.038 C 
BRANCH  26  27
ATOM     27  C   UNL     1      -0.149   0.213 -12.727  1.00  0.00    -0.015 C 
ATOM     28  C   UNL     1       1.087  -0.497 -13.279  1.00  0.00     0.007 C 
ATOM     29  C   UNL     1      -1.411  -0.284 -13.427  1.00  0.00     0.007 C 
ENDBRANCH  26  27
ENDBRANCH  25  26
BRANCH  25  30
ATOM     30  C   UNL     1      -0.495  -2.192 -10.094  1.00  0.00     0.243 C 
ATOM     31  O   UNL     1      -0.415  -3.318 -10.583  1.00  0.00    -0.273 OA
ATOM     32  N   UNL     1      -1.444  -1.860  -9.162  1.00  0.00    -0.342 N 
ATOM     33  H   UNL     1      -1.358  -0.951  -8.701  1.00  0.00     0.164 HD
BRANCH  32  34
ATOM     34  C   UNL     1      -2.458  -2.802  -8.679  1.00  0.00     0.175 C 
BRANCH  34  35
ATOM     35  C   UNL     1      -2.749  -2.593  -7.185  1.00  0.00     0.070 C 
BRANCH  35  36
ATOM     36  C   UNL     1      -2.056  -3.610  -6.307  1.00  0.00    -0.045 A 
ATOM     37  C   UNL     1      -2.470  -3.787  -4.977  1.00  0.00     0.007 A 
ATOM     38  C   UNL     1      -0.985  -4.371  -6.794  1.00  0.00     0.007 A 
ATOM     39  C   UNL     1      -1.829  -4.713  -4.155  1.00  0.00     0.046 A 
ATOM     40  C   UNL     1      -0.342  -5.298  -5.970  1.00  0.00     0.046 A 
ATOM     41  C   UNL     1      -0.771  -5.461  -4.657  1.00  0.00     0.115 A 
BRANCH  41  42
ATOM     42  O   UNL     1      -0.169  -6.353  -3.820  1.00  0.00    -0.508 OA
ATOM     43  H   UNL     1      -0.266  -6.030  -2.909  1.00  0.00     0.293 HD
ENDBRANCH  41  42
ENDBRANCH  35  36
ENDBRANCH  34  35
BRANCH  34  44
ATOM     44  C   UNL     1      -3.726  -2.626  -9.545  1.00  0.00     0.243 C 
ATOM     45  O   UNL     1      -3.785  -2.870 -10.747  1.00  0.00    -0.273 OA
ATOM     46  N   UNL     1      -4.774  -2.038  -8.869  1.00  0.00    -0.341 N 
ATOM     47  H   UNL     1      -4.638  -1.746  -7.904  1.00  0.00     0.164 HD
BRANCH  46  48
ATOM     48  C   UNL     1      -6.055  -1.708  -9.498  1.00  0.00     0.196 C 
BRANCH  48  49
ATOM     49  C   UNL     1      -5.852  -1.109 -10.900  1.00  0.00     0.072 C 
BRANCH  49  50
ATOM     50  C   UNL     1      -5.425   0.341 -10.857  1.00  0.00    -0.045 A 
ATOM     51  C   UNL     1      -6.384   1.347 -10.672  1.00  0.00     0.007 A 
ATOM     52  C   UNL     1      -4.081   0.701 -11.020  1.00  0.00     0.007 A 
ATOM     53  C   UNL     1      -6.003   2.689 -10.644  1.00  0.00     0.046 A 
ATOM     54  C   UNL     1      -3.700   2.044 -10.993  1.00  0.00     0.046 A 
ATOM     55  C   UNL     1      -4.665   3.027 -10.803  1.00  0.00     0.115 A 
BRANCH  55  56
ATOM     56  O   UNL     1      -4.335   4.350 -10.771  1.00  0.00    -0.508 OA
ATOM     57  H   UNL     1      -5.126   4.868 -10.986  1.00  0.00     0.293 HD
ENDBRANCH  55  56
ENDBRANCH  49  50
ENDBRANCH  48  49
BRANCH  48  58
ATOM     58  C   UNL     1      -6.903  -2.983  -9.601  1.00  0.00     0.326 C 
ATOM     59  O   UNL     1      -6.530  -4.094  -9.942  1.00  0.00    -0.250 OA
BRANCH  58  60
ATOM     60  O   UNL     1      -8.201  -2.800  -9.250  1.00  0.00    -0.480 OA
ATOM     61  H   UNL     1      -8.676  -3.478  -9.778  1.00  0.00     0.296 HD
ENDBRANCH  58  60
ENDBRANCH  48  58
ENDBRANCH  46  48
ENDBRANCH  34  44
ENDBRANCH  32  34
ENDBRANCH  25  30
ENDBRANCH  23  25
ENDBRANCH   2  23
TORSDOF 28
ENDMDL
MODEL 31
REMARK VINA RESULT:    -6.091      3.120      7.267
REMARK INTER + INTRA:         -19.692
REMARK INTER:                 -15.490
REMARK INTRA:                  -4.202
REMARK UNBOUND:                -4.520
REMARK SMILES CCCCCCC[C@H](N)[C@H](O)C(=O)N[C@H](C)C(=O)N(C)[C@H](CC(C)C)C(=O)N[C@@H](Cc1ccc(O)cc1)C(=O)N[C@@H](Cc1ccc(O)cc1)C(=O)O
REMARK SMILES IDX 18 1 17 2 15 3 16 4 14 5 12 6 13 7 10 9 11 10 8 12 9 13 7 16
REMARK SMILES IDX 6 17 5 18 4 19 3 20 2 21 1 22 19 23 20 24 21 25 22 26 23 27
REMARK SMILES IDX 24 28 25 29 26 30 27 31 28 32 29 34 30 35 31 36 32 37 37 38
REMARK SMILES IDX 33 39 36 40 34 41 35 42 38 44 39 45 40 46 41 48 42 49 43 50
REMARK SMILES IDX 44 51 49 52 45 53 48 54 46 55 47 56 50 58 51 59 52 60
REMARK H PARENT 14 8 11 11 9 14 9 15 28 33 35 43 40 47 47 57 52 61
ROOT
ATOM      1  O   UNL     1      -2.662  -3.369 -10.280  1.00  0.00    -0.272 OA
ATOM      2  C   UNL     1      -3.723  -2.737 -10.169  1.00  0.00     0.245 C 
ENDROOT
BRANCH   2   3
ATOM      3  C   UNL     1      -3.704  -1.208 -10.419  1.00  0.00     0.168 C 
ATOM      4  C   UNL     1      -4.146  -0.887 -11.842  1.00  0.00     0.041 C 
BRANCH   3   5
ATOM      5  N   UNL     1      -4.428  -0.419  -9.435  1.00  0.00    -0.342 N 
ATOM      6  C   UNL     1      -3.946   0.787  -8.971  1.00  0.00     0.251 C 
ATOM      7  O   UNL     1      -2.868   1.260  -9.312  1.00  0.00    -0.272 OA
ATOM      8  H   UNL     1      -5.319  -0.727  -9.051  1.00  0.00     0.164 HD
BRANCH   6   9
ATOM      9  C   UNL     1      -4.941   1.510  -8.049  1.00  0.00     0.219 C 
BRANCH   9  10
ATOM     10  O   UNL     1      -4.307   2.108  -6.912  1.00  0.00    -0.382 OA
ATOM     11  H   UNL     1      -4.305   3.067  -7.128  1.00  0.00     0.211 HD
ENDBRANCH   9  10
BRANCH   9  12
ATOM     12  C   UNL     1      -5.822   2.544  -8.797  1.00  0.00     0.089 C 
BRANCH  12  13
ATOM     13  N   UNL     1      -5.709   2.290 -10.251  1.00  0.00    -0.325 NA
ATOM     14  H   UNL     1      -4.722   2.279 -10.514  1.00  0.00     0.119 HD
ATOM     15  H   UNL     1      -6.112   3.082 -10.758  1.00  0.00     0.119 HD
ENDBRANCH  12  13
BRANCH  12  16
ATOM     16  C   UNL     1      -7.312   2.593  -8.380  1.00  0.00     0.022 C 
BRANCH  16  17
ATOM     17  C   UNL     1      -7.931   3.939  -7.979  1.00  0.00     0.002 C 
BRANCH  17  18
ATOM     18  C   UNL     1      -8.203   4.104  -6.485  1.00  0.00     0.000 C 
BRANCH  18  19
ATOM     19  C   UNL     1      -9.367   5.050  -6.163  1.00  0.00    -0.000 C 
BRANCH  19  20
ATOM     20  C   UNL     1     -10.732   4.373  -6.009  1.00  0.00    -0.000 C 
BRANCH  20  21
ATOM     21  C   UNL     1     -11.827   5.032  -6.851  1.00  0.00    -0.003 C 
ATOM     22  C   UNL     1     -11.956   4.367  -8.212  1.00  0.00     0.004 C 
ENDBRANCH  20  21
ENDBRANCH  19  20
ENDBRANCH  18  19
ENDBRANCH  17  18
ENDBRANCH  16  17
ENDBRANCH  12  16
ENDBRANCH   9  12
ENDBRANCH   6   9
ENDBRANCH   3   5
ENDBRANCH   2   3
BRANCH   2  23
ATOM     23  N   UNL     1      -4.917  -3.414  -9.946  1.00  0.00    -0.332 N 
ATOM     24  C   UNL     1      -5.733  -4.014 -10.991  1.00  0.00     0.147 C 
BRANCH  23  25
ATOM     25  C   UNL     1      -5.379  -3.684  -8.557  1.00  0.00     0.174 C 
BRANCH  25  26
ATOM     26  C   UNL     1      -6.833  -3.218  -8.305  1.00  0.00     0.038 C 
BRANCH  26  27
ATOM     27  C   UNL     1      -7.169  -1.752  -8.656  1.00  0.00    -0.015 C 
ATOM     28  C   UNL     1      -8.028  -1.634  -9.914  1.00  0.00     0.007 C 
ATOM     29  C   UNL     1      -7.801  -0.981  -7.500  1.00  0.00     0.007 C 
ENDBRANCH  26  27
ENDBRANCH  25  26
BRANCH  25  30
ATOM     30  C   UNL     1      -4.361  -3.120  -7.538  1.00  0.00     0.243 C 
ATOM     31  O   UNL     1      -4.637  -2.178  -6.797  1.00  0.00    -0.273 OA
ATOM     32  N   UNL     1      -3.136  -3.735  -7.523  1.00  0.00    -0.342 N 
ATOM     33  H   UNL     1      -3.031  -4.596  -8.065  1.00  0.00     0.164 HD
BRANCH  32  34
ATOM     34  C   UNL     1      -2.041  -3.317  -6.643  1.00  0.00     0.175 C 
BRANCH  34  35
ATOM     35  C   UNL     1      -1.034  -4.458  -6.424  1.00  0.00     0.070 C 
BRANCH  35  36
ATOM     36  C   UNL     1      -1.097  -5.032  -5.027  1.00  0.00    -0.045 A 
ATOM     37  C   UNL     1      -2.243  -4.840  -4.239  1.00  0.00     0.007 A 
ATOM     38  C   UNL     1      -0.014  -5.740  -4.491  1.00  0.00     0.007 A 
ATOM     39  C   UNL     1      -2.305  -5.354  -2.944  1.00  0.00     0.046 A 
ATOM     40  C   UNL     1      -0.074  -6.255  -3.193  1.00  0.00     0.046 A 
ATOM     41  C   UNL     1      -1.221  -6.058  -2.432  1.00  0.00     0.115 A 
BRANCH  41  42
ATOM     42  O   UNL     1      -1.321  -6.541  -1.161  1.00  0.00    -0.508 OA
ATOM     43  H   UNL     1      -0.938  -7.434  -1.144  1.00  0.00     0.293 HD
ENDBRANCH  41  42
ENDBRANCH  35  36
ENDBRANCH  34  35
BRANCH  34  44
ATOM     44  C   UNL     1      -1.374  -2.071  -7.268  1.00  0.00     0.243 C 
ATOM     45  O   UNL     1      -1.656  -0.913  -6.974  1.00  0.00    -0.273 OA
ATOM     46  N   UNL     1      -0.507  -2.370  -8.297  1.00  0.00    -0.341 N 
ATOM     47  H   UNL     1      -0.394  -3.340  -8.582  1.00  0.00     0.164 HD
BRANCH  46  48
ATOM     48  C   UNL     1       0.191  -1.352  -9.085  1.00  0.00     0.196 C 
BRANCH  48  49
ATOM     49  C   UNL     1       1.691  -1.313  -8.748  1.00  0.00     0.072 C 
BRANCH  49  50
ATOM     50  C   UNL     1       2.141   0.041  -8.248  1.00  0.00    -0.045 A 
ATOM     51  C   UNL     1       1.818   0.448  -6.945  1.00  0.00     0.007 A 
ATOM     52  C   UNL     1       2.861   0.912  -9.075  1.00  0.00     0.007 A 
ATOM     53  C   UNL     1       2.216   1.700  -6.477  1.00  0.00     0.046 A 
ATOM     54  C   UNL     1       3.258   2.166  -8.607  1.00  0.00     0.046 A 
ATOM     55  C   UNL     1       2.933   2.549  -7.311  1.00  0.00     0.115 A 
BRANCH  55  56
ATOM     56  O   UNL     1       3.301   3.766  -6.816  1.00  0.00    -0.508 OA
ATOM     57  H   UNL     1       2.836   3.908  -5.977  1.00  0.00     0.293 HD
ENDBRANCH  55  56
ENDBRANCH  49  50
ENDBRANCH  48  49
BRANCH  48  58
ATOM     58  C   UNL     1       0.006  -1.661 -10.577  1.00  0.00     0.326 C 
ATOM     59  O   UNL     1      -0.091  -0.859 -11.492  1.00  0.00    -0.250 OA
BRANCH  58  60
ATOM     60  O   UNL     1      -0.033  -2.989 -10.854  1.00  0.00    -0.480 OA
ATOM     61  H   UNL     1       0.899  -3.200 -11.079  1.00  0.00     0.296 HD
ENDBRANCH  58  60
ENDBRANCH  48  58
ENDBRANCH  46  48
ENDBRANCH  34  44
ENDBRANCH  32  34
ENDBRANCH  25  30
ENDBRANCH  23  25
ENDBRANCH   2  23
TORSDOF 28
ENDMDL
MODEL 32
REMARK VINA RESULT:    -6.082      2.909     10.513
REMARK INTER + INTRA:         -19.668
REMARK INTER:                 -16.690
REMARK INTRA:                  -2.978
REMARK UNBOUND:                -4.520
REMARK SMILES CCCCCCC[C@H](N)[C@H](O)C(=O)N[C@H](C)C(=O)N(C)[C@H](CC(C)C)C(=O)N[C@@H](Cc1ccc(O)cc1)C(=O)N[C@@H](Cc1ccc(O)cc1)C(=O)O
REMARK SMILES IDX 18 1 17 2 15 3 16 4 14 5 12 6 13 7 10 9 11 10 8 12 9 13 7 16
REMARK SMILES IDX 6 17 5 18 4 19 3 20 2 21 1 22 19 23 20 24 21 25 22 26 23 27
REMARK SMILES IDX 24 28 25 29 26 30 27 31 28 32 29 34 30 35 31 36 32 37 37 38
REMARK SMILES IDX 33 39 36 40 34 41 35 42 38 44 39 45 40 46 41 48 42 49 43 50
REMARK SMILES IDX 44 51 49 52 45 53 48 54 46 55 47 56 50 58 51 59 52 60
REMARK H PARENT 14 8 11 11 9 14 9 15 28 33 35 43 40 47 47 57 52 61
ROOT
ATOM      1  O   UNL     1       2.444   0.284 -13.769  1.00  0.00    -0.272 OA
ATOM      2  C   UNL     1       2.759   0.346 -12.571  1.00  0.00     0.245 C 
ENDROOT
BRANCH   2   3
ATOM      3  C   UNL     1       4.214   0.733 -12.208  1.00  0.00     0.168 C 
ATOM      4  C   UNL     1       5.190   0.225 -13.264  1.00  0.00     0.041 C 
BRANCH   3   5
ATOM      5  N   UNL     1       4.417   2.143 -11.916  1.00  0.00    -0.342 N 
ATOM      6  C   UNL     1       4.557   2.607 -10.625  1.00  0.00     0.251 C 
ATOM      7  O   UNL     1       4.482   1.886  -9.635  1.00  0.00    -0.272 OA
ATOM      8  H   UNL     1       4.462   2.842 -12.654  1.00  0.00     0.164 HD
BRANCH   6   9
ATOM      9  C   UNL     1       4.903   4.104 -10.565  1.00  0.00     0.219 C 
BRANCH   9  10
ATOM     10  O   UNL     1       4.279   4.771  -9.461  1.00  0.00    -0.382 OA
ATOM     11  H   UNL     1       3.569   4.151  -9.188  1.00  0.00     0.211 HD
ENDBRANCH   9  10
BRANCH   9  12
ATOM     12  C   UNL     1       6.430   4.377 -10.582  1.00  0.00     0.089 C 
BRANCH  12  13
ATOM     13  N   UNL     1       6.984   3.853 -11.852  1.00  0.00    -0.325 NA
ATOM     14  H   UNL     1       6.221   3.492 -12.428  1.00  0.00     0.119 HD
ATOM     15  H   UNL     1       7.571   3.041 -11.646  1.00  0.00     0.119 HD
ENDBRANCH  12  13
BRANCH  12  16
ATOM     16  C   UNL     1       6.857   5.851 -10.385  1.00  0.00     0.022 C 
BRANCH  16  17
ATOM     17  C   UNL     1       7.639   6.239  -9.122  1.00  0.00     0.002 C 
BRANCH  17  18
ATOM     18  C   UNL     1       9.079   5.734  -9.075  1.00  0.00     0.000 C 
BRANCH  18  19
ATOM     19  C   UNL     1      10.078   6.747  -8.502  1.00  0.00    -0.000 C 
BRANCH  19  20
ATOM     20  C   UNL     1      10.915   6.240  -7.323  1.00  0.00    -0.000 C 
BRANCH  20  21
ATOM     21  C   UNL     1      10.135   5.308  -6.392  1.00  0.00    -0.003 C 
ATOM     22  C   UNL     1       9.630   6.049  -5.163  1.00  0.00     0.004 C 
ENDBRANCH  20  21
ENDBRANCH  19  20
ENDBRANCH  18  19
ENDBRANCH  17  18
ENDBRANCH  16  17
ENDBRANCH  12  16
ENDBRANCH   9  12
ENDBRANCH   6   9
ENDBRANCH   3   5
ENDBRANCH   2   3
BRANCH   2  23
ATOM     23  N   UNL     1       1.788   0.191 -11.587  1.00  0.00    -0.332 N 
ATOM     24  C   UNL     1       2.060  -0.215 -10.216  1.00  0.00     0.147 C 
BRANCH  23  25
ATOM     25  C   UNL     1       0.375   0.570 -11.860  1.00  0.00     0.174 C 
BRANCH  25  26
ATOM     26  C   UNL     1       0.045   2.017 -11.426  1.00  0.00     0.038 C 
BRANCH  26  27
ATOM     27  C   UNL     1      -0.252   3.035 -12.550  1.00  0.00    -0.015 C 
ATOM     28  C   UNL     1       1.020   3.651 -13.132  1.00  0.00     0.007 C 
ATOM     29  C   UNL     1      -1.134   2.472 -13.662  1.00  0.00     0.007 C 
ENDBRANCH  26  27
ENDBRANCH  25  26
BRANCH  25  30
ATOM     30  C   UNL     1      -0.584  -0.490 -11.271  1.00  0.00     0.243 C 
ATOM     31  O   UNL     1      -0.515  -1.677 -11.588  1.00  0.00    -0.273 OA
ATOM     32  N   UNL     1      -1.514  -0.019 -10.380  1.00  0.00    -0.342 N 
ATOM     33  H   UNL     1      -1.417   0.949 -10.062  1.00  0.00     0.164 HD
BRANCH  32  34
ATOM     34  C   UNL     1      -2.519  -0.874  -9.743  1.00  0.00     0.175 C 
BRANCH  34  35
ATOM     35  C   UNL     1      -3.364  -1.617 -10.789  1.00  0.00     0.070 C 
BRANCH  35  36
ATOM     36  C   UNL     1      -4.795  -1.825 -10.345  1.00  0.00    -0.045 A 
ATOM     37  C   UNL     1      -5.221  -3.092  -9.920  1.00  0.00     0.007 A 
ATOM     38  C   UNL     1      -5.716  -0.770 -10.372  1.00  0.00     0.007 A 
ATOM     39  C   UNL     1      -6.542  -3.297  -9.522  1.00  0.00     0.046 A 
ATOM     40  C   UNL     1      -7.040  -0.974  -9.974  1.00  0.00     0.046 A 
ATOM     41  C   UNL     1      -7.440  -2.237  -9.551  1.00  0.00     0.115 A 
BRANCH  41  42
ATOM     42  O   UNL     1      -8.723  -2.479  -9.157  1.00  0.00    -0.508 OA
ATOM     43  H   UNL     1      -9.219  -1.646  -9.206  1.00  0.00     0.293 HD
ENDBRANCH  41  42
ENDBRANCH  35  36
ENDBRANCH  34  35
BRANCH  34  44
ATOM     44  C   UNL     1      -1.786  -1.848  -8.794  1.00  0.00     0.243 C 
ATOM     45  O   UNL     1      -1.120  -1.502  -7.823  1.00  0.00    -0.273 OA
ATOM     46  N   UNL     1      -1.837  -3.162  -9.210  1.00  0.00    -0.341 N 
ATOM     47  H   UNL     1      -2.304  -3.385 -10.086  1.00  0.00     0.164 HD
BRANCH  46  48
ATOM     48  C   UNL     1      -1.160  -4.256  -8.511  1.00  0.00     0.196 C 
BRANCH  48  49
ATOM     49  C   UNL     1      -2.147  -5.074  -7.662  1.00  0.00     0.072 C 
BRANCH  49  50
ATOM     50  C   UNL     1      -1.648  -5.311  -6.255  1.00  0.00    -0.045 A 
ATOM     51  C   UNL     1      -2.556  -5.344  -5.187  1.00  0.00     0.007 A 
ATOM     52  C   UNL     1      -0.282  -5.479  -5.994  1.00  0.00     0.007 A 
ATOM     53  C   UNL     1      -2.105  -5.549  -3.883  1.00  0.00     0.046 A 
ATOM     54  C   UNL     1       0.170  -5.683  -4.688  1.00  0.00     0.046 A 
ATOM     55  C   UNL     1      -0.747  -5.717  -3.643  1.00  0.00     0.115 A 
BRANCH  55  56
ATOM     56  O   UNL     1      -0.347  -5.913  -2.354  1.00  0.00    -0.508 OA
ATOM     57  H   UNL     1      -0.816  -5.278  -1.789  1.00  0.00     0.293 HD
ENDBRANCH  55  56
ENDBRANCH  49  50
ENDBRANCH  48  49
BRANCH  48  58
ATOM     58  C   UNL     1      -0.489  -5.171  -9.545  1.00  0.00     0.326 C 
ATOM     59  O   UNL     1      -0.011  -6.277  -9.353  1.00  0.00    -0.250 OA
BRANCH  58  60
ATOM     60  O   UNL     1      -0.464  -4.646 -10.796  1.00  0.00    -0.480 OA
ATOM     61  H   UNL     1       0.115  -5.266 -11.290  1.00  0.00     0.296 HD
ENDBRANCH  58  60
ENDBRANCH  48  58
ENDBRANCH  46  48
ENDBRANCH  34  44
ENDBRANCH  32  34
ENDBRANCH  25  30
ENDBRANCH  23  25
ENDBRANCH   2  23
TORSDOF 28
ENDMDL
MODEL 33
REMARK VINA RESULT:    -6.069      2.947      7.916
REMARK INTER + INTRA:         -19.636
REMARK INTER:                 -14.531
REMARK INTRA:                  -5.106
REMARK UNBOUND:                -4.520
REMARK SMILES CCCCCCC[C@H](N)[C@H](O)C(=O)N[C@H](C)C(=O)N(C)[C@H](CC(C)C)C(=O)N[C@@H](Cc1ccc(O)cc1)C(=O)N[C@@H](Cc1ccc(O)cc1)C(=O)O
REMARK SMILES IDX 18 1 17 2 15 3 16 4 14 5 12 6 13 7 10 9 11 10 8 12 9 13 7 16
REMARK SMILES IDX 6 17 5 18 4 19 3 20 2 21 1 22 19 23 20 24 21 25 22 26 23 27
REMARK SMILES IDX 24 28 25 29 26 30 27 31 28 32 29 34 30 35 31 36 32 37 37 38
REMARK SMILES IDX 33 39 36 40 34 41 35 42 38 44 39 45 40 46 41 48 42 49 43 50
REMARK SMILES IDX 44 51 49 52 45 53 48 54 46 55 47 56 50 58 51 59 52 60
REMARK H PARENT 14 8 11 11 9 14 9 15 28 33 35 43 40 47 47 57 52 61
ROOT
ATOM      1  O   UNL     1       0.819  -2.022 -10.081  1.00  0.00    -0.272 OA
ATOM      2  C   UNL     1      -0.398  -1.882 -10.272  1.00  0.00     0.245 C 
ENDROOT
BRANCH   2   3
ATOM      3  C   UNL     1      -1.371  -2.907  -9.637  1.00  0.00     0.168 C 
ATOM      4  C   UNL     1      -1.343  -4.226 -10.401  1.00  0.00     0.041 C 
BRANCH   3   5
ATOM      5  N   UNL     1      -1.202  -3.105  -8.206  1.00  0.00    -0.342 N 
ATOM      6  C   UNL     1      -2.210  -3.618  -7.418  1.00  0.00     0.251 C 
ATOM      7  O   UNL     1      -3.324  -3.903  -7.845  1.00  0.00    -0.272 OA
ATOM      8  H   UNL     1      -0.332  -2.872  -7.732  1.00  0.00     0.164 HD
BRANCH   6   9
ATOM      9  C   UNL     1      -1.760  -3.873  -5.970  1.00  0.00     0.219 C 
BRANCH   9  10
ATOM     10  O   UNL     1      -2.746  -3.478  -5.008  1.00  0.00    -0.382 OA
ATOM     11  H   UNL     1      -2.285  -2.796  -4.472  1.00  0.00     0.211 HD
ENDBRANCH   9  10
BRANCH   9  12
ATOM     12  C   UNL     1      -1.304  -5.335  -5.723  1.00  0.00     0.089 C 
BRANCH  12  13
ATOM     13  N   UNL     1      -0.958  -5.943  -7.028  1.00  0.00    -0.325 NA
ATOM     14  H   UNL     1      -1.387  -6.868  -7.092  1.00  0.00     0.119 HD
ATOM     15  H   UNL     1       0.050  -6.114  -7.056  1.00  0.00     0.119 HD
ENDBRANCH  12  13
BRANCH  12  16
ATOM     16  C   UNL     1      -0.138  -5.521  -4.723  1.00  0.00     0.022 C 
BRANCH  16  17
ATOM     17  C   UNL     1      -0.440  -6.044  -3.312  1.00  0.00     0.002 C 
BRANCH  17  18
ATOM     18  C   UNL     1      -1.924  -6.132  -2.961  1.00  0.00     0.000 C 
BRANCH  18  19
ATOM     19  C   UNL     1      -2.313  -5.363  -1.692  1.00  0.00    -0.000 C 
BRANCH  19  20
ATOM     20  C   UNL     1      -2.022  -3.860  -1.729  1.00  0.00    -0.000 C 
BRANCH  20  21
ATOM     21  C   UNL     1      -3.097  -3.024  -1.029  1.00  0.00    -0.003 C 
ATOM     22  C   UNL     1      -3.621  -1.922  -1.936  1.00  0.00     0.004 C 
ENDBRANCH  20  21
ENDBRANCH  19  20
ENDBRANCH  18  19
ENDBRANCH  17  18
ENDBRANCH  16  17
ENDBRANCH  12  16
ENDBRANCH   9  12
ENDBRANCH   6   9
ENDBRANCH   3   5
ENDBRANCH   2   3
BRANCH   2  23
ATOM     23  N   UNL     1      -0.873  -0.757 -10.939  1.00  0.00    -0.332 N 
ATOM     24  C   UNL     1      -1.310  -0.743 -12.327  1.00  0.00     0.147 C 
BRANCH  23  25
ATOM     25  C   UNL     1      -1.086   0.519 -10.202  1.00  0.00     0.174 C 
BRANCH  25  26
ATOM     26  C   UNL     1      -0.718   0.417  -8.703  1.00  0.00     0.038 C 
BRANCH  26  27
ATOM     27  C   UNL     1       0.598   1.094  -8.258  1.00  0.00    -0.015 C 
ATOM     28  C   UNL     1       0.370   2.493  -7.685  1.00  0.00     0.007 C 
ATOM     29  C   UNL     1       1.421   0.245  -7.291  1.00  0.00     0.007 C 
ENDBRANCH  26  27
ENDBRANCH  25  26
BRANCH  25  30
ATOM     30  C   UNL     1      -2.516   1.047 -10.456  1.00  0.00     0.243 C 
ATOM     31  O   UNL     1      -2.727   2.057 -11.126  1.00  0.00    -0.273 OA
ATOM     32  N   UNL     1      -3.528   0.321  -9.881  1.00  0.00    -0.342 N 
ATOM     33  H   UNL     1      -3.285  -0.579  -9.460  1.00  0.00     0.164 HD
BRANCH  32  34
ATOM     34  C   UNL     1      -4.942   0.689  -9.993  1.00  0.00     0.175 C 
BRANCH  34  35
ATOM     35  C   UNL     1      -5.650  -0.139 -11.076  1.00  0.00     0.070 C 
BRANCH  35  36
ATOM     36  C   UNL     1      -6.002  -1.534 -10.610  1.00  0.00    -0.045 A 
ATOM     37  C   UNL     1      -7.232  -1.774  -9.980  1.00  0.00     0.007 A 
ATOM     38  C   UNL     1      -5.103  -2.595 -10.777  1.00  0.00     0.007 A 
ATOM     39  C   UNL     1      -7.559  -3.055  -9.534  1.00  0.00     0.046 A 
ATOM     40  C   UNL     1      -5.429  -3.878 -10.330  1.00  0.00     0.046 A 
ATOM     41  C   UNL     1      -6.656  -4.096  -9.713  1.00  0.00     0.115 A 
BRANCH  41  42
ATOM     42  O   UNL     1      -7.013  -5.332  -9.260  1.00  0.00    -0.508 OA
ATOM     43  H   UNL     1      -7.662  -5.707  -9.879  1.00  0.00     0.293 HD
ENDBRANCH  41  42
ENDBRANCH  35  36
ENDBRANCH  34  35
BRANCH  34  44
ATOM     44  C   UNL     1      -5.596   0.504  -8.605  1.00  0.00     0.243 C 
ATOM     45  O   UNL     1      -6.626   1.065  -8.243  1.00  0.00    -0.273 OA
ATOM     46  N   UNL     1      -4.841  -0.260  -7.740  1.00  0.00    -0.341 N 
ATOM     47  H   UNL     1      -3.936  -0.608  -8.049  1.00  0.00     0.164 HD
BRANCH  46  48
ATOM     48  C   UNL     1      -5.223  -0.518  -6.350  1.00  0.00     0.196 C 
BRANCH  48  49
ATOM     49  C   UNL     1      -5.650  -1.981  -6.148  1.00  0.00     0.072 C 
BRANCH  49  50
ATOM     50  C   UNL     1      -7.030  -2.106  -5.543  1.00  0.00    -0.045 A 
ATOM     51  C   UNL     1      -7.181  -2.614  -4.245  1.00  0.00     0.007 A 
ATOM     52  C   UNL     1      -8.171  -1.741  -6.269  1.00  0.00     0.007 A 
ATOM     53  C   UNL     1      -8.450  -2.747  -3.681  1.00  0.00     0.046 A 
ATOM     54  C   UNL     1      -9.442  -1.875  -5.706  1.00  0.00     0.046 A 
ATOM     55  C   UNL     1      -9.570  -2.376  -4.415  1.00  0.00     0.115 A 
BRANCH  55  56
ATOM     56  O   UNL     1     -10.793  -2.523  -3.829  1.00  0.00    -0.508 OA
ATOM     57  H   UNL     1     -10.701  -2.340  -2.880  1.00  0.00     0.293 HD
ENDBRANCH  55  56
ENDBRANCH  49  50
ENDBRANCH  48  49
BRANCH  48  58
ATOM     58  C   UNL     1      -4.030  -0.199  -5.438  1.00  0.00     0.326 C 
ATOM     59  O   UNL     1      -2.866  -0.526  -5.603  1.00  0.00    -0.250 OA
BRANCH  58  60
ATOM     60  O   UNL     1      -4.363   0.540  -4.350  1.00  0.00    -0.480 OA
ATOM     61  H   UNL     1      -3.568   1.098  -4.204  1.00  0.00     0.296 HD
ENDBRANCH  58  60
ENDBRANCH  48  58
ENDBRANCH  46  48
ENDBRANCH  34  44
ENDBRANCH  32  34
ENDBRANCH  25  30
ENDBRANCH  23  25
ENDBRANCH   2  23
TORSDOF 28
ENDMDL
MODEL 34
REMARK VINA RESULT:    -6.040      2.734      8.404
REMARK INTER + INTRA:         -19.565
REMARK INTER:                 -12.883
REMARK INTRA:                  -6.682
REMARK UNBOUND:                -4.520
REMARK SMILES CCCCCCC[C@H](N)[C@H](O)C(=O)N[C@H](C)C(=O)N(C)[C@H](CC(C)C)C(=O)N[C@@H](Cc1ccc(O)cc1)C(=O)N[C@@H](Cc1ccc(O)cc1)C(=O)O
REMARK SMILES IDX 18 1 17 2 15 3 16 4 14 5 12 6 13 7 10 9 11 10 8 12 9 13 7 16
REMARK SMILES IDX 6 17 5 18 4 19 3 20 2 21 1 22 19 23 20 24 21 25 22 26 23 27
REMARK SMILES IDX 24 28 25 29 26 30 27 31 28 32 29 34 30 35 31 36 32 37 37 38
REMARK SMILES IDX 33 39 36 40 34 41 35 42 38 44 39 45 40 46 41 48 42 49 43 50
REMARK SMILES IDX 44 51 49 52 45 53 48 54 46 55 47 56 50 58 51 59 52 60
REMARK H PARENT 14 8 11 11 9 14 9 15 28 33 35 43 40 47 47 57 52 61
ROOT
ATOM      1  O   UNL     1       0.076   3.211  -9.526  1.00  0.00    -0.272 OA
ATOM      2  C   UNL     1      -0.656   2.223  -9.689  1.00  0.00     0.245 C 
ENDROOT
BRANCH   2   3
ATOM      3  C   UNL     1      -2.031   2.424 -10.374  1.00  0.00     0.168 C 
ATOM      4  C   UNL     1      -1.970   2.015 -11.842  1.00  0.00     0.041 C 
BRANCH   3   5
ATOM      5  N   UNL     1      -3.153   1.806  -9.685  1.00  0.00    -0.342 N 
ATOM      6  C   UNL     1      -4.126   2.556  -9.061  1.00  0.00     0.251 C 
ATOM      7  O   UNL     1      -4.102   3.781  -9.001  1.00  0.00    -0.272 OA
ATOM      8  H   UNL     1      -3.261   0.795  -9.637  1.00  0.00     0.164 HD
BRANCH   6   9
ATOM      9  C   UNL     1      -5.285   1.699  -8.525  1.00  0.00     0.219 C 
BRANCH   9  10
ATOM     10  O   UNL     1      -5.142   0.311  -8.852  1.00  0.00    -0.382 OA
ATOM     11  H   UNL     1      -4.877  -0.101  -8.000  1.00  0.00     0.211 HD
ENDBRANCH   9  10
BRANCH   9  12
ATOM     12  C   UNL     1      -5.527   1.885  -7.004  1.00  0.00     0.089 C 
BRANCH  12  13
ATOM     13  N   UNL     1      -6.959   1.635  -6.725  1.00  0.00    -0.325 NA
ATOM     14  H   UNL     1      -7.442   2.530  -6.621  1.00  0.00     0.119 HD
ATOM     15  H   UNL     1      -7.045   1.178  -5.814  1.00  0.00     0.119 HD
ENDBRANCH  12  13
BRANCH  12  16
ATOM     16  C   UNL     1      -4.645   1.024  -6.067  1.00  0.00     0.022 C 
BRANCH  16  17
ATOM     17  C   UNL     1      -3.399   1.653  -5.429  1.00  0.00     0.002 C 
BRANCH  17  18
ATOM     18  C   UNL     1      -2.445   0.662  -4.765  1.00  0.00     0.000 C 
BRANCH  18  19
ATOM     19  C   UNL     1      -3.048  -0.731  -4.541  1.00  0.00    -0.000 C 
BRANCH  19  20
ATOM     20  C   UNL     1      -3.682  -0.952  -3.165  1.00  0.00    -0.000 C 
BRANCH  20  21
ATOM     21  C   UNL     1      -4.892  -1.889  -3.205  1.00  0.00    -0.003 C 
ATOM     22  C   UNL     1      -6.178  -1.124  -3.478  1.00  0.00     0.004 C 
ENDBRANCH  20  21
ENDBRANCH  19  20
ENDBRANCH  18  19
ENDBRANCH  17  18
ENDBRANCH  16  17
ENDBRANCH  12  16
ENDBRANCH   9  12
ENDBRANCH   6   9
ENDBRANCH   3   5
ENDBRANCH   2   3
BRANCH   2  23
ATOM     23  N   UNL     1      -0.189   0.952  -9.372  1.00  0.00    -0.332 N 
ATOM     24  C   UNL     1       0.578   0.105 -10.274  1.00  0.00     0.147 C 
BRANCH  23  25
ATOM     25  C   UNL     1      -0.346   0.416  -7.992  1.00  0.00     0.174 C 
BRANCH  25  26
ATOM     26  C   UNL     1       1.004   0.235  -7.259  1.00  0.00     0.038 C 
BRANCH  26  27
ATOM     27  C   UNL     1       1.669   1.508  -6.690  1.00  0.00    -0.015 C 
ATOM     28  C   UNL     1       2.173   1.315  -5.261  1.00  0.00     0.007 C 
ATOM     29  C   UNL     1       2.777   2.064  -7.581  1.00  0.00     0.007 C 
ENDBRANCH  26  27
ENDBRANCH  25  26
BRANCH  25  30
ATOM     30  C   UNL     1      -1.219  -0.859  -8.013  1.00  0.00     0.243 C 
ATOM     31  O   UNL     1      -2.447  -0.806  -8.067  1.00  0.00    -0.273 OA
ATOM     32  N   UNL     1      -0.535  -2.047  -7.961  1.00  0.00    -0.342 N 
ATOM     33  H   UNL     1       0.483  -2.012  -8.061  1.00  0.00     0.164 HD
BRANCH  32  34
ATOM     34  C   UNL     1      -1.198  -3.354  -7.944  1.00  0.00     0.175 C 
BRANCH  34  35
ATOM     35  C   UNL     1      -2.237  -3.439  -6.815  1.00  0.00     0.070 C 
BRANCH  35  36
ATOM     36  C   UNL     1      -1.743  -4.229  -5.625  1.00  0.00    -0.045 A 
ATOM     37  C   UNL     1      -0.545  -4.954  -5.712  1.00  0.00     0.007 A 
ATOM     38  C   UNL     1      -2.478  -4.269  -4.433  1.00  0.00     0.007 A 
ATOM     39  C   UNL     1      -0.088  -5.697  -4.623  1.00  0.00     0.046 A 
ATOM     40  C   UNL     1      -2.022  -5.014  -3.343  1.00  0.00     0.046 A 
ATOM     41  C   UNL     1      -0.829  -5.721  -3.448  1.00  0.00     0.115 A 
BRANCH  41  42
ATOM     42  O   UNL     1      -0.349  -6.462  -2.409  1.00  0.00    -0.508 OA
ATOM     43  H   UNL     1      -0.775  -6.153  -1.592  1.00  0.00     0.293 HD
ENDBRANCH  41  42
ENDBRANCH  35  36
ENDBRANCH  34  35
BRANCH  34  44
ATOM     44  C   UNL     1      -1.835  -3.585  -9.333  1.00  0.00     0.243 C 
ATOM     45  O   UNL     1      -1.208  -3.907 -10.339  1.00  0.00    -0.273 OA
ATOM     46  N   UNL     1      -3.176  -3.269  -9.382  1.00  0.00    -0.341 N 
ATOM     47  H   UNL     1      -3.626  -2.895  -8.550  1.00  0.00     0.164 HD
BRANCH  46  48
ATOM     48  C   UNL     1      -3.978  -3.343 -10.605  1.00  0.00     0.196 C 
BRANCH  48  49
ATOM     49  C   UNL     1      -5.352  -3.980 -10.337  1.00  0.00     0.072 C 
BRANCH  49  50
ATOM     50  C   UNL     1      -6.169  -3.197  -9.334  1.00  0.00    -0.045 A 
ATOM     51  C   UNL     1      -5.697  -3.032  -8.024  1.00  0.00     0.007 A 
ATOM     52  C   UNL     1      -7.409  -2.648  -9.686  1.00  0.00     0.007 A 
ATOM     53  C   UNL     1      -6.448  -2.323  -7.087  1.00  0.00     0.046 A 
ATOM     54  C   UNL     1      -8.162  -1.940  -8.747  1.00  0.00     0.046 A 
ATOM     55  C   UNL     1      -7.674  -1.782  -7.455  1.00  0.00     0.115 A 
BRANCH  55  56
ATOM     56  O   UNL     1      -8.379  -1.099  -6.508  1.00  0.00    -0.508 OA
ATOM     57  H   UNL     1      -8.185  -1.489  -5.641  1.00  0.00     0.293 HD
ENDBRANCH  55  56
ENDBRANCH  49  50
ENDBRANCH  48  49
BRANCH  48  58
ATOM     58  C   UNL     1      -4.167  -1.927 -11.165  1.00  0.00     0.326 C 
ATOM     59  O   UNL     1      -4.971  -1.566 -12.009  1.00  0.00    -0.250 OA
BRANCH  58  60
ATOM     60  O   UNL     1      -3.329  -1.011 -10.615  1.00  0.00    -0.480 OA
ATOM     61  H   UNL     1      -3.826  -0.693  -9.830  1.00  0.00     0.296 HD
ENDBRANCH  58  60
ENDBRANCH  48  58
ENDBRANCH  46  48
ENDBRANCH  34  44
ENDBRANCH  32  34
ENDBRANCH  25  30
ENDBRANCH  23  25
ENDBRANCH   2  23
TORSDOF 28
ENDMDL
MODEL 35
REMARK VINA RESULT:    -6.034      2.258      8.740
REMARK INTER + INTRA:         -19.549
REMARK INTER:                 -14.963
REMARK INTRA:                  -4.586
REMARK UNBOUND:                -4.520
REMARK SMILES CCCCCCC[C@H](N)[C@H](O)C(=O)N[C@H](C)C(=O)N(C)[C@H](CC(C)C)C(=O)N[C@@H](Cc1ccc(O)cc1)C(=O)N[C@@H](Cc1ccc(O)cc1)C(=O)O
REMARK SMILES IDX 18 1 17 2 15 3 16 4 14 5 12 6 13 7 10 9 11 10 8 12 9 13 7 16
REMARK SMILES IDX 6 17 5 18 4 19 3 20 2 21 1 22 19 23 20 24 21 25 22 26 23 27
REMARK SMILES IDX 24 28 25 29 26 30 27 31 28 32 29 34 30 35 31 36 32 37 37 38
REMARK SMILES IDX 33 39 36 40 34 41 35 42 38 44 39 45 40 46 41 48 42 49 43 50
REMARK SMILES IDX 44 51 49 52 45 53 48 54 46 55 47 56 50 58 51 59 52 60
REMARK H PARENT 14 8 11 11 9 14 9 15 28 33 35 43 40 47 47 57 52 61
ROOT
ATOM      1  O   UNL     1      -1.555   3.009 -12.841  1.00  0.00    -0.272 OA
ATOM      2  C   UNL     1      -1.849   2.001 -12.182  1.00  0.00     0.245 C 
ENDROOT
BRANCH   2   3
ATOM      3  C   UNL     1      -1.032   0.704 -12.407  1.00  0.00     0.168 C 
ATOM      4  C   UNL     1      -1.554  -0.061 -13.619  1.00  0.00     0.041 C 
BRANCH   3   5
ATOM      5  N   UNL     1       0.409   0.892 -12.465  1.00  0.00    -0.342 N 
ATOM      6  C   UNL     1       1.287  -0.068 -12.006  1.00  0.00     0.251 C 
ATOM      7  O   UNL     1       0.929  -1.118 -11.485  1.00  0.00    -0.272 OA
ATOM      8  H   UNL     1       0.825   1.739 -12.845  1.00  0.00     0.164 HD
BRANCH   6   9
ATOM      9  C   UNL     1       2.756   0.283 -12.297  1.00  0.00     0.219 C 
BRANCH   9  10
ATOM     10  O   UNL     1       2.953   0.777 -13.627  1.00  0.00    -0.382 OA
ATOM     11  H   UNL     1       3.316   1.679 -13.487  1.00  0.00     0.211 HD
ENDBRANCH   9  10
BRANCH   9  12
ATOM     12  C   UNL     1       3.369   1.251 -11.253  1.00  0.00     0.089 C 
BRANCH  12  13
ATOM     13  N   UNL     1       4.400   0.518 -10.484  1.00  0.00    -0.325 NA
ATOM     14  H   UNL     1       4.238   0.660  -9.485  1.00  0.00     0.119 HD
ATOM     15  H   UNL     1       5.313   0.939 -10.669  1.00  0.00     0.119 HD
ENDBRANCH  12  13
BRANCH  12  16
ATOM     16  C   UNL     1       3.960   2.567 -11.814  1.00  0.00     0.022 C 
BRANCH  16  17
ATOM     17  C   UNL     1       3.814   3.859 -10.998  1.00  0.00     0.002 C 
BRANCH  17  18
ATOM     18  C   UNL     1       4.790   3.998  -9.831  1.00  0.00     0.000 C 
BRANCH  18  19
ATOM     19  C   UNL     1       4.146   4.510  -8.536  1.00  0.00    -0.000 C 
BRANCH  19  20
ATOM     20  C   UNL     1       2.824   3.837  -8.158  1.00  0.00    -0.000 C 
BRANCH  20  21
ATOM     21  C   UNL     1       3.012   2.444  -7.551  1.00  0.00    -0.003 C 
ATOM     22  C   UNL     1       1.879   1.510  -7.946  1.00  0.00     0.004 C 
ENDBRANCH  20  21
ENDBRANCH  19  20
ENDBRANCH  18  19
ENDBRANCH  17  18
ENDBRANCH  16  17
ENDBRANCH  12  16
ENDBRANCH   9  12
ENDBRANCH   6   9
ENDBRANCH   3   5
ENDBRANCH   2   3
BRANCH   2  23
ATOM     23  N   UNL     1      -2.809   2.081 -11.179  1.00  0.00    -0.332 N 
ATOM     24  C   UNL     1      -3.479   3.308 -10.774  1.00  0.00     0.147 C 
BRANCH  23  25
ATOM     25  C   UNL     1      -3.315   0.844 -10.523  1.00  0.00     0.174 C 
BRANCH  25  26
ATOM     26  C   UNL     1      -4.860   0.771 -10.487  1.00  0.00     0.038 C 
BRANCH  26  27
ATOM     27  C   UNL     1      -5.535  -0.243 -11.437  1.00  0.00    -0.015 C 
ATOM     28  C   UNL     1      -4.835  -1.601 -11.435  1.00  0.00     0.007 C 
ATOM     29  C   UNL     1      -7.031  -0.409 -11.184  1.00  0.00     0.007 C 
ENDBRANCH  26  27
ENDBRANCH  25  26
BRANCH  25  30
ATOM     30  C   UNL     1      -2.652   0.666  -9.138  1.00  0.00     0.243 C 
ATOM     31  O   UNL     1      -1.766   1.421  -8.740  1.00  0.00    -0.273 OA
ATOM     32  N   UNL     1      -3.113  -0.387  -8.391  1.00  0.00    -0.342 N 
ATOM     33  H   UNL     1      -3.944  -0.879  -8.728  1.00  0.00     0.164 HD
BRANCH  32  34
ATOM     34  C   UNL     1      -2.582  -0.723  -7.067  1.00  0.00     0.175 C 
BRANCH  34  35
ATOM     35  C   UNL     1      -3.660  -1.364  -6.179  1.00  0.00     0.070 C 
BRANCH  35  36
ATOM     36  C   UNL     1      -4.914  -1.719  -6.946  1.00  0.00    -0.045 A 
ATOM     37  C   UNL     1      -4.972  -2.912  -7.682  1.00  0.00     0.007 A 
ATOM     38  C   UNL     1      -6.020  -0.860  -6.953  1.00  0.00     0.007 A 
ATOM     39  C   UNL     1      -6.120  -3.242  -8.404  1.00  0.00     0.046 A 
ATOM     40  C   UNL     1      -7.169  -1.188  -7.676  1.00  0.00     0.046 A 
ATOM     41  C   UNL     1      -7.208  -2.378  -8.395  1.00  0.00     0.115 A 
BRANCH  41  42
ATOM     42  O   UNL     1      -8.309  -2.736  -9.116  1.00  0.00    -0.508 OA
ATOM     43  H   UNL     1      -8.349  -3.706  -9.149  1.00  0.00     0.293 HD
ENDBRANCH  41  42
ENDBRANCH  35  36
ENDBRANCH  34  35
BRANCH  34  44
ATOM     44  C   UNL     1      -1.365  -1.655  -7.261  1.00  0.00     0.243 C 
ATOM     45  O   UNL     1      -0.210  -1.266  -7.412  1.00  0.00    -0.273 OA
ATOM     46  N   UNL     1      -1.706  -2.985  -7.384  1.00  0.00    -0.341 N 
ATOM     47  H   UNL     1      -2.689  -3.247  -7.369  1.00  0.00     0.164 HD
BRANCH  46  48
ATOM     48  C   UNL     1      -0.731  -4.047  -7.642  1.00  0.00     0.196 C 
BRANCH  48  49
ATOM     49  C   UNL     1      -1.225  -5.403  -7.109  1.00  0.00     0.072 C 
BRANCH  49  50
ATOM     50  C   UNL     1      -1.229  -5.468  -5.599  1.00  0.00    -0.045 A 
ATOM     51  C   UNL     1      -0.039  -5.740  -4.908  1.00  0.00     0.007 A 
ATOM     52  C   UNL     1      -2.412  -5.280  -4.872  1.00  0.00     0.007 A 
ATOM     53  C   UNL     1      -0.034  -5.816  -3.515  1.00  0.00     0.046 A 
ATOM     54  C   UNL     1      -2.406  -5.356  -3.478  1.00  0.00     0.046 A 
ATOM     55  C   UNL     1      -1.216  -5.623  -2.810  1.00  0.00     0.115 A 
BRANCH  55  56
ATOM     56  O   UNL     1      -1.168  -5.707  -1.450  1.00  0.00    -0.508 OA
ATOM     57  H   UNL     1      -0.251  -5.560  -1.167  1.00  0.00     0.293 HD
ENDBRANCH  55  56
ENDBRANCH  49  50
ENDBRANCH  48  49
BRANCH  48  58
ATOM     58  C   UNL     1      -0.489  -4.146  -9.155  1.00  0.00     0.326 C 
ATOM     59  O   UNL     1      -0.939  -4.981  -9.922  1.00  0.00    -0.250 OA
BRANCH  58  60
ATOM     60  O   UNL     1       0.310  -3.162  -9.640  1.00  0.00    -0.480 OA
ATOM     61  H   UNL     1       0.603  -3.517 -10.508  1.00  0.00     0.296 HD
ENDBRANCH  58  60
ENDBRANCH  48  58
ENDBRANCH  46  48
ENDBRANCH  34  44
ENDBRANCH  32  34
ENDBRANCH  25  30
ENDBRANCH  23  25
ENDBRANCH   2  23
TORSDOF 28
ENDMDL
MODEL 36
REMARK VINA RESULT:    -6.003      2.569     10.528
REMARK INTER + INTRA:         -19.471
REMARK INTER:                 -15.798
REMARK INTRA:                  -3.673
REMARK UNBOUND:                -4.520
REMARK SMILES CCCCCCC[C@H](N)[C@H](O)C(=O)N[C@H](C)C(=O)N(C)[C@H](CC(C)C)C(=O)N[C@@H](Cc1ccc(O)cc1)C(=O)N[C@@H](Cc1ccc(O)cc1)C(=O)O
REMARK SMILES IDX 18 1 17 2 15 3 16 4 14 5 12 6 13 7 10 9 11 10 8 12 9 13 7 16
REMARK SMILES IDX 6 17 5 18 4 19 3 20 2 21 1 22 19 23 20 24 21 25 22 26 23 27
REMARK SMILES IDX 24 28 25 29 26 30 27 31 28 32 29 34 30 35 31 36 32 37 37 38
REMARK SMILES IDX 33 39 36 40 34 41 35 42 38 44 39 45 40 46 41 48 42 49 43 50
REMARK SMILES IDX 44 51 49 52 45 53 48 54 46 55 47 56 50 58 51 59 52 60
REMARK H PARENT 14 8 11 11 9 14 9 15 28 33 35 43 40 47 47 57 52 61
ROOT
ATOM      1  O   UNL     1       0.137   1.177  -8.305  1.00  0.00    -0.272 OA
ATOM      2  C   UNL     1       1.113   0.871  -9.005  1.00  0.00     0.245 C 
ENDROOT
BRANCH   2   3
ATOM      3  C   UNL     1       2.321   1.839  -9.055  1.00  0.00     0.168 C 
ATOM      4  C   UNL     1       2.699   2.307  -7.654  1.00  0.00     0.041 C 
BRANCH   3   5
ATOM      5  N   UNL     1       3.474   1.341  -9.789  1.00  0.00    -0.342 N 
ATOM      6  C   UNL     1       3.819   1.838 -11.028  1.00  0.00     0.251 C 
ATOM      7  O   UNL     1       3.170   2.696 -11.617  1.00  0.00    -0.272 OA
ATOM      8  H   UNL     1       4.069   0.604  -9.417  1.00  0.00     0.164 HD
BRANCH   6   9
ATOM      9  C   UNL     1       5.148   1.267 -11.549  1.00  0.00     0.219 C 
BRANCH   9  10
ATOM     10  O   UNL     1       4.963   0.286 -12.576  1.00  0.00    -0.382 OA
ATOM     11  H   UNL     1       5.228   0.757 -13.396  1.00  0.00     0.211 HD
ENDBRANCH   9  10
BRANCH   9  12
ATOM     12  C   UNL     1       6.144   2.364 -12.007  1.00  0.00     0.089 C 
BRANCH  12  13
ATOM     13  N   UNL     1       5.691   2.890 -13.315  1.00  0.00    -0.325 NA
ATOM     14  H   UNL     1       5.251   2.136 -13.846  1.00  0.00     0.119 HD
ATOM     15  H   UNL     1       6.509   3.161 -13.865  1.00  0.00     0.119 HD
ENDBRANCH  12  13
BRANCH  12  16
ATOM     16  C   UNL     1       6.373   3.529 -11.016  1.00  0.00     0.022 C 
BRANCH  16  17
ATOM     17  C   UNL     1       7.570   4.467 -11.228  1.00  0.00     0.002 C 
BRANCH  17  18
ATOM     18  C   UNL     1       7.401   5.870 -10.650  1.00  0.00     0.000 C 
BRANCH  18  19
ATOM     19  C   UNL     1       7.786   5.985  -9.169  1.00  0.00    -0.000 C 
BRANCH  19  20
ATOM     20  C   UNL     1       9.248   5.659  -8.850  1.00  0.00    -0.000 C 
BRANCH  20  21
ATOM     21  C   UNL     1       9.616   5.924  -7.388  1.00  0.00    -0.003 C 
ATOM     22  C   UNL     1      10.972   6.602  -7.272  1.00  0.00     0.004 C 
ENDBRANCH  20  21
ENDBRANCH  19  20
ENDBRANCH  18  19
ENDBRANCH  17  18
ENDBRANCH  16  17
ENDBRANCH  12  16
ENDBRANCH   9  12
ENDBRANCH   6   9
ENDBRANCH   3   5
ENDBRANCH   2   3
BRANCH   2  23
ATOM     23  N   UNL     1       1.161  -0.372  -9.627  1.00  0.00    -0.332 N 
ATOM     24  C   UNL     1       1.602  -1.601  -8.983  1.00  0.00     0.147 C 
BRANCH  23  25
ATOM     25  C   UNL     1       0.624  -0.545 -11.004  1.00  0.00     0.174 C 
BRANCH  25  26
ATOM     26  C   UNL     1       0.219   0.794 -11.664  1.00  0.00     0.038 C 
BRANCH  26  27
ATOM     27  C   UNL     1       0.384   0.897 -13.197  1.00  0.00    -0.015 C 
ATOM     28  C   UNL     1       1.641   0.186 -13.698  1.00  0.00     0.007 C 
ATOM     29  C   UNL     1      -0.844   0.428 -13.973  1.00  0.00     0.007 C 
ENDBRANCH  26  27
ENDBRANCH  25  26
BRANCH  25  30
ATOM     30  C   UNL     1      -0.502  -1.604 -11.007  1.00  0.00     0.243 C 
ATOM     31  O   UNL     1      -0.298  -2.769 -11.346  1.00  0.00    -0.273 OA
ATOM     32  N   UNL     1      -1.738  -1.158 -10.614  1.00  0.00    -0.342 N 
ATOM     33  H   UNL     1      -1.797  -0.219 -10.213  1.00  0.00     0.164 HD
BRANCH  32  34
ATOM     34  C   UNL     1      -2.926  -2.015 -10.581  1.00  0.00     0.175 C 
BRANCH  34  35
ATOM     35  C   UNL     1      -3.345  -2.335  -9.138  1.00  0.00     0.070 C 
BRANCH  35  36
ATOM     36  C   UNL     1      -3.437  -3.820  -8.871  1.00  0.00    -0.045 A 
ATOM     37  C   UNL     1      -2.372  -4.489  -8.247  1.00  0.00     0.007 A 
ATOM     38  C   UNL     1      -4.567  -4.552  -9.260  1.00  0.00     0.007 A 
ATOM     39  C   UNL     1      -2.443  -5.862  -8.010  1.00  0.00     0.046 A 
ATOM     40  C   UNL     1      -4.637  -5.927  -9.023  1.00  0.00     0.046 A 
ATOM     41  C   UNL     1      -3.574  -6.569  -8.398  1.00  0.00     0.115 A 
BRANCH  41  42
ATOM     42  O   UNL     1      -3.601  -7.910  -8.150  1.00  0.00    -0.508 OA
ATOM     43  H   UNL     1      -4.118  -8.060  -7.342  1.00  0.00     0.293 HD
ENDBRANCH  41  42
ENDBRANCH  35  36
ENDBRANCH  34  35
BRANCH  34  44
ATOM     44  C   UNL     1      -4.052  -1.302 -11.364  1.00  0.00     0.243 C 
ATOM     45  O   UNL     1      -3.984  -0.994 -12.551  1.00  0.00    -0.273 OA
ATOM     46  N   UNL     1      -5.112  -0.917 -10.572  1.00  0.00    -0.341 N 
ATOM     47  H   UNL     1      -5.070  -1.092  -9.571  1.00  0.00     0.164 HD
BRANCH  46  48
ATOM     48  C   UNL     1      -6.265  -0.167 -11.077  1.00  0.00     0.196 C 
BRANCH  48  49
ATOM     49  C   UNL     1      -7.572  -0.638 -10.418  1.00  0.00     0.072 C 
BRANCH  49  50
ATOM     50  C   UNL     1      -7.367  -1.120  -8.999  1.00  0.00    -0.045 A 
ATOM     51  C   UNL     1      -7.437  -2.491  -8.710  1.00  0.00     0.007 A 
ATOM     52  C   UNL     1      -7.129  -0.214  -7.958  1.00  0.00     0.007 A 
ATOM     53  C   UNL     1      -7.263  -2.946  -7.403  1.00  0.00     0.046 A 
ATOM     54  C   UNL     1      -6.956  -0.670  -6.649  1.00  0.00     0.046 A 
ATOM     55  C   UNL     1      -7.024  -2.033  -6.383  1.00  0.00     0.115 A 
BRANCH  55  56
ATOM     56  O   UNL     1      -6.861  -2.519  -5.119  1.00  0.00    -0.508 OA
ATOM     57  H   UNL     1      -5.923  -2.443  -4.880  1.00  0.00     0.293 HD
ENDBRANCH  55  56
ENDBRANCH  49  50
ENDBRANCH  48  49
BRANCH  48  58
ATOM     58  C   UNL     1      -6.053   1.326 -10.791  1.00  0.00     0.326 C 
ATOM     59  O   UNL     1      -4.990   1.905 -10.637  1.00  0.00    -0.250 OA
BRANCH  58  60
ATOM     60  O   UNL     1      -7.209   2.034 -10.727  1.00  0.00    -0.480 OA
ATOM     61  H   UNL     1      -6.918   2.913 -10.401  1.00  0.00     0.296 HD
ENDBRANCH  58  60
ENDBRANCH  48  58
ENDBRANCH  46  48
ENDBRANCH  34  44
ENDBRANCH  32  34
ENDBRANCH  25  30
ENDBRANCH  23  25
ENDBRANCH   2  23
TORSDOF 28
ENDMDL
MODEL 37
REMARK VINA RESULT:    -6.000      2.847      5.076
REMARK INTER + INTRA:         -19.464
REMARK INTER:                 -15.421
REMARK INTRA:                  -4.043
REMARK UNBOUND:                -4.520
REMARK SMILES CCCCCCC[C@H](N)[C@H](O)C(=O)N[C@H](C)C(=O)N(C)[C@H](CC(C)C)C(=O)N[C@@H](Cc1ccc(O)cc1)C(=O)N[C@@H](Cc1ccc(O)cc1)C(=O)O
REMARK SMILES IDX 18 1 17 2 15 3 16 4 14 5 12 6 13 7 10 9 11 10 8 12 9 13 7 16
REMARK SMILES IDX 6 17 5 18 4 19 3 20 2 21 1 22 19 23 20 24 21 25 22 26 23 27
REMARK SMILES IDX 24 28 25 29 26 30 27 31 28 32 29 34 30 35 31 36 32 37 37 38
REMARK SMILES IDX 33 39 36 40 34 41 35 42 38 44 39 45 40 46 41 48 42 49 43 50
REMARK SMILES IDX 44 51 49 52 45 53 48 54 46 55 47 56 50 58 51 59 52 60
REMARK H PARENT 14 8 11 11 9 14 9 15 28 33 35 43 40 47 47 57 52 61
ROOT
ATOM      1  O   UNL     1      -3.272  -2.866  -5.421  1.00  0.00    -0.272 OA
ATOM      2  C   UNL     1      -3.601  -2.016  -4.580  1.00  0.00     0.245 C 
ENDROOT
BRANCH   2   3
ATOM      3  C   UNL     1      -4.143  -2.499  -3.212  1.00  0.00     0.168 C 
ATOM      4  C   UNL     1      -5.668  -2.470  -3.193  1.00  0.00     0.041 C 
BRANCH   3   5
ATOM      5  N   UNL     1      -3.620  -3.780  -2.765  1.00  0.00    -0.342 N 
ATOM      6  C   UNL     1      -2.717  -3.876  -1.727  1.00  0.00     0.251 C 
ATOM      7  O   UNL     1      -2.259  -2.903  -1.137  1.00  0.00    -0.272 OA
ATOM      8  H   UNL     1      -3.900  -4.656  -3.201  1.00  0.00     0.164 HD
BRANCH   6   9
ATOM      9  C   UNL     1      -2.413  -5.331  -1.335  1.00  0.00     0.219 C 
BRANCH   9  10
ATOM     10  O   UNL     1      -3.531  -6.203  -1.540  1.00  0.00    -0.382 OA
ATOM     11  H   UNL     1      -4.276  -5.730  -1.106  1.00  0.00     0.211 HD
ENDBRANCH   9  10
BRANCH   9  12
ATOM     12  C   UNL     1      -1.142  -5.894  -2.021  1.00  0.00     0.089 C 
BRANCH  12  13
ATOM     13  N   UNL     1      -0.805  -7.190  -1.389  1.00  0.00    -0.325 NA
ATOM     14  H   UNL     1      -1.090  -7.169  -0.408  1.00  0.00     0.119 HD
ATOM     15  H   UNL     1       0.213  -7.293  -1.369  1.00  0.00     0.119 HD
ENDBRANCH  12  13
BRANCH  12  16
ATOM     16  C   UNL     1      -1.217  -6.056  -3.559  1.00  0.00     0.022 C 
BRANCH  16  17
ATOM     17  C   UNL     1       0.026  -5.747  -4.404  1.00  0.00     0.002 C 
BRANCH  17  18
ATOM     18  C   UNL     1      -0.232  -4.888  -5.640  1.00  0.00     0.000 C 
BRANCH  18  19
ATOM     19  C   UNL     1      -0.818  -5.662  -6.827  1.00  0.00    -0.000 C 
BRANCH  19  20
ATOM     20  C   UNL     1      -2.211  -5.209  -7.274  1.00  0.00    -0.000 C 
BRANCH  20  21
ATOM     21  C   UNL     1      -2.969  -6.286  -8.056  1.00  0.00    -0.003 C 
ATOM     22  C   UNL     1      -2.648  -6.222  -9.541  1.00  0.00     0.004 C 
ENDBRANCH  20  21
ENDBRANCH  19  20
ENDBRANCH  18  19
ENDBRANCH  17  18
ENDBRANCH  16  17
ENDBRANCH  12  16
ENDBRANCH   9  12
ENDBRANCH   6   9
ENDBRANCH   3   5
ENDBRANCH   2   3
BRANCH   2  23
ATOM     23  N   UNL     1      -3.368  -0.667  -4.827  1.00  0.00    -0.332 N 
ATOM     24  C   UNL     1      -2.766   0.254  -3.874  1.00  0.00     0.147 C 
BRANCH  23  25
ATOM     25  C   UNL     1      -3.617  -0.097  -6.179  1.00  0.00     0.174 C 
BRANCH  25  26
ATOM     26  C   UNL     1      -5.081  -0.273  -6.647  1.00  0.00     0.038 C 
BRANCH  26  27
ATOM     27  C   UNL     1      -5.814   0.993  -7.143  1.00  0.00    -0.015 C 
ATOM     28  C   UNL     1      -5.200   1.562  -8.421  1.00  0.00     0.007 C 
ATOM     29  C   UNL     1      -7.319   0.796  -7.311  1.00  0.00     0.007 C 
ENDBRANCH  26  27
ENDBRANCH  25  26
BRANCH  25  30
ATOM     30  C   UNL     1      -2.574  -0.637  -7.184  1.00  0.00     0.243 C 
ATOM     31  O   UNL     1      -1.366  -0.471  -7.020  1.00  0.00    -0.273 OA
ATOM     32  N   UNL     1      -3.084  -1.304  -8.268  1.00  0.00    -0.342 N 
ATOM     33  H   UNL     1      -4.084  -1.524  -8.261  1.00  0.00     0.164 HD
BRANCH  32  34
ATOM     34  C   UNL     1      -2.247  -1.859  -9.335  1.00  0.00     0.175 C 
BRANCH  34  35
ATOM     35  C   UNL     1      -3.094  -2.600 -10.381  1.00  0.00     0.070 C 
BRANCH  35  36
ATOM     36  C   UNL     1      -4.575  -2.541 -10.083  1.00  0.00    -0.045 A 
ATOM     37  C   UNL     1      -5.189  -3.578  -9.365  1.00  0.00     0.007 A 
ATOM     38  C   UNL     1      -5.357  -1.469 -10.535  1.00  0.00     0.007 A 
ATOM     39  C   UNL     1      -6.558  -3.539  -9.098  1.00  0.00     0.046 A 
ATOM     40  C   UNL     1      -6.728  -1.430 -10.269  1.00  0.00     0.046 A 
ATOM     41  C   UNL     1      -7.316  -2.465  -9.551  1.00  0.00     0.115 A 
BRANCH  41  42
ATOM     42  O   UNL     1      -8.650  -2.466  -9.271  1.00  0.00    -0.508 OA
ATOM     43  H   UNL     1      -8.759  -2.409  -8.307  1.00  0.00     0.293 HD
ENDBRANCH  41  42
ENDBRANCH  35  36
ENDBRANCH  34  35
BRANCH  34  44
ATOM     44  C   UNL     1      -1.440  -0.701  -9.962  1.00  0.00     0.243 C 
ATOM     45  O   UNL     1      -1.940   0.278 -10.508  1.00  0.00    -0.273 OA
ATOM     46  N   UNL     1      -0.079  -0.923  -9.972  1.00  0.00    -0.341 N 
ATOM     47  H   UNL     1       0.281  -1.804  -9.612  1.00  0.00     0.164 HD
BRANCH  46  48
ATOM     48  C   UNL     1       0.884   0.002 -10.574  1.00  0.00     0.196 C 
BRANCH  48  49
ATOM     49  C   UNL     1       2.265  -0.116  -9.907  1.00  0.00     0.072 C 
BRANCH  49  50
ATOM     50  C   UNL     1       2.467   0.898  -8.803  1.00  0.00    -0.045 A 
ATOM     51  C   UNL     1       1.947   0.650  -7.524  1.00  0.00     0.007 A 
ATOM     52  C   UNL     1       3.149   2.098  -9.042  1.00  0.00     0.007 A 
ATOM     53  C   UNL     1       2.115   1.584  -6.501  1.00  0.00     0.046 A 
ATOM     54  C   UNL     1       3.316   3.033  -8.018  1.00  0.00     0.046 A 
ATOM     55  C   UNL     1       2.798   2.767  -6.755  1.00  0.00     0.115 A 
BRANCH  55  56
ATOM     56  O   UNL     1       2.939   3.654  -5.729  1.00  0.00    -0.508 OA
ATOM     57  H   UNL     1       2.617   4.520  -6.027  1.00  0.00     0.293 HD
ENDBRANCH  55  56
ENDBRANCH  49  50
ENDBRANCH  48  49
BRANCH  48  58
ATOM     58  C   UNL     1       1.008  -0.311 -12.072  1.00  0.00     0.326 C 
ATOM     59  O   UNL     1       0.283  -1.032 -12.738  1.00  0.00    -0.250 OA
BRANCH  58  60
ATOM     60  O   UNL     1       2.046   0.322 -12.673  1.00  0.00    -0.480 OA
ATOM     61  H   UNL     1       1.638   1.144 -13.023  1.00  0.00     0.296 HD
ENDBRANCH  58  60
ENDBRANCH  48  58
ENDBRANCH  46  48
ENDBRANCH  34  44
ENDBRANCH  32  34
ENDBRANCH  25  30
ENDBRANCH  23  25
ENDBRANCH   2  23
TORSDOF 28
ENDMDL
MODEL 38
REMARK VINA RESULT:    -5.998      2.655      8.414
REMARK INTER + INTRA:         -19.459
REMARK INTER:                 -13.869
REMARK INTRA:                  -5.589
REMARK UNBOUND:                -4.520
REMARK SMILES CCCCCCC[C@H](N)[C@H](O)C(=O)N[C@H](C)C(=O)N(C)[C@H](CC(C)C)C(=O)N[C@@H](Cc1ccc(O)cc1)C(=O)N[C@@H](Cc1ccc(O)cc1)C(=O)O
REMARK SMILES IDX 18 1 17 2 15 3 16 4 14 5 12 6 13 7 10 9 11 10 8 12 9 13 7 16
REMARK SMILES IDX 6 17 5 18 4 19 3 20 2 21 1 22 19 23 20 24 21 25 22 26 23 27
REMARK SMILES IDX 24 28 25 29 26 30 27 31 28 32 29 34 30 35 31 36 32 37 37 38
REMARK SMILES IDX 33 39 36 40 34 41 35 42 38 44 39 45 40 46 41 48 42 49 43 50
REMARK SMILES IDX 44 51 49 52 45 53 48 54 46 55 47 56 50 58 51 59 52 60
REMARK H PARENT 14 8 11 11 9 14 9 15 28 33 35 43 40 47 47 57 52 61
ROOT
ATOM      1  O   UNL     1       0.034  -4.547  -9.902  1.00  0.00    -0.272 OA
ATOM      2  C   UNL     1      -0.478  -3.634  -9.237  1.00  0.00     0.245 C 
ENDROOT
BRANCH   2   3
ATOM      3  C   UNL     1       0.064  -2.194  -9.414  1.00  0.00     0.168 C 
ATOM      4  C   UNL     1       1.439  -2.050  -8.769  1.00  0.00     0.041 C 
BRANCH   3   5
ATOM      5  N   UNL     1       0.053  -1.700 -10.782  1.00  0.00    -0.342 N 
ATOM      6  C   UNL     1      -0.929  -0.847 -11.240  1.00  0.00     0.251 C 
ATOM      7  O   UNL     1      -1.877  -0.478 -10.555  1.00  0.00    -0.272 OA
ATOM      8  H   UNL     1       0.769  -1.965 -11.454  1.00  0.00     0.164 HD
BRANCH   6   9
ATOM      9  C   UNL     1      -0.662  -0.344 -12.667  1.00  0.00     0.219 C 
BRANCH   9  10
ATOM     10  O   UNL     1      -1.867  -0.114 -13.407  1.00  0.00    -0.382 OA
ATOM     11  H   UNL     1      -1.548   0.062 -14.320  1.00  0.00     0.211 HD
ENDBRANCH   9  10
BRANCH   9  12
ATOM     12  C   UNL     1       0.258   0.904 -12.711  1.00  0.00     0.089 C 
BRANCH  12  13
ATOM     13  N   UNL     1       0.769   1.156 -11.344  1.00  0.00    -0.325 NA
ATOM     14  H   UNL     1       0.023   1.565 -10.777  1.00  0.00     0.119 HD
ATOM     15  H   UNL     1       1.495   1.875 -11.389  1.00  0.00     0.119 HD
ENDBRANCH  12  13
BRANCH  12  16
ATOM     16  C   UNL     1       1.434   0.845 -13.715  1.00  0.00     0.022 C 
BRANCH  16  17
ATOM     17  C   UNL     1       2.740   0.156 -13.296  1.00  0.00     0.002 C 
BRANCH  17  18
ATOM     18  C   UNL     1       4.014   0.913 -13.664  1.00  0.00     0.000 C 
BRANCH  18  19
ATOM     19  C   UNL     1       5.214   0.590 -12.763  1.00  0.00    -0.000 C 
BRANCH  19  20
ATOM     20  C   UNL     1       5.040   0.966 -11.289  1.00  0.00    -0.000 C 
BRANCH  20  21
ATOM     21  C   UNL     1       5.188   2.468 -11.032  1.00  0.00    -0.003 C 
ATOM     22  C   UNL     1       6.362   3.050 -11.803  1.00  0.00     0.004 C 
ENDBRANCH  20  21
ENDBRANCH  19  20
ENDBRANCH  18  19
ENDBRANCH  17  18
ENDBRANCH  16  17
ENDBRANCH  12  16
ENDBRANCH   9  12
ENDBRANCH   6   9
ENDBRANCH   3   5
ENDBRANCH   2   3
BRANCH   2  23
ATOM     23  N   UNL     1      -1.594  -3.891  -8.448  1.00  0.00    -0.332 N 
ATOM     24  C   UNL     1      -2.818  -4.515  -8.927  1.00  0.00     0.147 C 
BRANCH  23  25
ATOM     25  C   UNL     1      -1.549  -3.645  -6.980  1.00  0.00     0.174 C 
BRANCH  25  26
ATOM     26  C   UNL     1      -1.710  -4.938  -6.148  1.00  0.00     0.038 C 
BRANCH  26  27
ATOM     27  C   UNL     1      -1.161  -4.914  -4.703  1.00  0.00    -0.015 C 
ATOM     28  C   UNL     1      -2.200  -5.361  -3.676  1.00  0.00     0.007 C 
ATOM     29  C   UNL     1       0.136  -5.701  -4.533  1.00  0.00     0.007 C 
ENDBRANCH  26  27
ENDBRANCH  25  26
BRANCH  25  30
ATOM     30  C   UNL     1      -2.549  -2.530  -6.597  1.00  0.00     0.243 C 
ATOM     31  O   UNL     1      -3.397  -2.691  -5.720  1.00  0.00    -0.273 OA
ATOM     32  N   UNL     1      -2.432  -1.359  -7.300  1.00  0.00    -0.342 N 
ATOM     33  H   UNL     1      -1.617  -1.253  -7.910  1.00  0.00     0.164 HD
BRANCH  32  34
ATOM     34  C   UNL     1      -3.311  -0.206  -7.090  1.00  0.00     0.175 C 
BRANCH  34  35
ATOM     35  C   UNL     1      -2.611   1.107  -7.472  1.00  0.00     0.070 C 
BRANCH  35  36
ATOM     36  C   UNL     1      -1.240   1.242  -6.848  1.00  0.00    -0.045 A 
ATOM     37  C   UNL     1      -1.116   1.478  -5.470  1.00  0.00     0.007 A 
ATOM     38  C   UNL     1      -0.082   1.157  -7.631  1.00  0.00     0.007 A 
ATOM     39  C   UNL     1       0.144   1.617  -4.888  1.00  0.00     0.046 A 
ATOM     40  C   UNL     1       1.180   1.297  -7.049  1.00  0.00     0.046 A 
ATOM     41  C   UNL     1       1.281   1.525  -5.681  1.00  0.00     0.115 A 
BRANCH  41  42
ATOM     42  O   UNL     1       2.493   1.670  -5.073  1.00  0.00    -0.508 OA
ATOM     43  H   UNL     1       2.961   2.407  -5.499  1.00  0.00     0.293 HD
ENDBRANCH  41  42
ENDBRANCH  35  36
ENDBRANCH  34  35
BRANCH  34  44
ATOM     44  C   UNL     1      -4.601  -0.432  -7.911  1.00  0.00     0.243 C 
ATOM     45  O   UNL     1      -5.650  -0.869  -7.448  1.00  0.00    -0.273 OA
ATOM     46  N   UNL     1      -4.435  -0.218  -9.263  1.00  0.00    -0.341 N 
ATOM     47  H   UNL     1      -3.514   0.031  -9.615  1.00  0.00     0.164 HD
BRANCH  46  48
ATOM     48  C   UNL     1      -5.497  -0.434 -10.249  1.00  0.00     0.196 C 
BRANCH  48  49
ATOM     49  C   UNL     1      -5.723   0.818 -11.112  1.00  0.00     0.072 C 
BRANCH  49  50
ATOM     50  C   UNL     1      -5.698   2.095 -10.303  1.00  0.00    -0.045 A 
ATOM     51  C   UNL     1      -6.729   2.364  -9.391  1.00  0.00     0.007 A 
ATOM     52  C   UNL     1      -4.669   3.031 -10.463  1.00  0.00     0.007 A 
ATOM     53  C   UNL     1      -6.725   3.545  -8.648  1.00  0.00     0.046 A 
ATOM     54  C   UNL     1      -4.665   4.214  -9.720  1.00  0.00     0.046 A 
ATOM     55  C   UNL     1      -5.693   4.460  -8.818  1.00  0.00     0.115 A 
BRANCH  55  56
ATOM     56  O   UNL     1      -5.726   5.602  -8.074  1.00  0.00    -0.508 OA
ATOM     57  H   UNL     1      -6.654   5.823  -7.893  1.00  0.00     0.293 HD
ENDBRANCH  55  56
ENDBRANCH  49  50
ENDBRANCH  48  49
BRANCH  48  58
ATOM     58  C   UNL     1      -5.110  -1.617 -11.148  1.00  0.00     0.326 C 
ATOM     59  O   UNL     1      -5.407  -2.790 -10.994  1.00  0.00    -0.250 OA
BRANCH  58  60
ATOM     60  O   UNL     1      -4.368  -1.257 -12.225  1.00  0.00    -0.480 OA
ATOM     61  H   UNL     1      -3.448  -1.274 -11.881  1.00  0.00     0.296 HD
ENDBRANCH  58  60
ENDBRANCH  48  58
ENDBRANCH  46  48
ENDBRANCH  34  44
ENDBRANCH  32  34
ENDBRANCH  25  30
ENDBRANCH  23  25
ENDBRANCH   2  23
TORSDOF 28
ENDMDL
MODEL 39
REMARK VINA RESULT:    -5.982      2.757      5.981
REMARK INTER + INTRA:         -19.419
REMARK INTER:                 -14.821
REMARK INTRA:                  -4.598
REMARK UNBOUND:                -4.520
REMARK SMILES CCCCCCC[C@H](N)[C@H](O)C(=O)N[C@H](C)C(=O)N(C)[C@H](CC(C)C)C(=O)N[C@@H](Cc1ccc(O)cc1)C(=O)N[C@@H](Cc1ccc(O)cc1)C(=O)O
REMARK SMILES IDX 18 1 17 2 15 3 16 4 14 5 12 6 13 7 10 9 11 10 8 12 9 13 7 16
REMARK SMILES IDX 6 17 5 18 4 19 3 20 2 21 1 22 19 23 20 24 21 25 22 26 23 27
REMARK SMILES IDX 24 28 25 29 26 30 27 31 28 32 29 34 30 35 31 36 32 37 37 38
REMARK SMILES IDX 33 39 36 40 34 41 35 42 38 44 39 45 40 46 41 48 42 49 43 50
REMARK SMILES IDX 44 51 49 52 45 53 48 54 46 55 47 56 50 58 51 59 52 60
REMARK H PARENT 14 8 11 11 9 14 9 15 28 33 35 43 40 47 47 57 52 61
ROOT
ATOM      1  O   UNL     1      -1.843   1.835  -8.432  1.00  0.00    -0.272 OA
ATOM      2  C   UNL     1      -2.865   1.649  -7.754  1.00  0.00     0.245 C 
ENDROOT
BRANCH   2   3
ATOM      3  C   UNL     1      -2.733   1.611  -6.211  1.00  0.00     0.168 C 
ATOM      4  C   UNL     1      -2.780   3.020  -5.629  1.00  0.00     0.041 C 
BRANCH   3   5
ATOM      5  N   UNL     1      -3.662   0.716  -5.540  1.00  0.00    -0.342 N 
ATOM      6  C   UNL     1      -3.345   0.097  -4.349  1.00  0.00     0.251 C 
ATOM      7  O   UNL     1      -2.259   0.217  -3.793  1.00  0.00    -0.272 OA
ATOM      8  H   UNL     1      -4.582   0.512  -5.924  1.00  0.00     0.164 HD
BRANCH   6   9
ATOM      9  C   UNL     1      -4.526  -0.686  -3.754  1.00  0.00     0.219 C 
BRANCH   9  10
ATOM     10  O   UNL     1      -5.796  -0.194  -4.199  1.00  0.00    -0.382 OA
ATOM     11  H   UNL     1      -6.028   0.486  -3.529  1.00  0.00     0.211 HD
ENDBRANCH   9  10
BRANCH   9  12
ATOM     12  C   UNL     1      -4.418  -2.217  -3.981  1.00  0.00     0.089 C 
BRANCH  12  13
ATOM     13  N   UNL     1      -3.376  -2.465  -5.002  1.00  0.00    -0.325 NA
ATOM     14  H   UNL     1      -3.171  -1.592  -5.492  1.00  0.00     0.119 HD
ATOM     15  H   UNL     1      -3.755  -3.090  -5.717  1.00  0.00     0.119 HD
ENDBRANCH  12  13
BRANCH  12  16
ATOM     16  C   UNL     1      -4.142  -3.071  -2.720  1.00  0.00     0.022 C 
BRANCH  16  17
ATOM     17  C   UNL     1      -2.693  -3.427  -2.362  1.00  0.00     0.002 C 
BRANCH  17  18
ATOM     18  C   UNL     1      -2.398  -4.924  -2.280  1.00  0.00     0.000 C 
BRANCH  18  19
ATOM     19  C   UNL     1      -2.021  -5.561  -3.623  1.00  0.00    -0.000 C 
BRANCH  19  20
ATOM     20  C   UNL     1      -0.520  -5.769  -3.845  1.00  0.00    -0.000 C 
BRANCH  20  21
ATOM     21  C   UNL     1      -0.065  -5.396  -5.259  1.00  0.00    -0.003 C 
ATOM     22  C   UNL     1      -1.247  -5.280  -6.209  1.00  0.00     0.004 C 
ENDBRANCH  20  21
ENDBRANCH  19  20
ENDBRANCH  18  19
ENDBRANCH  17  18
ENDBRANCH  16  17
ENDBRANCH  12  16
ENDBRANCH   9  12
ENDBRANCH   6   9
ENDBRANCH   3   5
ENDBRANCH   2   3
BRANCH   2  23
ATOM     23  N   UNL     1      -4.110   1.600  -8.371  1.00  0.00    -0.332 N 
ATOM     24  C   UNL     1      -5.043   2.715  -8.439  1.00  0.00     0.147 C 
BRANCH  23  25
ATOM     25  C   UNL     1      -4.522   0.391  -9.137  1.00  0.00     0.174 C 
BRANCH  25  26
ATOM     26  C   UNL     1      -6.038   0.103  -9.037  1.00  0.00     0.038 C 
BRANCH  26  27
ATOM     27  C   UNL     1      -6.795  -0.132 -10.363  1.00  0.00    -0.015 C 
ATOM     28  C   UNL     1      -5.850  -0.360 -11.543  1.00  0.00     0.007 C 
ATOM     29  C   UNL     1      -7.832  -1.250 -10.281  1.00  0.00     0.007 C 
ENDBRANCH  26  27
ENDBRANCH  25  26
BRANCH  25  30
ATOM     30  C   UNL     1      -3.633  -0.813  -8.748  1.00  0.00     0.243 C 
ATOM     31  O   UNL     1      -3.792  -1.424  -7.693  1.00  0.00    -0.273 OA
ATOM     32  N   UNL     1      -2.659  -1.147  -9.653  1.00  0.00    -0.342 N 
ATOM     33  H   UNL     1      -2.681  -0.685 -10.566  1.00  0.00     0.164 HD
BRANCH  32  34
ATOM     34  C   UNL     1      -1.708  -2.242  -9.439  1.00  0.00     0.175 C 
BRANCH  34  35
ATOM     35  C   UNL     1      -2.045  -3.454 -10.320  1.00  0.00     0.070 C 
BRANCH  35  36
ATOM     36  C   UNL     1      -3.405  -4.040 -10.014  1.00  0.00    -0.045 A 
ATOM     37  C   UNL     1      -3.531  -5.064  -9.063  1.00  0.00     0.007 A 
ATOM     38  C   UNL     1      -4.550  -3.589 -10.685  1.00  0.00     0.007 A 
ATOM     39  C   UNL     1      -4.779  -5.620  -8.784  1.00  0.00     0.046 A 
ATOM     40  C   UNL     1      -5.800  -4.146 -10.407  1.00  0.00     0.046 A 
ATOM     41  C   UNL     1      -5.903  -5.156  -9.456  1.00  0.00     0.115 A 
BRANCH  41  42
ATOM     42  O   UNL     1      -7.104  -5.728  -9.156  1.00  0.00    -0.508 OA
ATOM     43  H   UNL     1      -7.314  -5.527  -8.229  1.00  0.00     0.293 HD
ENDBRANCH  41  42
ENDBRANCH  35  36
ENDBRANCH  34  35
BRANCH  34  44
ATOM     44  C   UNL     1      -0.287  -1.703  -9.718  1.00  0.00     0.243 C 
ATOM     45  O   UNL     1       0.744  -2.354  -9.571  1.00  0.00    -0.273 OA
ATOM     46  N   UNL     1      -0.261  -0.360 -10.030  1.00  0.00    -0.341 N 
ATOM     47  H   UNL     1      -1.131   0.166 -10.025  1.00  0.00     0.164 HD
BRANCH  46  48
ATOM     48  C   UNL     1       0.976   0.388 -10.268  1.00  0.00     0.196 C 
BRANCH  48  49
ATOM     49  C   UNL     1       2.098  -0.068  -9.319  1.00  0.00     0.072 C 
BRANCH  49  50
ATOM     50  C   UNL     1       2.249   0.839  -8.119  1.00  0.00    -0.045 A 
ATOM     51  C   UNL     1       2.843   2.101  -8.266  1.00  0.00     0.007 A 
ATOM     52  C   UNL     1       1.822   0.430  -6.849  1.00  0.00     0.007 A 
ATOM     53  C   UNL     1       3.000   2.940  -7.163  1.00  0.00     0.046 A 
ATOM     54  C   UNL     1       1.981   1.271  -5.744  1.00  0.00     0.046 A 
ATOM     55  C   UNL     1       2.568   2.520  -5.912  1.00  0.00     0.115 A 
BRANCH  55  56
ATOM     56  O   UNL     1       2.741   3.369  -4.859  1.00  0.00    -0.508 OA
ATOM     57  H   UNL     1       3.545   3.107  -4.383  1.00  0.00     0.293 HD
ENDBRANCH  55  56
ENDBRANCH  49  50
ENDBRANCH  48  49
BRANCH  48  58
ATOM     58  C   UNL     1       1.415   0.177 -11.723  1.00  0.00     0.326 C 
ATOM     59  O   UNL     1       2.213   0.846 -12.359  1.00  0.00    -0.250 OA
BRANCH  58  60
ATOM     60  O   UNL     1       0.829  -0.894 -12.315  1.00  0.00    -0.480 OA
ATOM     61  H   UNL     1      -0.105  -0.611 -12.420  1.00  0.00     0.296 HD
ENDBRANCH  58  60
ENDBRANCH  48  58
ENDBRANCH  46  48
ENDBRANCH  34  44
ENDBRANCH  32  34
ENDBRANCH  25  30
ENDBRANCH  23  25
ENDBRANCH   2  23
TORSDOF 28
ENDMDL
MODEL 40
REMARK VINA RESULT:    -5.947      2.419      9.861
REMARK INTER + INTRA:         -19.334
REMARK INTER:                 -15.054
REMARK INTRA:                  -4.279
REMARK UNBOUND:                -4.520
REMARK SMILES CCCCCCC[C@H](N)[C@H](O)C(=O)N[C@H](C)C(=O)N(C)[C@H](CC(C)C)C(=O)N[C@@H](Cc1ccc(O)cc1)C(=O)N[C@@H](Cc1ccc(O)cc1)C(=O)O
REMARK SMILES IDX 18 1 17 2 15 3 16 4 14 5 12 6 13 7 10 9 11 10 8 12 9 13 7 16
REMARK SMILES IDX 6 17 5 18 4 19 3 20 2 21 1 22 19 23 20 24 21 25 22 26 23 27
REMARK SMILES IDX 24 28 25 29 26 30 27 31 28 32 29 34 30 35 31 36 32 37 37 38
REMARK SMILES IDX 33 39 36 40 34 41 35 42 38 44 39 45 40 46 41 48 42 49 43 50
REMARK SMILES IDX 44 51 49 52 45 53 48 54 46 55 47 56 50 58 51 59 52 60
REMARK H PARENT 14 8 11 11 9 14 9 15 28 33 35 43 40 47 47 57 52 61
ROOT
ATOM      1  O   UNL     1       1.837   2.105 -10.763  1.00  0.00    -0.272 OA
ATOM      2  C   UNL     1       2.051   0.883 -10.744  1.00  0.00     0.245 C 
ENDROOT
BRANCH   2   3
ATOM      3  C   UNL     1       2.695   0.225 -11.989  1.00  0.00     0.168 C 
ATOM      4  C   UNL     1       1.662   0.028 -13.093  1.00  0.00     0.041 C 
BRANCH   3   5
ATOM      5  N   UNL     1       3.894   0.887 -12.480  1.00  0.00    -0.342 N 
ATOM      6  C   UNL     1       5.060   0.920 -11.745  1.00  0.00     0.251 C 
ATOM      7  O   UNL     1       5.165   0.439 -10.621  1.00  0.00    -0.272 OA
ATOM      8  H   UNL     1       3.917   1.352 -13.384  1.00  0.00     0.164 HD
BRANCH   6   9
ATOM      9  C   UNL     1       6.232   1.546 -12.517  1.00  0.00     0.219 C 
BRANCH   9  10
ATOM     10  O   UNL     1       6.236   1.184 -13.904  1.00  0.00    -0.382 OA
ATOM     11  H   UNL     1       5.494   1.706 -14.281  1.00  0.00     0.211 HD
ENDBRANCH   9  10
BRANCH   9  12
ATOM     12  C   UNL     1       6.319   3.086 -12.350  1.00  0.00     0.089 C 
BRANCH  12  13
ATOM     13  N   UNL     1       5.216   3.703 -13.121  1.00  0.00    -0.325 NA
ATOM     14  H   UNL     1       4.796   4.451 -12.566  1.00  0.00     0.119 HD
ATOM     15  H   UNL     1       4.471   3.012 -13.243  1.00  0.00     0.119 HD
ENDBRANCH  12  13
BRANCH  12  16
ATOM     16  C   UNL     1       6.309   3.611 -10.894  1.00  0.00     0.022 C 
BRANCH  16  17
ATOM     17  C   UNL     1       5.857   5.052 -10.623  1.00  0.00     0.002 C 
BRANCH  17  18
ATOM     18  C   UNL     1       4.944   5.224  -9.411  1.00  0.00     0.000 C 
BRANCH  18  19
ATOM     19  C   UNL     1       5.578   6.015  -8.259  1.00  0.00    -0.000 C 
BRANCH  19  20
ATOM     20  C   UNL     1       5.712   7.521  -8.500  1.00  0.00    -0.000 C 
BRANCH  20  21
ATOM     21  C   UNL     1       6.619   8.214  -7.480  1.00  0.00    -0.003 C 
ATOM     22  C   UNL     1       7.228   7.213  -6.510  1.00  0.00     0.004 C 
ENDBRANCH  20  21
ENDBRANCH  19  20
ENDBRANCH  18  19
ENDBRANCH  17  18
ENDBRANCH  16  17
ENDBRANCH  12  16
ENDBRANCH   9  12
ENDBRANCH   6   9
ENDBRANCH   3   5
ENDBRANCH   2   3
BRANCH   2  23
ATOM     23  N   UNL     1       1.827   0.156  -9.580  1.00  0.00    -0.332 N 
ATOM     24  C   UNL     1       2.552  -1.051  -9.208  1.00  0.00     0.147 C 
BRANCH  23  25
ATOM     25  C   UNL     1       0.882   0.662  -8.547  1.00  0.00     0.174 C 
BRANCH  25  26
ATOM     26  C   UNL     1       1.515   0.740  -7.138  1.00  0.00     0.038 C 
BRANCH  26  27
ATOM     27  C   UNL     1       1.904   2.144  -6.622  1.00  0.00    -0.015 C 
ATOM     28  C   UNL     1       2.226   2.149  -5.128  1.00  0.00     0.007 C 
ATOM     29  C   UNL     1       3.036   2.791  -7.417  1.00  0.00     0.007 C 
ENDBRANCH  26  27
ENDBRANCH  25  26
BRANCH  25  30
ATOM     30  C   UNL     1      -0.437  -0.142  -8.593  1.00  0.00     0.243 C 
ATOM     31  O   UNL     1      -0.932  -0.519  -9.654  1.00  0.00    -0.273 OA
ATOM     32  N   UNL     1      -1.017  -0.400  -7.377  1.00  0.00    -0.342 N 
ATOM     33  H   UNL     1      -0.475  -0.179  -6.538  1.00  0.00     0.164 HD
BRANCH  32  34
ATOM     34  C   UNL     1      -2.281  -1.126  -7.230  1.00  0.00     0.175 C 
BRANCH  34  35
ATOM     35  C   UNL     1      -3.383  -0.512  -8.108  1.00  0.00     0.070 C 
BRANCH  35  36
ATOM     36  C   UNL     1      -4.766  -0.700  -7.527  1.00  0.00    -0.045 A 
ATOM     37  C   UNL     1      -5.801   0.180  -7.881  1.00  0.00     0.007 A 
ATOM     38  C   UNL     1      -5.030  -1.731  -6.617  1.00  0.00     0.007 A 
ATOM     39  C   UNL     1      -7.077   0.023  -7.339  1.00  0.00     0.046 A 
ATOM     40  C   UNL     1      -6.307  -1.888  -6.073  1.00  0.00     0.046 A 
ATOM     41  C   UNL     1      -7.320  -1.009  -6.441  1.00  0.00     0.115 A 
BRANCH  41  42
ATOM     42  O   UNL     1      -8.580  -1.125  -5.933  1.00  0.00    -0.508 OA
ATOM     43  H   UNL     1      -9.213  -1.044  -6.666  1.00  0.00     0.293 HD
ENDBRANCH  41  42
ENDBRANCH  35  36
ENDBRANCH  34  35
BRANCH  34  44
ATOM     44  C   UNL     1      -2.026  -2.610  -7.577  1.00  0.00     0.243 C 
ATOM     45  O   UNL     1      -1.448  -3.404  -6.841  1.00  0.00    -0.273 OA
ATOM     46  N   UNL     1      -2.394  -2.944  -8.863  1.00  0.00    -0.341 N 
ATOM     47  H   UNL     1      -2.762  -2.220  -9.475  1.00  0.00     0.164 HD
BRANCH  46  48
ATOM     48  C   UNL     1      -2.186  -4.273  -9.441  1.00  0.00     0.196 C 
BRANCH  48  49
ATOM     49  C   UNL     1      -3.232  -4.583 -10.524  1.00  0.00     0.072 C 
BRANCH  49  50
ATOM     50  C   UNL     1      -4.606  -4.058 -10.173  1.00  0.00    -0.045 A 
ATOM     51  C   UNL     1      -5.419  -4.771  -9.280  1.00  0.00     0.007 A 
ATOM     52  C   UNL     1      -5.094  -2.876 -10.743  1.00  0.00     0.007 A 
ATOM     53  C   UNL     1      -6.694  -4.304  -8.959  1.00  0.00     0.046 A 
ATOM     54  C   UNL     1      -6.370  -2.408 -10.423  1.00  0.00     0.046 A 
ATOM     55  C   UNL     1      -7.159  -3.127  -9.531  1.00  0.00     0.115 A 
BRANCH  55  56
ATOM     56  O   UNL     1      -8.411  -2.706  -9.192  1.00  0.00    -0.508 OA
ATOM     57  H   UNL     1      -8.508  -1.781  -9.470  1.00  0.00     0.293 HD
ENDBRANCH  55  56
ENDBRANCH  49  50
ENDBRANCH  48  49
BRANCH  48  58
ATOM     58  C   UNL     1      -0.779  -4.339 -10.050  1.00  0.00     0.326 C 
ATOM     59  O   UNL     1       0.026  -5.251  -9.956  1.00  0.00    -0.250 OA
BRANCH  58  60
ATOM     60  O   UNL     1      -0.451  -3.239 -10.774  1.00  0.00    -0.480 OA
ATOM     61  H   UNL     1       0.381  -2.930 -10.353  1.00  0.00     0.296 HD
ENDBRANCH  58  60
ENDBRANCH  48  58
ENDBRANCH  46  48
ENDBRANCH  34  44
ENDBRANCH  32  34
ENDBRANCH  25  30
ENDBRANCH  23  25
ENDBRANCH   2  23
TORSDOF 28
ENDMDL
MODEL 41
REMARK VINA RESULT:    -5.946      2.520      8.427
REMARK INTER + INTRA:         -19.331
REMARK INTER:                 -13.824
REMARK INTRA:                  -5.507
REMARK UNBOUND:                -4.520
REMARK SMILES CCCCCCC[C@H](N)[C@H](O)C(=O)N[C@H](C)C(=O)N(C)[C@H](CC(C)C)C(=O)N[C@@H](Cc1ccc(O)cc1)C(=O)N[C@@H](Cc1ccc(O)cc1)C(=O)O
REMARK SMILES IDX 18 1 17 2 15 3 16 4 14 5 12 6 13 7 10 9 11 10 8 12 9 13 7 16
REMARK SMILES IDX 6 17 5 18 4 19 3 20 2 21 1 22 19 23 20 24 21 25 22 26 23 27
REMARK SMILES IDX 24 28 25 29 26 30 27 31 28 32 29 34 30 35 31 36 32 37 37 38
REMARK SMILES IDX 33 39 36 40 34 41 35 42 38 44 39 45 40 46 41 48 42 49 43 50
REMARK SMILES IDX 44 51 49 52 45 53 48 54 46 55 47 56 50 58 51 59 52 60
REMARK H PARENT 14 8 11 11 9 14 9 15 28 33 35 43 40 47 47 57 52 61
ROOT
ATOM      1  O   UNL     1       1.936   4.162 -11.038  1.00  0.00    -0.272 OA
ATOM      2  C   UNL     1       1.725   2.957 -10.836  1.00  0.00     0.245 C 
ENDROOT
BRANCH   2   3
ATOM      3  C   UNL     1       1.683   2.448  -9.373  1.00  0.00     0.168 C 
ATOM      4  C   UNL     1       3.059   2.553  -8.724  1.00  0.00     0.041 C 
BRANCH   3   5
ATOM      5  N   UNL     1       0.647   3.048  -8.547  1.00  0.00    -0.342 N 
ATOM      6  C   UNL     1      -0.678   2.685  -8.664  1.00  0.00     0.251 C 
ATOM      7  O   UNL     1      -1.087   1.873  -9.488  1.00  0.00    -0.272 OA
ATOM      8  H   UNL     1       0.860   3.758  -7.851  1.00  0.00     0.164 HD
BRANCH   6   9
ATOM      9  C   UNL     1      -1.571   3.340  -7.597  1.00  0.00     0.219 C 
BRANCH   9  10
ATOM     10  O   UNL     1      -2.968   3.148  -7.852  1.00  0.00    -0.382 OA
ATOM     11  H   UNL     1      -3.298   4.058  -8.024  1.00  0.00     0.211 HD
ENDBRANCH   9  10
BRANCH   9  12
ATOM     12  C   UNL     1      -1.210   2.907  -6.152  1.00  0.00     0.089 C 
BRANCH  12  13
ATOM     13  N   UNL     1      -2.292   3.355  -5.246  1.00  0.00    -0.325 NA
ATOM     14  H   UNL     1      -2.895   2.561  -5.023  1.00  0.00     0.119 HD
ATOM     15  H   UNL     1      -2.893   4.013  -5.749  1.00  0.00     0.119 HD
ENDBRANCH  12  13
BRANCH  12  16
ATOM     16  C   UNL     1      -0.935   1.398  -5.945  1.00  0.00     0.022 C 
BRANCH  16  17
ATOM     17  C   UNL     1      -2.080   0.395  -6.147  1.00  0.00     0.002 C 
BRANCH  17  18
ATOM     18  C   UNL     1      -2.706  -0.136  -4.860  1.00  0.00     0.000 C 
BRANCH  18  19
ATOM     19  C   UNL     1      -2.731  -1.667  -4.763  1.00  0.00    -0.000 C 
BRANCH  19  20
ATOM     20  C   UNL     1      -4.002  -2.259  -4.148  1.00  0.00    -0.000 C 
BRANCH  20  21
ATOM     21  C   UNL     1      -3.740  -3.532  -3.339  1.00  0.00    -0.003 C 
ATOM     22  C   UNL     1      -2.516  -4.274  -3.853  1.00  0.00     0.004 C 
ENDBRANCH  20  21
ENDBRANCH  19  20
ENDBRANCH  18  19
ENDBRANCH  17  18
ENDBRANCH  16  17
ENDBRANCH  12  16
ENDBRANCH   9  12
ENDBRANCH   6   9
ENDBRANCH   3   5
ENDBRANCH   2   3
BRANCH   2  23
ATOM     23  N   UNL     1       1.412   2.117 -11.899  1.00  0.00    -0.332 N 
ATOM     24  C   UNL     1       0.610   2.506 -13.050  1.00  0.00     0.147 C 
BRANCH  23  25
ATOM     25  C   UNL     1       2.009   0.756 -11.982  1.00  0.00     0.174 C 
BRANCH  25  26
ATOM     26  C   UNL     1       3.025   0.614 -13.140  1.00  0.00     0.038 C 
BRANCH  26  27
ATOM     27  C   UNL     1       4.495   0.342 -12.751  1.00  0.00    -0.015 C 
ATOM     28  C   UNL     1       5.483   0.885 -13.783  1.00  0.00     0.007 C 
ATOM     29  C   UNL     1       4.855   0.834 -11.352  1.00  0.00     0.007 C 
ENDBRANCH  26  27
ENDBRANCH  25  26
BRANCH  25  30
ATOM     30  C   UNL     1       0.893  -0.314 -11.999  1.00  0.00     0.243 C 
ATOM     31  O   UNL     1       0.768  -1.108 -12.931  1.00  0.00    -0.273 OA
ATOM     32  N   UNL     1       0.055  -0.314 -10.914  1.00  0.00    -0.342 N 
ATOM     33  H   UNL     1       0.308   0.278 -10.120  1.00  0.00     0.164 HD
BRANCH  32  34
ATOM     34  C   UNL     1      -1.074  -1.239 -10.774  1.00  0.00     0.175 C 
BRANCH  34  35
ATOM     35  C   UNL     1      -1.332  -1.585  -9.299  1.00  0.00     0.070 C 
BRANCH  35  36
ATOM     36  C   UNL     1      -1.710  -3.035  -9.096  1.00  0.00    -0.045 A 
ATOM     37  C   UNL     1      -1.380  -3.989 -10.071  1.00  0.00     0.007 A 
ATOM     38  C   UNL     1      -2.412  -3.442  -7.954  1.00  0.00     0.007 A 
ATOM     39  C   UNL     1      -1.738  -5.327  -9.899  1.00  0.00     0.046 A 
ATOM     40  C   UNL     1      -2.771  -4.781  -7.782  1.00  0.00     0.046 A 
ATOM     41  C   UNL     1      -2.429  -5.712  -8.757  1.00  0.00     0.115 A 
BRANCH  41  42
ATOM     42  O   UNL     1      -2.762  -7.028  -8.629  1.00  0.00    -0.508 OA
ATOM     43  H   UNL     1      -2.782  -7.247  -7.683  1.00  0.00     0.293 HD
ENDBRANCH  41  42
ENDBRANCH  35  36
ENDBRANCH  34  35
BRANCH  34  44
ATOM     44  C   UNL     1      -2.309  -0.591 -11.439  1.00  0.00     0.243 C 
ATOM     45  O   UNL     1      -2.412  -0.370 -12.642  1.00  0.00    -0.273 OA
ATOM     46  N   UNL     1      -3.254  -0.155 -10.535  1.00  0.00    -0.341 N 
ATOM     47  H   UNL     1      -3.070  -0.257  -9.540  1.00  0.00     0.164 HD
BRANCH  46  48
ATOM     48  C   UNL     1      -4.478   0.549 -10.925  1.00  0.00     0.196 C 
BRANCH  48  49
ATOM     49  C   UNL     1      -5.420  -0.366 -11.725  1.00  0.00     0.072 C 
BRANCH  49  50
ATOM     50  C   UNL     1      -5.852  -1.584 -10.941  1.00  0.00    -0.045 A 
ATOM     51  C   UNL     1      -7.044  -1.554 -10.203  1.00  0.00     0.007 A 
ATOM     52  C   UNL     1      -5.068  -2.745 -10.922  1.00  0.00     0.007 A 
ATOM     53  C   UNL     1      -7.446  -2.667  -9.465  1.00  0.00     0.046 A 
ATOM     54  C   UNL     1      -5.470  -3.859 -10.182  1.00  0.00     0.046 A 
ATOM     55  C   UNL     1      -6.658  -3.811  -9.461  1.00  0.00     0.115 A 
BRANCH  55  56
ATOM     56  O   UNL     1      -7.085  -4.877  -8.725  1.00  0.00    -0.508 OA
ATOM     57  H   UNL     1      -6.329  -5.464  -8.569  1.00  0.00     0.293 HD
ENDBRANCH  55  56
ENDBRANCH  49  50
ENDBRANCH  48  49
BRANCH  48  58
ATOM     58  C   UNL     1      -5.193   1.045  -9.660  1.00  0.00     0.326 C 
ATOM     59  O   UNL     1      -6.210   1.716  -9.602  1.00  0.00    -0.250 OA
BRANCH  58  60
ATOM     60  O   UNL     1      -4.591   0.652  -8.509  1.00  0.00    -0.480 OA
ATOM     61  H   UNL     1      -3.668   0.970  -8.617  1.00  0.00     0.296 HD
ENDBRANCH  58  60
ENDBRANCH  48  58
ENDBRANCH  46  48
ENDBRANCH  34  44
ENDBRANCH  32  34
ENDBRANCH  25  30
ENDBRANCH  23  25
ENDBRANCH   2  23
TORSDOF 28
ENDMDL
MODEL 42
REMARK VINA RESULT:    -5.944      3.377      8.261
REMARK INTER + INTRA:         -19.326
REMARK INTER:                 -14.707
REMARK INTRA:                  -4.619
REMARK UNBOUND:                -4.520
REMARK SMILES CCCCCCC[C@H](N)[C@H](O)C(=O)N[C@H](C)C(=O)N(C)[C@H](CC(C)C)C(=O)N[C@@H](Cc1ccc(O)cc1)C(=O)N[C@@H](Cc1ccc(O)cc1)C(=O)O
REMARK SMILES IDX 18 1 17 2 15 3 16 4 14 5 12 6 13 7 10 9 11 10 8 12 9 13 7 16
REMARK SMILES IDX 6 17 5 18 4 19 3 20 2 21 1 22 19 23 20 24 21 25 22 26 23 27
REMARK SMILES IDX 24 28 25 29 26 30 27 31 28 32 29 34 30 35 31 36 32 37 37 38
REMARK SMILES IDX 33 39 36 40 34 41 35 42 38 44 39 45 40 46 41 48 42 49 43 50
REMARK SMILES IDX 44 51 49 52 45 53 48 54 46 55 47 56 50 58 51 59 52 60
REMARK H PARENT 14 8 11 11 9 14 9 15 28 33 35 43 40 47 47 57 52 61
ROOT
ATOM      1  O   UNL     1      -3.100  -1.881  -3.840  1.00  0.00    -0.272 OA
ATOM      2  C   UNL     1      -4.229  -1.616  -3.402  1.00  0.00     0.245 C 
ENDROOT
BRANCH   2   3
ATOM      3  C   UNL     1      -4.805  -2.491  -2.261  1.00  0.00     0.168 C 
ATOM      4  C   UNL     1      -6.311  -2.667  -2.421  1.00  0.00     0.041 C 
BRANCH   3   5
ATOM      5  N   UNL     1      -4.129  -3.764  -2.066  1.00  0.00    -0.342 N 
ATOM      6  C   UNL     1      -3.379  -4.025  -0.938  1.00  0.00     0.251 C 
ATOM      7  O   UNL     1      -3.193  -3.205  -0.045  1.00  0.00    -0.272 OA
ATOM      8  H   UNL     1      -4.182  -4.511  -2.755  1.00  0.00     0.164 HD
BRANCH   6   9
ATOM      9  C   UNL     1      -2.878  -5.477  -0.880  1.00  0.00     0.219 C 
BRANCH   9  10
ATOM     10  O   UNL     1      -3.891  -6.426  -1.237  1.00  0.00    -0.382 OA
ATOM     11  H   UNL     1      -4.070  -6.900  -0.395  1.00  0.00     0.211 HD
ENDBRANCH   9  10
BRANCH   9  12
ATOM     12  C   UNL     1      -1.589  -5.709  -1.710  1.00  0.00     0.089 C 
BRANCH  12  13
ATOM     13  N   UNL     1      -0.785  -6.759  -1.042  1.00  0.00    -0.325 NA
ATOM     14  H   UNL     1      -1.265  -7.656  -1.130  1.00  0.00     0.119 HD
ATOM     15  H   UNL     1      -0.760  -6.567  -0.038  1.00  0.00     0.119 HD
ENDBRANCH  12  13
BRANCH  12  16
ATOM     16  C   UNL     1      -1.798  -6.069  -3.201  1.00  0.00     0.022 C 
BRANCH  16  17
ATOM     17  C   UNL     1      -0.830  -5.501  -4.249  1.00  0.00     0.002 C 
BRANCH  17  18
ATOM     18  C   UNL     1      -1.462  -4.544  -5.258  1.00  0.00     0.000 C 
BRANCH  18  19
ATOM     19  C   UNL     1      -0.723  -4.475  -6.601  1.00  0.00    -0.000 C 
BRANCH  19  20
ATOM     20  C   UNL     1      -0.488  -5.826  -7.283  1.00  0.00    -0.000 C 
BRANCH  20  21
ATOM     21  C   UNL     1      -1.181  -5.939  -8.643  1.00  0.00    -0.003 C 
ATOM     22  C   UNL     1      -2.694  -5.928  -8.497  1.00  0.00     0.004 C 
ENDBRANCH  20  21
ENDBRANCH  19  20
ENDBRANCH  18  19
ENDBRANCH  17  18
ENDBRANCH  16  17
ENDBRANCH  12  16
ENDBRANCH   9  12
ENDBRANCH   6   9
ENDBRANCH   3   5
ENDBRANCH   2   3
BRANCH   2  23
ATOM     23  N   UNL     1      -4.900  -0.482  -3.847  1.00  0.00    -0.332 N 
ATOM     24  C   UNL     1      -5.149   0.701  -3.038  1.00  0.00     0.147 C 
BRANCH  23  25
ATOM     25  C   UNL     1      -5.306  -0.362  -5.274  1.00  0.00     0.174 C 
BRANCH  25  26
ATOM     26  C   UNL     1      -5.888  -1.676  -5.847  1.00  0.00     0.038 C 
BRANCH  26  27
ATOM     27  C   UNL     1      -7.372  -1.655  -6.277  1.00  0.00    -0.015 C 
ATOM     28  C   UNL     1      -8.131  -2.898  -5.815  1.00  0.00     0.007 C 
ATOM     29  C   UNL     1      -8.109  -0.387  -5.855  1.00  0.00     0.007 C 
ENDBRANCH  26  27
ENDBRANCH  25  26
BRANCH  25  30
ATOM     30  C   UNL     1      -4.144   0.220  -6.111  1.00  0.00     0.243 C 
ATOM     31  O   UNL     1      -3.810   1.401  -6.027  1.00  0.00    -0.273 OA
ATOM     32  N   UNL     1      -3.519  -0.663  -6.954  1.00  0.00    -0.342 N 
ATOM     33  H   UNL     1      -3.759  -1.654  -6.864  1.00  0.00     0.164 HD
BRANCH  32  34
ATOM     34  C   UNL     1      -2.416  -0.282  -7.840  1.00  0.00     0.175 C 
BRANCH  34  35
ATOM     35  C   UNL     1      -1.639  -1.514  -8.327  1.00  0.00     0.070 C 
BRANCH  35  36
ATOM     36  C   UNL     1      -0.195  -1.204  -8.652  1.00  0.00    -0.045 A 
ATOM     37  C   UNL     1       0.147  -0.698  -9.916  1.00  0.00     0.007 A 
ATOM     38  C   UNL     1       0.819  -1.437  -7.714  1.00  0.00     0.007 A 
ATOM     39  C   UNL     1       1.478  -0.422 -10.230  1.00  0.00     0.046 A 
ATOM     40  C   UNL     1       2.152  -1.162  -8.029  1.00  0.00     0.046 A 
ATOM     41  C   UNL     1       2.469  -0.655  -9.284  1.00  0.00     0.115 A 
BRANCH  41  42
ATOM     42  O   UNL     1       3.757  -0.375  -9.632  1.00  0.00    -0.508 OA
ATOM     43  H   UNL     1       3.796   0.545  -9.943  1.00  0.00     0.293 HD
ENDBRANCH  41  42
ENDBRANCH  35  36
ENDBRANCH  34  35
BRANCH  34  44
ATOM     44  C   UNL     1      -3.006   0.530  -9.016  1.00  0.00     0.243 C 
ATOM     45  O   UNL     1      -2.632   1.654  -9.340  1.00  0.00    -0.273 OA
ATOM     46  N   UNL     1      -4.099  -0.071  -9.603  1.00  0.00    -0.341 N 
ATOM     47  H   UNL     1      -4.445  -0.948  -9.223  1.00  0.00     0.164 HD
BRANCH  46  48
ATOM     48  C   UNL     1      -4.867   0.540 -10.691  1.00  0.00     0.196 C 
BRANCH  48  49
ATOM     49  C   UNL     1      -5.454  -0.526 -11.630  1.00  0.00     0.072 C 
BRANCH  49  50
ATOM     50  C   UNL     1      -5.867  -1.783 -10.898  1.00  0.00    -0.045 A 
ATOM     51  C   UNL     1      -7.100  -1.830 -10.232  1.00  0.00     0.007 A 
ATOM     52  C   UNL     1      -5.025  -2.901 -10.854  1.00  0.00     0.007 A 
ATOM     53  C   UNL     1      -7.487  -2.979  -9.542  1.00  0.00     0.046 A 
ATOM     54  C   UNL     1      -5.411  -4.052 -10.162  1.00  0.00     0.046 A 
ATOM     55  C   UNL     1      -6.640  -4.081  -9.512  1.00  0.00     0.115 A 
BRANCH  55  56
ATOM     56  O   UNL     1      -7.054  -5.183  -8.825  1.00  0.00    -0.508 OA
ATOM     57  H   UNL     1      -6.721  -5.120  -7.916  1.00  0.00     0.293 HD
ENDBRANCH  55  56
ENDBRANCH  49  50
ENDBRANCH  48  49
BRANCH  48  58
ATOM     58  C   UNL     1      -6.004   1.379 -10.090  1.00  0.00     0.326 C 
ATOM     59  O   UNL     1      -6.444   1.320  -8.954  1.00  0.00    -0.250 OA
BRANCH  58  60
ATOM     60  O   UNL     1      -6.531   2.278 -10.959  1.00  0.00    -0.480 OA
ATOM     61  H   UNL     1      -7.151   1.737 -11.495  1.00  0.00     0.296 HD
ENDBRANCH  58  60
ENDBRANCH  48  58
ENDBRANCH  46  48
ENDBRANCH  34  44
ENDBRANCH  32  34
ENDBRANCH  25  30
ENDBRANCH  23  25
ENDBRANCH   2  23
TORSDOF 28
ENDMDL
MODEL 43
REMARK VINA RESULT:    -5.925      2.495      7.866
REMARK INTER + INTRA:         -19.278
REMARK INTER:                 -12.291
REMARK INTRA:                  -6.987
REMARK UNBOUND:                -4.520
REMARK SMILES CCCCCCC[C@H](N)[C@H](O)C(=O)N[C@H](C)C(=O)N(C)[C@H](CC(C)C)C(=O)N[C@@H](Cc1ccc(O)cc1)C(=O)N[C@@H](Cc1ccc(O)cc1)C(=O)O
REMARK SMILES IDX 18 1 17 2 15 3 16 4 14 5 12 6 13 7 10 9 11 10 8 12 9 13 7 16
REMARK SMILES IDX 6 17 5 18 4 19 3 20 2 21 1 22 19 23 20 24 21 25 22 26 23 27
REMARK SMILES IDX 24 28 25 29 26 30 27 31 28 32 29 34 30 35 31 36 32 37 37 38
REMARK SMILES IDX 33 39 36 40 34 41 35 42 38 44 39 45 40 46 41 48 42 49 43 50
REMARK SMILES IDX 44 51 49 52 45 53 48 54 46 55 47 56 50 58 51 59 52 60
REMARK H PARENT 14 8 11 11 9 14 9 15 28 33 35 43 40 47 47 57 52 61
ROOT
ATOM      1  O   UNL     1       1.058   4.106 -11.955  1.00  0.00    -0.272 OA
ATOM      2  C   UNL     1       1.453   3.403 -11.013  1.00  0.00     0.245 C 
ENDROOT
BRANCH   2   3
ATOM      3  C   UNL     1       0.922   3.705  -9.589  1.00  0.00     0.168 C 
ATOM      4  C   UNL     1       1.698   4.855  -8.955  1.00  0.00     0.041 C 
BRANCH   3   5
ATOM      5  N   UNL     1      -0.515   3.909  -9.504  1.00  0.00    -0.342 N 
ATOM      6  C   UNL     1      -1.403   2.854  -9.526  1.00  0.00     0.251 C 
ATOM      7  O   UNL     1      -1.059   1.684  -9.659  1.00  0.00    -0.272 OA
ATOM      8  H   UNL     1      -0.921   4.839  -9.426  1.00  0.00     0.164 HD
BRANCH   6   9
ATOM      9  C   UNL     1      -2.855   3.294  -9.279  1.00  0.00     0.219 C 
BRANCH   9  10
ATOM     10  O   UNL     1      -2.944   4.526  -8.554  1.00  0.00    -0.382 OA
ATOM     11  H   UNL     1      -2.472   4.334  -7.714  1.00  0.00     0.211 HD
ENDBRANCH   9  10
BRANCH   9  12
ATOM     12  C   UNL     1      -3.701   3.357 -10.578  1.00  0.00     0.089 C 
BRANCH  12  13
ATOM     13  N   UNL     1      -2.793   3.189 -11.735  1.00  0.00    -0.325 NA
ATOM     14  H   UNL     1      -3.223   2.553 -12.410  1.00  0.00     0.119 HD
ATOM     15  H   UNL     1      -1.944   2.712 -11.424  1.00  0.00     0.119 HD
ENDBRANCH  12  13
BRANCH  12  16
ATOM     16  C   UNL     1      -4.874   2.352 -10.672  1.00  0.00     0.022 C 
BRANCH  16  17
ATOM     17  C   UNL     1      -4.571   0.874 -10.955  1.00  0.00     0.002 C 
BRANCH  17  18
ATOM     18  C   UNL     1      -5.790   0.021 -11.298  1.00  0.00     0.000 C 
BRANCH  18  19
ATOM     19  C   UNL     1      -5.731  -1.406 -10.736  1.00  0.00    -0.000 C 
BRANCH  19  20
ATOM     20  C   UNL     1      -6.973  -1.850  -9.958  1.00  0.00    -0.000 C 
BRANCH  20  21
ATOM     21  C   UNL     1      -6.794  -3.204  -9.266  1.00  0.00    -0.003 C 
ATOM     22  C   UNL     1      -6.082  -4.199 -10.169  1.00  0.00     0.004 C 
ENDBRANCH  20  21
ENDBRANCH  19  20
ENDBRANCH  18  19
ENDBRANCH  17  18
ENDBRANCH  16  17
ENDBRANCH  12  16
ENDBRANCH   9  12
ENDBRANCH   6   9
ENDBRANCH   3   5
ENDBRANCH   2   3
BRANCH   2  23
ATOM     23  N   UNL     1       2.258   2.296 -11.261  1.00  0.00    -0.332 N 
ATOM     24  C   UNL     1       2.173   1.464 -12.452  1.00  0.00     0.147 C 
BRANCH  23  25
ATOM     25  C   UNL     1       3.381   1.963 -10.342  1.00  0.00     0.174 C 
BRANCH  25  26
ATOM     26  C   UNL     1       4.759   1.986 -11.043  1.00  0.00     0.038 C 
BRANCH  26  27
ATOM     27  C   UNL     1       5.470   3.355 -11.144  1.00  0.00    -0.015 C 
ATOM     28  C   UNL     1       5.221   4.045 -12.484  1.00  0.00     0.007 C 
ATOM     29  C   UNL     1       5.144   4.295  -9.986  1.00  0.00     0.007 C 
ENDBRANCH  26  27
ENDBRANCH  25  26
BRANCH  25  30
ATOM     30  C   UNL     1       3.084   0.641  -9.598  1.00  0.00     0.243 C 
ATOM     31  O   UNL     1       3.906  -0.273  -9.544  1.00  0.00    -0.273 OA
ATOM     32  N   UNL     1       1.848   0.554  -9.011  1.00  0.00    -0.342 N 
ATOM     33  H   UNL     1       1.279   1.404  -8.978  1.00  0.00     0.164 HD
BRANCH  32  34
ATOM     34  C   UNL     1       1.385  -0.633  -8.287  1.00  0.00     0.175 C 
BRANCH  34  35
ATOM     35  C   UNL     1       0.430  -0.254  -7.145  1.00  0.00     0.070 C 
BRANCH  35  36
ATOM     36  C   UNL     1       0.857   1.002  -6.418  1.00  0.00    -0.045 A 
ATOM     37  C   UNL     1       2.111   1.058  -5.791  1.00  0.00     0.007 A 
ATOM     38  C   UNL     1       0.006   2.112  -6.340  1.00  0.00     0.007 A 
ATOM     39  C   UNL     1       2.507   2.207  -5.106  1.00  0.00     0.046 A 
ATOM     40  C   UNL     1       0.401   3.262  -5.654  1.00  0.00     0.046 A 
ATOM     41  C   UNL     1       1.651   3.299  -5.044  1.00  0.00     0.115 A 
BRANCH  41  42
ATOM     42  O   UNL     1       2.075   4.402  -4.362  1.00  0.00    -0.508 OA
ATOM     43  H   UNL     1       2.335   4.125  -3.468  1.00  0.00     0.293 HD
ENDBRANCH  41  42
ENDBRANCH  35  36
ENDBRANCH  34  35
BRANCH  34  44
ATOM     44  C   UNL     1       0.718  -1.584  -9.306  1.00  0.00     0.243 C 
ATOM     45  O   UNL     1       0.985  -2.777  -9.419  1.00  0.00    -0.273 OA
ATOM     46  N   UNL     1      -0.128  -0.941 -10.185  1.00  0.00    -0.341 N 
ATOM     47  H   UNL     1      -0.227   0.069 -10.125  1.00  0.00     0.164 HD
BRANCH  46  48
ATOM     48  C   UNL     1      -0.821  -1.623 -11.280  1.00  0.00     0.196 C 
BRANCH  48  49
ATOM     49  C   UNL     1      -2.292  -1.898 -10.927  1.00  0.00     0.072 C 
BRANCH  49  50
ATOM     50  C   UNL     1      -2.462  -3.118 -10.050  1.00  0.00    -0.045 A 
ATOM     51  C   UNL     1      -2.765  -2.965  -8.690  1.00  0.00     0.007 A 
ATOM     52  C   UNL     1      -2.300  -4.408 -10.572  1.00  0.00     0.007 A 
ATOM     53  C   UNL     1      -2.910  -4.083  -7.868  1.00  0.00     0.046 A 
ATOM     54  C   UNL     1      -2.445  -5.528  -9.749  1.00  0.00     0.046 A 
ATOM     55  C   UNL     1      -2.750  -5.355  -8.404  1.00  0.00     0.115 A 
BRANCH  55  56
ATOM     56  O   UNL     1      -2.899  -6.422  -7.567  1.00  0.00    -0.508 OA
ATOM     57  H   UNL     1      -3.252  -7.166  -8.080  1.00  0.00     0.293 HD
ENDBRANCH  55  56
ENDBRANCH  49  50
ENDBRANCH  48  49
BRANCH  48  58
ATOM     58  C   UNL     1      -0.749  -0.747 -12.538  1.00  0.00     0.326 C 
ATOM     59  O   UNL     1      -0.204  -1.016 -13.597  1.00  0.00    -0.250 OA
BRANCH  58  60
ATOM     60  O   UNL     1      -1.390   0.442 -12.408  1.00  0.00    -0.480 OA
ATOM     61  H   UNL     1      -1.326   0.629 -11.446  1.00  0.00     0.296 HD
ENDBRANCH  58  60
ENDBRANCH  48  58
ENDBRANCH  46  48
ENDBRANCH  34  44
ENDBRANCH  32  34
ENDBRANCH  25  30
ENDBRANCH  23  25
ENDBRANCH   2  23
TORSDOF 28
ENDMDL
MODEL 44
REMARK VINA RESULT:    -5.908      4.606      9.368
REMARK INTER + INTRA:         -19.236
REMARK INTER:                 -14.406
REMARK INTRA:                  -4.830
REMARK UNBOUND:                -4.520
REMARK SMILES CCCCCCC[C@H](N)[C@H](O)C(=O)N[C@H](C)C(=O)N(C)[C@H](CC(C)C)C(=O)N[C@@H](Cc1ccc(O)cc1)C(=O)N[C@@H](Cc1ccc(O)cc1)C(=O)O
REMARK SMILES IDX 18 1 17 2 15 3 16 4 14 5 12 6 13 7 10 9 11 10 8 12 9 13 7 16
REMARK SMILES IDX 6 17 5 18 4 19 3 20 2 21 1 22 19 23 20 24 21 25 22 26 23 27
REMARK SMILES IDX 24 28 25 29 26 30 27 31 28 32 29 34 30 35 31 36 32 37 37 38
REMARK SMILES IDX 33 39 36 40 34 41 35 42 38 44 39 45 40 46 41 48 42 49 43 50
REMARK SMILES IDX 44 51 49 52 45 53 48 54 46 55 47 56 50 58 51 59 52 60
REMARK H PARENT 14 8 11 11 9 14 9 15 28 33 35 43 40 47 47 57 52 61
ROOT
ATOM      1  O   UNL     1      -3.156  -0.934  -8.687  1.00  0.00    -0.272 OA
ATOM      2  C   UNL     1      -4.348  -1.133  -8.966  1.00  0.00     0.245 C 
ENDROOT
BRANCH   2   3
ATOM      3  C   UNL     1      -4.691  -2.193 -10.042  1.00  0.00     0.168 C 
ATOM      4  C   UNL     1      -4.923  -1.533 -11.397  1.00  0.00     0.041 C 
BRANCH   3   5
ATOM      5  N   UNL     1      -3.750  -3.299 -10.132  1.00  0.00    -0.342 N 
ATOM      6  C   UNL     1      -4.086  -4.575  -9.730  1.00  0.00     0.251 C 
ATOM      7  O   UNL     1      -5.170  -4.864  -9.235  1.00  0.00    -0.272 OA
ATOM      8  H   UNL     1      -2.808  -3.174 -10.494  1.00  0.00     0.164 HD
BRANCH   6   9
ATOM      9  C   UNL     1      -2.991  -5.606 -10.048  1.00  0.00     0.219 C 
BRANCH   9  10
ATOM     10  O   UNL     1      -1.842  -5.018 -10.671  1.00  0.00    -0.382 OA
ATOM     11  H   UNL     1      -1.102  -5.595 -10.381  1.00  0.00     0.211 HD
ENDBRANCH   9  10
BRANCH   9  12
ATOM     12  C   UNL     1      -2.577  -6.454  -8.818  1.00  0.00     0.089 C 
BRANCH  12  13
ATOM     13  N   UNL     1      -1.402  -7.274  -9.189  1.00  0.00    -0.325 NA
ATOM     14  H   UNL     1      -0.577  -6.922  -8.699  1.00  0.00     0.119 HD
ATOM     15  H   UNL     1      -1.201  -7.134 -10.183  1.00  0.00     0.119 HD
ENDBRANCH  12  13
BRANCH  12  16
ATOM     16  C   UNL     1      -2.286  -5.666  -7.518  1.00  0.00     0.022 C 
BRANCH  16  17
ATOM     17  C   UNL     1      -0.897  -5.042  -7.318  1.00  0.00     0.002 C 
BRANCH  17  18
ATOM     18  C   UNL     1      -0.886  -3.519  -7.202  1.00  0.00     0.000 C 
BRANCH  18  19
ATOM     19  C   UNL     1      -0.059  -2.816  -8.286  1.00  0.00    -0.000 C 
BRANCH  19  20
ATOM     20  C   UNL     1       0.221  -1.332  -8.031  1.00  0.00    -0.000 C 
BRANCH  20  21
ATOM     21  C   UNL     1       1.667  -1.058  -7.611  1.00  0.00    -0.003 C 
ATOM     22  C   UNL     1       1.797   0.288  -6.916  1.00  0.00     0.004 C 
ENDBRANCH  20  21
ENDBRANCH  19  20
ENDBRANCH  18  19
ENDBRANCH  17  18
ENDBRANCH  16  17
ENDBRANCH  12  16
ENDBRANCH   9  12
ENDBRANCH   6   9
ENDBRANCH   3   5
ENDBRANCH   2   3
BRANCH   2  23
ATOM     23  N   UNL     1      -5.348  -0.502  -8.233  1.00  0.00    -0.332 N 
ATOM     24  C   UNL     1      -5.855   0.834  -8.509  1.00  0.00     0.147 C 
BRANCH  23  25
ATOM     25  C   UNL     1      -6.073  -1.239  -7.161  1.00  0.00     0.174 C 
BRANCH  25  26
ATOM     26  C   UNL     1      -7.529  -0.752  -6.975  1.00  0.00     0.038 C 
BRANCH  26  27
ATOM     27  C   UNL     1      -7.953  -0.342  -5.547  1.00  0.00    -0.015 C 
ATOM     28  C   UNL     1      -8.139   1.168  -5.404  1.00  0.00     0.007 C 
ATOM     29  C   UNL     1      -9.187  -1.086  -5.043  1.00  0.00     0.007 C 
ENDBRANCH  26  27
ENDBRANCH  25  26
BRANCH  25  30
ATOM     30  C   UNL     1      -5.243  -1.231  -5.857  1.00  0.00     0.243 C 
ATOM     31  O   UNL     1      -4.472  -0.313  -5.582  1.00  0.00    -0.273 OA
ATOM     32  N   UNL     1      -5.421  -2.314  -5.035  1.00  0.00    -0.342 N 
ATOM     33  H   UNL     1      -6.180  -2.962  -5.262  1.00  0.00     0.164 HD
BRANCH  32  34
ATOM     34  C   UNL     1      -4.699  -2.489  -3.772  1.00  0.00     0.175 C 
BRANCH  34  35
ATOM     35  C   UNL     1      -3.185  -2.606  -4.005  1.00  0.00     0.070 C 
BRANCH  35  36
ATOM     36  C   UNL     1      -2.556  -3.732  -3.215  1.00  0.00    -0.045 A 
ATOM     37  C   UNL     1      -2.510  -3.665  -1.814  1.00  0.00     0.007 A 
ATOM     38  C   UNL     1      -1.995  -4.839  -3.864  1.00  0.00     0.007 A 
ATOM     39  C   UNL     1      -1.920  -4.693  -1.077  1.00  0.00     0.046 A 
ATOM     40  C   UNL     1      -1.403  -5.868  -3.127  1.00  0.00     0.046 A 
ATOM     41  C   UNL     1      -1.372  -5.785  -1.739  1.00  0.00     0.115 A 
BRANCH  41  42
ATOM     42  O   UNL     1      -0.803  -6.766  -0.982  1.00  0.00    -0.508 OA
ATOM     43  H   UNL     1       0.161  -6.643  -0.999  1.00  0.00     0.293 HD
ENDBRANCH  41  42
ENDBRANCH  35  36
ENDBRANCH  34  35
BRANCH  34  44
ATOM     44  C   UNL     1      -5.050  -1.299  -2.851  1.00  0.00     0.243 C 
ATOM     45  O   UNL     1      -6.187  -1.024  -2.476  1.00  0.00    -0.273 OA
ATOM     46  N   UNL     1      -3.976  -0.477  -2.582  1.00  0.00    -0.341 N 
ATOM     47  H   UNL     1      -3.078  -0.682  -3.011  1.00  0.00     0.164 HD
BRANCH  46  48
ATOM     48  C   UNL     1      -4.079   0.750  -1.788  1.00  0.00     0.196 C 
BRANCH  48  49
ATOM     49  C   UNL     1      -2.988   0.810  -0.706  1.00  0.00     0.072 C 
BRANCH  49  50
ATOM     50  C   UNL     1      -3.107  -0.310   0.303  1.00  0.00    -0.045 A 
ATOM     51  C   UNL     1      -4.372  -0.705   0.763  1.00  0.00     0.007 A 
ATOM     52  C   UNL     1      -1.968  -0.952   0.805  1.00  0.00     0.007 A 
ATOM     53  C   UNL     1      -4.494  -1.728   1.704  1.00  0.00     0.046 A 
ATOM     54  C   UNL     1      -2.090  -1.975   1.748  1.00  0.00     0.046 A 
ATOM     55  C   UNL     1      -3.353  -2.355   2.188  1.00  0.00     0.115 A 
BRANCH  55  56
ATOM     56  O   UNL     1      -3.515  -3.349   3.108  1.00  0.00    -0.508 OA
ATOM     57  H   UNL     1      -2.970  -3.140   3.883  1.00  0.00     0.293 HD
ENDBRANCH  55  56
ENDBRANCH  49  50
ENDBRANCH  48  49
BRANCH  48  58
ATOM     58  C   UNL     1      -3.946   1.961  -2.721  1.00  0.00     0.326 C 
ATOM     59  O   UNL     1      -3.085   2.826  -2.692  1.00  0.00    -0.250 OA
BRANCH  58  60
ATOM     60  O   UNL     1      -4.910   2.020  -3.674  1.00  0.00    -0.480 OA
ATOM     61  H   UNL     1      -5.402   2.839  -3.447  1.00  0.00     0.296 HD
ENDBRANCH  58  60
ENDBRANCH  48  58
ENDBRANCH  46  48
ENDBRANCH  34  44
ENDBRANCH  32  34
ENDBRANCH  25  30
ENDBRANCH  23  25
ENDBRANCH   2  23
TORSDOF 28
ENDMDL
MODEL 45
REMARK VINA RESULT:    -5.893      2.492      6.034
REMARK INTER + INTRA:         -19.198
REMARK INTER:                 -13.217
REMARK INTRA:                  -5.981
REMARK UNBOUND:                -4.520
REMARK SMILES CCCCCCC[C@H](N)[C@H](O)C(=O)N[C@H](C)C(=O)N(C)[C@H](CC(C)C)C(=O)N[C@@H](Cc1ccc(O)cc1)C(=O)N[C@@H](Cc1ccc(O)cc1)C(=O)O
REMARK SMILES IDX 18 1 17 2 15 3 16 4 14 5 12 6 13 7 10 9 11 10 8 12 9 13 7 16
REMARK SMILES IDX 6 17 5 18 4 19 3 20 2 21 1 22 19 23 20 24 21 25 22 26 23 27
REMARK SMILES IDX 24 28 25 29 26 30 27 31 28 32 29 34 30 35 31 36 32 37 37 38
REMARK SMILES IDX 33 39 36 40 34 41 35 42 38 44 39 45 40 46 41 48 42 49 43 50
REMARK SMILES IDX 44 51 49 52 45 53 48 54 46 55 47 56 50 58 51 59 52 60
REMARK H PARENT 14 8 11 11 9 14 9 15 28 33 35 43 40 47 47 57 52 61
ROOT
ATOM      1  O   UNL     1      -2.550  -0.775  -7.751  1.00  0.00    -0.272 OA
ATOM      2  C   UNL     1      -2.648  -2.002  -7.901  1.00  0.00     0.245 C 
ENDROOT
BRANCH   2   3
ATOM      3  C   UNL     1      -3.777  -2.752  -7.151  1.00  0.00     0.168 C 
ATOM      4  C   UNL     1      -3.776  -2.393  -5.669  1.00  0.00     0.041 C 
BRANCH   3   5
ATOM      5  N   UNL     1      -5.100  -2.613  -7.741  1.00  0.00    -0.342 N 
ATOM      6  C   UNL     1      -5.594  -3.530  -8.644  1.00  0.00     0.251 C 
ATOM      7  O   UNL     1      -4.954  -4.496  -9.046  1.00  0.00    -0.272 OA
ATOM      8  H   UNL     1      -5.710  -1.833  -7.510  1.00  0.00     0.164 HD
BRANCH   6   9
ATOM      9  C   UNL     1      -7.059  -3.261  -9.024  1.00  0.00     0.219 C 
BRANCH   9  10
ATOM     10  O   UNL     1      -7.865  -2.903  -7.895  1.00  0.00    -0.382 OA
ATOM     11  H   UNL     1      -7.211  -2.587  -7.234  1.00  0.00     0.211 HD
ENDBRANCH   9  10
BRANCH   9  12
ATOM     12  C   UNL     1      -7.211  -2.218 -10.162  1.00  0.00     0.089 C 
BRANCH  12  13
ATOM     13  N   UNL     1      -8.637  -1.830 -10.252  1.00  0.00    -0.325 NA
ATOM     14  H   UNL     1      -8.702  -0.863 -10.577  1.00  0.00     0.119 HD
ATOM     15  H   UNL     1      -9.039  -1.823  -9.312  1.00  0.00     0.119 HD
ENDBRANCH  12  13
BRANCH  12  16
ATOM     16  C   UNL     1      -6.322  -0.956 -10.049  1.00  0.00     0.022 C 
BRANCH  16  17
ATOM     17  C   UNL     1      -5.157  -0.773 -11.030  1.00  0.00     0.002 C 
BRANCH  17  18
ATOM     18  C   UNL     1      -4.825   0.677 -11.374  1.00  0.00     0.000 C 
BRANCH  18  19
ATOM     19  C   UNL     1      -3.661   1.260 -10.562  1.00  0.00    -0.000 C 
BRANCH  19  20
ATOM     20  C   UNL     1      -2.266   0.817 -11.013  1.00  0.00    -0.000 C 
BRANCH  20  21
ATOM     21  C   UNL     1      -1.960   1.189 -12.466  1.00  0.00    -0.003 C 
ATOM     22  C   UNL     1      -1.569  -0.034 -13.281  1.00  0.00     0.004 C 
ENDBRANCH  20  21
ENDBRANCH  19  20
ENDBRANCH  18  19
ENDBRANCH  17  18
ENDBRANCH  16  17
ENDBRANCH  12  16
ENDBRANCH   9  12
ENDBRANCH   6   9
ENDBRANCH   3   5
ENDBRANCH   2   3
BRANCH   2  23
ATOM     23  N   UNL     1      -1.835  -2.658  -8.819  1.00  0.00    -0.332 N 
ATOM     24  C   UNL     1      -2.152  -2.829 -10.229  1.00  0.00     0.147 C 
BRANCH  23  25
ATOM     25  C   UNL     1      -0.481  -3.132  -8.419  1.00  0.00     0.174 C 
BRANCH  25  26
ATOM     26  C   UNL     1      -0.380  -3.463  -6.911  1.00  0.00     0.038 C 
BRANCH  26  27
ATOM     27  C   UNL     1      -0.831  -4.874  -6.473  1.00  0.00    -0.015 C 
ATOM     28  C   UNL     1      -0.682  -5.909  -7.588  1.00  0.00     0.007 C 
ATOM     29  C   UNL     1      -0.151  -5.359  -5.195  1.00  0.00     0.007 C 
ENDBRANCH  26  27
ENDBRANCH  25  26
BRANCH  25  30
ATOM     30  C   UNL     1       0.597  -2.139  -8.911  1.00  0.00     0.243 C 
ATOM     31  O   UNL     1       1.597  -2.515  -9.519  1.00  0.00    -0.273 OA
ATOM     32  N   UNL     1       0.365  -0.820  -8.620  1.00  0.00    -0.342 N 
ATOM     33  H   UNL     1      -0.552  -0.572  -8.239  1.00  0.00     0.164 HD
BRANCH  32  34
ATOM     34  C   UNL     1       1.291   0.256  -8.984  1.00  0.00     0.175 C 
BRANCH  34  35
ATOM     35  C   UNL     1       1.257   0.535 -10.495  1.00  0.00     0.070 C 
BRANCH  35  36
ATOM     36  C   UNL     1       2.638   0.589 -11.110  1.00  0.00    -0.045 A 
ATOM     37  C   UNL     1       2.815   0.269 -12.464  1.00  0.00     0.007 A 
ATOM     38  C   UNL     1       3.755   0.934 -10.339  1.00  0.00     0.007 A 
ATOM     39  C   UNL     1       4.087   0.303 -13.038  1.00  0.00     0.046 A 
ATOM     40  C   UNL     1       5.029   0.967 -10.912  1.00  0.00     0.046 A 
ATOM     41  C   UNL     1       5.183   0.652 -12.258  1.00  0.00     0.115 A 
BRANCH  41  42
ATOM     42  O   UNL     1       6.408   0.670 -12.856  1.00  0.00    -0.508 OA
ATOM     43  H   UNL     1       6.771   1.568 -12.780  1.00  0.00     0.293 HD
ENDBRANCH  41  42
ENDBRANCH  35  36
ENDBRANCH  34  35
BRANCH  34  44
ATOM     44  C   UNL     1       0.919   1.508  -8.158  1.00  0.00     0.243 C 
ATOM     45  O   UNL     1       1.235   1.685  -6.985  1.00  0.00    -0.273 OA
ATOM     46  N   UNL     1       0.074   2.373  -8.822  1.00  0.00    -0.341 N 
ATOM     47  H   UNL     1      -0.255   2.125  -9.752  1.00  0.00     0.164 HD
BRANCH  46  48
ATOM     48  C   UNL     1      -0.468   3.592  -8.218  1.00  0.00     0.196 C 
BRANCH  48  49
ATOM     49  C   UNL     1      -0.163   4.828  -9.081  1.00  0.00     0.072 C 
BRANCH  49  50
ATOM     50  C   UNL     1       0.764   4.517 -10.234  1.00  0.00    -0.045 A 
ATOM     51  C   UNL     1       2.146   4.710 -10.091  1.00  0.00     0.007 A 
ATOM     52  C   UNL     1       0.262   4.058 -11.458  1.00  0.00     0.007 A 
ATOM     53  C   UNL     1       3.010   4.440 -11.153  1.00  0.00     0.046 A 
ATOM     54  C   UNL     1       1.127   3.788 -12.521  1.00  0.00     0.046 A 
ATOM     55  C   UNL     1       2.495   3.981 -12.359  1.00  0.00     0.115 A 
BRANCH  55  56
ATOM     56  O   UNL     1       3.372   3.730 -13.372  1.00  0.00    -0.508 OA
ATOM     57  H   UNL     1       3.244   2.815 -13.668  1.00  0.00     0.293 HD
ENDBRANCH  55  56
ENDBRANCH  49  50
ENDBRANCH  48  49
BRANCH  48  58
ATOM     58  C   UNL     1      -1.987   3.437  -8.059  1.00  0.00     0.326 C 
ATOM     59  O   UNL     1      -2.855   4.179  -8.491  1.00  0.00    -0.250 OA
BRANCH  58  60
ATOM     60  O   UNL     1      -2.349   2.329  -7.364  1.00  0.00    -0.480 OA
ATOM     61  H   UNL     1      -2.067   2.536  -6.446  1.00  0.00     0.296 HD
ENDBRANCH  58  60
ENDBRANCH  48  58
ENDBRANCH  46  48
ENDBRANCH  34  44
ENDBRANCH  32  34
ENDBRANCH  25  30
ENDBRANCH  23  25
ENDBRANCH   2  23
TORSDOF 28
ENDMDL
MODEL 46
REMARK VINA RESULT:    -5.881      2.034      6.544
REMARK INTER + INTRA:         -19.169
REMARK INTER:                 -14.054
REMARK INTRA:                  -5.115
REMARK UNBOUND:                -4.520
REMARK SMILES CCCCCCC[C@H](N)[C@H](O)C(=O)N[C@H](C)C(=O)N(C)[C@H](CC(C)C)C(=O)N[C@@H](Cc1ccc(O)cc1)C(=O)N[C@@H](Cc1ccc(O)cc1)C(=O)O
REMARK SMILES IDX 18 1 17 2 15 3 16 4 14 5 12 6 13 7 10 9 11 10 8 12 9 13 7 16
REMARK SMILES IDX 6 17 5 18 4 19 3 20 2 21 1 22 19 23 20 24 21 25 22 26 23 27
REMARK SMILES IDX 24 28 25 29 26 30 27 31 28 32 29 34 30 35 31 36 32 37 37 38
REMARK SMILES IDX 33 39 36 40 34 41 35 42 38 44 39 45 40 46 41 48 42 49 43 50
REMARK SMILES IDX 44 51 49 52 45 53 48 54 46 55 47 56 50 58 51 59 52 60
REMARK H PARENT 14 8 11 11 9 14 9 15 28 33 35 43 40 47 47 57 52 61
ROOT
ATOM      1  O   UNL     1      -1.762   1.592  -8.756  1.00  0.00    -0.272 OA
ATOM      2  C   UNL     1      -1.300   1.507  -7.609  1.00  0.00     0.245 C 
ENDROOT
BRANCH   2   3
ATOM      3  C   UNL     1      -1.274   0.118  -6.922  1.00  0.00     0.168 C 
ATOM      4  C   UNL     1      -2.223   0.086  -5.729  1.00  0.00     0.041 C 
BRANCH   3   5
ATOM      5  N   UNL     1      -1.488  -1.009  -7.815  1.00  0.00    -0.342 N 
ATOM      6  C   UNL     1      -0.481  -1.903  -8.114  1.00  0.00     0.251 C 
ATOM      7  O   UNL     1       0.665  -1.796  -7.692  1.00  0.00    -0.272 OA
ATOM      8  H   UNL     1      -2.389  -1.182  -8.255  1.00  0.00     0.164 HD
BRANCH   6   9
ATOM      9  C   UNL     1      -0.970  -3.089  -8.960  1.00  0.00     0.219 C 
BRANCH   9  10
ATOM     10  O   UNL     1       0.068  -3.660  -9.765  1.00  0.00    -0.382 OA
ATOM     11  H   UNL     1       0.767  -2.969  -9.764  1.00  0.00     0.211 HD
ENDBRANCH   9  10
BRANCH   9  12
ATOM     12  C   UNL     1      -1.680  -4.183  -8.121  1.00  0.00     0.089 C 
BRANCH  12  13
ATOM     13  N   UNL     1      -1.410  -3.923  -6.688  1.00  0.00    -0.325 NA
ATOM     14  H   UNL     1      -1.275  -4.813  -6.205  1.00  0.00     0.119 HD
ATOM     15  H   UNL     1      -2.245  -3.512  -6.263  1.00  0.00     0.119 HD
ENDBRANCH  12  13
BRANCH  12  16
ATOM     16  C   UNL     1      -3.202  -4.337  -8.355  1.00  0.00     0.022 C 
BRANCH  16  17
ATOM     17  C   UNL     1      -3.696  -4.979  -9.659  1.00  0.00     0.002 C 
BRANCH  17  18
ATOM     18  C   UNL     1      -4.864  -4.259 -10.330  1.00  0.00     0.000 C 
BRANCH  18  19
ATOM     19  C   UNL     1      -6.230  -4.564  -9.702  1.00  0.00    -0.000 C 
BRANCH  19  20
ATOM     20  C   UNL     1      -7.156  -3.355  -9.541  1.00  0.00    -0.000 C 
BRANCH  20  21
ATOM     21  C   UNL     1      -6.968  -2.629  -8.206  1.00  0.00    -0.003 C 
ATOM     22  C   UNL     1      -8.255  -1.958  -7.753  1.00  0.00     0.004 C 
ENDBRANCH  20  21
ENDBRANCH  19  20
ENDBRANCH  18  19
ENDBRANCH  17  18
ENDBRANCH  16  17
ENDBRANCH  12  16
ENDBRANCH   9  12
ENDBRANCH   6   9
ENDBRANCH   3   5
ENDBRANCH   2   3
BRANCH   2  23
ATOM     23  N   UNL     1      -0.709   2.616  -7.013  1.00  0.00    -0.332 N 
ATOM     24  C   UNL     1      -1.443   3.710  -6.395  1.00  0.00     0.147 C 
BRANCH  23  25
ATOM     25  C   UNL     1       0.770   2.686  -6.856  1.00  0.00     0.174 C 
BRANCH  25  26
ATOM     26  C   UNL     1       1.214   3.715  -5.791  1.00  0.00     0.038 C 
BRANCH  26  27
ATOM     27  C   UNL     1       2.061   3.182  -4.613  1.00  0.00    -0.015 C 
ATOM     28  C   UNL     1       2.504   1.734  -4.819  1.00  0.00     0.007 C 
ATOM     29  C   UNL     1       3.258   4.068  -4.276  1.00  0.00     0.007 C 
ENDBRANCH  26  27
ENDBRANCH  25  26
BRANCH  25  30
ATOM     30  C   UNL     1       1.441   2.887  -8.234  1.00  0.00     0.243 C 
ATOM     31  O   UNL     1       1.798   3.997  -8.627  1.00  0.00    -0.273 OA
ATOM     32  N   UNL     1       1.606   1.752  -8.985  1.00  0.00    -0.342 N 
ATOM     33  H   UNL     1       1.416   0.854  -8.534  1.00  0.00     0.164 HD
BRANCH  32  34
ATOM     34  C   UNL     1       2.199   1.757 -10.325  1.00  0.00     0.175 C 
BRANCH  34  35
ATOM     35  C   UNL     1       3.517   0.968 -10.356  1.00  0.00     0.070 C 
BRANCH  35  36
ATOM     36  C   UNL     1       4.666   1.772 -10.924  1.00  0.00    -0.045 A 
ATOM     37  C   UNL     1       4.941   3.053 -10.423  1.00  0.00     0.007 A 
ATOM     38  C   UNL     1       5.452   1.264 -11.966  1.00  0.00     0.007 A 
ATOM     39  C   UNL     1       5.990   3.807 -10.950  1.00  0.00     0.046 A 
ATOM     40  C   UNL     1       6.502   2.019 -12.495  1.00  0.00     0.046 A 
ATOM     41  C   UNL     1       6.762   3.284 -11.980  1.00  0.00     0.115 A 
BRANCH  41  42
ATOM     42  O   UNL     1       7.775   4.055 -12.469  1.00  0.00    -0.508 OA
ATOM     43  H   UNL     1       7.391   4.727 -13.056  1.00  0.00     0.293 HD
ENDBRANCH  41  42
ENDBRANCH  35  36
ENDBRANCH  34  35
BRANCH  34  44
ATOM     44  C   UNL     1       1.158   1.180 -11.311  1.00  0.00     0.243 C 
ATOM     45  O   UNL     1       1.036   1.537 -12.479  1.00  0.00    -0.273 OA
ATOM     46  N   UNL     1       0.272   0.302 -10.722  1.00  0.00    -0.341 N 
ATOM     47  H   UNL     1       0.341   0.127  -9.723  1.00  0.00     0.164 HD
BRANCH  46  48
ATOM     48  C   UNL     1      -0.843  -0.320 -11.440  1.00  0.00     0.196 C 
BRANCH  48  49
ATOM     49  C   UNL     1      -1.781   0.739 -12.043  1.00  0.00     0.072 C 
BRANCH  49  50
ATOM     50  C   UNL     1      -3.231   0.503 -11.686  1.00  0.00    -0.045 A 
ATOM     51  C   UNL     1      -3.984   1.531 -11.100  1.00  0.00     0.007 A 
ATOM     52  C   UNL     1      -3.836  -0.740 -11.913  1.00  0.00     0.007 A 
ATOM     53  C   UNL     1      -5.319   1.320 -10.754  1.00  0.00     0.046 A 
ATOM     54  C   UNL     1      -5.172  -0.952 -11.566  1.00  0.00     0.046 A 
ATOM     55  C   UNL     1      -5.903   0.082 -10.990  1.00  0.00     0.115 A 
BRANCH  55  56
ATOM     56  O   UNL     1      -7.209  -0.084 -10.636  1.00  0.00    -0.508 OA
ATOM     57  H   UNL     1      -7.731   0.620 -11.053  1.00  0.00     0.293 HD
ENDBRANCH  55  56
ENDBRANCH  49  50
ENDBRANCH  48  49
BRANCH  48  58
ATOM     58  C   UNL     1      -0.283  -1.208 -12.559  1.00  0.00     0.326 C 
ATOM     59  O   UNL     1       0.261  -2.294 -12.438  1.00  0.00    -0.250 OA
BRANCH  58  60
ATOM     60  O   UNL     1      -0.450  -0.686 -13.800  1.00  0.00    -0.480 OA
ATOM     61  H   UNL     1      -0.801  -1.443 -14.318  1.00  0.00     0.296 HD
ENDBRANCH  58  60
ENDBRANCH  48  58
ENDBRANCH  46  48
ENDBRANCH  34  44
ENDBRANCH  32  34
ENDBRANCH  25  30
ENDBRANCH  23  25
ENDBRANCH   2  23
TORSDOF 28
ENDMDL
MODEL 47
REMARK VINA RESULT:    -5.863      2.750     10.600
REMARK INTER + INTRA:         -19.124
REMARK INTER:                 -16.057
REMARK INTRA:                  -3.067
REMARK UNBOUND:                -4.520
REMARK SMILES CCCCCCC[C@H](N)[C@H](O)C(=O)N[C@H](C)C(=O)N(C)[C@H](CC(C)C)C(=O)N[C@@H](Cc1ccc(O)cc1)C(=O)N[C@@H](Cc1ccc(O)cc1)C(=O)O
REMARK SMILES IDX 18 1 17 2 15 3 16 4 14 5 12 6 13 7 10 9 11 10 8 12 9 13 7 16
REMARK SMILES IDX 6 17 5 18 4 19 3 20 2 21 1 22 19 23 20 24 21 25 22 26 23 27
REMARK SMILES IDX 24 28 25 29 26 30 27 31 28 32 29 34 30 35 31 36 32 37 37 38
REMARK SMILES IDX 33 39 36 40 34 41 35 42 38 44 39 45 40 46 41 48 42 49 43 50
REMARK SMILES IDX 44 51 49 52 45 53 48 54 46 55 47 56 50 58 51 59 52 60
REMARK H PARENT 14 8 11 11 9 14 9 15 28 33 35 43 40 47 47 57 52 61
ROOT
ATOM      1  O   UNL     1       0.922   2.573 -11.189  1.00  0.00    -0.272 OA
ATOM      2  C   UNL     1       0.988   1.634 -11.997  1.00  0.00     0.245 C 
ENDROOT
BRANCH   2   3
ATOM      3  C   UNL     1       2.373   1.007 -12.293  1.00  0.00     0.168 C 
ATOM      4  C   UNL     1       2.349   0.237 -13.609  1.00  0.00     0.041 C 
BRANCH   3   5
ATOM      5  N   UNL     1       3.491   1.936 -12.229  1.00  0.00    -0.342 N 
ATOM      6  C   UNL     1       4.697   1.584 -11.661  1.00  0.00     0.251 C 
ATOM      7  O   UNL     1       4.907   0.495 -11.138  1.00  0.00    -0.272 OA
ATOM      8  H   UNL     1       3.424   2.881 -12.600  1.00  0.00     0.164 HD
BRANCH   6   9
ATOM      9  C   UNL     1       5.773   2.669 -11.833  1.00  0.00     0.219 C 
BRANCH   9  10
ATOM     10  O   UNL     1       6.025   2.985 -13.208  1.00  0.00    -0.382 OA
ATOM     11  H   UNL     1       6.181   3.955 -13.197  1.00  0.00     0.211 HD
ENDBRANCH   9  10
BRANCH   9  12
ATOM     12  C   UNL     1       5.476   3.955 -11.018  1.00  0.00     0.089 C 
BRANCH  12  13
ATOM     13  N   UNL     1       4.579   3.600  -9.895  1.00  0.00    -0.325 NA
ATOM     14  H   UNL     1       4.973   3.960  -9.023  1.00  0.00     0.119 HD
ATOM     15  H   UNL     1       4.574   2.583  -9.784  1.00  0.00     0.119 HD
ENDBRANCH  12  13
BRANCH  12  16
ATOM     16  C   UNL     1       6.712   4.723 -10.489  1.00  0.00     0.022 C 
BRANCH  16  17
ATOM     17  C   UNL     1       6.501   5.989  -9.648  1.00  0.00     0.002 C 
BRANCH  17  18
ATOM     18  C   UNL     1       7.608   6.283  -8.638  1.00  0.00     0.000 C 
BRANCH  18  19
ATOM     19  C   UNL     1       8.956   5.638  -8.983  1.00  0.00    -0.000 C 
BRANCH  19  20
ATOM     20  C   UNL     1      10.184   6.508  -8.701  1.00  0.00    -0.000 C 
BRANCH  20  21
ATOM     21  C   UNL     1      10.386   6.795  -7.211  1.00  0.00    -0.003 C 
ATOM     22  C   UNL     1      10.473   5.508  -6.405  1.00  0.00     0.004 C 
ENDBRANCH  20  21
ENDBRANCH  19  20
ENDBRANCH  18  19
ENDBRANCH  17  18
ENDBRANCH  16  17
ENDBRANCH  12  16
ENDBRANCH   9  12
ENDBRANCH   6   9
ENDBRANCH   3   5
ENDBRANCH   2   3
BRANCH   2  23
ATOM     23  N   UNL     1      -0.177   1.086 -12.523  1.00  0.00    -0.332 N 
ATOM     24  C   UNL     1      -0.625   1.261 -13.896  1.00  0.00     0.147 C 
BRANCH  23  25
ATOM     25  C   UNL     1      -1.000   0.148 -11.710  1.00  0.00     0.174 C 
BRANCH  25  26
ATOM     26  C   UNL     1      -1.800   0.861 -10.595  1.00  0.00     0.038 C 
BRANCH  26  27
ATOM     27  C   UNL     1      -3.334   0.677 -10.607  1.00  0.00    -0.015 C 
ATOM     28  C   UNL     1      -4.081   2.008 -10.689  1.00  0.00     0.007 C 
ATOM     29  C   UNL     1      -3.822  -0.281 -11.690  1.00  0.00     0.007 C 
ENDBRANCH  26  27
ENDBRANCH  25  26
BRANCH  25  30
ATOM     30  C   UNL     1      -0.126  -1.020 -11.198  1.00  0.00     0.243 C 
ATOM     31  O   UNL     1       0.295  -1.895 -11.953  1.00  0.00    -0.273 OA
ATOM     32  N   UNL     1       0.142  -1.016  -9.854  1.00  0.00    -0.342 N 
ATOM     33  H   UNL     1      -0.122  -0.183  -9.321  1.00  0.00     0.164 HD
BRANCH  32  34
ATOM     34  C   UNL     1       0.930  -2.057  -9.190  1.00  0.00     0.175 C 
BRANCH  34  35
ATOM     35  C   UNL     1       1.634  -1.513  -7.937  1.00  0.00     0.070 C 
BRANCH  35  36
ATOM     36  C   UNL     1       1.385  -0.037  -7.721  1.00  0.00    -0.045 A 
ATOM     37  C   UNL     1       0.197   0.392  -7.109  1.00  0.00     0.007 A 
ATOM     38  C   UNL     1       2.316   0.919  -8.146  1.00  0.00     0.007 A 
ATOM     39  C   UNL     1      -0.048   1.752  -6.918  1.00  0.00     0.046 A 
ATOM     40  C   UNL     1       2.071   2.281  -7.956  1.00  0.00     0.046 A 
ATOM     41  C   UNL     1       0.890   2.685  -7.342  1.00  0.00     0.115 A 
BRANCH  41  42
ATOM     42  O   UNL     1       0.611   4.004  -7.139  1.00  0.00    -0.508 OA
ATOM     43  H   UNL     1      -0.350   4.099  -7.033  1.00  0.00     0.293 HD
ENDBRANCH  41  42
ENDBRANCH  35  36
ENDBRANCH  34  35
BRANCH  34  44
ATOM     44  C   UNL     1      -0.015  -3.233  -8.856  1.00  0.00     0.243 C 
ATOM     45  O   UNL     1      -0.178  -4.218  -9.571  1.00  0.00    -0.273 OA
ATOM     46  N   UNL     1      -0.776  -3.022  -7.725  1.00  0.00    -0.341 N 
ATOM     47  H   UNL     1      -0.689  -2.138  -7.230  1.00  0.00     0.164 HD
BRANCH  46  48
ATOM     48  C   UNL     1      -1.790  -3.965  -7.248  1.00  0.00     0.196 C 
BRANCH  48  49
ATOM     49  C   UNL     1      -2.364  -3.530  -5.890  1.00  0.00     0.072 C 
BRANCH  49  50
ATOM     50  C   UNL     1      -1.934  -4.436  -4.759  1.00  0.00    -0.045 A 
ATOM     51  C   UNL     1      -2.704  -4.507  -3.588  1.00  0.00     0.007 A 
ATOM     52  C   UNL     1      -0.761  -5.196  -4.850  1.00  0.00     0.007 A 
ATOM     53  C   UNL     1      -2.310  -5.330  -2.533  1.00  0.00     0.046 A 
ATOM     54  C   UNL     1      -0.365  -6.018  -3.793  1.00  0.00     0.046 A 
ATOM     55  C   UNL     1      -1.145  -6.079  -2.643  1.00  0.00     0.115 A 
BRANCH  55  56
ATOM     56  O   UNL     1      -0.793  -6.869  -1.588  1.00  0.00    -0.508 OA
ATOM     57  H   UNL     1       0.143  -7.105  -1.682  1.00  0.00     0.293 HD
ENDBRANCH  55  56
ENDBRANCH  49  50
ENDBRANCH  48  49
BRANCH  48  58
ATOM     58  C   UNL     1      -2.921  -4.047  -8.283  1.00  0.00     0.326 C 
ATOM     59  O   UNL     1      -3.747  -3.188  -8.545  1.00  0.00    -0.250 OA
BRANCH  58  60
ATOM     60  O   UNL     1      -2.949  -5.222  -8.961  1.00  0.00    -0.480 OA
ATOM     61  H   UNL     1      -3.804  -5.184  -9.443  1.00  0.00     0.296 HD
ENDBRANCH  58  60
ENDBRANCH  48  58
ENDBRANCH  46  48
ENDBRANCH  34  44
ENDBRANCH  32  34
ENDBRANCH  25  30
ENDBRANCH  23  25
ENDBRANCH   2  23
TORSDOF 28
ENDMDL
MODEL 48
REMARK VINA RESULT:    -5.860      3.003      6.852
REMARK INTER + INTRA:         -19.115
REMARK INTER:                 -14.274
REMARK INTRA:                  -4.841
REMARK UNBOUND:                -4.520
REMARK SMILES CCCCCCC[C@H](N)[C@H](O)C(=O)N[C@H](C)C(=O)N(C)[C@H](CC(C)C)C(=O)N[C@@H](Cc1ccc(O)cc1)C(=O)N[C@@H](Cc1ccc(O)cc1)C(=O)O
REMARK SMILES IDX 18 1 17 2 15 3 16 4 14 5 12 6 13 7 10 9 11 10 8 12 9 13 7 16
REMARK SMILES IDX 6 17 5 18 4 19 3 20 2 21 1 22 19 23 20 24 21 25 22 26 23 27
REMARK SMILES IDX 24 28 25 29 26 30 27 31 28 32 29 34 30 35 31 36 32 37 37 38
REMARK SMILES IDX 33 39 36 40 34 41 35 42 38 44 39 45 40 46 41 48 42 49 43 50
REMARK SMILES IDX 44 51 49 52 45 53 48 54 46 55 47 56 50 58 51 59 52 60
REMARK H PARENT 14 8 11 11 9 14 9 15 28 33 35 43 40 47 47 57 52 61
ROOT
ATOM      1  O   UNL     1      -3.321   1.973  -7.906  1.00  0.00    -0.272 OA
ATOM      2  C   UNL     1      -4.139   1.568  -7.067  1.00  0.00     0.245 C 
ENDROOT
BRANCH   2   3
ATOM      3  C   UNL     1      -3.769   1.659  -5.566  1.00  0.00     0.168 C 
ATOM      4  C   UNL     1      -3.670   3.114  -5.120  1.00  0.00     0.041 C 
BRANCH   3   5
ATOM      5  N   UNL     1      -4.616   0.877  -4.678  1.00  0.00    -0.342 N 
ATOM      6  C   UNL     1      -4.088   0.052  -3.708  1.00  0.00     0.251 C 
ATOM      7  O   UNL     1      -2.884  -0.118  -3.547  1.00  0.00    -0.272 OA
ATOM      8  H   UNL     1      -5.631   0.909  -4.740  1.00  0.00     0.164 HD
BRANCH   6   9
ATOM      9  C   UNL     1      -5.165  -0.562  -2.800  1.00  0.00     0.219 C 
BRANCH   9  10
ATOM     10  O   UNL     1      -6.330   0.264  -2.687  1.00  0.00    -0.382 OA
ATOM     11  H   UNL     1      -6.981  -0.315  -2.235  1.00  0.00     0.211 HD
ENDBRANCH   9  10
BRANCH   9  12
ATOM     12  C   UNL     1      -5.552  -2.008  -3.205  1.00  0.00     0.089 C 
BRANCH  12  13
ATOM     13  N   UNL     1      -5.059  -2.256  -4.580  1.00  0.00    -0.325 NA
ATOM     14  H   UNL     1      -5.260  -1.440  -5.161  1.00  0.00     0.119 HD
ATOM     15  H   UNL     1      -5.600  -3.018  -4.993  1.00  0.00     0.119 HD
ENDBRANCH  12  13
BRANCH  12  16
ATOM     16  C   UNL     1      -5.069  -3.131  -2.257  1.00  0.00     0.022 C 
BRANCH  16  17
ATOM     17  C   UNL     1      -3.727  -2.968  -1.529  1.00  0.00     0.002 C 
BRANCH  17  18
ATOM     18  C   UNL     1      -2.503  -3.409  -2.328  1.00  0.00     0.000 C 
BRANCH  18  19
ATOM     19  C   UNL     1      -1.929  -4.765  -1.896  1.00  0.00    -0.000 C 
BRANCH  19  20
ATOM     20  C   UNL     1      -1.852  -5.821  -3.002  1.00  0.00    -0.000 C 
BRANCH  20  21
ATOM     21  C   UNL     1      -0.416  -6.155  -3.413  1.00  0.00    -0.003 C 
ATOM     22  C   UNL     1      -0.039  -5.469  -4.717  1.00  0.00     0.004 C 
ENDBRANCH  20  21
ENDBRANCH  19  20
ENDBRANCH  18  19
ENDBRANCH  17  18
ENDBRANCH  16  17
ENDBRANCH  12  16
ENDBRANCH   9  12
ENDBRANCH   6   9
ENDBRANCH   3   5
ENDBRANCH   2   3
BRANCH   2  23
ATOM     23  N   UNL     1      -5.405   1.158  -7.472  1.00  0.00    -0.332 N 
ATOM     24  C   UNL     1      -6.633   1.896  -7.218  1.00  0.00     0.147 C 
BRANCH  23  25
ATOM     25  C   UNL     1      -5.565  -0.047  -8.332  1.00  0.00     0.174 C 
BRANCH  25  26
ATOM     26  C   UNL     1      -6.947  -0.723  -8.171  1.00  0.00     0.038 C 
BRANCH  26  27
ATOM     27  C   UNL     1      -7.544  -1.401  -9.424  1.00  0.00    -0.015 C 
ATOM     28  C   UNL     1      -7.006  -0.805 -10.725  1.00  0.00     0.007 C 
ATOM     29  C   UNL     1      -7.389  -2.920  -9.425  1.00  0.00     0.007 C 
ENDBRANCH  26  27
ENDBRANCH  25  26
BRANCH  25  30
ATOM     30  C   UNL     1      -4.374  -1.010  -8.126  1.00  0.00     0.243 C 
ATOM     31  O   UNL     1      -4.399  -1.903  -7.279  1.00  0.00    -0.273 OA
ATOM     32  N   UNL     1      -3.292  -0.799  -8.941  1.00  0.00    -0.342 N 
ATOM     33  H   UNL     1      -3.401  -0.134  -9.711  1.00  0.00     0.164 HD
BRANCH  32  34
ATOM     34  C   UNL     1      -2.065  -1.598  -8.867  1.00  0.00     0.175 C 
BRANCH  34  35
ATOM     35  C   UNL     1      -2.076  -2.735  -9.900  1.00  0.00     0.070 C 
BRANCH  35  36
ATOM     36  C   UNL     1      -2.510  -4.057  -9.308  1.00  0.00    -0.045 A 
ATOM     37  C   UNL     1      -3.738  -4.624  -9.683  1.00  0.00     0.007 A 
ATOM     38  C   UNL     1      -1.712  -4.721  -8.368  1.00  0.00     0.007 A 
ATOM     39  C   UNL     1      -4.154  -5.837  -9.132  1.00  0.00     0.046 A 
ATOM     40  C   UNL     1      -2.128  -5.935  -7.815  1.00  0.00     0.046 A 
ATOM     41  C   UNL     1      -3.346  -6.482  -8.204  1.00  0.00     0.115 A 
BRANCH  41  42
ATOM     42  O   UNL     1      -3.791  -7.664  -7.688  1.00  0.00    -0.508 OA
ATOM     43  H   UNL     1      -3.167  -8.363  -7.945  1.00  0.00     0.293 HD
ENDBRANCH  41  42
ENDBRANCH  35  36
ENDBRANCH  34  35
BRANCH  34  44
ATOM     44  C   UNL     1      -0.863  -0.647  -9.068  1.00  0.00     0.243 C 
ATOM     45  O   UNL     1      -0.102  -0.292  -8.172  1.00  0.00    -0.273 OA
ATOM     46  N   UNL     1      -0.789  -0.117 -10.338  1.00  0.00    -0.341 N 
ATOM     47  H   UNL     1      -1.512  -0.351 -11.014  1.00  0.00     0.164 HD
BRANCH  46  48
ATOM     48  C   UNL     1       0.224   0.860 -10.746  1.00  0.00     0.196 C 
BRANCH  48  49
ATOM     49  C   UNL     1       0.700   0.604 -12.186  1.00  0.00     0.072 C 
BRANCH  49  50
ATOM     50  C   UNL     1       2.208   0.580 -12.304  1.00  0.00    -0.045 A 
ATOM     51  C   UNL     1       3.000   0.593 -11.146  1.00  0.00     0.007 A 
ATOM     52  C   UNL     1       2.832   0.565 -13.557  1.00  0.00     0.007 A 
ATOM     53  C   UNL     1       4.391   0.584 -11.243  1.00  0.00     0.046 A 
ATOM     54  C   UNL     1       4.226   0.558 -13.654  1.00  0.00     0.046 A 
ATOM     55  C   UNL     1       4.994   0.566 -12.495  1.00  0.00     0.115 A 
BRANCH  55  56
ATOM     56  O   UNL     1       6.356   0.560 -12.546  1.00  0.00    -0.508 OA
ATOM     57  H   UNL     1       6.627   0.551 -13.478  1.00  0.00     0.293 HD
ENDBRANCH  55  56
ENDBRANCH  49  50
ENDBRANCH  48  49
BRANCH  48  58
ATOM     58  C   UNL     1      -0.373   2.270 -10.644  1.00  0.00     0.326 C 
ATOM     59  O   UNL     1       0.218   3.332 -10.754  1.00  0.00    -0.250 OA
BRANCH  58  60
ATOM     60  O   UNL     1      -1.711   2.277 -10.420  1.00  0.00    -0.480 OA
ATOM     61  H   UNL     1      -1.892   3.205 -10.156  1.00  0.00     0.296 HD
ENDBRANCH  58  60
ENDBRANCH  48  58
ENDBRANCH  46  48
ENDBRANCH  34  44
ENDBRANCH  32  34
ENDBRANCH  25  30
ENDBRANCH  23  25
ENDBRANCH   2  23
TORSDOF 28
ENDMDL
MODEL 49
REMARK VINA RESULT:    -5.859     14.851     19.205
REMARK INTER + INTRA:         -19.114
REMARK INTER:                 -13.903
REMARK INTRA:                  -5.211
REMARK UNBOUND:                -4.520
REMARK SMILES CCCCCCC[C@H](N)[C@H](O)C(=O)N[C@H](C)C(=O)N(C)[C@H](CC(C)C)C(=O)N[C@@H](Cc1ccc(O)cc1)C(=O)N[C@@H](Cc1ccc(O)cc1)C(=O)O
REMARK SMILES IDX 18 1 17 2 15 3 16 4 14 5 12 6 13 7 10 9 11 10 8 12 9 13 7 16
REMARK SMILES IDX 6 17 5 18 4 19 3 20 2 21 1 22 19 23 20 24 21 25 22 26 23 27
REMARK SMILES IDX 24 28 25 29 26 30 27 31 28 32 29 34 30 35 31 36 32 37 37 38
REMARK SMILES IDX 33 39 36 40 34 41 35 42 38 44 39 45 40 46 41 48 42 49 43 50
REMARK SMILES IDX 44 51 49 52 45 53 48 54 46 55 47 56 50 58 51 59 52 60
REMARK H PARENT 14 8 11 11 9 14 9 15 28 33 35 43 40 47 47 57 52 61
ROOT
ATOM      1  O   UNL     1      -7.138   2.387   8.855  1.00  0.00    -0.272 OA
ATOM      2  C   UNL     1      -6.252   1.541   9.048  1.00  0.00     0.245 C 
ENDROOT
BRANCH   2   3
ATOM      3  C   UNL     1      -5.218   1.281   7.924  1.00  0.00     0.168 C 
ATOM      4  C   UNL     1      -4.213   0.217   8.349  1.00  0.00     0.041 C 
BRANCH   3   5
ATOM      5  N   UNL     1      -5.793   0.993   6.619  1.00  0.00    -0.342 N 
ATOM      6  C   UNL     1      -5.405   1.677   5.486  1.00  0.00     0.251 C 
ATOM      7  O   UNL     1      -4.590   2.593   5.495  1.00  0.00    -0.272 OA
ATOM      8  H   UNL     1      -6.505   0.277   6.493  1.00  0.00     0.164 HD
BRANCH   6   9
ATOM      9  C   UNL     1      -6.037   1.110   4.205  1.00  0.00     0.219 C 
BRANCH   9  10
ATOM     10  O   UNL     1      -6.448   2.134   3.291  1.00  0.00    -0.382 OA
ATOM     11  H   UNL     1      -7.295   1.795   2.929  1.00  0.00     0.211 HD
ENDBRANCH   9  10
BRANCH   9  12
ATOM     12  C   UNL     1      -5.139   0.065   3.493  1.00  0.00     0.089 C 
BRANCH  12  13
ATOM     13  N   UNL     1      -4.138  -0.430   4.465  1.00  0.00    -0.325 NA
ATOM     14  H   UNL     1      -3.656   0.367   4.886  1.00  0.00     0.119 HD
ATOM     15  H   UNL     1      -3.412  -0.944   3.960  1.00  0.00     0.119 HD
ENDBRANCH  12  13
BRANCH  12  16
ATOM     16  C   UNL     1      -5.875  -1.127   2.836  1.00  0.00     0.022 C 
BRANCH  16  17
ATOM     17  C   UNL     1      -5.334  -1.706   1.521  1.00  0.00     0.002 C 
BRANCH  17  18
ATOM     18  C   UNL     1      -4.409  -2.910   1.680  1.00  0.00     0.000 C 
BRANCH  18  19
ATOM     19  C   UNL     1      -4.822  -4.130   0.846  1.00  0.00    -0.000 C 
BRANCH  19  20
ATOM     20  C   UNL     1      -6.308  -4.195   0.481  1.00  0.00    -0.000 C 
BRANCH  20  21
ATOM     21  C   UNL     1      -7.042  -5.353   1.161  1.00  0.00    -0.003 C 
ATOM     22  C   UNL     1      -6.074  -6.435   1.612  1.00  0.00     0.004 C 
ENDBRANCH  20  21
ENDBRANCH  19  20
ENDBRANCH  18  19
ENDBRANCH  17  18
ENDBRANCH  16  17
ENDBRANCH  12  16
ENDBRANCH   9  12
ENDBRANCH   6   9
ENDBRANCH   3   5
ENDBRANCH   2   3
BRANCH   2  23
ATOM     23  N   UNL     1      -6.127   0.937  10.294  1.00  0.00    -0.332 N 
ATOM     24  C   UNL     1      -4.951   1.036  11.146  1.00  0.00     0.147 C 
BRANCH  23  25
ATOM     25  C   UNL     1      -7.286   0.230  10.906  1.00  0.00     0.174 C 
BRANCH  25  26
ATOM     26  C   UNL     1      -7.043  -0.159  12.383  1.00  0.00     0.038 C 
BRANCH  26  27
ATOM     27  C   UNL     1      -8.258  -0.087  13.335  1.00  0.00    -0.015 C 
ATOM     28  C   UNL     1      -9.346   0.856  12.824  1.00  0.00     0.007 C 
ATOM     29  C   UNL     1      -8.847  -1.455  13.672  1.00  0.00     0.007 C 
ENDBRANCH  26  27
ENDBRANCH  25  26
BRANCH  25  30
ATOM     30  C   UNL     1      -7.717  -0.957  10.014  1.00  0.00     0.243 C 
ATOM     31  O   UNL     1      -8.884  -1.113   9.659  1.00  0.00    -0.273 OA
ATOM     32  N   UNL     1      -6.716  -1.821   9.652  1.00  0.00    -0.342 N 
ATOM     33  H   UNL     1      -5.754  -1.548   9.867  1.00  0.00     0.164 HD
BRANCH  32  34
ATOM     34  C   UNL     1      -6.944  -3.015   8.833  1.00  0.00     0.175 C 
BRANCH  34  35
ATOM     35  C   UNL     1      -7.989  -3.941   9.474  1.00  0.00     0.070 C 
BRANCH  35  36
ATOM     36  C   UNL     1      -7.697  -5.405   9.235  1.00  0.00    -0.045 A 
ATOM     37  C   UNL     1      -6.370  -5.847   9.119  1.00  0.00     0.007 A 
ATOM     38  C   UNL     1      -8.738  -6.334   9.104  1.00  0.00     0.007 A 
ATOM     39  C   UNL     1      -6.092  -7.194   8.885  1.00  0.00     0.046 A 
ATOM     40  C   UNL     1      -8.460  -7.682   8.868  1.00  0.00     0.046 A 
ATOM     41  C   UNL     1      -7.138  -8.100   8.762  1.00  0.00     0.115 A 
BRANCH  41  42
ATOM     42  O   UNL     1      -6.823  -9.406   8.530  1.00  0.00    -0.508 OA
ATOM     43  H   UNL     1      -6.627  -9.509   7.584  1.00  0.00     0.293 HD
ENDBRANCH  41  42
ENDBRANCH  35  36
ENDBRANCH  34  35
BRANCH  34  44
ATOM     44  C   UNL     1      -7.371  -2.552   7.422  1.00  0.00     0.243 C 
ATOM     45  O   UNL     1      -7.063  -1.474   6.922  1.00  0.00    -0.273 OA
ATOM     46  N   UNL     1      -8.254  -3.414   6.806  1.00  0.00    -0.341 N 
ATOM     47  H   UNL     1      -8.572  -4.239   7.309  1.00  0.00     0.164 HD
BRANCH  46  48
ATOM     48  C   UNL     1      -8.850  -3.155   5.493  1.00  0.00     0.196 C 
BRANCH  48  49
ATOM     49  C   UNL     1      -7.907  -3.581   4.356  1.00  0.00     0.072 C 
BRANCH  49  50
ATOM     50  C   UNL     1      -6.868  -4.584   4.806  1.00  0.00    -0.045 A 
ATOM     51  C   UNL     1      -5.525  -4.196   4.921  1.00  0.00     0.007 A 
ATOM     52  C   UNL     1      -7.222  -5.908   5.094  1.00  0.00     0.007 A 
ATOM     53  C   UNL     1      -4.556  -5.115   5.322  1.00  0.00     0.046 A 
ATOM     54  C   UNL     1      -6.251  -6.829   5.495  1.00  0.00     0.046 A 
ATOM     55  C   UNL     1      -4.926  -6.424   5.607  1.00  0.00     0.115 A 
BRANCH  55  56
ATOM     56  O   UNL     1      -3.949  -7.292   5.995  1.00  0.00    -0.508 OA
ATOM     57  H   UNL     1      -3.374  -7.466   5.232  1.00  0.00     0.293 HD
ENDBRANCH  55  56
ENDBRANCH  49  50
ENDBRANCH  48  49
BRANCH  48  58
ATOM     58  C   UNL     1     -10.171  -3.928   5.383  1.00  0.00     0.326 C 
ATOM     59  O   UNL     1     -10.674  -4.393   4.373  1.00  0.00    -0.250 OA
BRANCH  58  60
ATOM     60  O   UNL     1     -10.802  -4.094   6.573  1.00  0.00    -0.480 OA
ATOM     61  H   UNL     1     -10.387  -3.413   7.146  1.00  0.00     0.296 HD
ENDBRANCH  58  60
ENDBRANCH  48  58
ENDBRANCH  46  48
ENDBRANCH  34  44
ENDBRANCH  32  34
ENDBRANCH  25  30
ENDBRANCH  23  25
ENDBRANCH   2  23
TORSDOF 28
ENDMDL
MODEL 50
REMARK VINA RESULT:    -5.798      2.219      7.966
REMARK INTER + INTRA:         -18.960
REMARK INTER:                 -13.102
REMARK INTRA:                  -5.859
REMARK UNBOUND:                -4.520
REMARK SMILES CCCCCCC[C@H](N)[C@H](O)C(=O)N[C@H](C)C(=O)N(C)[C@H](CC(C)C)C(=O)N[C@@H](Cc1ccc(O)cc1)C(=O)N[C@@H](Cc1ccc(O)cc1)C(=O)O
REMARK SMILES IDX 18 1 17 2 15 3 16 4 14 5 12 6 13 7 10 9 11 10 8 12 9 13 7 16
REMARK SMILES IDX 6 17 5 18 4 19 3 20 2 21 1 22 19 23 20 24 21 25 22 26 23 27
REMARK SMILES IDX 24 28 25 29 26 30 27 31 28 32 29 34 30 35 31 36 32 37 37 38
REMARK SMILES IDX 33 39 36 40 34 41 35 42 38 44 39 45 40 46 41 48 42 49 43 50
REMARK SMILES IDX 44 51 49 52 45 53 48 54 46 55 47 56 50 58 51 59 52 60
REMARK H PARENT 14 8 11 11 9 14 9 15 28 33 35 43 40 47 47 57 52 61
ROOT
ATOM      1  O   UNL     1      -3.714   1.832  -8.321  1.00  0.00    -0.272 OA
ATOM      2  C   UNL     1      -4.376   1.117  -9.088  1.00  0.00     0.245 C 
ENDROOT
BRANCH   2   3
ATOM      3  C   UNL     1      -4.471   1.519 -10.581  1.00  0.00     0.168 C 
ATOM      4  C   UNL     1      -5.882   1.979 -10.929  1.00  0.00     0.041 C 
BRANCH   3   5
ATOM      5  N   UNL     1      -3.466   2.474 -11.021  1.00  0.00    -0.342 N 
ATOM      6  C   UNL     1      -2.440   2.112 -11.869  1.00  0.00     0.251 C 
ATOM      7  O   UNL     1      -2.273   0.968 -12.279  1.00  0.00    -0.272 OA
ATOM      8  H   UNL     1      -3.480   3.445 -10.720  1.00  0.00     0.164 HD
BRANCH   6   9
ATOM      9  C   UNL     1      -1.585   3.310 -12.313  1.00  0.00     0.219 C 
BRANCH   9  10
ATOM     10  O   UNL     1      -1.574   4.368 -11.347  1.00  0.00    -0.382 OA
ATOM     11  H   UNL     1      -0.929   5.011 -11.716  1.00  0.00     0.211 HD
ENDBRANCH   9  10
BRANCH   9  12
ATOM     12  C   UNL     1      -0.140   2.912 -12.711  1.00  0.00     0.089 C 
BRANCH  12  13
ATOM     13  N   UNL     1      -0.205   2.066 -13.924  1.00  0.00    -0.325 NA
ATOM     14  H   UNL     1       0.726   1.700 -14.129  1.00  0.00     0.119 HD
ATOM     15  H   UNL     1      -0.442   2.655 -14.726  1.00  0.00     0.119 HD
ENDBRANCH  12  13
BRANCH  12  16
ATOM     16  C   UNL     1       0.849   4.082 -12.931  1.00  0.00     0.022 C 
BRANCH  16  17
ATOM     17  C   UNL     1       2.255   3.997 -12.321  1.00  0.00     0.002 C 
BRANCH  17  18
ATOM     18  C   UNL     1       3.374   3.707 -13.318  1.00  0.00     0.000 C 
BRANCH  18  19
ATOM     19  C   UNL     1       4.661   3.174 -12.675  1.00  0.00    -0.000 C 
BRANCH  19  20
ATOM     20  C   UNL     1       5.548   4.235 -12.018  1.00  0.00    -0.000 C 
BRANCH  20  21
ATOM     21  C   UNL     1       6.677   3.636 -11.175  1.00  0.00    -0.003 C 
ATOM     22  C   UNL     1       7.664   4.703 -10.730  1.00  0.00     0.004 C 
ENDBRANCH  20  21
ENDBRANCH  19  20
ENDBRANCH  18  19
ENDBRANCH  17  18
ENDBRANCH  16  17
ENDBRANCH  12  16
ENDBRANCH   9  12
ENDBRANCH   6   9
ENDBRANCH   3   5
ENDBRANCH   2   3
BRANCH   2  23
ATOM     23  N   UNL     1      -4.913  -0.082  -8.631  1.00  0.00    -0.332 N 
ATOM     24  C   UNL     1      -5.969  -0.188  -7.635  1.00  0.00     0.147 C 
BRANCH  23  25
ATOM     25  C   UNL     1      -4.506  -1.372  -9.252  1.00  0.00     0.174 C 
BRANCH  25  26
ATOM     26  C   UNL     1      -5.286  -2.584  -8.690  1.00  0.00     0.038 C 
BRANCH  26  27
ATOM     27  C   UNL     1      -5.243  -3.889  -9.516  1.00  0.00    -0.015 C 
ATOM     28  C   UNL     1      -6.373  -4.850  -9.149  1.00  0.00     0.007 C 
ATOM     29  C   UNL     1      -5.208  -3.652 -11.024  1.00  0.00     0.007 C 
ENDBRANCH  26  27
ENDBRANCH  25  26
BRANCH  25  30
ATOM     30  C   UNL     1      -2.970  -1.536  -9.182  1.00  0.00     0.243 C 
ATOM     31  O   UNL     1      -2.260  -1.432 -10.181  1.00  0.00    -0.273 OA
ATOM     32  N   UNL     1      -2.458  -1.809  -7.940  1.00  0.00    -0.342 N 
ATOM     33  H   UNL     1      -3.093  -1.739  -7.140  1.00  0.00     0.164 HD
BRANCH  32  34
ATOM     34  C   UNL     1      -1.030  -2.022  -7.691  1.00  0.00     0.175 C 
BRANCH  34  35
ATOM     35  C   UNL     1      -0.496  -3.220  -8.490  1.00  0.00     0.070 C 
BRANCH  35  36
ATOM     36  C   UNL     1      -1.394  -4.433  -8.396  1.00  0.00    -0.045 A 
ATOM     37  C   UNL     1      -1.786  -5.108  -9.562  1.00  0.00     0.007 A 
ATOM     38  C   UNL     1      -1.863  -4.885  -7.155  1.00  0.00     0.007 A 
ATOM     39  C   UNL     1      -2.626  -6.219  -9.486  1.00  0.00     0.046 A 
ATOM     40  C   UNL     1      -2.705  -5.998  -7.079  1.00  0.00     0.046 A 
ATOM     41  C   UNL     1      -3.077  -6.656  -8.246  1.00  0.00     0.115 A 
BRANCH  41  42
ATOM     42  O   UNL     1      -3.898  -7.744  -8.216  1.00  0.00    -0.508 OA
ATOM     43  H   UNL     1      -3.505  -8.406  -7.624  1.00  0.00     0.293 HD
ENDBRANCH  41  42
ENDBRANCH  35  36
ENDBRANCH  34  35
BRANCH  34  44
ATOM     44  C   UNL     1      -0.283  -0.715  -8.041  1.00  0.00     0.243 C 
ATOM     45  O   UNL     1      -0.473   0.363  -7.484  1.00  0.00    -0.273 OA
ATOM     46  N   UNL     1       0.540  -0.831  -9.140  1.00  0.00    -0.341 N 
ATOM     47  H   UNL     1       0.575  -1.716  -9.640  1.00  0.00     0.164 HD
BRANCH  46  48
ATOM     48  C   UNL     1       1.298   0.289  -9.702  1.00  0.00     0.196 C 
BRANCH  48  49
ATOM     49  C   UNL     1       2.720   0.352  -9.118  1.00  0.00     0.072 C 
BRANCH  49  50
ATOM     50  C   UNL     1       3.023   1.683  -8.468  1.00  0.00    -0.045 A 
ATOM     51  C   UNL     1       2.594   1.935  -7.156  1.00  0.00     0.007 A 
ATOM     52  C   UNL     1       3.712   2.685  -9.164  1.00  0.00     0.007 A 
ATOM     53  C   UNL     1       2.857   3.164  -6.551  1.00  0.00     0.046 A 
ATOM     54  C   UNL     1       3.974   3.916  -8.558  1.00  0.00     0.046 A 
ATOM     55  C   UNL     1       3.544   4.145  -7.256  1.00  0.00     0.115 A 
BRANCH  55  56
ATOM     56  O   UNL     1       3.779   5.333  -6.629  1.00  0.00    -0.508 OA
ATOM     57  H   UNL     1       3.822   5.171  -5.673  1.00  0.00     0.293 HD
ENDBRANCH  55  56
ENDBRANCH  49  50
ENDBRANCH  48  49
BRANCH  48  58
ATOM     58  C   UNL     1       1.375   0.127 -11.226  1.00  0.00     0.326 C 
ATOM     59  O   UNL     1       2.314   0.408 -11.953  1.00  0.00    -0.250 OA
BRANCH  58  60
ATOM     60  O   UNL     1       0.252  -0.406 -11.770  1.00  0.00    -0.480 OA
ATOM     61  H   UNL     1       0.403  -0.313 -12.736  1.00  0.00     0.296 HD
ENDBRANCH  58  60
ENDBRANCH  48  58
ENDBRANCH  46  48
ENDBRANCH  34  44
ENDBRANCH  32  34
ENDBRANCH  25  30
ENDBRANCH  23  25
ENDBRANCH   2  23
TORSDOF 28
ENDMDL
