MODEL 1
REMARK VINA RESULT:    -7.090      0.000      0.000
REMARK INTER + INTRA:         -29.098
REMARK INTER:                 -21.182
REMARK INTRA:                  -7.916
REMARK UNBOUND:                -7.916
REMARK SMILES C=C1C(=O)N[C@H](C)C(=O)N[C@@H](CC(C)C)C(=O)N[C@@H](C(=O)O)[C@H](C)C(=O)N[C@@H](CCCN=C(N)N)C(=O)N[C@@H](/C=C/C(C)=C/[C@H](C)[C@H](Cc2ccccc2)OC)[C@H](C)C(=O)N[C@@H](C(=O)O)CCC(=O)N1C
REMARK SMILES IDX 39 1 38 2 37 3 36 4 28 6 27 7 25 8 26 9 23 11 24 12 19 13
REMARK SMILES IDX 18 14 16 15 17 16 11 18 10 19 8 20 9 21 12 24 13 25 14 26
REMARK SMILES IDX 15 27 20 28 21 29 22 30 29 32 30 33 31 34 32 35 33 36 34 37
REMARK SMILES IDX 35 38 57 43 58 44 59 45 60 46 61 47 62 49 66 50 67 51 68 52
REMARK SMILES IDX 69 53 70 54 71 55 2 56 1 57 3 58 4 59 5 60 6 62 7 63 63 65
REMARK SMILES IDX 64 66 65 67 40 69 41 70 42 71 44 72 43 73 45 74 46 75 47 76
REMARK SMILES IDX 55 77 56 78 48 79 49 80 50 81 54 82 51 83 53 84 52 85
REMARK H PARENT 38 5 27 10 18 17 10 22 22 31 34 39 34 40 35 41 35 42 61 48
REMARK H PARENT 5 61 65 68
REMARK Flexibility Score:  369.900
ROOT
ATOM      1  C   UNL     1       1.184  -7.183   0.844  1.00  0.00     0.117 C 
ENDROOT
BRANCH   1   2
ATOM      2  N   UNL     1       0.079  -7.867   1.517  1.00  0.00    -0.347 N 
ATOM      3  O   UNL     1      -1.564  -7.386  -0.013  1.00  0.00    -0.273 OA
ATOM      4  C   UNL     1      -1.190  -7.991   0.987  1.00  0.00     0.243 C 
ATOM      5  H   UNL     1       0.246  -8.324   2.400  1.00  0.00     0.164 HD
BRANCH   4   6
ATOM      6  C   UNL     1      -2.151  -8.836   1.862  1.00  0.00     0.171 C 
BRANCH   6   7
ATOM      7  N   UNL     1      -1.908  -8.577   3.290  1.00  0.00    -0.344 N 
ATOM      8  C   UNL     1      -1.580  -9.607   4.145  1.00  0.00     0.226 C 
ATOM      9  O   UNL     1      -1.498 -10.772   3.775  1.00  0.00    -0.275 OA
ATOM     10  H   UNL     1      -2.032  -7.638   3.646  1.00  0.00     0.164 HD
BRANCH   8  11
ATOM     11  C   UNL     1      -1.307  -9.171   5.574  1.00  0.00     0.109 C 
ATOM     12  C   UNL     1      -0.766 -10.346   6.388  1.00  0.00     0.021 C 
BRANCH  11  13
ATOM     13  C   UNL     1      -0.412  -7.915   5.573  1.00  0.00     0.204 C 
BRANCH  13  14
ATOM     14  N   UNL     1      -1.037  -6.792   6.278  1.00  0.00    -0.340 N 
ATOM     15  C   UNL     1      -1.764  -5.816   5.633  1.00  0.00     0.243 C 
ATOM     16  O   UNL     1      -1.993  -5.851   4.426  1.00  0.00    -0.273 OA
ATOM     17  H   UNL     1      -0.761  -6.621   7.249  1.00  0.00     0.164 HD
BRANCH  15  18
ATOM     18  C   UNL     1      -2.148  -4.626   6.547  1.00  0.00     0.171 C 
BRANCH  18  19
ATOM     19  N   UNL     1      -2.662  -5.200   7.789  1.00  0.00    -0.343 N 
ATOM     20  C   UNL     1      -3.686  -4.603   8.499  1.00  0.00     0.242 CG0
ATOM     21  O   UNL     1      -4.121  -3.495   8.193  1.00  0.00    -0.273 OA
ATOM     22  H   UNL     1      -2.254  -6.056   8.146  1.00  0.00     0.164 HD
ATOM     23  G   UNL     1      -4.146  -5.395   9.740  1.00  0.00     0.000 G0
ENDBRANCH  18  19
BRANCH  18  24
ATOM     24  C   UNL     1      -0.933  -3.726   6.803  1.00  0.00     0.038 C 
BRANCH  24  25
ATOM     25  C   UNL     1      -1.096  -2.269   6.320  1.00  0.00    -0.015 C 
ATOM     26  C   UNL     1      -1.167  -1.273   7.478  1.00  0.00     0.007 C 
ATOM     27  C   UNL     1      -2.357  -2.150   5.460  1.00  0.00     0.007 C 
ENDBRANCH  24  25
ENDBRANCH  18  24
ENDBRANCH  15  18
ENDBRANCH  13  14
BRANCH  13  28
ATOM     28  C   UNL     1       0.958  -8.151   6.218  1.00  0.00     0.327 C 
ATOM     29  O   UNL     1       1.861  -8.838   5.766  1.00  0.00    -0.250 OA
BRANCH  28  30
ATOM     30  O   UNL     1       1.065  -7.604   7.446  1.00  0.00    -0.480 OA
ATOM     31  H   UNL     1       1.988  -7.279   7.486  1.00  0.00     0.296 HD
ENDBRANCH  28  30
ENDBRANCH  13  28
ENDBRANCH  11  13
ENDBRANCH   8  11
ENDBRANCH   6   7
BRANCH   6  32
ATOM     32  C   UNL     1      -3.599  -8.504   1.484  1.00  0.00     0.037 C 
BRANCH  32  33
ATOM     33  C   UNL     1      -4.383  -9.749   1.046  1.00  0.00     0.026 C 
BRANCH  33  34
ATOM     34  C   UNL     1      -3.627 -11.048   1.331  1.00  0.00     0.146 C 
BRANCH  34  35
ATOM     35  N   UNL     1      -2.741 -11.331   0.210  1.00  0.00    -0.254 NA
ATOM     36  C   UNL     1      -1.812 -12.200   0.365  1.00  0.00     0.185 C 
ATOM     37  N   UNL     1      -0.994 -12.472  -0.663  1.00  0.00    -0.370 N 
ATOM     38  N   UNL     1      -1.508 -12.925   1.456  1.00  0.00    -0.370 N 
ATOM     39  H   UNL     1      -1.166 -11.972  -1.526  1.00  0.00     0.159 HD
ATOM     40  H   UNL     1      -0.362 -13.254  -0.678  1.00  0.00     0.159 HD
ATOM     41  H   UNL     1      -0.665 -13.475   1.497  1.00  0.00     0.159 HD
ATOM     42  H   UNL     1      -2.031 -12.812   2.310  1.00  0.00     0.159 HD
ENDBRANCH  34  35
ENDBRANCH  33  34
ENDBRANCH  32  33
ENDBRANCH   6  32
ENDBRANCH   4   6
ENDBRANCH   1   2
BRANCH   1  43
ATOM     43  C   UNL     1       2.265  -8.238   0.471  1.00  0.00     0.102 C 
ATOM     44  C   UNL     1       3.596  -7.616   0.016  1.00  0.00     0.020 C 
BRANCH  43  45
ATOM     45  C   UNL     1       1.704  -9.282  -0.499  1.00  0.00     0.225 C 
ATOM     46  O   UNL     1       1.232 -10.354  -0.132  1.00  0.00    -0.275 OA
ATOM     47  N   UNL     1       1.845  -8.984  -1.836  1.00  0.00    -0.342 N 
ATOM     48  H   UNL     1       2.091  -8.046  -2.116  1.00  0.00     0.164 HD
BRANCH  47  49
ATOM     49  C   UNL     1       1.322  -9.874  -2.877  1.00  0.00     0.192 C 
BRANCH  49  50
ATOM     50  C   UNL     1       2.257  -9.851  -4.090  1.00  0.00     0.047 C 
BRANCH  50  51
ATOM     51  C   UNL     1       3.017  -8.523  -4.213  1.00  0.00     0.103 C 
BRANCH  51  52
ATOM     52  C   UNL     1       2.409  -7.611  -5.277  1.00  0.00     0.226 C 
ATOM     53  O   UNL     1       1.502  -6.835  -4.969  1.00  0.00    -0.275 OA
BRANCH  52  54
ATOM     54  N   UNL     1       2.991  -7.666  -6.557  1.00  0.00    -0.311 N 
ATOM     55  C   UNL     1       2.671  -8.757  -7.487  1.00  0.00     0.153 C 
BRANCH  54  56
ATOM     56  C   UNL     1       3.892  -6.680  -6.994  1.00  0.00     0.102 C 
ATOM     57  C   UNL     1       3.540  -5.492  -7.511  1.00  0.00     0.043 C 
BRANCH  56  58
ATOM     58  C   UNL     1       5.383  -6.882  -6.865  1.00  0.00     0.268 C 
ATOM     59  O   UNL     1       5.930  -7.963  -7.036  1.00  0.00    -0.268 OA
ATOM     60  N   UNL     1       6.065  -5.718  -6.603  1.00  0.00    -0.339 N 
ATOM     61  H   UNL     1       5.537  -4.864  -6.465  1.00  0.00     0.164 HD
BRANCH  60  62
ATOM     62  C   UNL     1       7.523  -5.675  -6.501  1.00  0.00     0.168 CG0
ATOM     63  C   UNL     1       7.969  -4.660  -5.456  1.00  0.00     0.041 C 
ATOM     64  G   UNL     1       8.128  -5.340  -7.880  1.00  0.00     0.000 G0
ENDBRANCH  60  62
ENDBRANCH  56  58
ENDBRANCH  54  56
ENDBRANCH  52  54
ENDBRANCH  51  52
ENDBRANCH  50  51
ENDBRANCH  49  50
BRANCH  49  65
ATOM     65  C   UNL     1      -0.092  -9.463  -3.317  1.00  0.00     0.326 C 
ATOM     66  O   UNL     1      -0.653  -8.419  -3.018  1.00  0.00    -0.250 OA
BRANCH  65  67
ATOM     67  O   UNL     1      -0.748 -10.392  -4.047  1.00  0.00    -0.480 OA
ATOM     68  H   UNL     1      -0.124 -11.149  -4.073  1.00  0.00     0.296 HD
ENDBRANCH  65  67
ENDBRANCH  49  65
ENDBRANCH  47  49
ENDBRANCH  43  45
ENDBRANCH   1  43
BRANCH   1  69
ATOM     69  C   UNL     1       1.572  -6.021   1.740  1.00  0.00    -0.001 C 
ATOM     70  C   UNL     1       1.512  -5.968   3.082  1.00  0.00     0.001 C 
BRANCH  70  71
ATOM     71  C   UNL     1       1.910  -4.848   3.937  1.00  0.00    -0.055 C 
ATOM     72  C   UNL     1       2.929  -5.047   4.799  1.00  0.00    -0.018 C 
ATOM     73  C   UNL     1       1.159  -3.551   3.789  1.00  0.00     0.044 C 
BRANCH  72  74
ATOM     74  C   UNL     1       3.553  -4.079   5.794  1.00  0.00     0.038 C 
ATOM     75  C   UNL     1       2.655  -4.067   7.037  1.00  0.00     0.015 C 
BRANCH  74  76
ATOM     76  C   UNL     1       3.729  -2.695   5.103  1.00  0.00     0.128 C 
BRANCH  76  77
ATOM     77  O   UNL     1       3.533  -1.640   6.059  1.00  0.00    -0.381 OA
ATOM     78  C   UNL     1       2.566  -0.678   5.658  1.00  0.00     0.195 C 
ENDBRANCH  76  77
BRANCH  76  79
ATOM     79  C   UNL     1       5.055  -2.550   4.314  1.00  0.00     0.068 C 
BRANCH  79  80
ATOM     80  C   UNL     1       5.130  -3.167   2.938  1.00  0.00    -0.045 A 
ATOM     81  C   UNL     1       6.173  -4.036   2.592  1.00  0.00     0.004 A 
ATOM     82  C   UNL     1       4.164  -2.855   1.969  1.00  0.00     0.004 A 
ATOM     83  C   UNL     1       6.243  -4.591   1.312  1.00  0.00     0.000 A 
ATOM     84  C   UNL     1       4.235  -3.410   0.690  1.00  0.00     0.000 A 
ATOM     85  C   UNL     1       5.273  -4.279   0.362  1.00  0.00     0.000 A 
ENDBRANCH  79  80
ENDBRANCH  76  79
ENDBRANCH  74  76
ENDBRANCH  72  74
ENDBRANCH  70  71
ENDBRANCH   1  69
TORSDOF 17
ENDMDL
MODEL 2
REMARK VINA RESULT:    -6.966      4.217      9.001
REMARK INTER + INTRA:         -28.727
REMARK INTER:                 -21.264
REMARK INTRA:                  -7.463
REMARK UNBOUND:                -7.916
REMARK SMILES C=C1C(=O)N[C@H](C)C(=O)N[C@@H](CC(C)C)C(=O)N[C@@H](C(=O)O)[C@H](C)C(=O)N[C@@H](CCCN=C(N)N)C(=O)N[C@@H](/C=C/C(C)=C/[C@H](C)[C@H](Cc2ccccc2)OC)[C@H](C)C(=O)N[C@@H](C(=O)O)CCC(=O)N1C
REMARK SMILES IDX 39 1 38 2 37 3 36 4 28 6 27 7 25 8 26 9 23 11 24 12 19 13
REMARK SMILES IDX 18 14 16 15 17 16 11 18 10 19 8 20 9 21 12 24 13 25 14 26
REMARK SMILES IDX 15 27 20 28 21 29 22 30 29 32 30 33 31 34 32 35 33 36 34 37
REMARK SMILES IDX 35 38 57 43 58 44 59 45 60 46 61 47 62 49 66 50 67 51 68 52
REMARK SMILES IDX 69 53 70 54 71 55 2 56 1 57 3 58 4 59 5 60 6 62 7 63 63 65
REMARK SMILES IDX 64 66 65 67 40 69 41 70 42 71 44 72 43 73 45 74 46 75 47 76
REMARK SMILES IDX 55 77 56 78 48 79 49 80 50 81 54 82 51 83 53 84 52 85
REMARK H PARENT 38 5 27 10 18 17 10 22 22 31 34 39 34 40 35 41 35 42 61 48
REMARK H PARENT 5 61 65 68
REMARK Flexibility Score:  369.900
ROOT
ATOM      1  C   UNL     1      -1.262  -3.804   3.613  1.00  0.00     0.117 C 
ENDROOT
BRANCH   1   2
ATOM      2  N   UNL     1      -0.649  -5.129   3.514  1.00  0.00    -0.347 N 
ATOM      3  O   UNL     1      -1.877  -5.911   1.738  1.00  0.00    -0.273 OA
ATOM      4  C   UNL     1      -0.943  -6.046   2.523  1.00  0.00     0.243 C 
ATOM      5  H   UNL     1       0.071  -5.391   4.170  1.00  0.00     0.164 HD
BRANCH   4   6
ATOM      6  C   UNL     1      -0.091  -7.338   2.596  1.00  0.00     0.171 C 
BRANCH   6   7
ATOM      7  N   UNL     1       0.183  -7.850   1.244  1.00  0.00    -0.344 N 
ATOM      8  C   UNL     1       0.067  -9.195   0.965  1.00  0.00     0.226 C 
ATOM      9  O   UNL     1      -0.243 -10.021   1.815  1.00  0.00    -0.275 OA
ATOM     10  H   UNL     1       0.507  -7.208   0.532  1.00  0.00     0.164 HD
BRANCH   8  11
ATOM     11  C   UNL     1       0.329  -9.558  -0.486  1.00  0.00     0.109 C 
ATOM     12  C   UNL     1       1.750  -9.154  -0.881  1.00  0.00     0.021 C 
BRANCH  11  13
ATOM     13  C   UNL     1      -0.012 -11.043  -0.722  1.00  0.00     0.204 C 
BRANCH  13  14
ATOM     14  N   UNL     1      -1.425 -11.332  -0.463  1.00  0.00    -0.340 N 
ATOM     15  C   UNL     1      -1.840 -12.338   0.384  1.00  0.00     0.243 C 
ATOM     16  O   UNL     1      -1.051 -13.025   1.030  1.00  0.00    -0.273 OA
ATOM     17  H   UNL     1      -2.124 -10.905  -1.077  1.00  0.00     0.164 HD
BRANCH  15  18
ATOM     18  C   UNL     1      -3.367 -12.592   0.340  1.00  0.00     0.171 C 
BRANCH  18  19
ATOM     19  N   UNL     1      -3.694 -13.380   1.527  1.00  0.00    -0.343 N 
ATOM     20  C   UNL     1      -4.798 -14.209   1.571  1.00  0.00     0.242 CG0
ATOM     21  O   UNL     1      -5.629 -14.221   0.665  1.00  0.00    -0.273 OA
ATOM     22  H   UNL     1      -3.100 -13.316   2.346  1.00  0.00     0.164 HD
ATOM     23  G   UNL     1      -4.936 -15.019   2.876  1.00  0.00     0.000 G0
ENDBRANCH  18  19
BRANCH  18  24
ATOM     24  C   UNL     1      -4.137 -11.266   0.316  1.00  0.00     0.038 C 
BRANCH  24  25
ATOM     25  C   UNL     1      -3.883 -10.352   1.534  1.00  0.00    -0.015 C 
ATOM     26  C   UNL     1      -5.040 -10.375   2.534  1.00  0.00     0.007 C 
ATOM     27  C   UNL     1      -3.642  -8.917   1.058  1.00  0.00     0.007 C 
ENDBRANCH  24  25
ENDBRANCH  18  24
ENDBRANCH  15  18
ENDBRANCH  13  14
BRANCH  13  28
ATOM     28  C   UNL     1       0.294 -11.513  -2.148  1.00  0.00     0.327 C 
ATOM     29  O   UNL     1       1.089 -12.383  -2.467  1.00  0.00    -0.250 OA
BRANCH  28  30
ATOM     30  O   UNL     1      -0.331 -10.780  -3.092  1.00  0.00    -0.480 OA
ATOM     31  H   UNL     1      -0.049  -9.859  -2.907  1.00  0.00     0.296 HD
ENDBRANCH  28  30
ENDBRANCH  13  28
ENDBRANCH  11  13
ENDBRANCH   8  11
ENDBRANCH   6   7
BRANCH   6  32
ATOM     32  C   UNL     1       1.213  -7.039   3.343  1.00  0.00     0.037 C 
BRANCH  32  33
ATOM     33  C   UNL     1       1.871  -8.313   3.893  1.00  0.00     0.026 C 
BRANCH  33  34
ATOM     34  C   UNL     1       1.044  -8.965   5.002  1.00  0.00     0.146 C 
BRANCH  34  35
ATOM     35  N   UNL     1       1.599  -8.579   6.292  1.00  0.00    -0.254 NA
ATOM     36  C   UNL     1       1.008  -7.665   6.966  1.00  0.00     0.185 C 
ATOM     37  N   UNL     1       1.508  -7.304   8.158  1.00  0.00    -0.370 N 
ATOM     38  N   UNL     1      -0.099  -6.967   6.655  1.00  0.00    -0.370 N 
ATOM     39  H   UNL     1       2.338  -7.793   8.469  1.00  0.00     0.159 HD
ATOM     40  H   UNL     1       1.013  -6.729   8.818  1.00  0.00     0.159 HD
ATOM     41  H   UNL     1      -0.388  -6.175   7.205  1.00  0.00     0.159 HD
ATOM     42  H   UNL     1      -0.574  -7.123   5.779  1.00  0.00     0.159 HD
ENDBRANCH  34  35
ENDBRANCH  33  34
ENDBRANCH  32  33
ENDBRANCH   6  32
ENDBRANCH   4   6
ENDBRANCH   1   2
BRANCH   1  43
ATOM     43  C   UNL     1      -0.273  -2.756   3.027  1.00  0.00     0.102 C 
ATOM     44  C   UNL     1      -0.829  -2.005   1.806  1.00  0.00     0.020 C 
BRANCH  43  45
ATOM     45  C   UNL     1       1.111  -3.372   2.801  1.00  0.00     0.225 C 
ATOM     46  O   UNL     1       1.883  -3.642   3.717  1.00  0.00    -0.275 OA
ATOM     47  N   UNL     1       1.485  -3.521   1.486  1.00  0.00    -0.342 N 
ATOM     48  H   UNL     1       0.791  -3.439   0.756  1.00  0.00     0.164 HD
BRANCH  47  49
ATOM     49  C   UNL     1       2.767  -4.130   1.118  1.00  0.00     0.192 C 
BRANCH  49  50
ATOM     50  C   UNL     1       3.625  -3.108   0.368  1.00  0.00     0.047 C 
BRANCH  50  51
ATOM     51  C   UNL     1       4.229  -2.054   1.306  1.00  0.00     0.103 C 
BRANCH  51  52
ATOM     52  C   UNL     1       3.620  -0.671   1.083  1.00  0.00     0.226 C 
ATOM     53  O   UNL     1       2.514  -0.408   1.558  1.00  0.00    -0.275 OA
BRANCH  52  54
ATOM     54  N   UNL     1       4.419   0.261   0.395  1.00  0.00    -0.311 N 
ATOM     55  C   UNL     1       5.660  -0.153  -0.273  1.00  0.00     0.153 C 
BRANCH  54  56
ATOM     56  C   UNL     1       4.058   1.617   0.315  1.00  0.00     0.102 C 
ATOM     57  C   UNL     1       4.500   2.580   1.140  1.00  0.00     0.043 C 
BRANCH  56  58
ATOM     58  C   UNL     1       3.143   2.112  -0.780  1.00  0.00     0.268 C 
ATOM     59  O   UNL     1       2.620   1.371  -1.602  1.00  0.00    -0.268 OA
ATOM     60  N   UNL     1       2.908   3.465  -0.717  1.00  0.00    -0.339 N 
ATOM     61  H   UNL     1       3.388   4.010  -0.012  1.00  0.00     0.164 HD
BRANCH  60  62
ATOM     62  C   UNL     1       2.002   4.142  -1.644  1.00  0.00     0.168 CG0
ATOM     63  C   UNL     1       2.744   4.614  -2.888  1.00  0.00     0.041 C 
ATOM     64  G   UNL     1       1.324   5.329  -0.929  1.00  0.00     0.000 G0
ENDBRANCH  60  62
ENDBRANCH  56  58
ENDBRANCH  54  56
ENDBRANCH  52  54
ENDBRANCH  51  52
ENDBRANCH  50  51
ENDBRANCH  49  50
BRANCH  49  65
ATOM     65  C   UNL     1       2.572  -5.374   0.238  1.00  0.00     0.326 C 
ATOM     66  O   UNL     1       1.498  -5.811  -0.147  1.00  0.00    -0.250 OA
BRANCH  65  67
ATOM     67  O   UNL     1       3.711  -6.037  -0.062  1.00  0.00    -0.480 OA
ATOM     68  H   UNL     1       4.329  -5.771   0.653  1.00  0.00     0.296 HD
ENDBRANCH  65  67
ENDBRANCH  49  65
ENDBRANCH  47  49
ENDBRANCH  43  45
ENDBRANCH   1  43
BRANCH   1  69
ATOM     69  C   UNL     1      -1.722  -3.656   5.052  1.00  0.00    -0.001 C 
ATOM     70  C   UNL     1      -2.367  -2.612   5.600  1.00  0.00     0.001 C 
BRANCH  70  71
ATOM     71  C   UNL     1      -2.824  -2.489   6.986  1.00  0.00    -0.055 C 
ATOM     72  C   UNL     1      -3.083  -3.627   7.664  1.00  0.00    -0.018 C 
ATOM     73  C   UNL     1      -2.966  -1.103   7.558  1.00  0.00     0.044 C 
BRANCH  72  74
ATOM     74  C   UNL     1      -3.561  -3.805   9.098  1.00  0.00     0.038 C 
ATOM     75  C   UNL     1      -2.359  -4.283   9.921  1.00  0.00     0.015 C 
BRANCH  74  76
ATOM     76  C   UNL     1      -4.781  -4.773   9.102  1.00  0.00     0.128 C 
BRANCH  76  77
ATOM     77  O   UNL     1      -5.756  -4.331  10.061  1.00  0.00    -0.381 OA
ATOM     78  C   UNL     1      -6.674  -5.344  10.452  1.00  0.00     0.195 C 
ENDBRANCH  76  77
BRANCH  76  79
ATOM     79  C   UNL     1      -5.390  -5.024   7.700  1.00  0.00     0.068 C 
BRANCH  79  80
ATOM     80  C   UNL     1      -5.202  -6.388   7.080  1.00  0.00    -0.045 A 
ATOM     81  C   UNL     1      -4.466  -6.548   5.898  1.00  0.00     0.004 A 
ATOM     82  C   UNL     1      -5.788  -7.519   7.668  1.00  0.00     0.004 A 
ATOM     83  C   UNL     1      -4.308  -7.811   5.324  1.00  0.00     0.000 A 
ATOM     84  C   UNL     1      -5.630  -8.781   7.092  1.00  0.00     0.000 A 
ATOM     85  C   UNL     1      -4.889  -8.927   5.922  1.00  0.00     0.000 A 
ENDBRANCH  79  80
ENDBRANCH  76  79
ENDBRANCH  74  76
ENDBRANCH  72  74
ENDBRANCH  70  71
ENDBRANCH   1  69
TORSDOF 17
ENDMDL
MODEL 3
REMARK VINA RESULT:    -6.916      5.302     13.396
REMARK INTER + INTRA:         -28.580
REMARK INTER:                 -21.401
REMARK INTRA:                  -7.178
REMARK UNBOUND:                -7.916
REMARK SMILES C=C1C(=O)N[C@H](C)C(=O)N[C@@H](CC(C)C)C(=O)N[C@@H](C(=O)O)[C@H](C)C(=O)N[C@@H](CCCN=C(N)N)C(=O)N[C@@H](/C=C/C(C)=C/[C@H](C)[C@H](Cc2ccccc2)OC)[C@H](C)C(=O)N[C@@H](C(=O)O)CCC(=O)N1C
REMARK SMILES IDX 39 1 38 2 37 3 36 4 28 6 27 7 25 8 26 9 23 11 24 12 19 13
REMARK SMILES IDX 18 14 16 15 17 16 11 18 10 19 8 20 9 21 12 24 13 25 14 26
REMARK SMILES IDX 15 27 20 28 21 29 22 30 29 32 30 33 31 34 32 35 33 36 34 37
REMARK SMILES IDX 35 38 57 43 58 44 59 45 60 46 61 47 62 49 66 50 67 51 68 52
REMARK SMILES IDX 69 53 70 54 71 55 2 56 1 57 3 58 4 59 5 60 6 62 7 63 63 65
REMARK SMILES IDX 64 66 65 67 40 69 41 70 42 71 44 72 43 73 45 74 46 75 47 76
REMARK SMILES IDX 55 77 56 78 48 79 49 80 50 81 54 82 51 83 53 84 52 85
REMARK H PARENT 38 5 27 10 18 17 10 22 22 31 34 39 34 40 35 41 35 42 61 48
REMARK H PARENT 5 61 65 68
REMARK Flexibility Score:  369.900
ROOT
ATOM      1  C   UNL     1      -4.914  -7.510   5.868  1.00  0.00     0.117 C 
ENDROOT
BRANCH   1   2
ATOM      2  N   UNL     1      -3.896  -6.612   6.415  1.00  0.00    -0.347 N 
ATOM      3  O   UNL     1      -5.292  -4.898   7.034  1.00  0.00    -0.273 OA
ATOM      4  C   UNL     1      -4.179  -5.413   7.039  1.00  0.00     0.243 C 
ATOM      5  H   UNL     1      -2.927  -6.889   6.389  1.00  0.00     0.164 HD
BRANCH   4   6
ATOM      6  C   UNL     1      -2.927  -4.695   7.606  1.00  0.00     0.171 C 
BRANCH   6   7
ATOM      7  N   UNL     1      -2.698  -3.425   6.899  1.00  0.00    -0.344 N 
ATOM      8  C   UNL     1      -2.203  -3.416   5.613  1.00  0.00     0.226 C 
ATOM      9  O   UNL     1      -1.911  -4.443   5.011  1.00  0.00    -0.275 OA
ATOM     10  H   UNL     1      -2.863  -2.554   7.389  1.00  0.00     0.164 HD
BRANCH   8  11
ATOM     11  C   UNL     1      -2.074  -2.032   5.002  1.00  0.00     0.109 C 
ATOM     12  C   UNL     1      -2.118  -0.967   6.098  1.00  0.00     0.021 C 
BRANCH  11  13
ATOM     13  C   UNL     1      -0.829  -1.977   4.094  1.00  0.00     0.204 C 
BRANCH  13  14
ATOM     14  N   UNL     1       0.284  -2.763   4.635  1.00  0.00    -0.340 N 
ATOM     15  C   UNL     1       1.392  -2.188   5.218  1.00  0.00     0.243 C 
ATOM     16  O   UNL     1       1.498  -0.974   5.381  1.00  0.00    -0.273 OA
ATOM     17  H   UNL     1       0.329  -3.757   4.398  1.00  0.00     0.164 HD
BRANCH  15  18
ATOM     18  C   UNL     1       2.524  -3.199   5.525  1.00  0.00     0.171 C 
BRANCH  18  19
ATOM     19  N   UNL     1       3.758  -2.619   4.997  1.00  0.00    -0.343 N 
ATOM     20  C   UNL     1       4.268  -2.987   3.767  1.00  0.00     0.242 CG0
ATOM     21  O   UNL     1       3.785  -3.913   3.121  1.00  0.00    -0.273 OA
ATOM     22  H   UNL     1       4.259  -1.931   5.548  1.00  0.00     0.164 HD
ATOM     23  G   UNL     1       5.533  -2.210   3.345  1.00  0.00     0.000 G0
ENDBRANCH  18  19
BRANCH  18  24
ATOM     24  C   UNL     1       2.625  -3.458   7.033  1.00  0.00     0.038 C 
BRANCH  24  25
ATOM     25  C   UNL     1       1.935  -4.752   7.512  1.00  0.00    -0.015 C 
ATOM     26  C   UNL     1       1.716  -5.753   6.377  1.00  0.00     0.007 C 
ATOM     27  C   UNL     1       0.593  -4.409   8.163  1.00  0.00     0.007 C 
ENDBRANCH  24  25
ENDBRANCH  18  24
ENDBRANCH  15  18
ENDBRANCH  13  14
BRANCH  13  28
ATOM     28  C   UNL     1      -1.095  -2.484   2.674  1.00  0.00     0.327 C 
ATOM     29  O   UNL     1      -0.332  -3.146   1.988  1.00  0.00    -0.250 OA
BRANCH  28  30
ATOM     30  O   UNL     1      -2.255  -2.029   2.158  1.00  0.00    -0.480 OA
ATOM     31  H   UNL     1      -2.172  -2.192   1.196  1.00  0.00     0.296 HD
ENDBRANCH  28  30
ENDBRANCH  13  28
ENDBRANCH  11  13
ENDBRANCH   8  11
ENDBRANCH   6   7
BRANCH   6  32
ATOM     32  C   UNL     1      -3.120  -4.459   9.108  1.00  0.00     0.037 C 
BRANCH  32  33
ATOM     33  C   UNL     1      -4.361  -3.606   9.406  1.00  0.00     0.026 C 
BRANCH  33  34
ATOM     34  C   UNL     1      -4.065  -2.106   9.362  1.00  0.00     0.146 C 
BRANCH  34  35
ATOM     35  N   UNL     1      -5.327  -1.379   9.350  1.00  0.00    -0.254 NA
ATOM     36  C   UNL     1      -5.963  -1.269   8.244  1.00  0.00     0.185 C 
ATOM     37  N   UNL     1      -7.129  -0.605   8.223  1.00  0.00    -0.370 N 
ATOM     38  N   UNL     1      -5.632  -1.741   7.029  1.00  0.00    -0.370 N 
ATOM     39  H   UNL     1      -7.453  -0.227   9.104  1.00  0.00     0.159 HD
ATOM     40  H   UNL     1      -7.766  -0.624   7.445  1.00  0.00     0.159 HD
ATOM     41  H   UNL     1      -6.146  -1.470   6.207  1.00  0.00     0.159 HD
ATOM     42  H   UNL     1      -4.771  -2.248   6.893  1.00  0.00     0.159 HD
ENDBRANCH  34  35
ENDBRANCH  33  34
ENDBRANCH  32  33
ENDBRANCH   6  32
ENDBRANCH   4   6
ENDBRANCH   1   2
BRANCH   1  43
ATOM     43  C   UNL     1      -5.097  -8.706   6.846  1.00  0.00     0.102 C 
ATOM     44  C   UNL     1      -4.945 -10.079   6.169  1.00  0.00     0.020 C 
BRANCH  43  45
ATOM     45  C   UNL     1      -6.382  -8.555   7.665  1.00  0.00     0.225 C 
ATOM     46  O   UNL     1      -7.214  -9.451   7.779  1.00  0.00    -0.275 OA
ATOM     47  N   UNL     1      -6.602  -7.306   8.199  1.00  0.00    -0.342 N 
ATOM     48  H   UNL     1      -5.847  -6.634   8.225  1.00  0.00     0.164 HD
BRANCH  47  49
ATOM     49  C   UNL     1      -7.772  -7.025   9.035  1.00  0.00     0.192 C 
BRANCH  49  50
ATOM     50  C   UNL     1      -8.791  -6.208   8.236  1.00  0.00     0.047 C 
BRANCH  50  51
ATOM     51  C   UNL     1     -10.159  -6.899   8.158  1.00  0.00     0.103 C 
BRANCH  51  52
ATOM     52  C   UNL     1     -11.294  -5.900   7.936  1.00  0.00     0.226 C 
ATOM     53  O   UNL     1     -11.715  -5.700   6.795  1.00  0.00    -0.275 OA
BRANCH  52  54
ATOM     54  N   UNL     1     -11.849  -5.315   9.089  1.00  0.00    -0.311 N 
ATOM     55  C   UNL     1     -11.842  -3.858   9.276  1.00  0.00     0.153 C 
BRANCH  54  56
ATOM     56  C   UNL     1     -12.434  -6.098  10.099  1.00  0.00     0.102 C 
ATOM     57  C   UNL     1     -12.004  -6.159  11.370  1.00  0.00     0.043 C 
BRANCH  56  58
ATOM     58  C   UNL     1     -13.667  -6.926   9.821  1.00  0.00     0.268 C 
ATOM     59  O   UNL     1     -14.735  -6.440   9.475  1.00  0.00    -0.268 OA
ATOM     60  N   UNL     1     -13.446  -8.278   9.934  1.00  0.00    -0.339 N 
ATOM     61  H   UNL     1     -12.535  -8.599  10.236  1.00  0.00     0.164 HD
BRANCH  60  62
ATOM     62  C   UNL     1     -14.488  -9.263   9.647  1.00  0.00     0.168 CG0
ATOM     63  C   UNL     1     -13.880 -10.611   9.282  1.00  0.00     0.041 C 
ATOM     64  G   UNL     1     -15.391  -8.745   8.509  1.00  0.00     0.000 G0
ENDBRANCH  60  62
ENDBRANCH  56  58
ENDBRANCH  54  56
ENDBRANCH  52  54
ENDBRANCH  51  52
ENDBRANCH  50  51
ENDBRANCH  49  50
BRANCH  49  65
ATOM     65  C   UNL     1      -7.388  -6.254  10.307  1.00  0.00     0.326 C 
ATOM     66  O   UNL     1      -8.073  -5.405  10.858  1.00  0.00    -0.250 OA
BRANCH  65  67
ATOM     67  O   UNL     1      -6.156  -6.535  10.787  1.00  0.00    -0.480 OA
ATOM     68  H   UNL     1      -5.640  -5.725  10.587  1.00  0.00     0.296 HD
ENDBRANCH  65  67
ENDBRANCH  49  65
ENDBRANCH  47  49
ENDBRANCH  43  45
ENDBRANCH   1  43
BRANCH   1  69
ATOM     69  C   UNL     1      -4.504  -7.792   4.434  1.00  0.00    -0.001 C 
ATOM     70  C   UNL     1      -3.383  -7.387   3.810  1.00  0.00     0.001 C 
BRANCH  70  71
ATOM     71  C   UNL     1      -2.988  -7.684   2.432  1.00  0.00    -0.055 C 
ATOM     72  C   UNL     1      -3.077  -8.964   2.014  1.00  0.00    -0.018 C 
ATOM     73  C   UNL     1      -2.517  -6.538   1.574  1.00  0.00     0.044 C 
BRANCH  72  74
ATOM     74  C   UNL     1      -2.743  -9.559   0.654  1.00  0.00     0.038 C 
ATOM     75  C   UNL     1      -4.037 -10.165   0.095  1.00  0.00     0.015 C 
BRANCH  74  76
ATOM     76  C   UNL     1      -1.570 -10.569   0.823  1.00  0.00     0.128 C 
BRANCH  76  77
ATOM     77  O   UNL     1      -1.917 -11.830   0.225  1.00  0.00    -0.381 OA
ATOM     78  C   UNL     1      -1.872 -12.923   1.132  1.00  0.00     0.195 C 
ENDBRANCH  76  77
BRANCH  76  79
ATOM     79  C   UNL     1      -0.201 -10.031   0.336  1.00  0.00     0.068 C 
BRANCH  79  80
ATOM     80  C   UNL     1       0.364  -8.811   1.022  1.00  0.00    -0.045 A 
ATOM     81  C   UNL     1       0.566  -8.792   2.409  1.00  0.00     0.004 A 
ATOM     82  C   UNL     1       0.671  -7.660   0.281  1.00  0.00     0.004 A 
ATOM     83  C   UNL     1       1.077  -7.655   3.038  1.00  0.00     0.000 A 
ATOM     84  C   UNL     1       1.181  -6.523   0.911  1.00  0.00     0.000 A 
ATOM     85  C   UNL     1       1.385  -6.521   2.289  1.00  0.00     0.000 A 
ENDBRANCH  79  80
ENDBRANCH  76  79
ENDBRANCH  74  76
ENDBRANCH  72  74
ENDBRANCH  70  71
ENDBRANCH   1  69
TORSDOF 17
ENDMDL
MODEL 4
REMARK VINA RESULT:    -6.882      2.116      3.415
REMARK INTER + INTRA:         -28.477
REMARK INTER:                 -21.171
REMARK INTRA:                  -7.306
REMARK UNBOUND:                -7.916
REMARK SMILES C=C1C(=O)N[C@H](C)C(=O)N[C@@H](CC(C)C)C(=O)N[C@@H](C(=O)O)[C@H](C)C(=O)N[C@@H](CCCN=C(N)N)C(=O)N[C@@H](/C=C/C(C)=C/[C@H](C)[C@H](Cc2ccccc2)OC)[C@H](C)C(=O)N[C@@H](C(=O)O)CCC(=O)N1C
REMARK SMILES IDX 39 1 38 2 37 3 36 4 28 6 27 7 25 8 26 9 23 11 24 12 19 13
REMARK SMILES IDX 18 14 16 15 17 16 11 18 10 19 8 20 9 21 12 24 13 25 14 26
REMARK SMILES IDX 15 27 20 28 21 29 22 30 29 32 30 33 31 34 32 35 33 36 34 37
REMARK SMILES IDX 35 38 57 43 58 44 59 45 60 46 61 47 62 49 66 50 67 51 68 52
REMARK SMILES IDX 69 53 70 54 71 55 2 56 1 57 3 58 4 59 5 60 6 62 7 63 63 65
REMARK SMILES IDX 64 66 65 67 40 69 41 70 42 71 44 72 43 73 45 74 46 75 47 76
REMARK SMILES IDX 55 77 56 78 48 79 49 80 50 81 54 82 51 83 53 84 52 85
REMARK H PARENT 38 5 27 10 18 17 10 22 22 31 34 39 34 40 35 41 35 42 61 48
REMARK H PARENT 5 61 65 68
REMARK Flexibility Score:  369.900
ROOT
ATOM      1  C   UNL     1       1.199  -7.194   0.215  1.00  0.00     0.117 C 
ENDROOT
BRANCH   1   2
ATOM      2  N   UNL     1       0.106  -7.944   0.837  1.00  0.00    -0.347 N 
ATOM      3  O   UNL     1      -1.202  -8.198  -1.033  1.00  0.00    -0.273 OA
ATOM      4  C   UNL     1      -0.967  -8.466   0.141  1.00  0.00     0.243 C 
ATOM      5  H   UNL     1       0.144  -8.145   1.824  1.00  0.00     0.164 HD
BRANCH   4   6
ATOM      6  C   UNL     1      -1.939  -9.292   1.022  1.00  0.00     0.171 C 
BRANCH   6   7
ATOM      7  N   UNL     1      -2.181  -8.606   2.301  1.00  0.00    -0.344 N 
ATOM      8  C   UNL     1      -1.996  -9.265   3.497  1.00  0.00     0.226 C 
ATOM      9  O   UNL     1      -1.650 -10.439   3.558  1.00  0.00    -0.275 OA
ATOM     10  H   UNL     1      -2.532  -7.657   2.291  1.00  0.00     0.164 HD
BRANCH   8  11
ATOM     11  C   UNL     1      -2.234  -8.407   4.728  1.00  0.00     0.109 C 
ATOM     12  C   UNL     1      -1.812  -6.964   4.452  1.00  0.00     0.021 C 
BRANCH  11  13
ATOM     13  C   UNL     1      -3.689  -8.577   5.209  1.00  0.00     0.204 C 
BRANCH  13  14
ATOM     14  N   UNL     1      -4.180  -7.387   5.910  1.00  0.00    -0.340 N 
ATOM     15  C   UNL     1      -5.208  -7.429   6.827  1.00  0.00     0.243 C 
ATOM     16  O   UNL     1      -5.746  -8.481   7.168  1.00  0.00    -0.273 OA
ATOM     17  H   UNL     1      -3.884  -6.469   5.565  1.00  0.00     0.164 HD
BRANCH  15  18
ATOM     18  C   UNL     1      -5.692  -6.029   7.279  1.00  0.00     0.171 C 
BRANCH  18  19
ATOM     19  N   UNL     1      -6.565  -6.240   8.432  1.00  0.00    -0.343 N 
ATOM     20  C   UNL     1      -7.919  -5.968   8.380  1.00  0.00     0.242 CG0
ATOM     21  O   UNL     1      -8.427  -5.412   7.409  1.00  0.00    -0.273 OA
ATOM     22  H   UNL     1      -6.170  -6.591   9.297  1.00  0.00     0.164 HD
ATOM     23  G   UNL     1      -8.690  -6.328   9.667  1.00  0.00     0.000 G0
ENDBRANCH  18  19
BRANCH  18  24
ATOM     24  C   UNL     1      -4.500  -5.132   7.633  1.00  0.00     0.038 C 
BRANCH  24  25
ATOM     25  C   UNL     1      -4.343  -4.835   9.140  1.00  0.00    -0.015 C 
ATOM     26  C   UNL     1      -5.121  -3.593   9.576  1.00  0.00     0.007 C 
ATOM     27  C   UNL     1      -2.860  -4.659   9.478  1.00  0.00     0.007 C 
ENDBRANCH  24  25
ENDBRANCH  18  24
ENDBRANCH  15  18
ENDBRANCH  13  14
BRANCH  13  28
ATOM     28  C   UNL     1      -4.670  -8.871   4.071  1.00  0.00     0.327 C 
ATOM     29  O   UNL     1      -5.054  -8.079   3.224  1.00  0.00    -0.250 OA
BRANCH  28  30
ATOM     30  O   UNL     1      -5.201 -10.109   4.138  1.00  0.00    -0.480 OA
ATOM     31  H   UNL     1      -4.832 -10.486   4.963  1.00  0.00     0.296 HD
ENDBRANCH  28  30
ENDBRANCH  13  28
ENDBRANCH  11  13
ENDBRANCH   8  11
ENDBRANCH   6   7
BRANCH   6  32
ATOM     32  C   UNL     1      -3.251  -9.506   0.259  1.00  0.00     0.037 C 
BRANCH  32  33
ATOM     33  C   UNL     1      -4.128 -10.586   0.907  1.00  0.00     0.026 C 
BRANCH  33  34
ATOM     34  C   UNL     1      -3.954 -11.955   0.248  1.00  0.00     0.146 C 
BRANCH  34  35
ATOM     35  N   UNL     1      -3.103 -12.779   1.095  1.00  0.00    -0.254 NA
ATOM     36  C   UNL     1      -1.923 -13.066   0.687  1.00  0.00     0.185 C 
ATOM     37  N   UNL     1      -1.128 -13.821   1.461  1.00  0.00    -0.370 N 
ATOM     38  N   UNL     1      -1.316 -12.710  -0.460  1.00  0.00    -0.370 N 
ATOM     39  H   UNL     1      -1.511 -14.120   2.349  1.00  0.00     0.159 HD
ATOM     40  H   UNL     1      -0.144 -13.942   1.296  1.00  0.00     0.159 HD
ATOM     41  H   UNL     1      -0.434 -13.114  -0.729  1.00  0.00     0.159 HD
ATOM     42  H   UNL     1      -1.802 -12.154  -1.146  1.00  0.00     0.159 HD
ENDBRANCH  34  35
ENDBRANCH  33  34
ENDBRANCH  32  33
ENDBRANCH   6  32
ENDBRANCH   4   6
ENDBRANCH   1   2
BRANCH   1  43
ATOM     43  C   UNL     1       2.476  -8.082   0.224  1.00  0.00     0.102 C 
ATOM     44  C   UNL     1       3.783  -7.274   0.295  1.00  0.00     0.020 C 
BRANCH  43  45
ATOM     45  C   UNL     1       2.441  -9.108  -0.912  1.00  0.00     0.225 C 
ATOM     46  O   UNL     1       3.017 -10.191  -0.857  1.00  0.00    -0.275 OA
ATOM     47  N   UNL     1       1.793  -8.703  -2.057  1.00  0.00    -0.342 N 
ATOM     48  H   UNL     1       1.202  -7.884  -2.033  1.00  0.00     0.164 HD
BRANCH  47  49
ATOM     49  C   UNL     1       1.650  -9.593  -3.212  1.00  0.00     0.192 C 
BRANCH  49  50
ATOM     50  C   UNL     1       1.568  -8.762  -4.495  1.00  0.00     0.047 C 
BRANCH  50  51
ATOM     51  C   UNL     1       2.938  -8.588  -5.164  1.00  0.00     0.103 C 
BRANCH  51  52
ATOM     52  C   UNL     1       2.834  -8.569  -6.688  1.00  0.00     0.226 C 
ATOM     53  O   UNL     1       1.872  -9.104  -7.241  1.00  0.00    -0.275 OA
BRANCH  52  54
ATOM     54  N   UNL     1       3.834  -7.856  -7.375  1.00  0.00    -0.311 N 
ATOM     55  C   UNL     1       4.472  -8.414  -8.574  1.00  0.00     0.153 C 
BRANCH  54  56
ATOM     56  C   UNL     1       4.254  -6.585  -6.946  1.00  0.00     0.102 C 
ATOM     57  C   UNL     1       3.522  -5.463  -7.037  1.00  0.00     0.043 C 
BRANCH  56  58
ATOM     58  C   UNL     1       5.598  -6.397  -6.283  1.00  0.00     0.268 C 
ATOM     59  O   UNL     1       5.990  -7.091  -5.355  1.00  0.00    -0.268 OA
ATOM     60  N   UNL     1       6.357  -5.413  -6.871  1.00  0.00    -0.339 N 
ATOM     61  H   UNL     1       5.955  -4.876  -7.630  1.00  0.00     0.164 HD
BRANCH  60  62
ATOM     62  C   UNL     1       7.716  -5.107  -6.426  1.00  0.00     0.168 CG0
ATOM     63  C   UNL     1       8.744  -5.907  -7.218  1.00  0.00     0.041 C 
ATOM     64  G   UNL     1       7.844  -5.399  -4.917  1.00  0.00     0.000 G0
ENDBRANCH  60  62
ENDBRANCH  56  58
ENDBRANCH  54  56
ENDBRANCH  52  54
ENDBRANCH  51  52
ENDBRANCH  50  51
ENDBRANCH  49  50
BRANCH  49  65
ATOM     65  C   UNL     1       0.396 -10.475  -3.096  1.00  0.00     0.326 C 
ATOM     66  O   UNL     1       0.381 -11.647  -2.750  1.00  0.00    -0.250 OA
BRANCH  65  67
ATOM     67  O   UNL     1      -0.753  -9.872  -3.473  1.00  0.00    -0.480 OA
ATOM     68  H   UNL     1      -1.101 -10.458  -4.179  1.00  0.00     0.296 HD
ENDBRANCH  65  67
ENDBRANCH  49  65
ENDBRANCH  47  49
ENDBRANCH  43  45
ENDBRANCH   1  43
BRANCH   1  69
ATOM     69  C   UNL     1       1.237  -5.846   0.912  1.00  0.00    -0.001 C 
ATOM     70  C   UNL     1       1.002  -5.590   2.211  1.00  0.00     0.001 C 
BRANCH  70  71
ATOM     71  C   UNL     1       1.064  -4.287   2.876  1.00  0.00    -0.055 C 
ATOM     72  C   UNL     1       2.274  -3.702   2.999  1.00  0.00    -0.018 C 
ATOM     73  C   UNL     1      -0.228  -3.688   3.368  1.00  0.00     0.044 C 
BRANCH  72  74
ATOM     74  C   UNL     1       2.638  -2.367   3.633  1.00  0.00     0.038 C 
ATOM     75  C   UNL     1       3.256  -1.497   2.532  1.00  0.00     0.015 C 
BRANCH  74  76
ATOM     76  C   UNL     1       3.565  -2.629   4.856  1.00  0.00     0.128 C 
BRANCH  76  77
ATOM     77  O   UNL     1       4.595  -1.628   4.914  1.00  0.00    -0.381 OA
ATOM     78  C   UNL     1       4.397  -0.663   5.938  1.00  0.00     0.195 C 
ENDBRANCH  76  77
BRANCH  76  79
ATOM     79  C   UNL     1       2.807  -2.788   6.198  1.00  0.00     0.068 C 
BRANCH  79  80
ATOM     80  C   UNL     1       2.139  -4.112   6.480  1.00  0.00    -0.045 A 
ATOM     81  C   UNL     1       0.806  -4.171   6.910  1.00  0.00     0.004 A 
ATOM     82  C   UNL     1       2.857  -5.310   6.343  1.00  0.00     0.004 A 
ATOM     83  C   UNL     1       0.200  -5.399   7.182  1.00  0.00     0.000 A 
ATOM     84  C   UNL     1       2.249  -6.537   6.617  1.00  0.00     0.000 A 
ATOM     85  C   UNL     1       0.921  -6.582   7.035  1.00  0.00     0.000 A 
ENDBRANCH  79  80
ENDBRANCH  76  79
ENDBRANCH  74  76
ENDBRANCH  72  74
ENDBRANCH  70  71
ENDBRANCH   1  69
TORSDOF 17
ENDMDL
MODEL 5
REMARK VINA RESULT:    -6.873      3.620     12.080
REMARK INTER + INTRA:         -28.452
REMARK INTER:                 -21.408
REMARK INTRA:                  -7.044
REMARK UNBOUND:                -7.916
REMARK SMILES C=C1C(=O)N[C@H](C)C(=O)N[C@@H](CC(C)C)C(=O)N[C@@H](C(=O)O)[C@H](C)C(=O)N[C@@H](CCCN=C(N)N)C(=O)N[C@@H](/C=C/C(C)=C/[C@H](C)[C@H](Cc2ccccc2)OC)[C@H](C)C(=O)N[C@@H](C(=O)O)CCC(=O)N1C
REMARK SMILES IDX 39 1 38 2 37 3 36 4 28 6 27 7 25 8 26 9 23 11 24 12 19 13
REMARK SMILES IDX 18 14 16 15 17 16 11 18 10 19 8 20 9 21 12 24 13 25 14 26
REMARK SMILES IDX 15 27 20 28 21 29 22 30 29 32 30 33 31 34 32 35 33 36 34 37
REMARK SMILES IDX 35 38 57 43 58 44 59 45 60 46 61 47 62 49 66 50 67 51 68 52
REMARK SMILES IDX 69 53 70 54 71 55 2 56 1 57 3 58 4 59 5 60 6 62 7 63 63 65
REMARK SMILES IDX 64 66 65 67 40 69 41 70 42 71 44 72 43 73 45 74 46 75 47 76
REMARK SMILES IDX 55 77 56 78 48 79 49 80 50 81 54 82 51 83 53 84 52 85
REMARK H PARENT 38 5 27 10 18 17 10 22 22 31 34 39 34 40 35 41 35 42 61 48
REMARK H PARENT 5 61 65 68
REMARK Flexibility Score:  369.900
ROOT
ATOM      1  C   UNL     1      -1.683  -6.311   4.300  1.00  0.00     0.117 C 
ENDROOT
BRANCH   1   2
ATOM      2  N   UNL     1      -2.066  -6.707   2.944  1.00  0.00    -0.347 N 
ATOM      3  O   UNL     1      -1.031  -8.755   2.911  1.00  0.00    -0.273 OA
ATOM      4  C   UNL     1      -1.785  -7.940   2.390  1.00  0.00     0.243 C 
ATOM      5  H   UNL     1      -2.612  -6.073   2.379  1.00  0.00     0.164 HD
BRANCH   4   6
ATOM      6  C   UNL     1      -2.377  -8.136   0.971  1.00  0.00     0.171 C 
BRANCH   6   7
ATOM      7  N   UNL     1      -1.369  -8.715   0.068  1.00  0.00    -0.344 N 
ATOM      8  C   UNL     1      -0.204  -8.035  -0.213  1.00  0.00     0.226 C 
ATOM      9  O   UNL     1       0.039  -6.925   0.245  1.00  0.00    -0.275 OA
ATOM     10  H   UNL     1      -1.565  -9.600  -0.383  1.00  0.00     0.164 HD
BRANCH   8  11
ATOM     11  C   UNL     1       0.757  -8.787  -1.116  1.00  0.00     0.109 C 
ATOM     12  C   UNL     1       0.676 -10.288  -0.836  1.00  0.00     0.021 C 
BRANCH  11  13
ATOM     13  C   UNL     1       0.514  -8.388  -2.585  1.00  0.00     0.204 C 
BRANCH  13  14
ATOM     14  N   UNL     1       1.659  -8.710  -3.442  1.00  0.00    -0.340 N 
ATOM     15  C   UNL     1       2.031  -7.933  -4.517  1.00  0.00     0.243 C 
ATOM     16  O   UNL     1       1.463  -6.879  -4.799  1.00  0.00    -0.273 OA
ATOM     17  H   UNL     1       2.076  -9.641  -3.357  1.00  0.00     0.164 HD
BRANCH  15  18
ATOM     18  C   UNL     1       3.134  -8.576  -5.394  1.00  0.00     0.171 C 
BRANCH  18  19
ATOM     19  N   UNL     1       2.477  -9.058  -6.607  1.00  0.00    -0.343 N 
ATOM     20  C   UNL     1       1.820 -10.273  -6.646  1.00  0.00     0.242 CG0
ATOM     21  O   UNL     1       1.871 -11.063  -5.706  1.00  0.00    -0.273 OA
ATOM     22  H   UNL     1       2.506  -8.492  -7.447  1.00  0.00     0.164 HD
ATOM     23  G   UNL     1       1.120 -10.576  -7.987  1.00  0.00     0.000 G0
ENDBRANCH  18  19
BRANCH  18  24
ATOM     24  C   UNL     1       4.232  -7.556  -5.717  1.00  0.00     0.038 C 
BRANCH  24  25
ATOM     25  C   UNL     1       4.242  -7.061  -7.179  1.00  0.00    -0.015 C 
ATOM     26  C   UNL     1       5.637  -7.105  -7.803  1.00  0.00     0.007 C 
ATOM     27  C   UNL     1       3.694  -5.633  -7.242  1.00  0.00     0.007 C 
ENDBRANCH  24  25
ENDBRANCH  18  24
ENDBRANCH  15  18
ENDBRANCH  13  14
BRANCH  13  28
ATOM     28  C   UNL     1      -0.716  -9.065  -3.199  1.00  0.00     0.327 C 
ATOM     29  O   UNL     1      -0.722 -10.101  -3.847  1.00  0.00    -0.250 OA
BRANCH  28  30
ATOM     30  O   UNL     1      -1.843  -8.339  -3.062  1.00  0.00    -0.480 OA
ATOM     31  H   UNL     1      -1.590  -7.442  -3.365  1.00  0.00     0.296 HD
ENDBRANCH  28  30
ENDBRANCH  13  28
ENDBRANCH  11  13
ENDBRANCH   8  11
ENDBRANCH   6   7
BRANCH   6  32
ATOM     32  C   UNL     1      -3.613  -9.038   1.062  1.00  0.00     0.037 C 
BRANCH  32  33
ATOM     33  C   UNL     1      -3.561 -10.195   0.054  1.00  0.00     0.026 C 
BRANCH  33  34
ATOM     34  C   UNL     1      -4.033 -11.518   0.657  1.00  0.00     0.146 C 
BRANCH  34  35
ATOM     35  N   UNL     1      -3.255 -11.791   1.858  1.00  0.00    -0.254 NA
ATOM     36  C   UNL     1      -3.871 -11.920   2.974  1.00  0.00     0.185 C 
ATOM     37  N   UNL     1      -3.164 -12.176   4.085  1.00  0.00    -0.370 N 
ATOM     38  N   UNL     1      -5.189 -11.836   3.225  1.00  0.00    -0.370 N 
ATOM     39  H   UNL     1      -2.162 -12.264   3.976  1.00  0.00     0.159 HD
ATOM     40  H   UNL     1      -3.580 -12.460   4.955  1.00  0.00     0.159 HD
ATOM     41  H   UNL     1      -5.540 -11.818   4.169  1.00  0.00     0.159 HD
ATOM     42  H   UNL     1      -5.841 -11.632   2.483  1.00  0.00     0.159 HD
ENDBRANCH  34  35
ENDBRANCH  33  34
ENDBRANCH  32  33
ENDBRANCH   6  32
ENDBRANCH   4   6
ENDBRANCH   1   2
BRANCH   1  43
ATOM     43  C   UNL     1      -2.961  -5.856   5.062  1.00  0.00     0.102 C 
ATOM     44  C   UNL     1      -2.669  -5.287   6.461  1.00  0.00     0.020 C 
BRANCH  43  45
ATOM     45  C   UNL     1      -4.030  -6.953   5.048  1.00  0.00     0.225 C 
ATOM     46  O   UNL     1      -4.644  -7.278   4.036  1.00  0.00    -0.275 OA
ATOM     47  N   UNL     1      -4.334  -7.499   6.274  1.00  0.00    -0.342 N 
ATOM     48  H   UNL     1      -3.723  -7.334   7.061  1.00  0.00     0.164 HD
BRANCH  47  49
ATOM     49  C   UNL     1      -5.312  -8.584   6.408  1.00  0.00     0.192 C 
BRANCH  49  50
ATOM     50  C   UNL     1      -6.044  -8.454   7.746  1.00  0.00     0.047 C 
BRANCH  50  51
ATOM     51  C   UNL     1      -5.962  -7.032   8.319  1.00  0.00     0.103 C 
BRANCH  51  52
ATOM     52  C   UNL     1      -7.240  -6.236   8.064  1.00  0.00     0.226 C 
ATOM     53  O   UNL     1      -7.325  -5.522   7.064  1.00  0.00    -0.275 OA
BRANCH  52  54
ATOM     54  N   UNL     1      -8.295  -6.436   8.974  1.00  0.00    -0.311 N 
ATOM     55  C   UNL     1      -8.120  -6.159  10.406  1.00  0.00     0.153 C 
BRANCH  54  56
ATOM     56  C   UNL     1      -9.551  -6.900   8.550  1.00  0.00     0.102 C 
ATOM     57  C   UNL     1      -9.751  -7.985   7.784  1.00  0.00     0.043 C 
BRANCH  56  58
ATOM     58  C   UNL     1     -10.820  -6.205   8.983  1.00  0.00     0.268 C 
ATOM     59  O   UNL     1     -11.504  -6.584   9.924  1.00  0.00    -0.268 OA
ATOM     60  N   UNL     1     -11.090  -5.071   8.255  1.00  0.00    -0.339 N 
ATOM     61  H   UNL     1     -10.480  -4.830   7.483  1.00  0.00     0.164 HD
BRANCH  60  62
ATOM     62  C   UNL     1     -12.237  -4.212   8.548  1.00  0.00     0.168 CG0
ATOM     63  C   UNL     1     -13.471  -4.664   7.776  1.00  0.00     0.041 C 
ATOM     64  G   UNL     1     -11.887  -2.748   8.207  1.00  0.00     0.000 G0
ENDBRANCH  60  62
ENDBRANCH  56  58
ENDBRANCH  54  56
ENDBRANCH  52  54
ENDBRANCH  51  52
ENDBRANCH  50  51
ENDBRANCH  49  50
BRANCH  49  65
ATOM     65  C   UNL     1      -4.642  -9.964   6.326  1.00  0.00     0.326 C 
ATOM     66  O   UNL     1      -3.440 -10.176   6.397  1.00  0.00    -0.250 OA
BRANCH  65  67
ATOM     67  O   UNL     1      -5.491 -10.991   6.102  1.00  0.00    -0.480 OA
ATOM     68  H   UNL     1      -5.620 -10.976   5.129  1.00  0.00     0.296 HD
ENDBRANCH  65  67
ENDBRANCH  49  65
ENDBRANCH  47  49
ENDBRANCH  43  45
ENDBRANCH   1  43
BRANCH   1  69
ATOM     69  C   UNL     1      -0.533  -5.333   4.147  1.00  0.00    -0.001 C 
ATOM     70  C   UNL     1      -0.075  -4.781   3.009  1.00  0.00     0.001 C 
BRANCH  70  71
ATOM     71  C   UNL     1       1.022  -3.821   2.877  1.00  0.00    -0.055 C 
ATOM     72  C   UNL     1       2.121  -4.214   2.199  1.00  0.00    -0.018 C 
ATOM     73  C   UNL     1       0.844  -2.460   3.499  1.00  0.00     0.044 C 
BRANCH  72  74
ATOM     74  C   UNL     1       3.398  -3.440   1.904  1.00  0.00     0.038 C 
ATOM     75  C   UNL     1       3.491  -3.285   0.381  1.00  0.00     0.015 C 
BRANCH  74  76
ATOM     76  C   UNL     1       4.599  -4.186   2.559  1.00  0.00     0.128 C 
BRANCH  76  77
ATOM     77  O   UNL     1       5.703  -4.240   1.640  1.00  0.00    -0.381 OA
ATOM     78  C   UNL     1       6.907  -3.693   2.161  1.00  0.00     0.195 C 
ENDBRANCH  76  77
BRANCH  76  79
ATOM     79  C   UNL     1       5.001  -3.631   3.948  1.00  0.00     0.068 C 
BRANCH  79  80
ATOM     80  C   UNL     1       4.014  -3.777   5.081  1.00  0.00    -0.045 A 
ATOM     81  C   UNL     1       3.554  -5.039   5.480  1.00  0.00     0.004 A 
ATOM     82  C   UNL     1       3.517  -2.640   5.737  1.00  0.00     0.004 A 
ATOM     83  C   UNL     1       2.630  -5.164   6.519  1.00  0.00     0.000 A 
ATOM     84  C   UNL     1       2.593  -2.767   6.776  1.00  0.00     0.000 A 
ATOM     85  C   UNL     1       2.151  -4.028   7.168  1.00  0.00     0.000 A 
ENDBRANCH  79  80
ENDBRANCH  76  79
ENDBRANCH  74  76
ENDBRANCH  72  74
ENDBRANCH  70  71
ENDBRANCH   1  69
TORSDOF 17
ENDMDL
MODEL 6
REMARK VINA RESULT:    -6.813      5.429      8.947
REMARK INTER + INTRA:         -28.269
REMARK INTER:                 -21.313
REMARK INTRA:                  -6.956
REMARK UNBOUND:                -7.916
REMARK SMILES C=C1C(=O)N[C@H](C)C(=O)N[C@@H](CC(C)C)C(=O)N[C@@H](C(=O)O)[C@H](C)C(=O)N[C@@H](CCCN=C(N)N)C(=O)N[C@@H](/C=C/C(C)=C/[C@H](C)[C@H](Cc2ccccc2)OC)[C@H](C)C(=O)N[C@@H](C(=O)O)CCC(=O)N1C
REMARK SMILES IDX 39 1 38 2 37 3 36 4 28 6 27 7 25 8 26 9 23 11 24 12 19 13
REMARK SMILES IDX 18 14 16 15 17 16 11 18 10 19 8 20 9 21 12 24 13 25 14 26
REMARK SMILES IDX 15 27 20 28 21 29 22 30 29 32 30 33 31 34 32 35 33 36 34 37
REMARK SMILES IDX 35 38 57 43 58 44 59 45 60 46 61 47 62 49 66 50 67 51 68 52
REMARK SMILES IDX 69 53 70 54 71 55 2 56 1 57 3 58 4 59 5 60 6 62 7 63 63 65
REMARK SMILES IDX 64 66 65 67 40 69 41 70 42 71 44 72 43 73 45 74 46 75 47 76
REMARK SMILES IDX 55 77 56 78 48 79 49 80 50 81 54 82 51 83 53 84 52 85
REMARK H PARENT 38 5 27 10 18 17 10 22 22 31 34 39 34 40 35 41 35 42 61 48
REMARK H PARENT 5 61 65 68
REMARK Flexibility Score:  369.900
ROOT
ATOM      1  C   UNL     1       5.633  -2.910  -0.060  1.00  0.00     0.117 C 
ENDROOT
BRANCH   1   2
ATOM      2  N   UNL     1       4.365  -3.615   0.138  1.00  0.00    -0.347 N 
ATOM      3  O   UNL     1       5.208  -5.747   0.261  1.00  0.00    -0.273 OA
ATOM      4  C   UNL     1       4.264  -4.972   0.375  1.00  0.00     0.243 C 
ATOM      5  H   UNL     1       3.505  -3.088   0.156  1.00  0.00     0.164 HD
BRANCH   4   6
ATOM      6  C   UNL     1       2.814  -5.452   0.637  1.00  0.00     0.171 C 
BRANCH   6   7
ATOM      7  N   UNL     1       2.694  -6.895   0.373  1.00  0.00    -0.344 N 
ATOM      8  C   UNL     1       2.225  -7.350  -0.841  1.00  0.00     0.226 C 
ATOM      9  O   UNL     1       1.870  -6.594  -1.737  1.00  0.00    -0.275 OA
ATOM     10  H   UNL     1       2.914  -7.549   1.113  1.00  0.00     0.164 HD
BRANCH   8  11
ATOM     11  C   UNL     1       2.212  -8.862  -0.979  1.00  0.00     0.109 C 
ATOM     12  C   UNL     1       2.657  -9.514   0.330  1.00  0.00     0.021 C 
BRANCH  11  13
ATOM     13  C   UNL     1       0.837  -9.326  -1.499  1.00  0.00     0.204 C 
BRANCH  13  14
ATOM     14  N   UNL     1      -0.269  -8.722  -0.749  1.00  0.00    -0.340 N 
ATOM     15  C   UNL     1      -1.153  -9.462   0.006  1.00  0.00     0.243 C 
ATOM     16  O   UNL     1      -1.039 -10.677   0.154  1.00  0.00    -0.273 OA
ATOM     17  H   UNL     1      -0.509  -7.747  -0.949  1.00  0.00     0.164 HD
BRANCH  15  18
ATOM     18  C   UNL     1      -2.354  -8.640   0.535  1.00  0.00     0.171 C 
BRANCH  18  19
ATOM     19  N   UNL     1      -3.500  -8.988  -0.303  1.00  0.00    -0.343 N 
ATOM     20  C   UNL     1      -3.634  -8.507  -1.591  1.00  0.00     0.242 CG0
ATOM     21  O   UNL     1      -2.868  -7.661  -2.045  1.00  0.00    -0.273 OA
ATOM     22  H   UNL     1      -4.222  -9.594   0.069  1.00  0.00     0.164 HD
ATOM     23  G   UNL     1      -4.866  -9.046  -2.347  1.00  0.00     0.000 G0
ENDBRANCH  18  19
BRANCH  18  24
ATOM     24  C   UNL     1      -2.620  -8.957   2.011  1.00  0.00     0.038 C 
BRANCH  24  25
ATOM     25  C   UNL     1      -4.067  -8.689   2.477  1.00  0.00    -0.015 C 
ATOM     26  C   UNL     1      -4.126  -7.797   3.718  1.00  0.00     0.007 C 
ATOM     27  C   UNL     1      -4.769 -10.018   2.765  1.00  0.00     0.007 C 
ENDBRANCH  24  25
ENDBRANCH  18  24
ENDBRANCH  15  18
ENDBRANCH  13  14
BRANCH  13  28
ATOM     28  C   UNL     1       0.611  -9.004  -2.979  1.00  0.00     0.327 C 
ATOM     29  O   UNL     1       1.238  -9.462  -3.922  1.00  0.00    -0.250 OA
BRANCH  28  30
ATOM     30  O   UNL     1      -0.308  -8.036  -3.175  1.00  0.00    -0.480 OA
ATOM     31  H   UNL     1      -0.866  -8.378  -3.904  1.00  0.00     0.296 HD
ENDBRANCH  28  30
ENDBRANCH  13  28
ENDBRANCH  11  13
ENDBRANCH   8  11
ENDBRANCH   6   7
BRANCH   6  32
ATOM     32  C   UNL     1       2.430  -5.127   2.086  1.00  0.00     0.037 C 
BRANCH  32  33
ATOM     33  C   UNL     1       1.918  -6.362   2.840  1.00  0.00     0.026 C 
BRANCH  33  34
ATOM     34  C   UNL     1       0.426  -6.271   3.166  1.00  0.00     0.146 C 
BRANCH  34  35
ATOM     35  N   UNL     1       0.018  -4.875   3.110  1.00  0.00    -0.254 NA
ATOM     36  C   UNL     1      -1.115  -4.586   2.586  1.00  0.00     0.185 C 
ATOM     37  N   UNL     1      -1.504  -3.303   2.534  1.00  0.00    -0.370 N 
ATOM     38  N   UNL     1      -2.032  -5.411   2.049  1.00  0.00    -0.370 N 
ATOM     39  H   UNL     1      -0.870  -2.620   2.930  1.00  0.00     0.159 HD
ATOM     40  H   UNL     1      -2.439  -3.014   2.302  1.00  0.00     0.159 HD
ATOM     41  H   UNL     1      -2.823  -5.050   1.542  1.00  0.00     0.159 HD
ATOM     42  H   UNL     1      -1.865  -6.404   2.006  1.00  0.00     0.159 HD
ENDBRANCH  34  35
ENDBRANCH  33  34
ENDBRANCH  32  33
ENDBRANCH   6  32
ENDBRANCH   4   6
ENDBRANCH   1   2
BRANCH   1  43
ATOM     43  C   UNL     1       6.318  -2.725   1.324  1.00  0.00     0.102 C 
ATOM     44  C   UNL     1       5.979  -1.386   2.001  1.00  0.00     0.020 C 
BRANCH  43  45
ATOM     45  C   UNL     1       7.820  -3.015   1.238  1.00  0.00     0.225 C 
ATOM     46  O   UNL     1       8.614  -2.710   2.123  1.00  0.00    -0.275 OA
ATOM     47  N   UNL     1       8.250  -3.563   0.051  1.00  0.00    -0.342 N 
ATOM     48  H   UNL     1       7.576  -3.944  -0.598  1.00  0.00     0.164 HD
BRANCH  47  49
ATOM     49  C   UNL     1       9.654  -3.926  -0.161  1.00  0.00     0.192 C 
BRANCH  49  50
ATOM     50  C   UNL     1       9.895  -4.204  -1.647  1.00  0.00     0.047 C 
BRANCH  50  51
ATOM     51  C   UNL     1      10.923  -3.243  -2.260  1.00  0.00     0.103 C 
BRANCH  51  52
ATOM     52  C   UNL     1      10.315  -1.878  -2.576  1.00  0.00     0.226 C 
ATOM     53  O   UNL     1       9.281  -1.810  -3.243  1.00  0.00    -0.275 OA
BRANCH  52  54
ATOM     54  N   UNL     1      10.952  -0.761  -2.005  1.00  0.00    -0.311 N 
ATOM     55  C   UNL     1      12.182  -0.913  -1.216  1.00  0.00     0.153 C 
BRANCH  54  56
ATOM     56  C   UNL     1      10.443   0.537  -2.171  1.00  0.00     0.102 C 
ATOM     57  C   UNL     1       9.183   0.910  -1.891  1.00  0.00     0.043 C 
BRANCH  56  58
ATOM     58  C   UNL     1      11.328   1.661  -2.656  1.00  0.00     0.268 C 
ATOM     59  O   UNL     1      11.621   2.628  -1.966  1.00  0.00    -0.268 OA
ATOM     60  N   UNL     1      11.819   1.454  -3.923  1.00  0.00    -0.339 N 
ATOM     61  H   UNL     1      11.519   0.632  -4.433  1.00  0.00     0.164 HD
BRANCH  60  62
ATOM     62  C   UNL     1      12.746   2.388  -4.561  1.00  0.00     0.168 CG0
ATOM     63  C   UNL     1      11.993   3.458  -5.341  1.00  0.00     0.041 C 
ATOM     64  G   UNL     1      13.705   1.612  -5.487  1.00  0.00     0.000 G0
ENDBRANCH  60  62
ENDBRANCH  56  58
ENDBRANCH  54  56
ENDBRANCH  52  54
ENDBRANCH  51  52
ENDBRANCH  50  51
ENDBRANCH  49  50
BRANCH  49  65
ATOM     65  C   UNL     1      10.050  -5.163   0.659  1.00  0.00     0.326 C 
ATOM     66  O   UNL     1       9.310  -5.785   1.409  1.00  0.00    -0.250 OA
BRANCH  65  67
ATOM     67  O   UNL     1      11.348  -5.521   0.551  1.00  0.00    -0.480 OA
ATOM     68  H   UNL     1      11.379  -6.029  -0.288  1.00  0.00     0.296 HD
ENDBRANCH  65  67
ENDBRANCH  49  65
ENDBRANCH  47  49
ENDBRANCH  43  45
ENDBRANCH   1  43
BRANCH   1  69
ATOM     69  C   UNL     1       5.309  -1.681  -0.889  1.00  0.00    -0.001 C 
ATOM     70  C   UNL     1       5.992  -1.205  -1.945  1.00  0.00     0.001 C 
BRANCH  70  71
ATOM     71  C   UNL     1       5.657  -0.028  -2.750  1.00  0.00    -0.055 C 
ATOM     72  C   UNL     1       5.511   1.150  -2.109  1.00  0.00    -0.018 C 
ATOM     73  C   UNL     1       5.509  -0.215  -4.238  1.00  0.00     0.044 C 
BRANCH  72  74
ATOM     74  C   UNL     1       5.173   2.521  -2.678  1.00  0.00     0.038 C 
ATOM     75  C   UNL     1       6.445   3.373  -2.592  1.00  0.00     0.015 C 
BRANCH  74  76
ATOM     76  C   UNL     1       3.948   3.095  -1.907  1.00  0.00     0.128 C 
BRANCH  76  77
ATOM     77  O   UNL     1       3.528   4.334  -2.505  1.00  0.00    -0.381 OA
ATOM     78  C   UNL     1       3.432   5.410  -1.581  1.00  0.00     0.195 C 
ENDBRANCH  76  77
BRANCH  76  79
ATOM     79  C   UNL     1       2.784   2.088  -1.734  1.00  0.00     0.068 C 
BRANCH  79  80
ATOM     80  C   UNL     1       2.703   1.316  -0.439  1.00  0.00    -0.045 A 
ATOM     81  C   UNL     1       3.106   1.895   0.772  1.00  0.00     0.004 A 
ATOM     82  C   UNL     1       2.246  -0.010  -0.433  1.00  0.00     0.004 A 
ATOM     83  C   UNL     1       3.041   1.169   1.964  1.00  0.00     0.000 A 
ATOM     84  C   UNL     1       2.183  -0.735   0.759  1.00  0.00     0.000 A 
ATOM     85  C   UNL     1       2.578  -0.145   1.957  1.00  0.00     0.000 A 
ENDBRANCH  79  80
ENDBRANCH  76  79
ENDBRANCH  74  76
ENDBRANCH  72  74
ENDBRANCH  70  71
ENDBRANCH   1  69
TORSDOF 17
ENDMDL
MODEL 7
REMARK VINA RESULT:    -6.791      2.914     11.486
REMARK INTER + INTRA:         -28.204
REMARK INTER:                 -21.889
REMARK INTRA:                  -6.314
REMARK UNBOUND:                -7.916
REMARK SMILES C=C1C(=O)N[C@H](C)C(=O)N[C@@H](CC(C)C)C(=O)N[C@@H](C(=O)O)[C@H](C)C(=O)N[C@@H](CCCN=C(N)N)C(=O)N[C@@H](/C=C/C(C)=C/[C@H](C)[C@H](Cc2ccccc2)OC)[C@H](C)C(=O)N[C@@H](C(=O)O)CCC(=O)N1C
REMARK SMILES IDX 39 1 38 2 37 3 36 4 28 6 27 7 25 8 26 9 23 11 24 12 19 13
REMARK SMILES IDX 18 14 16 15 17 16 11 18 10 19 8 20 9 21 12 24 13 25 14 26
REMARK SMILES IDX 15 27 20 28 21 29 22 30 29 32 30 33 31 34 32 35 33 36 34 37
REMARK SMILES IDX 35 38 57 43 58 44 59 45 60 46 61 47 62 49 66 50 67 51 68 52
REMARK SMILES IDX 69 53 70 54 71 55 2 56 1 57 3 58 4 59 5 60 6 62 7 63 63 65
REMARK SMILES IDX 64 66 65 67 40 69 41 70 42 71 44 72 43 73 45 74 46 75 47 76
REMARK SMILES IDX 55 77 56 78 48 79 49 80 50 81 54 82 51 83 53 84 52 85
REMARK H PARENT 38 5 27 10 18 17 10 22 22 31 34 39 34 40 35 41 35 42 61 48
REMARK H PARENT 5 61 65 68
REMARK Flexibility Score:  369.900
ROOT
ATOM      1  C   UNL     1       2.871  -7.680   0.182  1.00  0.00     0.117 C 
ENDROOT
BRANCH   1   2
ATOM      2  N   UNL     1       2.394  -7.754  -1.199  1.00  0.00    -0.347 N 
ATOM      3  O   UNL     1       3.414  -9.728  -1.777  1.00  0.00    -0.273 OA
ATOM      4  C   UNL     1       2.630  -8.823  -2.042  1.00  0.00     0.243 C 
ATOM      5  H   UNL     1       1.814  -7.013  -1.562  1.00  0.00     0.164 HD
BRANCH   4   6
ATOM      6  C   UNL     1       1.940  -8.690  -3.424  1.00  0.00     0.171 C 
BRANCH   6   7
ATOM      7  N   UNL     1       2.944  -8.675  -4.500  1.00  0.00    -0.344 N 
ATOM      8  C   UNL     1       2.821  -7.805  -5.562  1.00  0.00     0.226 C 
ATOM      9  O   UNL     1       1.878  -7.031  -5.677  1.00  0.00    -0.275 OA
ATOM     10  H   UNL     1       3.701  -9.346  -4.475  1.00  0.00     0.164 HD
BRANCH   8  11
ATOM     11  C   UNL     1       3.964  -7.872  -6.560  1.00  0.00     0.109 C 
ATOM     12  C   UNL     1       3.458  -8.397  -7.904  1.00  0.00     0.021 C 
BRANCH  11  13
ATOM     13  C   UNL     1       4.681  -6.509  -6.625  1.00  0.00     0.204 C 
BRANCH  13  14
ATOM     14  N   UNL     1       6.138  -6.654  -6.701  1.00  0.00    -0.340 N 
ATOM     15  C   UNL     1       6.906  -7.061  -5.632  1.00  0.00     0.243 C 
ATOM     16  O   UNL     1       6.416  -7.389  -4.553  1.00  0.00    -0.273 OA
ATOM     17  H   UNL     1       6.618  -6.256  -7.512  1.00  0.00     0.164 HD
BRANCH  15  18
ATOM     18  C   UNL     1       8.429  -6.941  -5.884  1.00  0.00     0.171 C 
BRANCH  18  19
ATOM     19  N   UNL     1       8.596  -6.038  -7.021  1.00  0.00    -0.343 N 
ATOM     20  C   UNL     1       9.662  -6.153  -7.893  1.00  0.00     0.242 CG0
ATOM     21  O   UNL     1      10.588  -6.931  -7.677  1.00  0.00    -0.273 OA
ATOM     22  H   UNL     1       7.916  -5.302  -7.176  1.00  0.00     0.164 HD
ATOM     23  G   UNL     1       9.626  -5.164  -9.076  1.00  0.00     0.000 G0
ENDBRANCH  18  19
BRANCH  18  24
ATOM     24  C   UNL     1       9.144  -6.409  -4.635  1.00  0.00     0.038 C 
BRANCH  24  25
ATOM     25  C   UNL     1      10.314  -7.285  -4.140  1.00  0.00    -0.015 C 
ATOM     26  C   UNL     1      10.114  -7.772  -2.705  1.00  0.00     0.007 C 
ATOM     27  C   UNL     1      11.624  -6.499  -4.240  1.00  0.00     0.007 C 
ENDBRANCH  24  25
ENDBRANCH  18  24
ENDBRANCH  15  18
ENDBRANCH  13  14
BRANCH  13  28
ATOM     28  C   UNL     1       4.247  -5.654  -7.820  1.00  0.00     0.327 C 
ATOM     29  O   UNL     1       3.109  -5.289  -8.072  1.00  0.00    -0.250 OA
BRANCH  28  30
ATOM     30  O   UNL     1       5.250  -5.411  -8.688  1.00  0.00    -0.480 OA
ATOM     31  H   UNL     1       5.757  -4.683  -8.272  1.00  0.00     0.296 HD
ENDBRANCH  28  30
ENDBRANCH  13  28
ENDBRANCH  11  13
ENDBRANCH   8  11
ENDBRANCH   6   7
BRANCH   6  32
ATOM     32  C   UNL     1       0.958  -9.852  -3.609  1.00  0.00     0.037 C 
BRANCH  32  33
ATOM     33  C   UNL     1       1.623 -11.077  -4.251  1.00  0.00     0.026 C 
BRANCH  33  34
ATOM     34  C   UNL     1       0.821 -11.627  -5.431  1.00  0.00     0.146 C 
BRANCH  34  35
ATOM     35  N   UNL     1       1.070 -10.793  -6.599  1.00  0.00    -0.254 NA
ATOM     36  C   UNL     1       0.432 -11.044  -7.681  1.00  0.00     0.185 C 
ATOM     37  N   UNL     1       0.650 -10.278  -8.761  1.00  0.00    -0.370 N 
ATOM     38  N   UNL     1      -0.474 -12.007  -7.923  1.00  0.00    -0.370 N 
ATOM     39  H   UNL     1       1.314  -9.521  -8.655  1.00  0.00     0.159 HD
ATOM     40  H   UNL     1       0.072 -10.298  -9.583  1.00  0.00     0.159 HD
ATOM     41  H   UNL     1      -0.803 -12.190  -8.857  1.00  0.00     0.159 HD
ATOM     42  H   UNL     1      -0.725 -12.668  -7.204  1.00  0.00     0.159 HD
ENDBRANCH  34  35
ENDBRANCH  33  34
ENDBRANCH  32  33
ENDBRANCH   6  32
ENDBRANCH   4   6
ENDBRANCH   1   2
BRANCH   1  43
ATOM     43  C   UNL     1       1.645  -7.772   1.136  1.00  0.00     0.102 C 
ATOM     44  C   UNL     1       1.954  -8.483   2.464  1.00  0.00     0.020 C 
BRANCH  43  45
ATOM     45  C   UNL     1       0.420  -8.329   0.404  1.00  0.00     0.225 C 
ATOM     46  O   UNL     1      -0.336  -7.631  -0.266  1.00  0.00    -0.275 OA
ATOM     47  N   UNL     1       0.157  -9.662   0.619  1.00  0.00    -0.342 N 
ATOM     48  H   UNL     1       0.862 -10.249   1.041  1.00  0.00     0.164 HD
BRANCH  47  49
ATOM     49  C   UNL     1      -0.962 -10.339  -0.044  1.00  0.00     0.192 C 
BRANCH  49  50
ATOM     50  C   UNL     1      -2.166 -10.388   0.900  1.00  0.00     0.047 C 
BRANCH  50  51
ATOM     51  C   UNL     1      -1.748 -10.531   2.370  1.00  0.00     0.103 C 
BRANCH  51  52
ATOM     52  C   UNL     1      -2.068  -9.278   3.182  1.00  0.00     0.226 C 
ATOM     53  O   UNL     1      -1.992  -8.169   2.648  1.00  0.00    -0.275 OA
BRANCH  52  54
ATOM     54  N   UNL     1      -2.513  -9.483   4.501  1.00  0.00    -0.311 N 
ATOM     55  C   UNL     1      -1.568  -9.822   5.574  1.00  0.00     0.153 C 
BRANCH  54  56
ATOM     56  C   UNL     1      -3.870  -9.365   4.843  1.00  0.00     0.102 C 
ATOM     57  C   UNL     1      -4.704 -10.399   5.044  1.00  0.00     0.043 C 
BRANCH  56  58
ATOM     58  C   UNL     1      -4.500  -8.010   5.061  1.00  0.00     0.268 C 
ATOM     59  O   UNL     1      -4.868  -7.288   4.144  1.00  0.00    -0.268 OA
ATOM     60  N   UNL     1      -4.676  -7.703   6.389  1.00  0.00    -0.339 N 
ATOM     61  H   UNL     1      -4.333  -8.351   7.088  1.00  0.00     0.164 HD
BRANCH  60  62
ATOM     62  C   UNL     1      -5.325  -6.466   6.823  1.00  0.00     0.168 CG0
ATOM     63  C   UNL     1      -4.303  -5.355   7.027  1.00  0.00     0.041 C 
ATOM     64  G   UNL     1      -6.115  -6.726   8.122  1.00  0.00     0.000 G0
ENDBRANCH  60  62
ENDBRANCH  56  58
ENDBRANCH  54  56
ENDBRANCH  52  54
ENDBRANCH  51  52
ENDBRANCH  50  51
ENDBRANCH  49  50
BRANCH  49  65
ATOM     65  C   UNL     1      -0.589 -11.768  -0.467  1.00  0.00     0.326 C 
ATOM     66  O   UNL     1       0.517 -12.133  -0.839  1.00  0.00    -0.250 OA
BRANCH  65  67
ATOM     67  O   UNL     1      -1.618 -12.644  -0.463  1.00  0.00    -0.480 OA
ATOM     68  H   UNL     1      -2.410 -12.070  -0.389  1.00  0.00     0.296 HD
ENDBRANCH  65  67
ENDBRANCH  49  65
ENDBRANCH  47  49
ENDBRANCH  43  45
ENDBRANCH   1  43
BRANCH   1  69
ATOM     69  C   UNL     1       3.767  -6.457   0.256  1.00  0.00    -0.001 C 
ATOM     70  C   UNL     1       3.525  -5.305   0.906  1.00  0.00     0.001 C 
BRANCH  70  71
ATOM     71  C   UNL     1       4.407  -4.139   0.988  1.00  0.00    -0.055 C 
ATOM     72  C   UNL     1       4.459  -3.315  -0.080  1.00  0.00    -0.018 C 
ATOM     73  C   UNL     1       5.188  -3.936   2.261  1.00  0.00     0.044 C 
BRANCH  72  74
ATOM     74  C   UNL     1       5.272  -2.044  -0.277  1.00  0.00     0.038 C 
ATOM     75  C   UNL     1       4.284  -0.923  -0.621  1.00  0.00     0.015 C 
BRANCH  74  76
ATOM     76  C   UNL     1       6.362  -2.308  -1.358  1.00  0.00     0.128 C 
BRANCH  76  77
ATOM     77  O   UNL     1       5.996  -1.666  -2.591  1.00  0.00    -0.381 OA
ATOM     78  C   UNL     1       7.098  -1.416  -3.453  1.00  0.00     0.195 C 
ENDBRANCH  76  77
BRANCH  76  79
ATOM     79  C   UNL     1       7.800  -1.955  -0.902  1.00  0.00     0.068 C 
BRANCH  79  80
ATOM     80  C   UNL     1       8.722  -3.090  -0.526  1.00  0.00    -0.045 A 
ATOM     81  C   UNL     1       9.749  -3.500  -1.386  1.00  0.00     0.004 A 
ATOM     82  C   UNL     1       8.545  -3.773   0.687  1.00  0.00     0.004 A 
ATOM     83  C   UNL     1      10.588  -4.560  -1.038  1.00  0.00     0.000 A 
ATOM     84  C   UNL     1       9.384  -4.833   1.034  1.00  0.00     0.000 A 
ATOM     85  C   UNL     1      10.406  -5.226   0.173  1.00  0.00     0.000 A 
ENDBRANCH  79  80
ENDBRANCH  76  79
ENDBRANCH  74  76
ENDBRANCH  72  74
ENDBRANCH  70  71
ENDBRANCH   1  69
TORSDOF 17
ENDMDL
MODEL 8
REMARK VINA RESULT:    -6.788      5.025     14.150
REMARK INTER + INTRA:         -28.197
REMARK INTER:                 -20.164
REMARK INTRA:                  -8.033
REMARK UNBOUND:                -7.916
REMARK SMILES C=C1C(=O)N[C@H](C)C(=O)N[C@@H](CC(C)C)C(=O)N[C@@H](C(=O)O)[C@H](C)C(=O)N[C@@H](CCCN=C(N)N)C(=O)N[C@@H](/C=C/C(C)=C/[C@H](C)[C@H](Cc2ccccc2)OC)[C@H](C)C(=O)N[C@@H](C(=O)O)CCC(=O)N1C
REMARK SMILES IDX 39 1 38 2 37 3 36 4 28 6 27 7 25 8 26 9 23 11 24 12 19 13
REMARK SMILES IDX 18 14 16 15 17 16 11 18 10 19 8 20 9 21 12 24 13 25 14 26
REMARK SMILES IDX 15 27 20 28 21 29 22 30 29 32 30 33 31 34 32 35 33 36 34 37
REMARK SMILES IDX 35 38 57 43 58 44 59 45 60 46 61 47 62 49 66 50 67 51 68 52
REMARK SMILES IDX 69 53 70 54 71 55 2 56 1 57 3 58 4 59 5 60 6 62 7 63 63 65
REMARK SMILES IDX 64 66 65 67 40 69 41 70 42 71 44 72 43 73 45 74 46 75 47 76
REMARK SMILES IDX 55 77 56 78 48 79 49 80 50 81 54 82 51 83 53 84 52 85
REMARK H PARENT 38 5 27 10 18 17 10 22 22 31 34 39 34 40 35 41 35 42 61 48
REMARK H PARENT 5 61 65 68
REMARK Flexibility Score:  369.900
ROOT
ATOM      1  C   UNL     1      -5.982  -7.738   7.533  1.00  0.00     0.117 C 
ENDROOT
BRANCH   1   2
ATOM      2  N   UNL     1      -4.880  -6.854   7.913  1.00  0.00    -0.347 N 
ATOM      3  O   UNL     1      -5.495  -5.031   6.661  1.00  0.00    -0.273 OA
ATOM      4  C   UNL     1      -4.775  -5.535   7.516  1.00  0.00     0.243 C 
ATOM      5  H   UNL     1      -4.169  -7.194   8.542  1.00  0.00     0.164 HD
BRANCH   4   6
ATOM      6  C   UNL     1      -3.558  -4.796   8.128  1.00  0.00     0.171 C 
BRANCH   6   7
ATOM      7  N   UNL     1      -2.919  -3.934   7.120  1.00  0.00    -0.344 N 
ATOM      8  C   UNL     1      -2.045  -4.464   6.196  1.00  0.00     0.226 C 
ATOM      9  O   UNL     1      -1.741  -5.651   6.178  1.00  0.00    -0.275 OA
ATOM     10  H   UNL     1      -3.093  -2.938   7.145  1.00  0.00     0.164 HD
BRANCH   8  11
ATOM     11  C   UNL     1      -1.513  -3.458   5.190  1.00  0.00     0.109 C 
ATOM     12  C   UNL     1      -2.156  -2.091   5.423  1.00  0.00     0.021 C 
BRANCH  11  13
ATOM     13  C   UNL     1       0.029  -3.462   5.214  1.00  0.00     0.204 C 
BRANCH  13  14
ATOM     14  N   UNL     1       0.591  -4.531   4.383  1.00  0.00    -0.340 N 
ATOM     15  C   UNL     1       0.063  -4.884   3.160  1.00  0.00     0.243 C 
ATOM     16  O   UNL     1      -0.882  -4.284   2.651  1.00  0.00    -0.273 OA
ATOM     17  H   UNL     1       1.273  -5.163   4.810  1.00  0.00     0.164 HD
BRANCH  15  18
ATOM     18  C   UNL     1       0.688  -6.169   2.564  1.00  0.00     0.171 C 
BRANCH  18  19
ATOM     19  N   UNL     1       1.853  -5.748   1.789  1.00  0.00    -0.343 N 
ATOM     20  C   UNL     1       1.939  -5.962   0.427  1.00  0.00     0.242 CG0
ATOM     21  O   UNL     1       1.102  -6.634  -0.172  1.00  0.00    -0.273 OA
ATOM     22  H   UNL     1       2.625  -5.290   2.261  1.00  0.00     0.164 HD
ATOM     23  G   UNL     1       3.206  -5.378  -0.231  1.00  0.00     0.000 G0
ENDBRANCH  18  19
BRANCH  18  24
ATOM     24  C   UNL     1       1.079  -7.148   3.678  1.00  0.00     0.038 C 
BRANCH  24  25
ATOM     25  C   UNL     1       0.102  -8.328   3.872  1.00  0.00    -0.015 C 
ATOM     26  C   UNL     1       0.522  -9.254   5.013  1.00  0.00     0.007 C 
ATOM     27  C   UNL     1      -0.003  -9.127   2.570  1.00  0.00     0.007 C 
ENDBRANCH  24  25
ENDBRANCH  18  24
ENDBRANCH  15  18
ENDBRANCH  13  14
BRANCH  13  28
ATOM     28  C   UNL     1       0.644  -2.144   4.734  1.00  0.00     0.327 C 
ATOM     29  O   UNL     1       0.636  -1.717   3.589  1.00  0.00    -0.250 OA
BRANCH  28  30
ATOM     30  O   UNL     1       1.332  -1.499   5.698  1.00  0.00    -0.480 OA
ATOM     31  H   UNL     1       1.756  -0.749   5.231  1.00  0.00     0.296 HD
ENDBRANCH  28  30
ENDBRANCH  13  28
ENDBRANCH  11  13
ENDBRANCH   8  11
ENDBRANCH   6   7
BRANCH   6  32
ATOM     32  C   UNL     1      -4.024  -3.973   9.335  1.00  0.00     0.037 C 
BRANCH  32  33
ATOM     33  C   UNL     1      -3.295  -2.626   9.433  1.00  0.00     0.026 C 
BRANCH  33  34
ATOM     34  C   UNL     1      -4.237  -1.436   9.250  1.00  0.00     0.146 C 
BRANCH  34  35
ATOM     35  N   UNL     1      -4.638  -1.365   7.851  1.00  0.00    -0.254 NA
ATOM     36  C   UNL     1      -5.828  -0.984   7.571  1.00  0.00     0.185 C 
ATOM     37  N   UNL     1      -6.206  -0.910   6.286  1.00  0.00    -0.370 N 
ATOM     38  N   UNL     1      -6.818  -0.623   8.407  1.00  0.00    -0.370 N 
ATOM     39  H   UNL     1      -5.510  -1.156   5.593  1.00  0.00     0.159 HD
ATOM     40  H   UNL     1      -7.051  -0.460   5.980  1.00  0.00     0.159 HD
ATOM     41  H   UNL     1      -7.756  -0.477   8.071  1.00  0.00     0.159 HD
ATOM     42  H   UNL     1      -6.680  -0.646   9.406  1.00  0.00     0.159 HD
ENDBRANCH  34  35
ENDBRANCH  33  34
ENDBRANCH  32  33
ENDBRANCH   6  32
ENDBRANCH   4   6
ENDBRANCH   1   2
BRANCH   1  43
ATOM     43  C   UNL     1      -6.823  -8.056   8.803  1.00  0.00     0.102 C 
ATOM     44  C   UNL     1      -8.225  -8.604   8.488  1.00  0.00     0.020 C 
BRANCH  43  45
ATOM     45  C   UNL     1      -6.822  -6.871   9.774  1.00  0.00     0.225 C 
ATOM     46  O   UNL     1      -5.876  -6.608  10.510  1.00  0.00    -0.275 OA
ATOM     47  N   UNL     1      -7.999  -6.161   9.842  1.00  0.00    -0.342 N 
ATOM     48  H   UNL     1      -8.704  -6.292   9.131  1.00  0.00     0.164 HD
BRANCH  47  49
ATOM     49  C   UNL     1      -8.132  -4.980  10.701  1.00  0.00     0.192 C 
BRANCH  49  50
ATOM     50  C   UNL     1      -9.609  -4.747  11.029  1.00  0.00     0.047 C 
BRANCH  50  51
ATOM     51  C   UNL     1     -10.535  -5.685  10.242  1.00  0.00     0.103 C 
BRANCH  51  52
ATOM     52  C   UNL     1     -11.068  -5.029   8.970  1.00  0.00     0.226 C 
ATOM     53  O   UNL     1     -10.323  -4.888   7.998  1.00  0.00    -0.275 OA
BRANCH  52  54
ATOM     54  N   UNL     1     -12.433  -4.688   8.965  1.00  0.00    -0.311 N 
ATOM     55  C   UNL     1     -13.344  -5.230   7.948  1.00  0.00     0.153 C 
BRANCH  54  56
ATOM     56  C   UNL     1     -12.976  -3.825   9.932  1.00  0.00     0.102 C 
ATOM     57  C   UNL     1     -13.836  -4.195  10.895  1.00  0.00     0.043 C 
BRANCH  56  58
ATOM     58  C   UNL     1     -12.577  -2.369   9.982  1.00  0.00     0.268 C 
ATOM     59  O   UNL     1     -12.391  -1.691   8.981  1.00  0.00    -0.268 OA
ATOM     60  N   UNL     1     -12.510  -1.872  11.262  1.00  0.00    -0.339 N 
ATOM     61  H   UNL     1     -12.668  -2.503  12.039  1.00  0.00     0.164 HD
BRANCH  60  62
ATOM     62  C   UNL     1     -12.202  -0.469  11.537  1.00  0.00     0.168 CG0
ATOM     63  C   UNL     1     -11.326  -0.335  12.777  1.00  0.00     0.041 C 
ATOM     64  G   UNL     1     -13.514   0.324  11.707  1.00  0.00     0.000 G0
ENDBRANCH  60  62
ENDBRANCH  56  58
ENDBRANCH  54  56
ENDBRANCH  52  54
ENDBRANCH  51  52
ENDBRANCH  50  51
ENDBRANCH  49  50
BRANCH  49  65
ATOM     65  C   UNL     1      -7.555  -3.724  10.030  1.00  0.00     0.326 C 
ATOM     66  O   UNL     1      -7.415  -3.561   8.827  1.00  0.00    -0.250 OA
BRANCH  65  67
ATOM     67  O   UNL     1      -7.131  -2.770  10.889  1.00  0.00    -0.480 OA
ATOM     68  H   UNL     1      -6.310  -3.150  11.269  1.00  0.00     0.296 HD
ENDBRANCH  65  67
ENDBRANCH  49  65
ENDBRANCH  47  49
ENDBRANCH  43  45
ENDBRANCH   1  43
BRANCH   1  69
ATOM     69  C   UNL     1      -5.358  -8.886   6.760  1.00  0.00    -0.001 C 
ATOM     70  C   UNL     1      -5.297 -10.179   7.125  1.00  0.00     0.001 C 
BRANCH  70  71
ATOM     71  C   UNL     1      -4.711 -11.282   6.361  1.00  0.00    -0.055 C 
ATOM     72  C   UNL     1      -4.387 -11.050   5.072  1.00  0.00    -0.018 C 
ATOM     73  C   UNL     1      -4.502 -12.595   7.070  1.00  0.00     0.044 C 
BRANCH  72  74
ATOM     74  C   UNL     1      -3.769 -11.992   4.049  1.00  0.00     0.038 C 
ATOM     75  C   UNL     1      -2.246 -11.895   4.206  1.00  0.00     0.015 C 
BRANCH  74  76
ATOM     76  C   UNL     1      -4.305 -11.619   2.635  1.00  0.00     0.128 C 
BRANCH  76  77
ATOM     77  O   UNL     1      -5.160 -12.664   2.143  1.00  0.00    -0.381 OA
ATOM     78  C   UNL     1      -4.502 -13.581   1.278  1.00  0.00     0.195 C 
ENDBRANCH  76  77
BRANCH  76  79
ATOM     79  C   UNL     1      -4.966 -10.219   2.562  1.00  0.00     0.068 C 
BRANCH  79  80
ATOM     80  C   UNL     1      -4.136  -9.072   2.037  1.00  0.00    -0.045 A 
ATOM     81  C   UNL     1      -3.757  -8.014   2.873  1.00  0.00     0.004 A 
ATOM     82  C   UNL     1      -3.755  -9.036   0.687  1.00  0.00     0.004 A 
ATOM     83  C   UNL     1      -3.002  -6.949   2.376  1.00  0.00     0.000 A 
ATOM     84  C   UNL     1      -3.000  -7.970   0.191  1.00  0.00     0.000 A 
ATOM     85  C   UNL     1      -2.622  -6.929   1.035  1.00  0.00     0.000 A 
ENDBRANCH  79  80
ENDBRANCH  76  79
ENDBRANCH  74  76
ENDBRANCH  72  74
ENDBRANCH  70  71
ENDBRANCH   1  69
TORSDOF 17
ENDMDL
MODEL 9
REMARK VINA RESULT:    -6.778      3.809      6.206
REMARK INTER + INTRA:         -28.165
REMARK INTER:                 -19.980
REMARK INTRA:                  -8.185
REMARK UNBOUND:                -7.916
REMARK SMILES C=C1C(=O)N[C@H](C)C(=O)N[C@@H](CC(C)C)C(=O)N[C@@H](C(=O)O)[C@H](C)C(=O)N[C@@H](CCCN=C(N)N)C(=O)N[C@@H](/C=C/C(C)=C/[C@H](C)[C@H](Cc2ccccc2)OC)[C@H](C)C(=O)N[C@@H](C(=O)O)CCC(=O)N1C
REMARK SMILES IDX 39 1 38 2 37 3 36 4 28 6 27 7 25 8 26 9 23 11 24 12 19 13
REMARK SMILES IDX 18 14 16 15 17 16 11 18 10 19 8 20 9 21 12 24 13 25 14 26
REMARK SMILES IDX 15 27 20 28 21 29 22 30 29 32 30 33 31 34 32 35 33 36 34 37
REMARK SMILES IDX 35 38 57 43 58 44 59 45 60 46 61 47 62 49 66 50 67 51 68 52
REMARK SMILES IDX 69 53 70 54 71 55 2 56 1 57 3 58 4 59 5 60 6 62 7 63 63 65
REMARK SMILES IDX 64 66 65 67 40 69 41 70 42 71 44 72 43 73 45 74 46 75 47 76
REMARK SMILES IDX 55 77 56 78 48 79 49 80 50 81 54 82 51 83 53 84 52 85
REMARK H PARENT 38 5 27 10 18 17 10 22 22 31 34 39 34 40 35 41 35 42 61 48
REMARK H PARENT 5 61 65 68
REMARK Flexibility Score:  369.900
ROOT
ATOM      1  C   UNL     1       2.679  -3.771   2.942  1.00  0.00     0.117 C 
ENDROOT
BRANCH   1   2
ATOM      2  N   UNL     1       1.876  -4.992   2.865  1.00  0.00    -0.347 N 
ATOM      3  O   UNL     1       2.465  -5.619   0.737  1.00  0.00    -0.273 OA
ATOM      4  C   UNL     1       1.905  -5.870   1.798  1.00  0.00     0.243 C 
ATOM      5  H   UNL     1       1.296  -5.253   3.648  1.00  0.00     0.164 HD
BRANCH   4   6
ATOM      6  C   UNL     1       1.025  -7.129   2.004  1.00  0.00     0.171 C 
BRANCH   6   7
ATOM      7  N   UNL     1       0.408  -7.113   3.340  1.00  0.00    -0.344 N 
ATOM      8  C   UNL     1       0.788  -8.026   4.301  1.00  0.00     0.226 C 
ATOM      9  O   UNL     1       1.625  -8.895   4.091  1.00  0.00    -0.275 OA
ATOM     10  H   UNL     1      -0.335  -6.453   3.529  1.00  0.00     0.164 HD
BRANCH   8  11
ATOM     11  C   UNL     1       0.100  -7.844   5.642  1.00  0.00     0.109 C 
ATOM     12  C   UNL     1       0.658  -8.841   6.659  1.00  0.00     0.021 C 
BRANCH  11  13
ATOM     13  C   UNL     1       0.179  -6.366   6.073  1.00  0.00     0.204 C 
BRANCH  13  14
ATOM     14  N   UNL     1      -1.092  -5.883   6.624  1.00  0.00    -0.340 N 
ATOM     15  C   UNL     1      -2.138  -5.462   5.832  1.00  0.00     0.243 C 
ATOM     16  O   UNL     1      -2.102  -5.519   4.604  1.00  0.00    -0.273 OA
ATOM     17  H   UNL     1      -1.131  -5.669   7.624  1.00  0.00     0.164 HD
BRANCH  15  18
ATOM     18  C   UNL     1      -3.291  -4.803   6.629  1.00  0.00     0.171 C 
BRANCH  18  19
ATOM     19  N   UNL     1      -3.975  -5.880   7.343  1.00  0.00    -0.343 N 
ATOM     20  C   UNL     1      -5.353  -5.933   7.433  1.00  0.00     0.242 CG0
ATOM     21  O   UNL     1      -6.060  -5.011   7.034  1.00  0.00    -0.273 OA
ATOM     22  H   UNL     1      -3.428  -6.606   7.790  1.00  0.00     0.164 HD
ATOM     23  G   UNL     1      -5.895  -7.183   8.156  1.00  0.00     0.000 G0
ENDBRANCH  18  19
BRANCH  18  24
ATOM     24  C   UNL     1      -2.744  -3.746   7.597  1.00  0.00     0.038 C 
BRANCH  24  25
ATOM     25  C   UNL     1      -3.290  -3.848   9.037  1.00  0.00    -0.015 C 
ATOM     26  C   UNL     1      -3.907  -2.536   9.523  1.00  0.00     0.007 C 
ATOM     27  C   UNL     1      -2.165  -4.270   9.986  1.00  0.00     0.007 C 
ENDBRANCH  24  25
ENDBRANCH  18  24
ENDBRANCH  15  18
ENDBRANCH  13  14
BRANCH  13  28
ATOM     28  C   UNL     1       1.259  -6.101   7.126  1.00  0.00     0.327 C 
ATOM     29  O   UNL     1       2.462  -6.259   6.983  1.00  0.00    -0.250 OA
BRANCH  28  30
ATOM     30  O   UNL     1       0.753  -5.768   8.331  1.00  0.00    -0.480 OA
ATOM     31  H   UNL     1       1.107  -4.870   8.501  1.00  0.00     0.296 HD
ENDBRANCH  28  30
ENDBRANCH  13  28
ENDBRANCH  11  13
ENDBRANCH   8  11
ENDBRANCH   6   7
BRANCH   6  32
ATOM     32  C   UNL     1      -0.044  -7.181   0.908  1.00  0.00     0.037 C 
BRANCH  32  33
ATOM     33  C   UNL     1      -1.429  -6.773   1.430  1.00  0.00     0.026 C 
BRANCH  33  34
ATOM     34  C   UNL     1      -2.454  -7.902   1.314  1.00  0.00     0.146 C 
BRANCH  34  35
ATOM     35  N   UNL     1      -2.307  -8.790   2.459  1.00  0.00    -0.254 NA
ATOM     36  C   UNL     1      -3.049  -8.597   3.485  1.00  0.00     0.185 C 
ATOM     37  N   UNL     1      -2.925  -9.412   4.544  1.00  0.00    -0.370 N 
ATOM     38  N   UNL     1      -3.987  -7.654   3.684  1.00  0.00    -0.370 N 
ATOM     39  H   UNL     1      -2.244 -10.157   4.467  1.00  0.00     0.159 HD
ATOM     40  H   UNL     1      -3.580  -9.437   5.306  1.00  0.00     0.159 HD
ATOM     41  H   UNL     1      -4.406  -7.519   4.590  1.00  0.00     0.159 HD
ATOM     42  H   UNL     1      -4.176  -6.961   2.977  1.00  0.00     0.159 HD
ENDBRANCH  34  35
ENDBRANCH  33  34
ENDBRANCH  32  33
ENDBRANCH   6  32
ENDBRANCH   4   6
ENDBRANCH   1   2
BRANCH   1  43
ATOM     43  C   UNL     1       3.849  -4.011   3.940  1.00  0.00     0.102 C 
ATOM     44  C   UNL     1       3.609  -3.389   5.326  1.00  0.00     0.020 C 
BRANCH  43  45
ATOM     45  C   UNL     1       5.193  -3.629   3.312  1.00  0.00     0.225 C 
ATOM     46  O   UNL     1       6.159  -3.255   3.972  1.00  0.00    -0.275 OA
ATOM     47  N   UNL     1       5.230  -3.641   1.937  1.00  0.00    -0.342 N 
ATOM     48  H   UNL     1       4.487  -4.091   1.421  1.00  0.00     0.164 HD
BRANCH  47  49
ATOM     49  C   UNL     1       6.459  -3.333   1.200  1.00  0.00     0.192 C 
BRANCH  49  50
ATOM     50  C   UNL     1       6.229  -3.548  -0.298  1.00  0.00     0.047 C 
BRANCH  50  51
ATOM     51  C   UNL     1       7.474  -3.214  -1.132  1.00  0.00     0.103 C 
BRANCH  51  52
ATOM     52  C   UNL     1       8.166  -4.471  -1.656  1.00  0.00     0.226 C 
ATOM     53  O   UNL     1       7.489  -5.400  -2.100  1.00  0.00    -0.275 OA
BRANCH  52  54
ATOM     54  N   UNL     1       9.573  -4.453  -1.667  1.00  0.00    -0.311 N 
ATOM     55  C   UNL     1      10.311  -3.245  -2.061  1.00  0.00     0.153 C 
BRANCH  54  56
ATOM     56  C   UNL     1      10.323  -5.582  -1.297  1.00  0.00     0.102 C 
ATOM     57  C   UNL     1      10.872  -5.777  -0.088  1.00  0.00     0.043 C 
BRANCH  56  58
ATOM     58  C   UNL     1      10.533  -6.723  -2.265  1.00  0.00     0.268 C 
ATOM     59  O   UNL     1       9.777  -7.682  -2.343  1.00  0.00    -0.268 OA
ATOM     60  N   UNL     1      11.619  -6.540  -3.088  1.00  0.00    -0.339 N 
ATOM     61  H   UNL     1      12.202  -5.723  -2.951  1.00  0.00     0.164 HD
BRANCH  60  62
ATOM     62  C   UNL     1      11.968  -7.494  -4.140  1.00  0.00     0.168 CG0
ATOM     63  C   UNL     1      11.512  -6.994  -5.505  1.00  0.00     0.041 C 
ATOM     64  G   UNL     1      11.339  -8.866  -3.823  1.00  0.00     0.000 G0
ENDBRANCH  60  62
ENDBRANCH  56  58
ENDBRANCH  54  56
ENDBRANCH  52  54
ENDBRANCH  51  52
ENDBRANCH  50  51
ENDBRANCH  49  50
BRANCH  49  65
ATOM     65  C   UNL     1       7.633  -4.208   1.666  1.00  0.00     0.326 C 
ATOM     66  O   UNL     1       7.651  -5.430   1.668  1.00  0.00    -0.250 OA
BRANCH  65  67
ATOM     67  O   UNL     1       8.689  -3.521   2.156  1.00  0.00    -0.480 OA
ATOM     68  H   UNL     1       8.861  -2.841   1.470  1.00  0.00     0.296 HD
ENDBRANCH  65  67
ENDBRANCH  49  65
ENDBRANCH  47  49
ENDBRANCH  43  45
ENDBRANCH   1  43
BRANCH   1  69
ATOM     69  C   UNL     1       1.705  -2.639   3.213  1.00  0.00    -0.001 C 
ATOM     70  C   UNL     1       0.613  -2.313   2.498  1.00  0.00     0.001 C 
BRANCH  70  71
ATOM     71  C   UNL     1      -0.332  -1.231   2.782  1.00  0.00    -0.055 C 
ATOM     72  C   UNL     1       0.089  -0.220   3.570  1.00  0.00    -0.018 C 
ATOM     73  C   UNL     1      -1.705  -1.318   2.167  1.00  0.00     0.044 C 
BRANCH  72  74
ATOM     74  C   UNL     1      -0.662   1.023   4.026  1.00  0.00     0.038 C 
ATOM     75  C   UNL     1       0.021   2.230   3.372  1.00  0.00     0.015 C 
BRANCH  74  76
ATOM     76  C   UNL     1      -0.685   1.051   5.583  1.00  0.00     0.128 C 
BRANCH  76  77
ATOM     77  O   UNL     1      -1.276   2.278   6.043  1.00  0.00    -0.381 OA
ATOM     78  C   UNL     1      -0.499   2.954   7.023  1.00  0.00     0.195 C 
ENDBRANCH  76  77
BRANCH  76  79
ATOM     79  C   UNL     1      -1.331  -0.203   6.225  1.00  0.00     0.068 C 
BRANCH  79  80
ATOM     80  C   UNL     1      -0.613  -0.854   7.383  1.00  0.00    -0.045 A 
ATOM     81  C   UNL     1      -0.914  -0.507   8.706  1.00  0.00     0.004 A 
ATOM     82  C   UNL     1       0.395  -1.801   7.147  1.00  0.00     0.004 A 
ATOM     83  C   UNL     1      -0.235  -1.104   9.771  1.00  0.00     0.000 A 
ATOM     84  C   UNL     1       1.074  -2.397   8.213  1.00  0.00     0.000 A 
ATOM     85  C   UNL     1       0.757  -2.049   9.524  1.00  0.00     0.000 A 
ENDBRANCH  79  80
ENDBRANCH  76  79
ENDBRANCH  74  76
ENDBRANCH  72  74
ENDBRANCH  70  71
ENDBRANCH   1  69
TORSDOF 17
ENDMDL
MODEL 10
REMARK VINA RESULT:    -6.772      3.021     11.577
REMARK INTER + INTRA:         -28.147
REMARK INTER:                 -21.453
REMARK INTRA:                  -6.694
REMARK UNBOUND:                -7.916
REMARK SMILES C=C1C(=O)N[C@H](C)C(=O)N[C@@H](CC(C)C)C(=O)N[C@@H](C(=O)O)[C@H](C)C(=O)N[C@@H](CCCN=C(N)N)C(=O)N[C@@H](/C=C/C(C)=C/[C@H](C)[C@H](Cc2ccccc2)OC)[C@H](C)C(=O)N[C@@H](C(=O)O)CCC(=O)N1C
REMARK SMILES IDX 39 1 38 2 37 3 36 4 28 6 27 7 25 8 26 9 23 11 24 12 19 13
REMARK SMILES IDX 18 14 16 15 17 16 11 18 10 19 8 20 9 21 12 24 13 25 14 26
REMARK SMILES IDX 15 27 20 28 21 29 22 30 29 32 30 33 31 34 32 35 33 36 34 37
REMARK SMILES IDX 35 38 57 43 58 44 59 45 60 46 61 47 62 49 66 50 67 51 68 52
REMARK SMILES IDX 69 53 70 54 71 55 2 56 1 57 3 58 4 59 5 60 6 62 7 63 63 65
REMARK SMILES IDX 64 66 65 67 40 69 41 70 42 71 44 72 43 73 45 74 46 75 47 76
REMARK SMILES IDX 55 77 56 78 48 79 49 80 50 81 54 82 51 83 53 84 52 85
REMARK H PARENT 38 5 27 10 18 17 10 22 22 31 34 39 34 40 35 41 35 42 61 48
REMARK H PARENT 5 61 65 68
REMARK Flexibility Score:  369.900
ROOT
ATOM      1  C   UNL     1       2.401  -6.089   1.001  1.00  0.00     0.117 C 
ENDROOT
BRANCH   1   2
ATOM      2  N   UNL     1       1.651  -6.718  -0.087  1.00  0.00    -0.347 N 
ATOM      3  O   UNL     1       3.432  -7.661  -1.188  1.00  0.00    -0.273 OA
ATOM      4  C   UNL     1       2.220  -7.533  -1.047  1.00  0.00     0.243 C 
ATOM      5  H   UNL     1       0.650  -6.604  -0.129  1.00  0.00     0.164 HD
BRANCH   4   6
ATOM      6  C   UNL     1       1.193  -8.143  -2.034  1.00  0.00     0.171 C 
BRANCH   6   7
ATOM      7  N   UNL     1       1.882  -8.734  -3.193  1.00  0.00    -0.344 N 
ATOM      8  C   UNL     1       1.922  -8.071  -4.400  1.00  0.00     0.226 C 
ATOM      9  O   UNL     1       1.378  -6.987  -4.576  1.00  0.00    -0.275 OA
ATOM     10  H   UNL     1       2.285  -9.659  -3.105  1.00  0.00     0.164 HD
BRANCH   8  11
ATOM     11  C   UNL     1       2.716  -8.785  -5.480  1.00  0.00     0.109 C 
ATOM     12  C   UNL     1       1.881  -9.912  -6.088  1.00  0.00     0.021 C 
BRANCH  11  13
ATOM     13  C   UNL     1       3.256  -7.758  -6.495  1.00  0.00     0.204 C 
BRANCH  13  14
ATOM     14  N   UNL     1       4.653  -7.401  -6.228  1.00  0.00    -0.340 N 
ATOM     15  C   UNL     1       5.180  -6.164  -6.530  1.00  0.00     0.243 C 
ATOM     16  O   UNL     1       4.498  -5.250  -6.990  1.00  0.00    -0.273 OA
ATOM     17  H   UNL     1       5.304  -8.154  -5.990  1.00  0.00     0.164 HD
BRANCH  15  18
ATOM     18  C   UNL     1       6.716  -6.086  -6.353  1.00  0.00     0.171 C 
BRANCH  18  19
ATOM     19  N   UNL     1       7.299  -6.244  -7.684  1.00  0.00    -0.343 N 
ATOM     20  C   UNL     1       8.493  -6.911  -7.883  1.00  0.00     0.242 CG0
ATOM     21  O   UNL     1       9.185  -7.286  -6.939  1.00  0.00    -0.273 OA
ATOM     22  H   UNL     1       6.821  -5.850  -8.487  1.00  0.00     0.164 HD
ATOM     23  G   UNL     1       8.908  -7.045  -9.362  1.00  0.00     0.000 G0
ENDBRANCH  18  19
BRANCH  18  24
ATOM     24  C   UNL     1       7.121  -4.751  -5.717  1.00  0.00     0.038 C 
BRANCH  24  25
ATOM     25  C   UNL     1       8.055  -4.877  -4.495  1.00  0.00    -0.015 C 
ATOM     26  C   UNL     1       9.510  -4.550  -4.834  1.00  0.00     0.007 C 
ATOM     27  C   UNL     1       7.965  -6.293  -3.922  1.00  0.00     0.007 C 
ENDBRANCH  24  25
ENDBRANCH  18  24
ENDBRANCH  15  18
ENDBRANCH  13  14
BRANCH  13  28
ATOM     28  C   UNL     1       3.182  -8.246  -7.945  1.00  0.00     0.327 C 
ATOM     29  O   UNL     1       2.246  -8.087  -8.714  1.00  0.00    -0.250 OA
BRANCH  28  30
ATOM     30  O   UNL     1       4.237  -9.006  -8.302  1.00  0.00    -0.480 OA
ATOM     31  H   UNL     1       4.408  -8.758  -9.234  1.00  0.00     0.296 HD
ENDBRANCH  28  30
ENDBRANCH  13  28
ENDBRANCH  11  13
ENDBRANCH   8  11
ENDBRANCH   6   7
BRANCH   6  32
ATOM     32  C   UNL     1       0.353  -9.195  -1.301  1.00  0.00     0.037 C 
BRANCH  32  33
ATOM     33  C   UNL     1       1.079 -10.544  -1.194  1.00  0.00     0.026 C 
BRANCH  33  34
ATOM     34  C   UNL     1       0.179 -11.724  -1.562  1.00  0.00     0.146 C 
BRANCH  34  35
ATOM     35  N   UNL     1      -0.108 -12.490  -0.357  1.00  0.00    -0.254 NA
ATOM     36  C   UNL     1      -1.227 -12.304   0.237  1.00  0.00     0.185 C 
ATOM     37  N   UNL     1      -1.504 -13.009   1.346  1.00  0.00    -0.370 N 
ATOM     38  N   UNL     1      -2.230 -11.470  -0.091  1.00  0.00    -0.370 N 
ATOM     39  H   UNL     1      -0.800 -13.668   1.652  1.00  0.00     0.159 HD
ATOM     40  H   UNL     1      -2.417 -13.050   1.765  1.00  0.00     0.159 HD
ATOM     41  H   UNL     1      -3.003 -11.313   0.535  1.00  0.00     0.159 HD
ATOM     42  H   UNL     1      -2.152 -10.866  -0.894  1.00  0.00     0.159 HD
ENDBRANCH  34  35
ENDBRANCH  33  34
ENDBRANCH  32  33
ENDBRANCH   6  32
ENDBRANCH   4   6
ENDBRANCH   1   2
BRANCH   1  43
ATOM     43  C   UNL     1       1.546  -6.165   2.299  1.00  0.00     0.102 C 
ATOM     44  C   UNL     1       2.119  -5.332   3.459  1.00  0.00     0.020 C 
BRANCH  43  45
ATOM     45  C   UNL     1       1.238  -7.618   2.671  1.00  0.00     0.225 C 
ATOM     46  O   UNL     1       1.755  -8.579   2.108  1.00  0.00    -0.275 OA
ATOM     47  N   UNL     1       0.262  -7.792   3.626  1.00  0.00    -0.342 N 
ATOM     48  H   UNL     1      -0.040  -7.004   4.181  1.00  0.00     0.164 HD
BRANCH  47  49
ATOM     49  C   UNL     1      -0.112  -9.125   4.106  1.00  0.00     0.192 C 
BRANCH  49  50
ATOM     50  C   UNL     1      -1.600  -9.144   4.465  1.00  0.00     0.047 C 
BRANCH  50  51
ATOM     51  C   UNL     1      -2.403 -10.096   3.568  1.00  0.00     0.103 C 
BRANCH  51  52
ATOM     52  C   UNL     1      -2.741 -11.405   4.278  1.00  0.00     0.226 C 
ATOM     53  O   UNL     1      -1.879 -12.279   4.390  1.00  0.00    -0.275 OA
BRANCH  52  54
ATOM     54  N   UNL     1      -4.028 -11.499   4.840  1.00  0.00    -0.311 N 
ATOM     55  C   UNL     1      -5.143 -12.081   4.081  1.00  0.00     0.153 C 
BRANCH  54  56
ATOM     56  C   UNL     1      -4.293 -11.047   6.143  1.00  0.00     0.102 C 
ATOM     57  C   UNL     1      -3.750 -11.560   7.260  1.00  0.00     0.043 C 
BRANCH  56  58
ATOM     58  C   UNL     1      -5.212  -9.873   6.385  1.00  0.00     0.268 C 
ATOM     59  O   UNL     1      -5.209  -8.867   5.689  1.00  0.00    -0.268 OA
ATOM     60  N   UNL     1      -6.092 -10.080   7.420  1.00  0.00    -0.339 N 
ATOM     61  H   UNL     1      -6.023 -10.938   7.955  1.00  0.00     0.164 HD
BRANCH  60  62
ATOM     62  C   UNL     1      -7.112  -9.097   7.784  1.00  0.00     0.168 CG0
ATOM     63  C   UNL     1      -6.541  -8.039   8.721  1.00  0.00     0.041 C 
ATOM     64  G   UNL     1      -8.312  -9.814   8.436  1.00  0.00     0.000 G0
ENDBRANCH  60  62
ENDBRANCH  56  58
ENDBRANCH  54  56
ENDBRANCH  52  54
ENDBRANCH  51  52
ENDBRANCH  50  51
ENDBRANCH  49  50
BRANCH  49  65
ATOM     65  C   UNL     1       0.714  -9.537   5.335  1.00  0.00     0.326 C 
ATOM     66  O   UNL     1       1.649  -8.906   5.807  1.00  0.00    -0.250 OA
BRANCH  65  67
ATOM     67  O   UNL     1       0.373 -10.731   5.869  1.00  0.00    -0.480 OA
ATOM     68  H   UNL     1      -0.305 -10.500   6.540  1.00  0.00     0.296 HD
ENDBRANCH  65  67
ENDBRANCH  49  65
ENDBRANCH  47  49
ENDBRANCH  43  45
ENDBRANCH   1  43
BRANCH   1  69
ATOM     69  C   UNL     1       2.833  -4.728   0.486  1.00  0.00    -0.001 C 
ATOM     70  C   UNL     1       4.061  -4.183   0.549  1.00  0.00     0.001 C 
BRANCH  70  71
ATOM     71  C   UNL     1       4.471  -2.878   0.029  1.00  0.00    -0.055 C 
ATOM     72  C   UNL     1       5.654  -2.803  -0.616  1.00  0.00    -0.018 C 
ATOM     73  C   UNL     1       3.541  -1.712   0.244  1.00  0.00     0.044 C 
BRANCH  72  74
ATOM     74  C   UNL     1       6.328  -1.597  -1.256  1.00  0.00     0.038 C 
ATOM     75  C   UNL     1       6.663  -1.980  -2.702  1.00  0.00     0.015 C 
BRANCH  74  76
ATOM     76  C   UNL     1       7.554  -1.188  -0.387  1.00  0.00     0.128 C 
BRANCH  76  77
ATOM     77  O   UNL     1       7.331   0.105   0.199  1.00  0.00    -0.381 OA
ATOM     78  C   UNL     1       6.365   0.887  -0.492  1.00  0.00     0.195 C 
ENDBRANCH  76  77
BRANCH  76  79
ATOM     79  C   UNL     1       7.970  -2.256   0.656  1.00  0.00     0.068 C 
BRANCH  79  80
ATOM     80  C   UNL     1       8.948  -3.322   0.225  1.00  0.00    -0.045 A 
ATOM     81  C   UNL     1       9.204  -4.437   1.034  1.00  0.00     0.004 A 
ATOM     82  C   UNL     1       9.642  -3.196  -0.988  1.00  0.00     0.004 A 
ATOM     83  C   UNL     1      10.121  -5.411   0.635  1.00  0.00     0.000 A 
ATOM     84  C   UNL     1      10.560  -4.171  -1.386  1.00  0.00     0.000 A 
ATOM     85  C   UNL     1      10.798  -5.278  -0.576  1.00  0.00     0.000 A 
ENDBRANCH  79  80
ENDBRANCH  76  79
ENDBRANCH  74  76
ENDBRANCH  72  74
ENDBRANCH  70  71
ENDBRANCH   1  69
TORSDOF 17
ENDMDL
MODEL 11
REMARK VINA RESULT:    -6.732      5.473      9.029
REMARK INTER + INTRA:         -28.028
REMARK INTER:                 -20.939
REMARK INTRA:                  -7.088
REMARK UNBOUND:                -7.916
REMARK SMILES C=C1C(=O)N[C@H](C)C(=O)N[C@@H](CC(C)C)C(=O)N[C@@H](C(=O)O)[C@H](C)C(=O)N[C@@H](CCCN=C(N)N)C(=O)N[C@@H](/C=C/C(C)=C/[C@H](C)[C@H](Cc2ccccc2)OC)[C@H](C)C(=O)N[C@@H](C(=O)O)CCC(=O)N1C
REMARK SMILES IDX 39 1 38 2 37 3 36 4 28 6 27 7 25 8 26 9 23 11 24 12 19 13
REMARK SMILES IDX 18 14 16 15 17 16 11 18 10 19 8 20 9 21 12 24 13 25 14 26
REMARK SMILES IDX 15 27 20 28 21 29 22 30 29 32 30 33 31 34 32 35 33 36 34 37
REMARK SMILES IDX 35 38 57 43 58 44 59 45 60 46 61 47 62 49 66 50 67 51 68 52
REMARK SMILES IDX 69 53 70 54 71 55 2 56 1 57 3 58 4 59 5 60 6 62 7 63 63 65
REMARK SMILES IDX 64 66 65 67 40 69 41 70 42 71 44 72 43 73 45 74 46 75 47 76
REMARK SMILES IDX 55 77 56 78 48 79 49 80 50 81 54 82 51 83 53 84 52 85
REMARK H PARENT 38 5 27 10 18 17 10 22 22 31 34 39 34 40 35 41 35 42 61 48
REMARK H PARENT 5 61 65 68
REMARK Flexibility Score:  369.900
ROOT
ATOM      1  C   UNL     1       5.489  -3.182   0.179  1.00  0.00     0.117 C 
ENDROOT
BRANCH   1   2
ATOM      2  N   UNL     1       4.208  -3.881   0.284  1.00  0.00    -0.347 N 
ATOM      3  O   UNL     1       5.022  -6.028   0.284  1.00  0.00    -0.273 OA
ATOM      4  C   UNL     1       4.083  -5.250   0.420  1.00  0.00     0.243 C 
ATOM      5  H   UNL     1       3.354  -3.346   0.309  1.00  0.00     0.164 HD
BRANCH   4   6
ATOM      6  C   UNL     1       2.619  -5.728   0.598  1.00  0.00     0.171 C 
BRANCH   6   7
ATOM      7  N   UNL     1       2.476  -7.123   0.154  1.00  0.00    -0.344 N 
ATOM      8  C   UNL     1       2.112  -7.414  -1.143  1.00  0.00     0.226 C 
ATOM      9  O   UNL     1       1.871  -6.544  -1.972  1.00  0.00    -0.275 OA
ATOM     10  H   UNL     1       2.600  -7.868   0.828  1.00  0.00     0.164 HD
BRANCH   8  11
ATOM     11  C   UNL     1       2.060  -8.898  -1.460  1.00  0.00     0.109 C 
ATOM     12  C   UNL     1       2.909  -9.680  -0.458  1.00  0.00     0.021 C 
BRANCH  11  13
ATOM     13  C   UNL     1       0.592  -9.358  -1.565  1.00  0.00     0.204 C 
BRANCH  13  14
ATOM     14  N   UNL     1      -0.189  -8.986  -0.381  1.00  0.00    -0.340 N 
ATOM     15  C   UNL     1      -0.807  -9.913   0.430  1.00  0.00     0.243 C 
ATOM     16  O   UNL     1      -0.697 -11.125   0.250  1.00  0.00    -0.273 OA
ATOM     17  H   UNL     1      -0.444  -8.002  -0.264  1.00  0.00     0.164 HD
BRANCH  15  18
ATOM     18  C   UNL     1      -1.741  -9.282   1.491  1.00  0.00     0.171 C 
BRANCH  18  19
ATOM     19  N   UNL     1      -2.550 -10.370   2.038  1.00  0.00    -0.343 N 
ATOM     20  C   UNL     1      -3.912 -10.447   1.820  1.00  0.00     0.242 CG0
ATOM     21  O   UNL     1      -4.528  -9.536   1.270  1.00  0.00    -0.273 OA
ATOM     22  H   UNL     1      -2.104 -11.088   2.598  1.00  0.00     0.164 HD
ATOM     23  G   UNL     1      -4.581 -11.706   2.408  1.00  0.00     0.000 G0
ENDBRANCH  18  19
BRANCH  18  24
ATOM     24  C   UNL     1      -0.924  -8.584   2.585  1.00  0.00     0.038 C 
BRANCH  24  25
ATOM     25  C   UNL     1      -1.764  -7.804   3.619  1.00  0.00    -0.015 C 
ATOM     26  C   UNL     1      -2.629  -6.722   2.972  1.00  0.00     0.007 C 
ATOM     27  C   UNL     1      -0.839  -7.171   4.661  1.00  0.00     0.007 C 
ENDBRANCH  24  25
ENDBRANCH  18  24
ENDBRANCH  15  18
ENDBRANCH  13  14
BRANCH  13  28
ATOM     28  C   UNL     1      -0.135  -8.785  -2.786  1.00  0.00     0.327 C 
ATOM     29  O   UNL     1      -1.322  -8.505  -2.855  1.00  0.00    -0.250 OA
BRANCH  28  30
ATOM     30  O   UNL     1       0.649  -8.711  -3.881  1.00  0.00    -0.480 OA
ATOM     31  H   UNL     1       0.719  -7.751  -4.063  1.00  0.00     0.296 HD
ENDBRANCH  28  30
ENDBRANCH  13  28
ENDBRANCH  11  13
ENDBRANCH   8  11
ENDBRANCH   6   7
BRANCH   6  32
ATOM     32  C   UNL     1       2.216  -5.577   2.069  1.00  0.00     0.037 C 
BRANCH  32  33
ATOM     33  C   UNL     1       0.932  -4.753   2.237  1.00  0.00     0.026 C 
BRANCH  33  34
ATOM     34  C   UNL     1       1.216  -3.276   2.510  1.00  0.00     0.146 C 
BRANCH  34  35
ATOM     35  N   UNL     1      -0.050  -2.562   2.601  1.00  0.00    -0.254 NA
ATOM     36  C   UNL     1      -0.323  -1.680   1.713  1.00  0.00     0.185 C 
ATOM     37  N   UNL     1      -1.490  -1.020   1.784  1.00  0.00    -0.370 N 
ATOM     38  N   UNL     1       0.413  -1.286   0.659  1.00  0.00    -0.370 N 
ATOM     39  H   UNL     1      -2.107  -1.269   2.547  1.00  0.00     0.159 HD
ATOM     40  H   UNL     1      -1.851  -0.448   1.040  1.00  0.00     0.159 HD
ATOM     41  H   UNL     1       0.151  -0.483   0.111  1.00  0.00     0.159 HD
ATOM     42  H   UNL     1       1.323  -1.687   0.491  1.00  0.00     0.159 HD
ENDBRANCH  34  35
ENDBRANCH  33  34
ENDBRANCH  32  33
ENDBRANCH   6  32
ENDBRANCH   4   6
ENDBRANCH   1   2
BRANCH   1  43
ATOM     43  C   UNL     1       6.029  -2.921   1.615  1.00  0.00     0.102 C 
ATOM     44  C   UNL     1       5.495  -1.622   2.243  1.00  0.00     0.020 C 
BRANCH  43  45
ATOM     45  C   UNL     1       7.555  -3.051   1.661  1.00  0.00     0.225 C 
ATOM     46  O   UNL     1       8.246  -2.534   2.534  1.00  0.00    -0.275 OA
ATOM     47  N   UNL     1       8.125  -3.715   0.599  1.00  0.00    -0.342 N 
ATOM     48  H   UNL     1       7.543  -4.259  -0.022  1.00  0.00     0.164 HD
BRANCH  47  49
ATOM     49  C   UNL     1       9.571  -3.946   0.527  1.00  0.00     0.192 C 
BRANCH  49  50
ATOM     50  C   UNL     1      10.112  -3.414  -0.802  1.00  0.00     0.047 C 
BRANCH  50  51
ATOM     51  C   UNL     1       9.218  -2.316  -1.396  1.00  0.00     0.103 C 
BRANCH  51  52
ATOM     52  C   UNL     1      10.004  -1.359  -2.290  1.00  0.00     0.226 C 
ATOM     53  O   UNL     1      10.109  -1.597  -3.495  1.00  0.00    -0.275 OA
BRANCH  52  54
ATOM     54  N   UNL     1      10.506  -0.197  -1.675  1.00  0.00    -0.311 N 
ATOM     55  C   UNL     1      11.900  -0.126  -1.216  1.00  0.00     0.153 C 
BRANCH  54  56
ATOM     56  C   UNL     1       9.699   0.937  -1.483  1.00  0.00     0.102 C 
ATOM     57  C   UNL     1       8.639   0.995  -0.661  1.00  0.00     0.043 C 
BRANCH  56  58
ATOM     58  C   UNL     1      10.011   2.238  -2.185  1.00  0.00     0.268 C 
ATOM     59  O   UNL     1      10.198   3.291  -1.591  1.00  0.00    -0.268 OA
ATOM     60  N   UNL     1      10.128   2.102  -3.548  1.00  0.00    -0.339 N 
ATOM     61  H   UNL     1       9.947   1.196  -3.964  1.00  0.00     0.164 HD
BRANCH  60  62
ATOM     62  C   UNL     1      10.487   3.224  -4.415  1.00  0.00     0.168 CG0
ATOM     63  C   UNL     1      11.963   3.174  -4.790  1.00  0.00     0.041 C 
ATOM     64  G   UNL     1      10.148   4.552  -3.708  1.00  0.00     0.000 G0
ENDBRANCH  60  62
ENDBRANCH  56  58
ENDBRANCH  54  56
ENDBRANCH  52  54
ENDBRANCH  51  52
ENDBRANCH  50  51
ENDBRANCH  49  50
BRANCH  49  65
ATOM     65  C   UNL     1       9.913  -5.439   0.654  1.00  0.00     0.326 C 
ATOM     66  O   UNL     1      10.496  -6.109  -0.186  1.00  0.00    -0.250 OA
BRANCH  65  67
ATOM     67  O   UNL     1       9.460  -6.027   1.784  1.00  0.00    -0.480 OA
ATOM     68  H   UNL     1      10.162  -6.678   2.003  1.00  0.00     0.296 HD
ENDBRANCH  65  67
ENDBRANCH  49  65
ENDBRANCH  47  49
ENDBRANCH  43  45
ENDBRANCH   1  43
BRANCH   1  69
ATOM     69  C   UNL     1       5.253  -2.000  -0.742  1.00  0.00    -0.001 C 
ATOM     70  C   UNL     1       5.961  -1.660  -1.834  1.00  0.00     0.001 C 
BRANCH  70  71
ATOM     71  C   UNL     1       5.711  -0.528  -2.728  1.00  0.00    -0.055 C 
ATOM     72  C   UNL     1       5.248   0.614  -2.179  1.00  0.00    -0.018 C 
ATOM     73  C   UNL     1       5.995  -0.716  -4.195  1.00  0.00     0.044 C 
BRANCH  72  74
ATOM     74  C   UNL     1       4.905   1.936  -2.852  1.00  0.00     0.038 C 
ATOM     75  C   UNL     1       6.225   2.678  -3.091  1.00  0.00     0.015 C 
BRANCH  74  76
ATOM     76  C   UNL     1       3.878   2.699  -1.963  1.00  0.00     0.128 C 
BRANCH  76  77
ATOM     77  O   UNL     1       2.684   2.971  -2.716  1.00  0.00    -0.381 OA
ATOM     78  C   UNL     1       2.186   4.291  -2.540  1.00  0.00     0.195 C 
ENDBRANCH  76  77
BRANCH  76  79
ATOM     79  C   UNL     1       3.587   2.010  -0.606  1.00  0.00     0.068 C 
BRANCH  79  80
ATOM     80  C   UNL     1       4.283   2.546   0.622  1.00  0.00    -0.045 A 
ATOM     81  C   UNL     1       3.814   3.695   1.274  1.00  0.00     0.004 A 
ATOM     82  C   UNL     1       5.433   1.913   1.116  1.00  0.00     0.004 A 
ATOM     83  C   UNL     1       4.472   4.192   2.401  1.00  0.00     0.000 A 
ATOM     84  C   UNL     1       6.091   2.412   2.243  1.00  0.00     0.000 A 
ATOM     85  C   UNL     1       5.609   3.550   2.886  1.00  0.00     0.000 A 
ENDBRANCH  79  80
ENDBRANCH  76  79
ENDBRANCH  74  76
ENDBRANCH  72  74
ENDBRANCH  70  71
ENDBRANCH   1  69
TORSDOF 17
ENDMDL
MODEL 12
REMARK VINA RESULT:    -6.726      5.279      8.000
REMARK INTER + INTRA:         -28.011
REMARK INTER:                 -19.974
REMARK INTRA:                  -8.038
REMARK UNBOUND:                -7.916
REMARK SMILES C=C1C(=O)N[C@H](C)C(=O)N[C@@H](CC(C)C)C(=O)N[C@@H](C(=O)O)[C@H](C)C(=O)N[C@@H](CCCN=C(N)N)C(=O)N[C@@H](/C=C/C(C)=C/[C@H](C)[C@H](Cc2ccccc2)OC)[C@H](C)C(=O)N[C@@H](C(=O)O)CCC(=O)N1C
REMARK SMILES IDX 39 1 38 2 37 3 36 4 28 6 27 7 25 8 26 9 23 11 24 12 19 13
REMARK SMILES IDX 18 14 16 15 17 16 11 18 10 19 8 20 9 21 12 24 13 25 14 26
REMARK SMILES IDX 15 27 20 28 21 29 22 30 29 32 30 33 31 34 32 35 33 36 34 37
REMARK SMILES IDX 35 38 57 43 58 44 59 45 60 46 61 47 62 49 66 50 67 51 68 52
REMARK SMILES IDX 69 53 70 54 71 55 2 56 1 57 3 58 4 59 5 60 6 62 7 63 63 65
REMARK SMILES IDX 64 66 65 67 40 69 41 70 42 71 44 72 43 73 45 74 46 75 47 76
REMARK SMILES IDX 55 77 56 78 48 79 49 80 50 81 54 82 51 83 53 84 52 85
REMARK H PARENT 38 5 27 10 18 17 10 22 22 31 34 39 34 40 35 41 35 42 61 48
REMARK H PARENT 5 61 65 68
REMARK Flexibility Score:  369.900
ROOT
ATOM      1  C   UNL     1       5.691  -3.808   0.730  1.00  0.00     0.117 C 
ENDROOT
BRANCH   1   2
ATOM      2  N   UNL     1       4.423  -3.858   1.458  1.00  0.00    -0.347 N 
ATOM      3  O   UNL     1       3.331  -5.338   0.083  1.00  0.00    -0.273 OA
ATOM      4  C   UNL     1       3.373  -4.692   1.125  1.00  0.00     0.243 C 
ATOM      5  H   UNL     1       4.304  -3.293   2.285  1.00  0.00     0.164 HD
BRANCH   4   6
ATOM      6  C   UNL     1       2.178  -4.612   2.109  1.00  0.00     0.171 C 
BRANCH   6   7
ATOM      7  N   UNL     1       2.647  -4.727   3.499  1.00  0.00    -0.344 N 
ATOM      8  C   UNL     1       2.249  -5.783   4.290  1.00  0.00     0.226 C 
ATOM      9  O   UNL     1       1.482  -6.652   3.894  1.00  0.00    -0.275 OA
ATOM     10  H   UNL     1       3.229  -3.993   3.883  1.00  0.00     0.164 HD
BRANCH   8  11
ATOM     11  C   UNL     1       2.862  -5.789   5.680  1.00  0.00     0.109 C 
ATOM     12  C   UNL     1       3.938  -4.708   5.785  1.00  0.00     0.021 C 
BRANCH  11  13
ATOM     13  C   UNL     1       1.748  -5.701   6.741  1.00  0.00     0.204 C 
BRANCH  13  14
ATOM     14  N   UNL     1       0.749  -4.681   6.409  1.00  0.00    -0.340 N 
ATOM     15  C   UNL     1       0.640  -3.489   7.092  1.00  0.00     0.243 C 
ATOM     16  O   UNL     1       1.415  -3.171   7.992  1.00  0.00    -0.273 OA
ATOM     17  H   UNL     1      -0.015  -4.943   5.780  1.00  0.00     0.164 HD
BRANCH  15  18
ATOM     18  C   UNL     1      -0.613  -2.665   6.704  1.00  0.00     0.171 C 
BRANCH  18  19
ATOM     19  N   UNL     1      -1.607  -2.898   7.749  1.00  0.00    -0.343 N 
ATOM     20  C   UNL     1      -2.414  -4.020   7.751  1.00  0.00     0.242 CG0
ATOM     21  O   UNL     1      -2.426  -4.805   6.806  1.00  0.00    -0.273 OA
ATOM     22  H   UNL     1      -1.716  -2.218   8.493  1.00  0.00     0.164 HD
ATOM     23  G   UNL     1      -3.346  -4.132   8.975  1.00  0.00     0.000 G0
ENDBRANCH  18  19
BRANCH  18  24
ATOM     24  C   UNL     1      -0.265  -1.177   6.581  1.00  0.00     0.038 C 
BRANCH  24  25
ATOM     25  C   UNL     1      -1.301  -0.335   5.806  1.00  0.00    -0.015 C 
ATOM     26  C   UNL     1      -0.700   0.349   4.578  1.00  0.00     0.007 C 
ATOM     27  C   UNL     1      -1.908   0.718   6.737  1.00  0.00     0.007 C 
ENDBRANCH  24  25
ENDBRANCH  18  24
ENDBRANCH  15  18
ENDBRANCH  13  14
BRANCH  13  28
ATOM     28  C   UNL     1       0.998  -7.022   6.941  1.00  0.00     0.327 C 
ATOM     29  O   UNL     1       1.496  -8.098   7.237  1.00  0.00    -0.250 OA
BRANCH  28  30
ATOM     30  O   UNL     1      -0.314  -6.936   6.642  1.00  0.00    -0.480 OA
ATOM     31  H   UNL     1      -0.562  -7.848   6.384  1.00  0.00     0.296 HD
ENDBRANCH  28  30
ENDBRANCH  13  28
ENDBRANCH  11  13
ENDBRANCH   8  11
ENDBRANCH   6   7
BRANCH   6  32
ATOM     32  C   UNL     1       1.433  -3.291   1.890  1.00  0.00     0.037 C 
BRANCH  32  33
ATOM     33  C   UNL     1       0.549  -2.919   3.089  1.00  0.00     0.026 C 
BRANCH  33  34
ATOM     34  C   UNL     1      -0.886  -3.424   2.936  1.00  0.00     0.146 C 
BRANCH  34  35
ATOM     35  N   UNL     1      -1.081  -4.562   3.824  1.00  0.00    -0.254 NA
ATOM     36  C   UNL     1      -1.703  -5.589   3.380  1.00  0.00     0.185 C 
ATOM     37  N   UNL     1      -1.884  -6.645   4.189  1.00  0.00    -0.370 N 
ATOM     38  N   UNL     1      -2.236  -5.793   2.162  1.00  0.00    -0.370 N 
ATOM     39  H   UNL     1      -1.501  -6.572   5.123  1.00  0.00     0.159 HD
ATOM     40  H   UNL     1      -2.202  -7.543   3.868  1.00  0.00     0.159 HD
ATOM     41  H   UNL     1      -2.824  -6.589   1.977  1.00  0.00     0.159 HD
ATOM     42  H   UNL     1      -2.189  -5.076   1.455  1.00  0.00     0.159 HD
ENDBRANCH  34  35
ENDBRANCH  33  34
ENDBRANCH  32  33
ENDBRANCH   6  32
ENDBRANCH   4   6
ENDBRANCH   1   2
BRANCH   1  43
ATOM     43  C   UNL     1       6.854  -3.785   1.763  1.00  0.00     0.102 C 
ATOM     44  C   UNL     1       7.057  -2.413   2.426  1.00  0.00     0.020 C 
BRANCH  43  45
ATOM     45  C   UNL     1       8.132  -4.382   1.165  1.00  0.00     0.225 C 
ATOM     46  O   UNL     1       8.668  -5.396   1.603  1.00  0.00    -0.275 OA
ATOM     47  N   UNL     1       8.708  -3.652   0.151  1.00  0.00    -0.342 N 
ATOM     48  H   UNL     1       8.182  -2.914  -0.295  1.00  0.00     0.164 HD
BRANCH  47  49
ATOM     49  C   UNL     1       9.914  -4.119  -0.540  1.00  0.00     0.192 C 
BRANCH  49  50
ATOM     50  C   UNL     1      10.712  -2.916  -1.051  1.00  0.00     0.047 C 
BRANCH  50  51
ATOM     51  C   UNL     1       9.850  -1.652  -1.165  1.00  0.00     0.103 C 
BRANCH  51  52
ATOM     52  C   UNL     1      10.086  -0.913  -2.481  1.00  0.00     0.226 C 
ATOM     53  O   UNL     1       9.401  -1.189  -3.467  1.00  0.00    -0.275 OA
BRANCH  52  54
ATOM     54  N   UNL     1      11.047   0.116  -2.458  1.00  0.00    -0.311 N 
ATOM     55  C   UNL     1      10.884   1.283  -1.581  1.00  0.00     0.153 C 
BRANCH  54  56
ATOM     56  C   UNL     1      12.196   0.063  -3.264  1.00  0.00     0.102 C 
ATOM     57  C   UNL     1      13.347  -0.538  -2.923  1.00  0.00     0.043 C 
BRANCH  56  58
ATOM     58  C   UNL     1      12.199   0.665  -4.649  1.00  0.00     0.268 C 
ATOM     59  O   UNL     1      11.484   1.605  -4.972  1.00  0.00    -0.268 OA
ATOM     60  N   UNL     1      13.130   0.096  -5.484  1.00  0.00    -0.339 N 
ATOM     61  H   UNL     1      13.677  -0.686  -5.143  1.00  0.00     0.164 HD
BRANCH  60  62
ATOM     62  C   UNL     1      13.345   0.570  -6.851  1.00  0.00     0.168 CG0
ATOM     63  C   UNL     1      12.418  -0.142  -7.829  1.00  0.00     0.041 C 
ATOM     64  G   UNL     1      14.821   0.359  -7.246  1.00  0.00     0.000 G0
ENDBRANCH  60  62
ENDBRANCH  56  58
ENDBRANCH  54  56
ENDBRANCH  52  54
ENDBRANCH  51  52
ENDBRANCH  50  51
ENDBRANCH  49  50
BRANCH  49  65
ATOM     65  C   UNL     1       9.571  -5.041  -1.719  1.00  0.00     0.326 C 
ATOM     66  O   UNL     1       8.456  -5.460  -1.993  1.00  0.00    -0.250 OA
BRANCH  65  67
ATOM     67  O   UNL     1      10.634  -5.438  -2.453  1.00  0.00    -0.480 OA
ATOM     68  H   UNL     1      10.793  -6.358  -2.150  1.00  0.00     0.296 HD
ENDBRANCH  65  67
ENDBRANCH  49  65
ENDBRANCH  47  49
ENDBRANCH  43  45
ENDBRANCH   1  43
BRANCH   1  69
ATOM     69  C   UNL     1       5.567  -2.664  -0.260  1.00  0.00    -0.001 C 
ATOM     70  C   UNL     1       4.667  -1.664  -0.245  1.00  0.00     0.001 C 
BRANCH  70  71
ATOM     71  C   UNL     1       4.571  -0.553  -1.194  1.00  0.00    -0.055 C 
ATOM     72  C   UNL     1       5.581  -0.390  -2.074  1.00  0.00    -0.018 C 
ATOM     73  C   UNL     1       3.348   0.323  -1.127  1.00  0.00     0.044 C 
BRANCH  72  74
ATOM     74  C   UNL     1       5.750   0.660  -3.163  1.00  0.00     0.038 C 
ATOM     75  C   UNL     1       5.617  -0.060  -4.510  1.00  0.00     0.015 C 
BRANCH  74  76
ATOM     76  C   UNL     1       7.106   1.393  -2.946  1.00  0.00     0.128 C 
BRANCH  76  77
ATOM     77  O   UNL     1       7.711   1.694  -4.215  1.00  0.00    -0.381 OA
ATOM     78  C   UNL     1       8.455   2.905  -4.221  1.00  0.00     0.195 C 
ENDBRANCH  76  77
BRANCH  76  79
ATOM     79  C   UNL     1       7.011   2.632  -2.019  1.00  0.00     0.068 C 
BRANCH  79  80
ATOM     80  C   UNL     1       5.686   3.351  -1.935  1.00  0.00    -0.045 A 
ATOM     81  C   UNL     1       5.164   4.034  -3.041  1.00  0.00     0.004 A 
ATOM     82  C   UNL     1       4.967   3.370  -0.730  1.00  0.00     0.004 A 
ATOM     83  C   UNL     1       3.945   4.709  -2.951  1.00  0.00     0.000 A 
ATOM     84  C   UNL     1       3.748   4.046  -0.641  1.00  0.00     0.000 A 
ATOM     85  C   UNL     1       3.237   4.714  -1.751  1.00  0.00     0.000 A 
ENDBRANCH  79  80
ENDBRANCH  76  79
ENDBRANCH  74  76
ENDBRANCH  72  74
ENDBRANCH  70  71
ENDBRANCH   1  69
TORSDOF 17
ENDMDL
MODEL 13
REMARK VINA RESULT:    -6.707      5.471     15.095
REMARK INTER + INTRA:         -27.955
REMARK INTER:                 -20.553
REMARK INTRA:                  -7.402
REMARK UNBOUND:                -7.916
REMARK SMILES C=C1C(=O)N[C@H](C)C(=O)N[C@@H](CC(C)C)C(=O)N[C@@H](C(=O)O)[C@H](C)C(=O)N[C@@H](CCCN=C(N)N)C(=O)N[C@@H](/C=C/C(C)=C/[C@H](C)[C@H](Cc2ccccc2)OC)[C@H](C)C(=O)N[C@@H](C(=O)O)CCC(=O)N1C
REMARK SMILES IDX 39 1 38 2 37 3 36 4 28 6 27 7 25 8 26 9 23 11 24 12 19 13
REMARK SMILES IDX 18 14 16 15 17 16 11 18 10 19 8 20 9 21 12 24 13 25 14 26
REMARK SMILES IDX 15 27 20 28 21 29 22 30 29 32 30 33 31 34 32 35 33 36 34 37
REMARK SMILES IDX 35 38 57 43 58 44 59 45 60 46 61 47 62 49 66 50 67 51 68 52
REMARK SMILES IDX 69 53 70 54 71 55 2 56 1 57 3 58 4 59 5 60 6 62 7 63 63 65
REMARK SMILES IDX 64 66 65 67 40 69 41 70 42 71 44 72 43 73 45 74 46 75 47 76
REMARK SMILES IDX 55 77 56 78 48 79 49 80 50 81 54 82 51 83 53 84 52 85
REMARK H PARENT 38 5 27 10 18 17 10 22 22 31 34 39 34 40 35 41 35 42 61 48
REMARK H PARENT 5 61 65 68
REMARK Flexibility Score:  369.900
ROOT
ATOM      1  C   UNL     1      -5.997  -7.345   7.567  1.00  0.00     0.117 C 
ENDROOT
BRANCH   1   2
ATOM      2  N   UNL     1      -4.903  -6.422   7.873  1.00  0.00    -0.347 N 
ATOM      3  O   UNL     1      -5.865  -4.511   7.042  1.00  0.00    -0.273 OA
ATOM      4  C   UNL     1      -4.963  -5.057   7.667  1.00  0.00     0.243 C 
ATOM      5  H   UNL     1      -4.064  -6.776   8.306  1.00  0.00     0.164 HD
BRANCH   4   6
ATOM      6  C   UNL     1      -3.703  -4.298   8.156  1.00  0.00     0.171 C 
BRANCH   6   7
ATOM      7  N   UNL     1      -3.124  -3.504   7.060  1.00  0.00    -0.344 N 
ATOM      8  C   UNL     1      -2.214  -4.066   6.191  1.00  0.00     0.226 C 
ATOM      9  O   UNL     1      -1.829  -5.225   6.296  1.00  0.00    -0.275 OA
ATOM     10  H   UNL     1      -3.366  -2.525   6.983  1.00  0.00     0.164 HD
BRANCH   8  11
ATOM     11  C   UNL     1      -1.751  -3.136   5.084  1.00  0.00     0.109 C 
ATOM     12  C   UNL     1      -2.464  -1.788   5.196  1.00  0.00     0.021 C 
BRANCH  11  13
ATOM     13  C   UNL     1      -0.211  -3.056   5.079  1.00  0.00     0.204 C 
BRANCH  13  14
ATOM     14  N   UNL     1       0.400  -4.218   4.425  1.00  0.00    -0.340 N 
ATOM     15  C   UNL     1      -0.077  -4.749   3.246  1.00  0.00     0.243 C 
ATOM     16  O   UNL     1      -1.013  -4.248   2.626  1.00  0.00    -0.273 OA
ATOM     17  H   UNL     1       1.077  -4.769   4.960  1.00  0.00     0.164 HD
BRANCH  15  18
ATOM     18  C   UNL     1       0.592  -6.091   2.858  1.00  0.00     0.171 C 
BRANCH  18  19
ATOM     19  N   UNL     1       1.740  -5.758   2.016  1.00  0.00    -0.343 N 
ATOM     20  C   UNL     1       1.721  -5.951   0.648  1.00  0.00     0.242 CG0
ATOM     21  O   UNL     1       0.791  -6.533   0.093  1.00  0.00    -0.273 OA
ATOM     22  H   UNL     1       2.578  -5.381   2.444  1.00  0.00     0.164 HD
ATOM     23  G   UNL     1       2.991  -5.468  -0.081  1.00  0.00     0.000 G0
ENDBRANCH  18  19
BRANCH  18  24
ATOM     24  C   UNL     1       1.020  -6.866   4.110  1.00  0.00     0.038 C 
BRANCH  24  25
ATOM     25  C   UNL     1       0.329  -8.235   4.288  1.00  0.00    -0.015 C 
ATOM     26  C   UNL     1       1.110  -9.168   5.213  1.00  0.00     0.007 C 
ATOM     27  C   UNL     1       0.145  -8.900   2.922  1.00  0.00     0.007 C 
ENDBRANCH  24  25
ENDBRANCH  18  24
ENDBRANCH  15  18
ENDBRANCH  13  14
BRANCH  13  28
ATOM     28  C   UNL     1       0.327  -1.806   4.377  1.00  0.00     0.327 C 
ATOM     29  O   UNL     1      -0.021  -1.384   3.285  1.00  0.00    -0.250 OA
BRANCH  28  30
ATOM     30  O   UNL     1       1.352  -1.229   5.036  1.00  0.00    -0.480 OA
ATOM     31  H   UNL     1       1.664  -0.526   4.429  1.00  0.00     0.296 HD
ENDBRANCH  28  30
ENDBRANCH  13  28
ENDBRANCH  11  13
ENDBRANCH   8  11
ENDBRANCH   6   7
BRANCH   6  32
ATOM     32  C   UNL     1      -4.084  -3.401   9.339  1.00  0.00     0.037 C 
BRANCH  32  33
ATOM     33  C   UNL     1      -3.384  -2.036   9.280  1.00  0.00     0.026 C 
BRANCH  33  34
ATOM     34  C   UNL     1      -4.363  -0.887   9.032  1.00  0.00     0.146 C 
BRANCH  34  35
ATOM     35  N   UNL     1      -4.753  -0.898   7.629  1.00  0.00    -0.254 NA
ATOM     36  C   UNL     1      -6.001  -0.906   7.338  1.00  0.00     0.185 C 
ATOM     37  N   UNL     1      -6.372  -0.911   6.048  1.00  0.00    -0.370 N 
ATOM     38  N   UNL     1      -7.061  -0.910   8.166  1.00  0.00    -0.370 N 
ATOM     39  H   UNL     1      -5.628  -0.898   5.362  1.00  0.00     0.159 HD
ATOM     40  H   UNL     1      -7.314  -0.743   5.740  1.00  0.00     0.159 HD
ATOM     41  H   UNL     1      -7.994  -1.058   7.817  1.00  0.00     0.159 HD
ATOM     42  H   UNL     1      -6.931  -0.923   9.165  1.00  0.00     0.159 HD
ENDBRANCH  34  35
ENDBRANCH  33  34
ENDBRANCH  32  33
ENDBRANCH   6  32
ENDBRANCH   4   6
ENDBRANCH   1   2
BRANCH   1  43
ATOM     43  C   UNL     1      -6.837  -7.562   8.859  1.00  0.00     0.102 C 
ATOM     44  C   UNL     1      -8.345  -7.703   8.591  1.00  0.00     0.020 C 
BRANCH  43  45
ATOM     45  C   UNL     1      -6.491  -6.516   9.922  1.00  0.00     0.225 C 
ATOM     46  O   UNL     1      -5.447  -6.536  10.568  1.00  0.00    -0.275 OA
ATOM     47  N   UNL     1      -7.473  -5.588  10.183  1.00  0.00    -0.342 N 
ATOM     48  H   UNL     1      -8.252  -5.492   9.547  1.00  0.00     0.164 HD
BRANCH  47  49
ATOM     49  C   UNL     1      -7.268  -4.506  11.151  1.00  0.00     0.192 C 
BRANCH  49  50
ATOM     50  C   UNL     1      -8.141  -4.748  12.385  1.00  0.00     0.047 C 
BRANCH  50  51
ATOM     51  C   UNL     1      -9.161  -5.873  12.166  1.00  0.00     0.103 C 
BRANCH  51  52
ATOM     52  C   UNL     1     -10.529  -5.335  11.749  1.00  0.00     0.226 C 
ATOM     53  O   UNL     1     -10.712  -4.969  10.587  1.00  0.00    -0.275 OA
BRANCH  52  54
ATOM     54  N   UNL     1     -11.538  -5.363  12.729  1.00  0.00    -0.311 N 
ATOM     55  C   UNL     1     -12.520  -6.454  12.772  1.00  0.00     0.153 C 
BRANCH  54  56
ATOM     56  C   UNL     1     -11.641  -4.356  13.703  1.00  0.00     0.102 C 
ATOM     57  C   UNL     1     -11.489  -3.042  13.469  1.00  0.00     0.043 C 
BRANCH  56  58
ATOM     58  C   UNL     1     -11.990  -4.693  15.133  1.00  0.00     0.268 C 
ATOM     59  O   UNL     1     -11.154  -4.788  16.022  1.00  0.00    -0.268 OA
ATOM     60  N   UNL     1     -13.343  -4.818  15.345  1.00  0.00    -0.339 N 
ATOM     61  H   UNL     1     -13.969  -4.736  14.553  1.00  0.00     0.164 HD
BRANCH  60  62
ATOM     62  C   UNL     1     -13.903  -5.081  16.669  1.00  0.00     0.168 CG0
ATOM     63  C   UNL     1     -14.331  -6.537  16.803  1.00  0.00     0.041 C 
ATOM     64  G   UNL     1     -15.096  -4.136  16.923  1.00  0.00     0.000 G0
ENDBRANCH  60  62
ENDBRANCH  56  58
ENDBRANCH  54  56
ENDBRANCH  52  54
ENDBRANCH  51  52
ENDBRANCH  50  51
ENDBRANCH  49  50
BRANCH  49  65
ATOM     65  C   UNL     1      -7.608  -3.135  10.548  1.00  0.00     0.326 C 
ATOM     66  O   UNL     1      -7.128  -2.066  10.897  1.00  0.00    -0.250 OA
BRANCH  65  67
ATOM     67  O   UNL     1      -8.563  -3.160   9.592  1.00  0.00    -0.480 OA
ATOM     68  H   UNL     1      -8.131  -2.732   8.822  1.00  0.00     0.296 HD
ENDBRANCH  65  67
ENDBRANCH  49  65
ENDBRANCH  47  49
ENDBRANCH  43  45
ENDBRANCH   1  43
BRANCH   1  69
ATOM     69  C   UNL     1      -5.360  -8.549   6.896  1.00  0.00    -0.001 C 
ATOM     70  C   UNL     1      -5.485  -9.841   7.247  1.00  0.00     0.001 C 
BRANCH  70  71
ATOM     71  C   UNL     1      -4.883 -10.996   6.578  1.00  0.00    -0.055 C 
ATOM     72  C   UNL     1      -4.574 -10.873   5.270  1.00  0.00    -0.018 C 
ATOM     73  C   UNL     1      -4.645 -12.237   7.398  1.00  0.00     0.044 C 
BRANCH  72  74
ATOM     74  C   UNL     1      -3.945 -11.891   4.329  1.00  0.00     0.038 C 
ATOM     75  C   UNL     1      -2.428 -11.830   4.545  1.00  0.00     0.015 C 
BRANCH  74  76
ATOM     76  C   UNL     1      -4.411 -11.584   2.876  1.00  0.00     0.128 C 
BRANCH  76  77
ATOM     77  O   UNL     1      -5.246 -12.650   2.392  1.00  0.00    -0.381 OA
ATOM     78  C   UNL     1      -4.518 -13.774   1.917  1.00  0.00     0.195 C 
ENDBRANCH  76  77
BRANCH  76  79
ATOM     79  C   UNL     1      -5.062 -10.188   2.705  1.00  0.00     0.068 C 
BRANCH  79  80
ATOM     80  C   UNL     1      -4.206  -9.071   2.159  1.00  0.00    -0.045 A 
ATOM     81  C   UNL     1      -3.770  -9.080   0.828  1.00  0.00     0.004 A 
ATOM     82  C   UNL     1      -3.809  -8.013   2.992  1.00  0.00     0.004 A 
ATOM     83  C   UNL     1      -2.966  -8.049   0.335  1.00  0.00     0.000 A 
ATOM     84  C   UNL     1      -3.005  -6.984   2.498  1.00  0.00     0.000 A 
ATOM     85  C   UNL     1      -2.585  -7.001   1.170  1.00  0.00     0.000 A 
ENDBRANCH  79  80
ENDBRANCH  76  79
ENDBRANCH  74  76
ENDBRANCH  72  74
ENDBRANCH  70  71
ENDBRANCH   1  69
TORSDOF 17
ENDMDL
MODEL 14
REMARK VINA RESULT:    -6.689      4.168     10.681
REMARK INTER + INTRA:         -27.899
REMARK INTER:                 -18.887
REMARK INTRA:                  -9.012
REMARK UNBOUND:                -7.916
REMARK SMILES C=C1C(=O)N[C@H](C)C(=O)N[C@@H](CC(C)C)C(=O)N[C@@H](C(=O)O)[C@H](C)C(=O)N[C@@H](CCCN=C(N)N)C(=O)N[C@@H](/C=C/C(C)=C/[C@H](C)[C@H](Cc2ccccc2)OC)[C@H](C)C(=O)N[C@@H](C(=O)O)CCC(=O)N1C
REMARK SMILES IDX 39 1 38 2 37 3 36 4 28 6 27 7 25 8 26 9 23 11 24 12 19 13
REMARK SMILES IDX 18 14 16 15 17 16 11 18 10 19 8 20 9 21 12 24 13 25 14 26
REMARK SMILES IDX 15 27 20 28 21 29 22 30 29 32 30 33 31 34 32 35 33 36 34 37
REMARK SMILES IDX 35 38 57 43 58 44 59 45 60 46 61 47 62 49 66 50 67 51 68 52
REMARK SMILES IDX 69 53 70 54 71 55 2 56 1 57 3 58 4 59 5 60 6 62 7 63 63 65
REMARK SMILES IDX 64 66 65 67 40 69 41 70 42 71 44 72 43 73 45 74 46 75 47 76
REMARK SMILES IDX 55 77 56 78 48 79 49 80 50 81 54 82 51 83 53 84 52 85
REMARK H PARENT 38 5 27 10 18 17 10 22 22 31 34 39 34 40 35 41 35 42 61 48
REMARK H PARENT 5 61 65 68
REMARK Flexibility Score:  369.900
ROOT
ATOM      1  C   UNL     1      -1.504  -4.389   2.995  1.00  0.00     0.117 C 
ENDROOT
BRANCH   1   2
ATOM      2  N   UNL     1      -0.538  -3.332   2.692  1.00  0.00    -0.347 N 
ATOM      3  O   UNL     1      -2.036  -1.711   2.059  1.00  0.00    -0.273 OA
ATOM      4  C   UNL     1      -0.888  -2.044   2.335  1.00  0.00     0.243 C 
ATOM      5  H   UNL     1       0.448  -3.519   2.792  1.00  0.00     0.164 HD
BRANCH   4   6
ATOM      6  C   UNL     1       0.325  -1.096   2.154  1.00  0.00     0.171 C 
BRANCH   6   7
ATOM      7  N   UNL     1       1.168  -1.103   3.360  1.00  0.00    -0.344 N 
ATOM      8  C   UNL     1       1.174  -0.027   4.220  1.00  0.00     0.226 C 
ATOM      9  O   UNL     1       0.508   0.982   4.019  1.00  0.00    -0.275 OA
ATOM     10  H   UNL     1       1.783  -1.891   3.524  1.00  0.00     0.164 HD
BRANCH   8  11
ATOM     11  C   UNL     1       2.052  -0.209   5.445  1.00  0.00     0.109 C 
ATOM     12  C   UNL     1       1.802  -1.580   6.073  1.00  0.00     0.021 C 
BRANCH  11  13
ATOM     13  C   UNL     1       3.523   0.078   5.080  1.00  0.00     0.204 C 
BRANCH  13  14
ATOM     14  N   UNL     1       3.645   1.145   4.082  1.00  0.00    -0.340 N 
ATOM     15  C   UNL     1       4.508   1.072   3.010  1.00  0.00     0.243 C 
ATOM     16  O   UNL     1       5.195   0.078   2.781  1.00  0.00    -0.273 OA
ATOM     17  H   UNL     1       3.221   2.052   4.295  1.00  0.00     0.164 HD
BRANCH  15  18
ATOM     18  C   UNL     1       4.618   2.395   2.214  1.00  0.00     0.171 C 
BRANCH  18  19
ATOM     19  N   UNL     1       5.859   3.040   2.641  1.00  0.00    -0.343 N 
ATOM     20  C   UNL     1       5.884   4.346   3.089  1.00  0.00     0.242 CG0
ATOM     21  O   UNL     1       4.892   5.068   3.024  1.00  0.00    -0.273 OA
ATOM     22  H   UNL     1       6.728   2.519   2.604  1.00  0.00     0.164 HD
ATOM     23  G   UNL     1       7.269   4.827   3.571  1.00  0.00     0.000 G0
ENDBRANCH  18  19
BRANCH  18  24
ATOM     24  C   UNL     1       4.619   2.121   0.705  1.00  0.00     0.038 C 
BRANCH  24  25
ATOM     25  C   UNL     1       3.459   2.781  -0.071  1.00  0.00    -0.015 C 
ATOM     26  C   UNL     1       3.654   4.288  -0.243  1.00  0.00     0.007 C 
ATOM     27  C   UNL     1       2.137   2.511   0.651  1.00  0.00     0.007 C 
ENDBRANCH  24  25
ENDBRANCH  18  24
ENDBRANCH  15  18
ENDBRANCH  13  14
BRANCH  13  28
ATOM     28  C   UNL     1       4.376   0.483   6.285  1.00  0.00     0.327 C 
ATOM     29  O   UNL     1       4.544  -0.169   7.304  1.00  0.00    -0.250 OA
BRANCH  28  30
ATOM     30  O   UNL     1       4.871   1.734   6.186  1.00  0.00    -0.480 OA
ATOM     31  H   UNL     1       4.643   2.011   5.275  1.00  0.00     0.296 HD
ENDBRANCH  28  30
ENDBRANCH  13  28
ENDBRANCH  11  13
ENDBRANCH   8  11
ENDBRANCH   6   7
BRANCH   6  32
ATOM     32  C   UNL     1       1.126  -1.534   0.923  1.00  0.00     0.037 C 
BRANCH  32  33
ATOM     33  C   UNL     1       2.633  -1.603   1.207  1.00  0.00     0.026 C 
BRANCH  33  34
ATOM     34  C   UNL     1       3.270  -2.890   0.680  1.00  0.00     0.146 C 
BRANCH  34  35
ATOM     35  N   UNL     1       3.063  -3.950   1.656  1.00  0.00    -0.254 NA
ATOM     36  C   UNL     1       2.417  -4.997   1.299  1.00  0.00     0.185 C 
ATOM     37  N   UNL     1       2.225  -5.983   2.189  1.00  0.00    -0.370 N 
ATOM     38  N   UNL     1       1.869  -5.285   0.105  1.00  0.00    -0.370 N 
ATOM     39  H   UNL     1       2.618  -5.845   3.111  1.00  0.00     0.159 HD
ATOM     40  H   UNL     1       1.886  -6.897   1.942  1.00  0.00     0.159 HD
ATOM     41  H   UNL     1       1.264  -6.081  -0.013  1.00  0.00     0.159 HD
ATOM     42  H   UNL     1       1.922  -4.625  -0.656  1.00  0.00     0.159 HD
ENDBRANCH  34  35
ENDBRANCH  33  34
ENDBRANCH  32  33
ENDBRANCH   6  32
ENDBRANCH   4   6
ENDBRANCH   1   2
BRANCH   1  43
ATOM     43  C   UNL     1      -1.370  -4.766   4.498  1.00  0.00     0.102 C 
ATOM     44  C   UNL     1      -1.805  -3.641   5.453  1.00  0.00     0.020 C 
BRANCH  43  45
ATOM     45  C   UNL     1       0.019  -5.335   4.801  1.00  0.00     0.225 C 
ATOM     46  O   UNL     1       1.047  -4.666   4.739  1.00  0.00    -0.275 OA
ATOM     47  N   UNL     1       0.062  -6.686   5.060  1.00  0.00    -0.342 N 
ATOM     48  H   UNL     1      -0.794  -7.186   5.256  1.00  0.00     0.164 HD
BRANCH  47  49
ATOM     49  C   UNL     1       1.318  -7.361   5.401  1.00  0.00     0.192 C 
BRANCH  49  50
ATOM     50  C   UNL     1       1.362  -8.737   4.730  1.00  0.00     0.047 C 
BRANCH  50  51
ATOM     51  C   UNL     1       0.083  -9.038   3.937  1.00  0.00     0.103 C 
BRANCH  51  52
ATOM     52  C   UNL     1      -0.897  -9.897   4.734  1.00  0.00     0.226 C 
ATOM     53  O   UNL     1      -0.468 -10.694   5.571  1.00  0.00    -0.275 OA
BRANCH  52  54
ATOM     54  N   UNL     1      -2.266  -9.662   4.507  1.00  0.00    -0.311 N 
ATOM     55  C   UNL     1      -2.857  -8.341   4.758  1.00  0.00     0.153 C 
BRANCH  54  56
ATOM     56  C   UNL     1      -3.114 -10.675   4.029  1.00  0.00     0.102 C 
ATOM     57  C   UNL     1      -3.125 -11.135   2.767  1.00  0.00     0.043 C 
BRANCH  56  58
ATOM     58  C   UNL     1      -4.081 -11.376   4.953  1.00  0.00     0.268 C 
ATOM     59  O   UNL     1      -5.272 -11.505   4.702  1.00  0.00    -0.268 OA
ATOM     60  N   UNL     1      -3.476 -11.908   6.066  1.00  0.00    -0.339 N 
ATOM     61  H   UNL     1      -2.486 -11.748   6.206  1.00  0.00     0.164 HD
BRANCH  60  62
ATOM     62  C   UNL     1      -4.218 -12.682   7.061  1.00  0.00     0.168 CG0
ATOM     63  C   UNL     1      -4.135 -14.174   6.765  1.00  0.00     0.041 C 
ATOM     64  G   UNL     1      -5.687 -12.211   7.092  1.00  0.00     0.000 G0
ENDBRANCH  60  62
ENDBRANCH  56  58
ENDBRANCH  54  56
ENDBRANCH  52  54
ENDBRANCH  51  52
ENDBRANCH  50  51
ENDBRANCH  49  50
BRANCH  49  65
ATOM     65  C   UNL     1       1.476  -7.531   6.920  1.00  0.00     0.326 C 
ATOM     66  O   UNL     1       2.243  -6.898   7.630  1.00  0.00    -0.250 OA
BRANCH  65  67
ATOM     67  O   UNL     1       0.720  -8.514   7.459  1.00  0.00    -0.480 OA
ATOM     68  H   UNL     1      -0.171  -8.355   7.079  1.00  0.00     0.296 HD
ENDBRANCH  65  67
ENDBRANCH  49  65
ENDBRANCH  47  49
ENDBRANCH  43  45
ENDBRANCH   1  43
BRANCH   1  69
ATOM     69  C   UNL     1      -1.295  -5.466   1.947  1.00  0.00    -0.001 C 
ATOM     70  C   UNL     1      -2.085  -6.525   1.695  1.00  0.00     0.001 C 
BRANCH  70  71
ATOM     71  C   UNL     1      -1.884  -7.547   0.666  1.00  0.00    -0.055 C 
ATOM     72  C   UNL     1      -0.661  -8.108   0.569  1.00  0.00    -0.018 C 
ATOM     73  C   UNL     1      -3.059  -7.906  -0.207  1.00  0.00     0.044 C 
BRANCH  72  74
ATOM     74  C   UNL     1      -0.167  -9.183  -0.389  1.00  0.00     0.038 C 
ATOM     75  C   UNL     1      -0.481 -10.540   0.252  1.00  0.00     0.015 C 
BRANCH  74  76
ATOM     76  C   UNL     1       1.341  -8.934  -0.687  1.00  0.00     0.128 C 
BRANCH  76  77
ATOM     77  O   UNL     1       1.985  -8.378   0.472  1.00  0.00    -0.381 OA
ATOM     78  C   UNL     1       3.069  -9.162   0.954  1.00  0.00     0.195 C 
ENDBRANCH  76  77
BRANCH  76  79
ATOM     79  C   UNL     1       2.084 -10.172  -1.250  1.00  0.00     0.068 C 
BRANCH  79  80
ATOM     80  C   UNL     1       1.792 -10.586  -2.672  1.00  0.00    -0.045 A 
ATOM     81  C   UNL     1       2.162  -9.773  -3.751  1.00  0.00     0.004 A 
ATOM     82  C   UNL     1       1.115 -11.787  -2.933  1.00  0.00     0.004 A 
ATOM     83  C   UNL     1       1.876 -10.157  -5.063  1.00  0.00     0.000 A 
ATOM     84  C   UNL     1       0.828 -12.169  -4.246  1.00  0.00     0.000 A 
ATOM     85  C   UNL     1       1.210 -11.355  -5.310  1.00  0.00     0.000 A 
ENDBRANCH  79  80
ENDBRANCH  76  79
ENDBRANCH  74  76
ENDBRANCH  72  74
ENDBRANCH  70  71
ENDBRANCH   1  69
TORSDOF 17
ENDMDL
MODEL 15
REMARK VINA RESULT:    -6.670      4.552     10.575
REMARK INTER + INTRA:         -27.843
REMARK INTER:                 -19.156
REMARK INTRA:                  -8.687
REMARK UNBOUND:                -7.916
REMARK SMILES C=C1C(=O)N[C@H](C)C(=O)N[C@@H](CC(C)C)C(=O)N[C@@H](C(=O)O)[C@H](C)C(=O)N[C@@H](CCCN=C(N)N)C(=O)N[C@@H](/C=C/C(C)=C/[C@H](C)[C@H](Cc2ccccc2)OC)[C@H](C)C(=O)N[C@@H](C(=O)O)CCC(=O)N1C
REMARK SMILES IDX 39 1 38 2 37 3 36 4 28 6 27 7 25 8 26 9 23 11 24 12 19 13
REMARK SMILES IDX 18 14 16 15 17 16 11 18 10 19 8 20 9 21 12 24 13 25 14 26
REMARK SMILES IDX 15 27 20 28 21 29 22 30 29 32 30 33 31 34 32 35 33 36 34 37
REMARK SMILES IDX 35 38 57 43 58 44 59 45 60 46 61 47 62 49 66 50 67 51 68 52
REMARK SMILES IDX 69 53 70 54 71 55 2 56 1 57 3 58 4 59 5 60 6 62 7 63 63 65
REMARK SMILES IDX 64 66 65 67 40 69 41 70 42 71 44 72 43 73 45 74 46 75 47 76
REMARK SMILES IDX 55 77 56 78 48 79 49 80 50 81 54 82 51 83 53 84 52 85
REMARK H PARENT 38 5 27 10 18 17 10 22 22 31 34 39 34 40 35 41 35 42 61 48
REMARK H PARENT 5 61 65 68
REMARK Flexibility Score:  369.900
ROOT
ATOM      1  C   UNL     1      -0.560  -4.041   4.450  1.00  0.00     0.117 C 
ENDROOT
BRANCH   1   2
ATOM      2  N   UNL     1      -1.026  -5.417   4.278  1.00  0.00    -0.347 N 
ATOM      3  O   UNL     1      -1.728  -5.783   6.433  1.00  0.00    -0.273 OA
ATOM      4  C   UNL     1      -1.659  -6.149   5.264  1.00  0.00     0.243 C 
ATOM      5  H   UNL     1      -0.934  -5.861   3.377  1.00  0.00     0.164 HD
BRANCH   4   6
ATOM      6  C   UNL     1      -2.129  -7.550   4.797  1.00  0.00     0.171 C 
BRANCH   6   7
ATOM      7  N   UNL     1      -1.936  -7.699   3.345  1.00  0.00    -0.344 N 
ATOM      8  C   UNL     1      -3.018  -7.742   2.494  1.00  0.00     0.226 C 
ATOM      9  O   UNL     1      -4.175  -7.683   2.893  1.00  0.00    -0.275 OA
ATOM     10  H   UNL     1      -0.998  -7.819   2.985  1.00  0.00     0.164 HD
BRANCH   8  11
ATOM     11  C   UNL     1      -2.653  -7.844   1.023  1.00  0.00     0.109 C 
ATOM     12  C   UNL     1      -1.329  -7.127   0.759  1.00  0.00     0.021 C 
BRANCH  11  13
ATOM     13  C   UNL     1      -2.692  -9.319   0.577  1.00  0.00     0.204 C 
BRANCH  13  14
ATOM     14  N   UNL     1      -3.350 -10.177   1.566  1.00  0.00    -0.340 N 
ATOM     15  C   UNL     1      -2.701 -11.206   2.215  1.00  0.00     0.243 C 
ATOM     16  O   UNL     1      -1.504 -11.437   2.052  1.00  0.00    -0.273 OA
ATOM     17  H   UNL     1      -4.371 -10.137   1.635  1.00  0.00     0.164 HD
BRANCH  15  18
ATOM     18  C   UNL     1      -3.645 -12.102   3.054  1.00  0.00     0.171 C 
BRANCH  18  19
ATOM     19  N   UNL     1      -3.586 -13.438   2.465  1.00  0.00    -0.343 N 
ATOM     20  C   UNL     1      -4.171 -13.724   1.246  1.00  0.00     0.242 CG0
ATOM     21  O   UNL     1      -4.879 -12.905   0.665  1.00  0.00    -0.273 OA
ATOM     22  H   UNL     1      -3.109 -14.181   2.963  1.00  0.00     0.164 HD
ATOM     23  G   UNL     1      -3.937 -15.166   0.750  1.00  0.00     0.000 G0
ENDBRANCH  18  19
BRANCH  18  24
ATOM     24  C   UNL     1      -3.211 -12.117   4.525  1.00  0.00     0.038 C 
BRANCH  24  25
ATOM     25  C   UNL     1      -3.807 -10.981   5.383  1.00  0.00    -0.015 C 
ATOM     26  C   UNL     1      -3.760 -11.293   6.879  1.00  0.00     0.007 C 
ATOM     27  C   UNL     1      -5.254 -10.718   4.957  1.00  0.00     0.007 C 
ENDBRANCH  24  25
ENDBRANCH  18  24
ENDBRANCH  15  18
ENDBRANCH  13  14
BRANCH  13  28
ATOM     28  C   UNL     1      -3.416  -9.527  -0.757  1.00  0.00     0.327 C 
ATOM     29  O   UNL     1      -4.504 -10.060  -0.914  1.00  0.00    -0.250 OA
BRANCH  28  30
ATOM     30  O   UNL     1      -2.676  -9.161  -1.823  1.00  0.00    -0.480 OA
ATOM     31  H   UNL     1      -1.919  -8.674  -1.435  1.00  0.00     0.296 HD
ENDBRANCH  28  30
ENDBRANCH  13  28
ENDBRANCH  11  13
ENDBRANCH   8  11
ENDBRANCH   6   7
BRANCH   6  32
ATOM     32  C   UNL     1      -1.351  -8.624   5.565  1.00  0.00     0.037 C 
BRANCH  32  33
ATOM     33  C   UNL     1      -0.337  -9.355   4.674  1.00  0.00     0.026 C 
BRANCH  33  34
ATOM     34  C   UNL     1       1.104  -9.165   5.149  1.00  0.00     0.146 C 
BRANCH  34  35
ATOM     35  N   UNL     1       1.088  -8.774   6.552  1.00  0.00    -0.254 NA
ATOM     36  C   UNL     1       1.511  -7.607   6.870  1.00  0.00     0.185 C 
ATOM     37  N   UNL     1       1.496  -7.235   8.159  1.00  0.00    -0.370 N 
ATOM     38  N   UNL     1       1.994  -6.638   6.073  1.00  0.00    -0.370 N 
ATOM     39  H   UNL     1       1.135  -7.909   8.822  1.00  0.00     0.159 HD
ATOM     40  H   UNL     1       1.644  -6.289   8.466  1.00  0.00     0.159 HD
ATOM     41  H   UNL     1       2.426  -5.814   6.458  1.00  0.00     0.159 HD
ATOM     42  H   UNL     1       2.078  -6.786   5.079  1.00  0.00     0.159 HD
ENDBRANCH  34  35
ENDBRANCH  33  34
ENDBRANCH  32  33
ENDBRANCH   6  32
ENDBRANCH   4   6
ENDBRANCH   1   2
BRANCH   1  43
ATOM     43  C   UNL     1      -1.671  -3.075   3.945  1.00  0.00     0.102 C 
ATOM     44  C   UNL     1      -1.271  -2.288   2.685  1.00  0.00     0.020 C 
BRANCH  43  45
ATOM     45  C   UNL     1      -2.198  -2.198   5.084  1.00  0.00     0.225 C 
ATOM     46  O   UNL     1      -1.931  -1.005   5.191  1.00  0.00    -0.275 OA
ATOM     47  N   UNL     1      -2.925  -2.855   6.050  1.00  0.00    -0.342 N 
ATOM     48  H   UNL     1      -3.262  -3.791   5.872  1.00  0.00     0.164 HD
BRANCH  47  49
ATOM     49  C   UNL     1      -3.522  -2.138   7.181  1.00  0.00     0.192 C 
BRANCH  49  50
ATOM     50  C   UNL     1      -3.194  -2.869   8.485  1.00  0.00     0.047 C 
BRANCH  50  51
ATOM     51  C   UNL     1      -1.686  -3.080   8.671  1.00  0.00     0.103 C 
BRANCH  51  52
ATOM     52  C   UNL     1      -0.999  -1.838   9.236  1.00  0.00     0.226 C 
ATOM     53  O   UNL     1      -1.126  -1.561  10.431  1.00  0.00    -0.275 OA
BRANCH  52  54
ATOM     54  N   UNL     1      -0.182  -1.114   8.348  1.00  0.00    -0.311 N 
ATOM     55  C   UNL     1       0.689  -1.805   7.388  1.00  0.00     0.153 C 
BRANCH  54  56
ATOM     56  C   UNL     1      -0.173   0.291   8.341  1.00  0.00     0.102 C 
ATOM     57  C   UNL     1      -1.014   1.062   7.632  1.00  0.00     0.043 C 
BRANCH  56  58
ATOM     58  C   UNL     1       0.797   1.064   9.204  1.00  0.00     0.268 C 
ATOM     59  O   UNL     1       1.871   1.481   8.795  1.00  0.00    -0.268 OA
ATOM     60  N   UNL     1       0.319   1.305  10.471  1.00  0.00    -0.339 N 
ATOM     61  H   UNL     1      -0.577   0.915  10.736  1.00  0.00     0.164 HD
BRANCH  60  62
ATOM     62  C   UNL     1       1.070   2.089  11.450  1.00  0.00     0.168 CG0
ATOM     63  C   UNL     1       0.371   2.088  12.804  1.00  0.00     0.041 C 
ATOM     64  G   UNL     1       1.250   3.530  10.929  1.00  0.00     0.000 G0
ENDBRANCH  60  62
ENDBRANCH  56  58
ENDBRANCH  54  56
ENDBRANCH  52  54
ENDBRANCH  51  52
ENDBRANCH  50  51
ENDBRANCH  49  50
BRANCH  49  65
ATOM     65  C   UNL     1      -5.047  -2.018   7.034  1.00  0.00     0.326 C 
ATOM     66  O   UNL     1      -5.865  -2.846   7.409  1.00  0.00    -0.250 OA
BRANCH  65  67
ATOM     67  O   UNL     1      -5.465  -0.912   6.380  1.00  0.00    -0.480 OA
ATOM     68  H   UNL     1      -6.439  -0.923   6.505  1.00  0.00     0.296 HD
ENDBRANCH  65  67
ENDBRANCH  49  65
ENDBRANCH  47  49
ENDBRANCH  43  45
ENDBRANCH   1  43
BRANCH   1  69
ATOM     69  C   UNL     1       0.815  -3.975   3.812  1.00  0.00    -0.001 C 
ATOM     70  C   UNL     1       1.956  -3.538   4.373  1.00  0.00     0.001 C 
BRANCH  70  71
ATOM     71  C   UNL     1       3.282  -3.500   3.753  1.00  0.00    -0.055 C 
ATOM     72  C   UNL     1       3.364  -3.091   2.469  1.00  0.00    -0.018 C 
ATOM     73  C   UNL     1       4.463  -3.911   4.594  1.00  0.00     0.044 C 
BRANCH  72  74
ATOM     74  C   UNL     1       4.590  -2.949   1.580  1.00  0.00     0.038 C 
ATOM     75  C   UNL     1       4.511  -1.569   0.917  1.00  0.00     0.015 C 
BRANCH  74  76
ATOM     76  C   UNL     1       4.631  -4.149   0.587  1.00  0.00     0.128 C 
BRANCH  76  77
ATOM     77  O   UNL     1       5.584  -5.126   1.038  1.00  0.00    -0.381 OA
ATOM     78  C   UNL     1       6.735  -4.561   1.652  1.00  0.00     0.195 C 
ENDBRANCH  76  77
BRANCH  76  79
ATOM     79  C   UNL     1       3.241  -4.762   0.284  1.00  0.00     0.068 C 
BRANCH  79  80
ATOM     80  C   UNL     1       3.005  -6.203   0.667  1.00  0.00    -0.045 A 
ATOM     81  C   UNL     1       2.244  -6.535   1.796  1.00  0.00     0.004 A 
ATOM     82  C   UNL     1       3.573  -7.238  -0.091  1.00  0.00     0.004 A 
ATOM     83  C   UNL     1       2.042  -7.870   2.151  1.00  0.00     0.000 A 
ATOM     84  C   UNL     1       3.371  -8.573   0.266  1.00  0.00     0.000 A 
ATOM     85  C   UNL     1       2.604  -8.889   1.386  1.00  0.00     0.000 A 
ENDBRANCH  79  80
ENDBRANCH  76  79
ENDBRANCH  74  76
ENDBRANCH  72  74
ENDBRANCH  70  71
ENDBRANCH   1  69
TORSDOF 17
ENDMDL
MODEL 16
REMARK VINA RESULT:    -6.657      4.293     11.880
REMARK INTER + INTRA:         -27.805
REMARK INTER:                 -18.415
REMARK INTRA:                  -9.390
REMARK UNBOUND:                -7.916
REMARK SMILES C=C1C(=O)N[C@H](C)C(=O)N[C@@H](CC(C)C)C(=O)N[C@@H](C(=O)O)[C@H](C)C(=O)N[C@@H](CCCN=C(N)N)C(=O)N[C@@H](/C=C/C(C)=C/[C@H](C)[C@H](Cc2ccccc2)OC)[C@H](C)C(=O)N[C@@H](C(=O)O)CCC(=O)N1C
REMARK SMILES IDX 39 1 38 2 37 3 36 4 28 6 27 7 25 8 26 9 23 11 24 12 19 13
REMARK SMILES IDX 18 14 16 15 17 16 11 18 10 19 8 20 9 21 12 24 13 25 14 26
REMARK SMILES IDX 15 27 20 28 21 29 22 30 29 32 30 33 31 34 32 35 33 36 34 37
REMARK SMILES IDX 35 38 57 43 58 44 59 45 60 46 61 47 62 49 66 50 67 51 68 52
REMARK SMILES IDX 69 53 70 54 71 55 2 56 1 57 3 58 4 59 5 60 6 62 7 63 63 65
REMARK SMILES IDX 64 66 65 67 40 69 41 70 42 71 44 72 43 73 45 74 46 75 47 76
REMARK SMILES IDX 55 77 56 78 48 79 49 80 50 81 54 82 51 83 53 84 52 85
REMARK H PARENT 38 5 27 10 18 17 10 22 22 31 34 39 34 40 35 41 35 42 61 48
REMARK H PARENT 5 61 65 68
REMARK Flexibility Score:  369.900
ROOT
ATOM      1  C   UNL     1      -3.128  -5.411   7.599  1.00  0.00     0.117 C 
ENDROOT
BRANCH   1   2
ATOM      2  N   UNL     1      -3.380  -5.792   6.209  1.00  0.00    -0.347 N 
ATOM      3  O   UNL     1      -1.393  -6.873   5.816  1.00  0.00    -0.273 OA
ATOM      4  C   UNL     1      -2.527  -6.575   5.455  1.00  0.00     0.243 C 
ATOM      5  H   UNL     1      -4.246  -5.519   5.771  1.00  0.00     0.164 HD
BRANCH   4   6
ATOM      6  C   UNL     1      -3.070  -6.905   4.042  1.00  0.00     0.171 C 
BRANCH   6   7
ATOM      7  N   UNL     1      -2.103  -7.729   3.299  1.00  0.00    -0.344 N 
ATOM      8  C   UNL     1      -1.355  -7.186   2.278  1.00  0.00     0.226 C 
ATOM      9  O   UNL     1      -1.468  -6.018   1.926  1.00  0.00    -0.275 OA
ATOM     10  H   UNL     1      -2.031  -8.716   3.516  1.00  0.00     0.164 HD
BRANCH   8  11
ATOM     11  C   UNL     1      -0.365  -8.149   1.647  1.00  0.00     0.109 C 
ATOM     12  C   UNL     1      -0.377  -7.995   0.126  1.00  0.00     0.021 C 
BRANCH  11  13
ATOM     13  C   UNL     1       1.019  -7.980   2.304  1.00  0.00     0.204 C 
BRANCH  13  14
ATOM     14  N   UNL     1       1.459  -6.581   2.312  1.00  0.00    -0.340 N 
ATOM     15  C   UNL     1       2.461  -6.107   1.494  1.00  0.00     0.243 C 
ATOM     16  O   UNL     1       3.018  -6.812   0.655  1.00  0.00    -0.273 OA
ATOM     17  H   UNL     1       1.148  -5.984   3.083  1.00  0.00     0.164 HD
BRANCH  15  18
ATOM     18  C   UNL     1       2.895  -4.657   1.823  1.00  0.00     0.171 C 
BRANCH  18  19
ATOM     19  N   UNL     1       3.239  -4.024   0.552  1.00  0.00    -0.343 N 
ATOM     20  C   UNL     1       4.518  -3.575   0.284  1.00  0.00     0.242 CG0
ATOM     21  O   UNL     1       5.391  -3.565   1.149  1.00  0.00    -0.273 OA
ATOM     22  H   UNL     1       2.522  -3.904  -0.154  1.00  0.00     0.164 HD
ATOM     23  G   UNL     1       4.709  -3.008  -1.138  1.00  0.00     0.000 G0
ENDBRANCH  18  19
BRANCH  18  24
ATOM     24  C   UNL     1       1.767  -3.904   2.539  1.00  0.00     0.038 C 
BRANCH  24  25
ATOM     25  C   UNL     1       1.872  -3.897   4.079  1.00  0.00    -0.015 C 
ATOM     26  C   UNL     1       0.529  -4.165   4.758  1.00  0.00     0.007 C 
ATOM     27  C   UNL     1       2.428  -2.551   4.551  1.00  0.00     0.007 C 
ENDBRANCH  24  25
ENDBRANCH  18  24
ENDBRANCH  15  18
ENDBRANCH  13  14
BRANCH  13  28
ATOM     28  C   UNL     1       1.065  -8.478   3.752  1.00  0.00     0.327 C 
ATOM     29  O   UNL     1       0.624  -9.539   4.165  1.00  0.00    -0.250 OA
BRANCH  28  30
ATOM     30  O   UNL     1       1.555  -7.561   4.611  1.00  0.00    -0.480 OA
ATOM     31  H   UNL     1       2.000  -8.093   5.304  1.00  0.00     0.296 HD
ENDBRANCH  28  30
ENDBRANCH  13  28
ENDBRANCH  11  13
ENDBRANCH   8  11
ENDBRANCH   6   7
BRANCH   6  32
ATOM     32  C   UNL     1      -4.416  -7.626   4.175  1.00  0.00     0.037 C 
BRANCH  32  33
ATOM     33  C   UNL     1      -4.522  -8.833   3.232  1.00  0.00     0.026 C 
BRANCH  33  34
ATOM     34  C   UNL     1      -4.624 -10.159   3.987  1.00  0.00     0.146 C 
BRANCH  34  35
ATOM     35  N   UNL     1      -3.308 -10.781   4.023  1.00  0.00    -0.254 NA
ATOM     36  C   UNL     1      -2.634 -10.731   5.112  1.00  0.00     0.185 C 
ATOM     37  N   UNL     1      -1.422 -11.306   5.157  1.00  0.00    -0.370 N 
ATOM     38  N   UNL     1      -2.966 -10.164   6.285  1.00  0.00    -0.370 N 
ATOM     39  H   UNL     1      -1.105 -11.765   4.313  1.00  0.00     0.159 HD
ATOM     40  H   UNL     1      -0.912 -11.461   6.010  1.00  0.00     0.159 HD
ATOM     41  H   UNL     1      -2.291 -10.070   7.027  1.00  0.00     0.159 HD
ATOM     42  H   UNL     1      -3.844  -9.680   6.391  1.00  0.00     0.159 HD
ENDBRANCH  34  35
ENDBRANCH  33  34
ENDBRANCH  32  33
ENDBRANCH   6  32
ENDBRANCH   4   6
ENDBRANCH   1   2
BRANCH   1  43
ATOM     43  C   UNL     1      -4.496  -5.228   8.319  1.00  0.00     0.102 C 
ATOM     44  C   UNL     1      -4.414  -5.410   9.844  1.00  0.00     0.020 C 
BRANCH  43  45
ATOM     45  C   UNL     1      -5.586  -6.071   7.650  1.00  0.00     0.225 C 
ATOM     46  O   UNL     1      -6.168  -5.723   6.626  1.00  0.00    -0.275 OA
ATOM     47  N   UNL     1      -5.947  -7.215   8.323  1.00  0.00    -0.342 N 
ATOM     48  H   UNL     1      -5.362  -7.561   9.071  1.00  0.00     0.164 HD
BRANCH  47  49
ATOM     49  C   UNL     1      -6.952  -8.136   7.784  1.00  0.00     0.192 C 
BRANCH  49  50
ATOM     50  C   UNL     1      -8.323  -7.809   8.381  1.00  0.00     0.047 C 
BRANCH  50  51
ATOM     51  C   UNL     1      -8.251  -6.685   9.424  1.00  0.00     0.103 C 
BRANCH  51  52
ATOM     52  C   UNL     1      -8.944  -5.412   8.943  1.00  0.00     0.226 C 
ATOM     53  O   UNL     1      -9.537  -5.410   7.863  1.00  0.00    -0.275 OA
BRANCH  52  54
ATOM     54  N   UNL     1      -8.923  -4.316   9.826  1.00  0.00    -0.311 N 
ATOM     55  C   UNL     1      -7.695  -3.537  10.034  1.00  0.00     0.153 C 
BRANCH  54  56
ATOM     56  C   UNL     1     -10.071  -3.923  10.534  1.00  0.00     0.102 C 
ATOM     57  C   UNL     1     -10.166  -3.866  11.872  1.00  0.00     0.043 C 
BRANCH  56  58
ATOM     58  C   UNL     1     -11.316  -3.476   9.804  1.00  0.00     0.268 C 
ATOM     59  O   UNL     1     -11.469  -2.340   9.376  1.00  0.00    -0.268 OA
ATOM     60  N   UNL     1     -12.225  -4.490   9.615  1.00  0.00    -0.339 N 
ATOM     61  H   UNL     1     -12.027  -5.401  10.011  1.00  0.00     0.164 HD
BRANCH  60  62
ATOM     62  C   UNL     1     -13.471  -4.291   8.878  1.00  0.00     0.168 CG0
ATOM     63  C   UNL     1     -13.303  -4.659   7.409  1.00  0.00     0.041 C 
ATOM     64  G   UNL     1     -13.930  -2.825   9.024  1.00  0.00     0.000 G0
ENDBRANCH  60  62
ENDBRANCH  56  58
ENDBRANCH  54  56
ENDBRANCH  52  54
ENDBRANCH  51  52
ENDBRANCH  50  51
ENDBRANCH  49  50
BRANCH  49  65
ATOM     65  C   UNL     1      -6.600  -9.601   8.090  1.00  0.00     0.326 C 
ATOM     66  O   UNL     1      -7.130 -10.295   8.945  1.00  0.00    -0.250 OA
BRANCH  65  67
ATOM     67  O   UNL     1      -5.574 -10.098   7.364  1.00  0.00    -0.480 OA
ATOM     68  H   UNL     1      -5.445  -9.428   6.658  1.00  0.00     0.296 HD
ENDBRANCH  65  67
ENDBRANCH  49  65
ENDBRANCH  47  49
ENDBRANCH  43  45
ENDBRANCH   1  43
BRANCH   1  69
ATOM     69  C   UNL     1      -2.163  -4.240   7.549  1.00  0.00    -0.001 C 
ATOM     70  C   UNL     1      -1.046  -4.071   8.278  1.00  0.00     0.001 C 
BRANCH  70  71
ATOM     71  C   UNL     1      -0.111  -2.946   8.206  1.00  0.00    -0.055 C 
ATOM     72  C   UNL     1      -0.628  -1.700   8.193  1.00  0.00    -0.018 C 
ATOM     73  C   UNL     1       1.362  -3.259   8.159  1.00  0.00     0.044 C 
BRANCH  72  74
ATOM     74  C   UNL     1       0.090  -0.359   8.127  1.00  0.00     0.038 C 
ATOM     75  C   UNL     1      -0.006   0.275   9.520  1.00  0.00     0.015 C 
BRANCH  74  76
ATOM     76  C   UNL     1      -0.534   0.488   6.979  1.00  0.00     0.128 C 
BRANCH  76  77
ATOM     77  O   UNL     1      -0.644   1.862   7.387  1.00  0.00    -0.381 OA
ATOM     78  C   UNL     1      -0.897   2.758   6.313  1.00  0.00     0.195 C 
ENDBRANCH  76  77
BRANCH  76  79
ATOM     79  C   UNL     1       0.181   0.323   5.615  1.00  0.00     0.068 C 
BRANCH  79  80
ATOM     80  C   UNL     1      -0.527  -0.459   4.535  1.00  0.00    -0.045 A 
ATOM     81  C   UNL     1      -0.167  -0.319   3.188  1.00  0.00     0.004 A 
ATOM     82  C   UNL     1      -1.584  -1.321   4.864  1.00  0.00     0.004 A 
ATOM     83  C   UNL     1      -0.836  -1.035   2.194  1.00  0.00     0.000 A 
ATOM     84  C   UNL     1      -2.253  -2.036   3.868  1.00  0.00     0.000 A 
ATOM     85  C   UNL     1      -1.879  -1.894   2.534  1.00  0.00     0.000 A 
ENDBRANCH  79  80
ENDBRANCH  76  79
ENDBRANCH  74  76
ENDBRANCH  72  74
ENDBRANCH  70  71
ENDBRANCH   1  69
TORSDOF 17
ENDMDL
MODEL 17
REMARK VINA RESULT:    -6.641      3.329     11.835
REMARK INTER + INTRA:         -27.755
REMARK INTER:                 -19.804
REMARK INTRA:                  -7.951
REMARK UNBOUND:                -7.916
REMARK SMILES C=C1C(=O)N[C@H](C)C(=O)N[C@@H](CC(C)C)C(=O)N[C@@H](C(=O)O)[C@H](C)C(=O)N[C@@H](CCCN=C(N)N)C(=O)N[C@@H](/C=C/C(C)=C/[C@H](C)[C@H](Cc2ccccc2)OC)[C@H](C)C(=O)N[C@@H](C(=O)O)CCC(=O)N1C
REMARK SMILES IDX 39 1 38 2 37 3 36 4 28 6 27 7 25 8 26 9 23 11 24 12 19 13
REMARK SMILES IDX 18 14 16 15 17 16 11 18 10 19 8 20 9 21 12 24 13 25 14 26
REMARK SMILES IDX 15 27 20 28 21 29 22 30 29 32 30 33 31 34 32 35 33 36 34 37
REMARK SMILES IDX 35 38 57 43 58 44 59 45 60 46 61 47 62 49 66 50 67 51 68 52
REMARK SMILES IDX 69 53 70 54 71 55 2 56 1 57 3 58 4 59 5 60 6 62 7 63 63 65
REMARK SMILES IDX 64 66 65 67 40 69 41 70 42 71 44 72 43 73 45 74 46 75 47 76
REMARK SMILES IDX 55 77 56 78 48 79 49 80 50 81 54 82 51 83 53 84 52 85
REMARK H PARENT 38 5 27 10 18 17 10 22 22 31 34 39 34 40 35 41 35 42 61 48
REMARK H PARENT 5 61 65 68
REMARK Flexibility Score:  369.900
ROOT
ATOM      1  C   UNL     1      -1.919  -6.754   4.659  1.00  0.00     0.117 C 
ENDROOT
BRANCH   1   2
ATOM      2  N   UNL     1      -1.839  -6.750   3.198  1.00  0.00    -0.347 N 
ATOM      3  O   UNL     1      -0.935  -8.843   2.928  1.00  0.00    -0.273 OA
ATOM      4  C   UNL     1      -1.437  -7.834   2.443  1.00  0.00     0.243 C 
ATOM      5  H   UNL     1      -2.137  -5.932   2.689  1.00  0.00     0.164 HD
BRANCH   4   6
ATOM      6  C   UNL     1      -1.525  -7.596   0.914  1.00  0.00     0.171 C 
BRANCH   6   7
ATOM      7  N   UNL     1      -0.750  -8.616   0.189  1.00  0.00    -0.344 N 
ATOM      8  C   UNL     1       0.485  -8.315  -0.342  1.00  0.00     0.226 C 
ATOM      9  O   UNL     1       0.985  -7.199  -0.259  1.00  0.00    -0.275 OA
ATOM     10  H   UNL     1      -1.160  -9.530   0.042  1.00  0.00     0.164 HD
BRANCH   8  11
ATOM     11  C   UNL     1       1.181  -9.487  -1.011  1.00  0.00     0.109 C 
ATOM     12  C   UNL     1       0.410 -10.779  -0.743  1.00  0.00     0.021 C 
BRANCH  11  13
ATOM     13  C   UNL     1       1.418  -9.170  -2.502  1.00  0.00     0.204 C 
BRANCH  13  14
ATOM     14  N   UNL     1       1.167 -10.333  -3.359  1.00  0.00    -0.340 N 
ATOM     15  C   UNL     1       1.616 -10.414  -4.659  1.00  0.00     0.243 C 
ATOM     16  O   UNL     1       2.313  -9.541  -5.174  1.00  0.00    -0.273 OA
ATOM     17  H   UNL     1       0.473 -11.018  -3.048  1.00  0.00     0.164 HD
BRANCH  15  18
ATOM     18  C   UNL     1       1.056 -11.634  -5.432  1.00  0.00     0.171 C 
BRANCH  18  19
ATOM     19  N   UNL     1       1.446 -11.459  -6.829  1.00  0.00    -0.343 N 
ATOM     20  C   UNL     1       0.534 -11.096  -7.801  1.00  0.00     0.242 CG0
ATOM     21  O   UNL     1      -0.670 -11.033  -7.561  1.00  0.00    -0.273 OA
ATOM     22  H   UNL     1       2.411 -11.614  -7.100  1.00  0.00     0.164 HD
ATOM     23  G   UNL     1       1.145 -10.883  -9.201  1.00  0.00     0.000 G0
ENDBRANCH  18  19
BRANCH  18  24
ATOM     24  C   UNL     1       1.610 -12.942  -4.853  1.00  0.00     0.038 C 
BRANCH  24  25
ATOM     25  C   UNL     1       0.536 -13.978  -4.459  1.00  0.00    -0.015 C 
ATOM     26  C   UNL     1      -0.829 -13.668  -5.074  1.00  0.00     0.007 C 
ATOM     27  C   UNL     1       0.413 -14.038  -2.935  1.00  0.00     0.007 C 
ENDBRANCH  24  25
ENDBRANCH  18  24
ENDBRANCH  15  18
ENDBRANCH  13  14
BRANCH  13  28
ATOM     28  C   UNL     1       0.544  -8.025  -3.022  1.00  0.00     0.327 C 
ATOM     29  O   UNL     1      -0.671  -8.045  -3.153  1.00  0.00    -0.250 OA
BRANCH  28  30
ATOM     30  O   UNL     1       1.260  -6.968  -3.456  1.00  0.00    -0.480 OA
ATOM     31  H   UNL     1       2.183  -7.296  -3.482  1.00  0.00     0.296 HD
ENDBRANCH  28  30
ENDBRANCH  13  28
ENDBRANCH  11  13
ENDBRANCH   8  11
ENDBRANCH   6   7
BRANCH   6  32
ATOM     32  C   UNL     1      -2.996  -7.618   0.485  1.00  0.00     0.037 C 
BRANCH  32  33
ATOM     33  C   UNL     1      -3.274  -8.693  -0.575  1.00  0.00     0.026 C 
BRANCH  33  34
ATOM     34  C   UNL     1      -4.062  -9.878  -0.015  1.00  0.00     0.146 C 
BRANCH  34  35
ATOM     35  N   UNL     1      -3.286 -10.495   1.052  1.00  0.00    -0.254 NA
ATOM     36  C   UNL     1      -3.842 -10.676   2.191  1.00  0.00     0.185 C 
ATOM     37  N   UNL     1      -3.138 -11.249   3.180  1.00  0.00    -0.370 N 
ATOM     38  N   UNL     1      -5.092 -10.367   2.579  1.00  0.00    -0.370 N 
ATOM     39  H   UNL     1      -2.188 -11.520   2.962  1.00  0.00     0.159 HD
ATOM     40  H   UNL     1      -3.549 -11.580   4.036  1.00  0.00     0.159 HD
ATOM     41  H   UNL     1      -5.369 -10.432   3.545  1.00  0.00     0.159 HD
ATOM     42  H   UNL     1      -5.730  -9.916   1.942  1.00  0.00     0.159 HD
ENDBRANCH  34  35
ENDBRANCH  33  34
ENDBRANCH  32  33
ENDBRANCH   6  32
ENDBRANCH   4   6
ENDBRANCH   1   2
BRANCH   1  43
ATOM     43  C   UNL     1      -3.347  -6.299   5.078  1.00  0.00     0.102 C 
ATOM     44  C   UNL     1      -3.371  -5.483   6.382  1.00  0.00     0.020 C 
BRANCH  43  45
ATOM     45  C   UNL     1      -4.325  -7.478   5.064  1.00  0.00     0.225 C 
ATOM     46  O   UNL     1      -4.902  -7.859   4.050  1.00  0.00    -0.275 OA
ATOM     47  N   UNL     1      -4.598  -8.036   6.292  1.00  0.00    -0.342 N 
ATOM     48  H   UNL     1      -4.009  -7.816   7.083  1.00  0.00     0.164 HD
BRANCH  47  49
ATOM     49  C   UNL     1      -5.488  -9.193   6.427  1.00  0.00     0.192 C 
BRANCH  49  50
ATOM     50  C   UNL     1      -5.962  -9.310   7.878  1.00  0.00     0.047 C 
BRANCH  50  51
ATOM     51  C   UNL     1      -7.342  -8.674   8.093  1.00  0.00     0.103 C 
BRANCH  51  52
ATOM     52  C   UNL     1      -7.238  -7.218   8.543  1.00  0.00     0.226 C 
ATOM     53  O   UNL     1      -6.162  -6.625   8.446  1.00  0.00    -0.275 OA
BRANCH  52  54
ATOM     54  N   UNL     1      -8.430  -6.611   8.981  1.00  0.00    -0.311 N 
ATOM     55  C   UNL     1      -9.720  -6.948   8.367  1.00  0.00     0.153 C 
BRANCH  54  56
ATOM     56  C   UNL     1      -8.431  -5.667  10.022  1.00  0.00     0.102 C 
ATOM     57  C   UNL     1      -8.493  -5.966  11.330  1.00  0.00     0.043 C 
BRANCH  56  58
ATOM     58  C   UNL     1      -8.313  -4.190   9.729  1.00  0.00     0.268 C 
ATOM     59  O   UNL     1      -9.277  -3.475   9.489  1.00  0.00    -0.268 OA
ATOM     60  N   UNL     1      -7.024  -3.722   9.824  1.00  0.00    -0.339 N 
ATOM     61  H   UNL     1      -6.279  -4.381  10.017  1.00  0.00     0.164 HD
BRANCH  60  62
ATOM     62  C   UNL     1      -6.692  -2.310   9.641  1.00  0.00     0.168 CG0
ATOM     63  C   UNL     1      -5.476  -2.146   8.737  1.00  0.00     0.041 C 
ATOM     64  G   UNL     1      -6.444  -1.654  11.015  1.00  0.00     0.000 G0
ENDBRANCH  60  62
ENDBRANCH  56  58
ENDBRANCH  54  56
ENDBRANCH  52  54
ENDBRANCH  51  52
ENDBRANCH  50  51
ENDBRANCH  49  50
BRANCH  49  65
ATOM     65  C   UNL     1      -4.789 -10.497   6.013  1.00  0.00     0.326 C 
ATOM     66  O   UNL     1      -5.315 -11.429   5.423  1.00  0.00    -0.250 OA
BRANCH  65  67
ATOM     67  O   UNL     1      -3.499 -10.595   6.406  1.00  0.00    -0.480 OA
ATOM     68  H   UNL     1      -3.433 -11.509   6.757  1.00  0.00     0.296 HD
ENDBRANCH  65  67
ENDBRANCH  49  65
ENDBRANCH  47  49
ENDBRANCH  43  45
ENDBRANCH   1  43
BRANCH   1  69
ATOM     69  C   UNL     1      -0.722  -5.960   5.151  1.00  0.00    -0.001 C 
ATOM     70  C   UNL     1       0.134  -6.297   6.132  1.00  0.00     0.001 C 
BRANCH  70  71
ATOM     71  C   UNL     1       1.299  -5.533   6.584  1.00  0.00    -0.055 C 
ATOM     72  C   UNL     1       1.110  -4.237   6.912  1.00  0.00    -0.018 C 
ATOM     73  C   UNL     1       2.622  -6.247   6.658  1.00  0.00     0.044 C 
BRANCH  72  74
ATOM     74  C   UNL     1       2.119  -3.213   7.410  1.00  0.00     0.038 C 
ATOM     75  C   UNL     1       1.583  -2.655   8.734  1.00  0.00     0.015 C 
BRANCH  74  76
ATOM     76  C   UNL     1       2.342  -2.147   6.296  1.00  0.00     0.128 C 
BRANCH  76  77
ATOM     77  O   UNL     1       2.963  -0.976   6.854  1.00  0.00    -0.381 OA
ATOM     78  C   UNL     1       4.115  -0.547   6.142  1.00  0.00     0.195 C 
ENDBRANCH  76  77
BRANCH  76  79
ATOM     79  C   UNL     1       3.090  -2.686   5.050  1.00  0.00     0.068 C 
BRANCH  79  80
ATOM     80  C   UNL     1       2.271  -3.328   3.957  1.00  0.00    -0.045 A 
ATOM     81  C   UNL     1       1.082  -2.741   3.506  1.00  0.00     0.004 A 
ATOM     82  C   UNL     1       2.678  -4.546   3.391  1.00  0.00     0.004 A 
ATOM     83  C   UNL     1       0.323  -3.348   2.504  1.00  0.00     0.000 A 
ATOM     84  C   UNL     1       1.918  -5.153   2.389  1.00  0.00     0.000 A 
ATOM     85  C   UNL     1       0.741  -4.554   1.945  1.00  0.00     0.000 A 
ENDBRANCH  79  80
ENDBRANCH  76  79
ENDBRANCH  74  76
ENDBRANCH  72  74
ENDBRANCH  70  71
ENDBRANCH   1  69
TORSDOF 17
ENDMDL
MODEL 18
REMARK VINA RESULT:    -6.612      4.064      6.688
REMARK INTER + INTRA:         -27.670
REMARK INTER:                 -18.961
REMARK INTRA:                  -8.710
REMARK UNBOUND:                -7.916
REMARK SMILES C=C1C(=O)N[C@H](C)C(=O)N[C@@H](CC(C)C)C(=O)N[C@@H](C(=O)O)[C@H](C)C(=O)N[C@@H](CCCN=C(N)N)C(=O)N[C@@H](/C=C/C(C)=C/[C@H](C)[C@H](Cc2ccccc2)OC)[C@H](C)C(=O)N[C@@H](C(=O)O)CCC(=O)N1C
REMARK SMILES IDX 39 1 38 2 37 3 36 4 28 6 27 7 25 8 26 9 23 11 24 12 19 13
REMARK SMILES IDX 18 14 16 15 17 16 11 18 10 19 8 20 9 21 12 24 13 25 14 26
REMARK SMILES IDX 15 27 20 28 21 29 22 30 29 32 30 33 31 34 32 35 33 36 34 37
REMARK SMILES IDX 35 38 57 43 58 44 59 45 60 46 61 47 62 49 66 50 67 51 68 52
REMARK SMILES IDX 69 53 70 54 71 55 2 56 1 57 3 58 4 59 5 60 6 62 7 63 63 65
REMARK SMILES IDX 64 66 65 67 40 69 41 70 42 71 44 72 43 73 45 74 46 75 47 76
REMARK SMILES IDX 55 77 56 78 48 79 49 80 50 81 54 82 51 83 53 84 52 85
REMARK H PARENT 38 5 27 10 18 17 10 22 22 31 34 39 34 40 35 41 35 42 61 48
REMARK H PARENT 5 61 65 68
REMARK Flexibility Score:  369.900
ROOT
ATOM      1  C   UNL     1       2.920  -3.954   2.721  1.00  0.00     0.117 C 
ENDROOT
BRANCH   1   2
ATOM      2  N   UNL     1       2.110  -5.173   2.717  1.00  0.00    -0.347 N 
ATOM      3  O   UNL     1       2.126  -5.552   0.453  1.00  0.00    -0.273 OA
ATOM      4  C   UNL     1       1.854  -5.927   1.589  1.00  0.00     0.243 C 
ATOM      5  H   UNL     1       1.749  -5.528   3.589  1.00  0.00     0.164 HD
BRANCH   4   6
ATOM      6  C   UNL     1       1.043  -7.217   1.873  1.00  0.00     0.171 C 
BRANCH   6   7
ATOM      7  N   UNL     1       0.454  -7.168   3.221  1.00  0.00    -0.344 N 
ATOM      8  C   UNL     1       0.348  -8.311   3.983  1.00  0.00     0.226 C 
ATOM      9  O   UNL     1       0.709  -9.410   3.580  1.00  0.00    -0.275 OA
ATOM     10  H   UNL     1       0.082  -6.291   3.562  1.00  0.00     0.164 HD
BRANCH   8  11
ATOM     11  C   UNL     1      -0.230  -8.087   5.370  1.00  0.00     0.109 C 
ATOM     12  C   UNL     1       0.326  -9.124   6.345  1.00  0.00     0.021 C 
BRANCH  11  13
ATOM     13  C   UNL     1      -0.017  -6.620   5.792  1.00  0.00     0.204 C 
BRANCH  13  14
ATOM     14  N   UNL     1      -1.128  -6.112   6.603  1.00  0.00    -0.340 N 
ATOM     15  C   UNL     1      -2.162  -5.370   6.075  1.00  0.00     0.243 C 
ATOM     16  O   UNL     1      -2.256  -5.131   4.872  1.00  0.00    -0.273 OA
ATOM     17  H   UNL     1      -1.033  -6.143   7.622  1.00  0.00     0.164 HD
BRANCH  15  18
ATOM     18  C   UNL     1      -3.104  -4.769   7.147  1.00  0.00     0.171 C 
BRANCH  18  19
ATOM     19  N   UNL     1      -4.114  -5.786   7.433  1.00  0.00    -0.343 N 
ATOM     20  C   UNL     1      -5.462  -5.481   7.476  1.00  0.00     0.242 CG0
ATOM     21  O   UNL     1      -5.862  -4.322   7.409  1.00  0.00    -0.273 OA
ATOM     22  H   UNL     1      -3.824  -6.740   7.610  1.00  0.00     0.164 HD
ATOM     23  G   UNL     1      -6.381  -6.697   7.712  1.00  0.00     0.000 G0
ENDBRANCH  18  19
BRANCH  18  24
ATOM     24  C   UNL     1      -2.317  -4.390   8.408  1.00  0.00     0.038 C 
BRANCH  24  25
ATOM     25  C   UNL     1      -2.667  -3.006   8.994  1.00  0.00    -0.015 C 
ATOM     26  C   UNL     1      -3.207  -2.042   7.937  1.00  0.00     0.007 C 
ATOM     27  C   UNL     1      -1.428  -2.400   9.659  1.00  0.00     0.007 C 
ENDBRANCH  24  25
ENDBRANCH  18  24
ENDBRANCH  15  18
ENDBRANCH  13  14
BRANCH  13  28
ATOM     28  C   UNL     1       1.268  -6.404   6.598  1.00  0.00     0.327 C 
ATOM     29  O   UNL     1       1.339  -6.120   7.784  1.00  0.00    -0.250 OA
BRANCH  28  30
ATOM     30  O   UNL     1       2.381  -6.442   5.837  1.00  0.00    -0.480 OA
ATOM     31  H   UNL     1       3.109  -6.253   6.466  1.00  0.00     0.296 HD
ENDBRANCH  28  30
ENDBRANCH  13  28
ENDBRANCH  11  13
ENDBRANCH   8  11
ENDBRANCH   6   7
BRANCH   6  32
ATOM     32  C   UNL     1      -0.046  -7.372   0.805  1.00  0.00     0.037 C 
BRANCH  32  33
ATOM     33  C   UNL     1      -0.175  -8.822   0.316  1.00  0.00     0.026 C 
BRANCH  33  34
ATOM     34  C   UNL     1       0.327  -9.002  -1.117  1.00  0.00     0.146 C 
BRANCH  34  35
ATOM     35  N   UNL     1       1.498  -9.868  -1.100  1.00  0.00    -0.254 NA
ATOM     36  C   UNL     1       2.660  -9.331  -1.144  1.00  0.00     0.185 C 
ATOM     37  N   UNL     1       3.746 -10.119  -1.123  1.00  0.00    -0.370 N 
ATOM     38  N   UNL     1       2.987  -8.028  -1.211  1.00  0.00    -0.370 N 
ATOM     39  H   UNL     1       3.582 -11.116  -1.063  1.00  0.00     0.159 HD
ATOM     40  H   UNL     1       4.680  -9.775  -0.980  1.00  0.00     0.159 HD
ATOM     41  H   UNL     1       3.935  -7.737  -1.382  1.00  0.00     0.159 HD
ATOM     42  H   UNL     1       2.269  -7.321  -1.250  1.00  0.00     0.159 HD
ENDBRANCH  34  35
ENDBRANCH  33  34
ENDBRANCH  32  33
ENDBRANCH   6  32
ENDBRANCH   4   6
ENDBRANCH   1   2
BRANCH   1  43
ATOM     43  C   UNL     1       4.117  -4.158   3.695  1.00  0.00     0.102 C 
ATOM     44  C   UNL     1       3.810  -3.728   5.139  1.00  0.00     0.020 C 
BRANCH  43  45
ATOM     45  C   UNL     1       5.401  -3.547   3.124  1.00  0.00     0.225 C 
ATOM     46  O   UNL     1       6.371  -3.257   3.817  1.00  0.00    -0.275 OA
ATOM     47  N   UNL     1       5.369  -3.251   1.780  1.00  0.00    -0.342 N 
ATOM     48  H   UNL     1       4.633  -3.631   1.201  1.00  0.00     0.164 HD
BRANCH  47  49
ATOM     49  C   UNL     1       6.538  -2.696   1.091  1.00  0.00     0.192 C 
BRANCH  49  50
ATOM     50  C   UNL     1       6.119  -2.160  -0.280  1.00  0.00     0.047 C 
BRANCH  50  51
ATOM     51  C   UNL     1       6.022  -0.628  -0.301  1.00  0.00     0.103 C 
BRANCH  51  52
ATOM     52  C   UNL     1       7.396   0.035  -0.226  1.00  0.00     0.226 C 
ATOM     53  O   UNL     1       7.776   0.532   0.836  1.00  0.00    -0.275 OA
BRANCH  52  54
ATOM     54  N   UNL     1       8.189  -0.033  -1.387  1.00  0.00    -0.311 N 
ATOM     55  C   UNL     1       7.642   0.337  -2.699  1.00  0.00     0.153 C 
BRANCH  54  56
ATOM     56  C   UNL     1       9.529  -0.451  -1.334  1.00  0.00     0.102 C 
ATOM     57  C   UNL     1       9.933  -1.726  -1.216  1.00  0.00     0.043 C 
BRANCH  56  58
ATOM     58  C   UNL     1      10.657   0.547  -1.457  1.00  0.00     0.268 C 
ATOM     59  O   UNL     1      10.797   1.496  -0.698  1.00  0.00    -0.268 OA
ATOM     60  N   UNL     1      11.541   0.241  -2.464  1.00  0.00    -0.339 N 
ATOM     61  H   UNL     1      11.347  -0.558  -3.057  1.00  0.00     0.164 HD
BRANCH  60  62
ATOM     62  C   UNL     1      12.739   1.040  -2.718  1.00  0.00     0.168 CG0
ATOM     63  C   UNL     1      12.636   1.773  -4.050  1.00  0.00     0.041 C 
ATOM     64  G   UNL     1      13.983   0.128  -2.692  1.00  0.00     0.000 G0
ENDBRANCH  60  62
ENDBRANCH  56  58
ENDBRANCH  54  56
ENDBRANCH  52  54
ENDBRANCH  51  52
ENDBRANCH  50  51
ENDBRANCH  49  50
BRANCH  49  65
ATOM     65  C   UNL     1       7.642  -3.750   0.909  1.00  0.00     0.326 C 
ATOM     66  O   UNL     1       7.628  -4.661   0.095  1.00  0.00    -0.250 OA
BRANCH  65  67
ATOM     67  O   UNL     1       8.667  -3.649   1.784  1.00  0.00    -0.480 OA
ATOM     68  H   UNL     1       8.704  -2.689   1.987  1.00  0.00     0.296 HD
ENDBRANCH  65  67
ENDBRANCH  49  65
ENDBRANCH  47  49
ENDBRANCH  43  45
ENDBRANCH   1  43
BRANCH   1  69
ATOM     69  C   UNL     1       1.959  -2.807   2.970  1.00  0.00    -0.001 C 
ATOM     70  C   UNL     1       1.095  -2.260   2.096  1.00  0.00     0.001 C 
BRANCH  70  71
ATOM     71  C   UNL     1       0.157  -1.166   2.355  1.00  0.00    -0.055 C 
ATOM     72  C   UNL     1       0.668   0.021   2.742  1.00  0.00    -0.018 C 
ATOM     73  C   UNL     1      -1.312  -1.441   2.162  1.00  0.00     0.044 C 
BRANCH  72  74
ATOM     74  C   UNL     1      -0.055   1.319   3.073  1.00  0.00     0.038 C 
ATOM     75  C   UNL     1       0.523   2.406   2.158  1.00  0.00     0.015 C 
BRANCH  74  76
ATOM     76  C   UNL     1       0.095   1.602   4.597  1.00  0.00     0.128 C 
BRANCH  76  77
ATOM     77  O   UNL     1      -0.189   2.984   4.870  1.00  0.00    -0.381 OA
ATOM     78  C   UNL     1      -1.505   3.212   5.356  1.00  0.00     0.195 C 
ENDBRANCH  76  77
BRANCH  76  79
ATOM     79  C   UNL     1      -0.713   0.634   5.499  1.00  0.00     0.068 C 
BRANCH  79  80
ATOM     80  C   UNL     1       0.036  -0.479   6.191  1.00  0.00    -0.045 A 
ATOM     81  C   UNL     1      -0.205  -1.820   5.868  1.00  0.00     0.004 A 
ATOM     82  C   UNL     1       0.970  -0.184   7.196  1.00  0.00     0.004 A 
ATOM     83  C   UNL     1       0.482  -2.845   6.523  1.00  0.00     0.000 A 
ATOM     84  C   UNL     1       1.656  -1.209   7.851  1.00  0.00     0.000 A 
ATOM     85  C   UNL     1       1.413  -2.539   7.513  1.00  0.00     0.000 A 
ENDBRANCH  79  80
ENDBRANCH  76  79
ENDBRANCH  74  76
ENDBRANCH  72  74
ENDBRANCH  70  71
ENDBRANCH   1  69
TORSDOF 17
ENDMDL
MODEL 19
REMARK VINA RESULT:    -6.601      6.548     11.919
REMARK INTER + INTRA:         -27.638
REMARK INTER:                 -19.730
REMARK INTRA:                  -7.908
REMARK UNBOUND:                -7.916
REMARK SMILES C=C1C(=O)N[C@H](C)C(=O)N[C@@H](CC(C)C)C(=O)N[C@@H](C(=O)O)[C@H](C)C(=O)N[C@@H](CCCN=C(N)N)C(=O)N[C@@H](/C=C/C(C)=C/[C@H](C)[C@H](Cc2ccccc2)OC)[C@H](C)C(=O)N[C@@H](C(=O)O)CCC(=O)N1C
REMARK SMILES IDX 39 1 38 2 37 3 36 4 28 6 27 7 25 8 26 9 23 11 24 12 19 13
REMARK SMILES IDX 18 14 16 15 17 16 11 18 10 19 8 20 9 21 12 24 13 25 14 26
REMARK SMILES IDX 15 27 20 28 21 29 22 30 29 32 30 33 31 34 32 35 33 36 34 37
REMARK SMILES IDX 35 38 57 43 58 44 59 45 60 46 61 47 62 49 66 50 67 51 68 52
REMARK SMILES IDX 69 53 70 54 71 55 2 56 1 57 3 58 4 59 5 60 6 62 7 63 63 65
REMARK SMILES IDX 64 66 65 67 40 69 41 70 42 71 44 72 43 73 45 74 46 75 47 76
REMARK SMILES IDX 55 77 56 78 48 79 49 80 50 81 54 82 51 83 53 84 52 85
REMARK H PARENT 38 5 27 10 18 17 10 22 22 31 34 39 34 40 35 41 35 42 61 48
REMARK H PARENT 5 61 65 68
REMARK Flexibility Score:  369.900
ROOT
ATOM      1  C   UNL     1       6.724  -2.225   0.098  1.00  0.00     0.117 C 
ENDROOT
BRANCH   1   2
ATOM      2  N   UNL     1       7.774  -2.540  -0.871  1.00  0.00    -0.347 N 
ATOM      3  O   UNL     1       9.119  -3.781   0.515  1.00  0.00    -0.273 OA
ATOM      4  C   UNL     1       8.845  -3.372  -0.609  1.00  0.00     0.243 C 
ATOM      5  H   UNL     1       7.704  -2.178  -1.810  1.00  0.00     0.164 HD
BRANCH   4   6
ATOM      6  C   UNL     1       9.765  -3.609  -1.833  1.00  0.00     0.171 C 
BRANCH   6   7
ATOM      7  N   UNL     1      10.745  -2.518  -1.959  1.00  0.00    -0.344 N 
ATOM      8  C   UNL     1      10.420  -1.356  -2.623  1.00  0.00     0.226 C 
ATOM      9  O   UNL     1       9.329  -1.180  -3.153  1.00  0.00    -0.275 OA
ATOM     10  H   UNL     1      11.679  -2.653  -1.593  1.00  0.00     0.164 HD
BRANCH   8  11
ATOM     11  C   UNL     1      11.517  -0.306  -2.620  1.00  0.00     0.109 C 
ATOM     12  C   UNL     1      12.833  -0.919  -3.099  1.00  0.00     0.021 C 
BRANCH  11  13
ATOM     13  C   UNL     1      11.054   0.935  -3.410  1.00  0.00     0.204 C 
BRANCH  13  14
ATOM     14  N   UNL     1       9.866   1.555  -2.816  1.00  0.00    -0.340 N 
ATOM     15  C   UNL     1       8.973   2.310  -3.545  1.00  0.00     0.243 C 
ATOM     16  O   UNL     1       9.077   2.467  -4.760  1.00  0.00    -0.273 OA
ATOM     17  H   UNL     1       9.802   1.592  -1.795  1.00  0.00     0.164 HD
BRANCH  15  18
ATOM     18  C   UNL     1       7.917   3.033  -2.672  1.00  0.00     0.171 C 
BRANCH  18  19
ATOM     19  N   UNL     1       8.136   4.467  -2.852  1.00  0.00    -0.343 N 
ATOM     20  C   UNL     1       9.268   5.097  -2.373  1.00  0.00     0.242 CG0
ATOM     21  O   UNL     1      10.078   4.510  -1.660  1.00  0.00    -0.273 OA
ATOM     22  H   UNL     1       7.437   5.020  -3.336  1.00  0.00     0.164 HD
ATOM     23  G   UNL     1       9.361   6.596  -2.727  1.00  0.00     0.000 G0
ENDBRANCH  18  19
BRANCH  18  24
ATOM     24  C   UNL     1       6.499   2.624  -3.088  1.00  0.00     0.038 C 
BRANCH  24  25
ATOM     25  C   UNL     1       6.021   1.276  -2.508  1.00  0.00    -0.015 C 
ATOM     26  C   UNL     1       6.050   0.151  -3.542  1.00  0.00     0.007 C 
ATOM     27  C   UNL     1       4.602   1.429  -1.953  1.00  0.00     0.007 C 
ENDBRANCH  24  25
ENDBRANCH  18  24
ENDBRANCH  15  18
ENDBRANCH  13  14
BRANCH  13  28
ATOM     28  C   UNL     1      12.130   2.021  -3.512  1.00  0.00     0.327 C 
ATOM     29  O   UNL     1      12.818   2.266  -4.491  1.00  0.00    -0.250 OA
BRANCH  28  30
ATOM     30  O   UNL     1      12.357   2.652  -2.343  1.00  0.00    -0.480 OA
ATOM     31  H   UNL     1      11.720   3.396  -2.342  1.00  0.00     0.296 HD
ENDBRANCH  28  30
ENDBRANCH  13  28
ENDBRANCH  11  13
ENDBRANCH   8  11
ENDBRANCH   6   7
BRANCH   6  32
ATOM     32  C   UNL     1      10.469  -4.962  -1.679  1.00  0.00     0.037 C 
BRANCH  32  33
ATOM     33  C   UNL     1      10.666  -5.669  -3.027  1.00  0.00     0.026 C 
BRANCH  33  34
ATOM     34  C   UNL     1       9.931  -7.008  -3.099  1.00  0.00     0.146 C 
BRANCH  34  35
ATOM     35  N   UNL     1       9.019  -6.984  -4.234  1.00  0.00    -0.254 NA
ATOM     36  C   UNL     1       8.326  -8.031  -4.488  1.00  0.00     0.185 C 
ATOM     37  N   UNL     1       7.479  -8.017  -5.529  1.00  0.00    -0.370 N 
ATOM     38  N   UNL     1       8.308  -9.209  -3.841  1.00  0.00    -0.370 N 
ATOM     39  H   UNL     1       7.428  -7.159  -6.062  1.00  0.00     0.159 HD
ATOM     40  H   UNL     1       6.782  -8.724  -5.688  1.00  0.00     0.159 HD
ATOM     41  H   UNL     1       7.821 -10.005  -4.221  1.00  0.00     0.159 HD
ATOM     42  H   UNL     1       8.907  -9.367  -3.046  1.00  0.00     0.159 HD
ENDBRANCH  34  35
ENDBRANCH  33  34
ENDBRANCH  32  33
ENDBRANCH   6  32
ENDBRANCH   4   6
ENDBRANCH   1   2
BRANCH   1  43
ATOM     43  C   UNL     1       5.395  -2.878  -0.381  1.00  0.00     0.102 C 
ATOM     44  C   UNL     1       4.220  -1.889  -0.457  1.00  0.00     0.020 C 
BRANCH  43  45
ATOM     45  C   UNL     1       5.088  -4.149   0.418  1.00  0.00     0.225 C 
ATOM     46  O   UNL     1       5.944  -4.780   1.030  1.00  0.00    -0.275 OA
ATOM     47  N   UNL     1       3.791  -4.602   0.333  1.00  0.00    -0.342 N 
ATOM     48  H   UNL     1       3.074  -3.999  -0.043  1.00  0.00     0.164 HD
BRANCH  47  49
ATOM     49  C   UNL     1       3.344  -5.786   1.073  1.00  0.00     0.192 C 
BRANCH  49  50
ATOM     50  C   UNL     1       2.847  -6.850   0.090  1.00  0.00     0.047 C 
BRANCH  50  51
ATOM     51  C   UNL     1       2.342  -8.111   0.804  1.00  0.00     0.103 C 
BRANCH  51  52
ATOM     52  C   UNL     1       2.490  -9.359  -0.064  1.00  0.00     0.226 C 
ATOM     53  O   UNL     1       3.378 -10.176   0.187  1.00  0.00    -0.275 OA
BRANCH  52  54
ATOM     54  N   UNL     1       1.528  -9.537  -1.076  1.00  0.00    -0.311 N 
ATOM     55  C   UNL     1       0.098  -9.622  -0.753  1.00  0.00     0.153 C 
BRANCH  54  56
ATOM     56  C   UNL     1       1.897  -9.632  -2.428  1.00  0.00     0.102 C 
ATOM     57  C   UNL     1       2.871  -8.915  -3.012  1.00  0.00     0.043 C 
BRANCH  56  58
ATOM     58  C   UNL     1       1.222 -10.623  -3.347  1.00  0.00     0.268 C 
ATOM     59  O   UNL     1       0.461 -10.292  -4.247  1.00  0.00    -0.268 OA
ATOM     60  N   UNL     1       1.601 -11.923  -3.112  1.00  0.00    -0.339 N 
ATOM     61  H   UNL     1       2.229 -12.115  -2.340  1.00  0.00     0.164 HD
BRANCH  60  62
ATOM     62  C   UNL     1       1.117 -13.036  -3.927  1.00  0.00     0.168 CG0
ATOM     63  C   UNL     1       0.444 -14.095  -3.063  1.00  0.00     0.041 C 
ATOM     64  G   UNL     1       2.291 -13.645  -4.721  1.00  0.00     0.000 G0
ENDBRANCH  60  62
ENDBRANCH  56  58
ENDBRANCH  54  56
ENDBRANCH  52  54
ENDBRANCH  51  52
ENDBRANCH  50  51
ENDBRANCH  49  50
BRANCH  49  65
ATOM     65  C   UNL     1       2.220  -5.444   2.063  1.00  0.00     0.326 C 
ATOM     66  O   UNL     1       2.233  -5.681   3.262  1.00  0.00    -0.250 OA
BRANCH  65  67
ATOM     67  O   UNL     1       1.124  -4.886   1.502  1.00  0.00    -0.480 OA
ATOM     68  H   UNL     1       1.344  -3.930   1.467  1.00  0.00     0.296 HD
ENDBRANCH  65  67
ENDBRANCH  49  65
ENDBRANCH  47  49
ENDBRANCH  43  45
ENDBRANCH   1  43
BRANCH   1  69
ATOM     69  C   UNL     1       6.771  -0.722   0.301  1.00  0.00    -0.001 C 
ATOM     70  C   UNL     1       7.844   0.027   0.611  1.00  0.00     0.001 C 
BRANCH  70  71
ATOM     71  C   UNL     1       7.881   1.481   0.783  1.00  0.00    -0.055 C 
ATOM     72  C   UNL     1       6.718   2.111   1.051  1.00  0.00    -0.018 C 
ATOM     73  C   UNL     1       9.215   2.169   0.656  1.00  0.00     0.044 C 
BRANCH  72  74
ATOM     74  C   UNL     1       6.456   3.593   1.279  1.00  0.00     0.038 C 
ATOM     75  C   UNL     1       7.172   3.986   2.577  1.00  0.00     0.015 C 
BRANCH  74  76
ATOM     76  C   UNL     1       4.918   3.835   1.283  1.00  0.00     0.128 C 
BRANCH  76  77
ATOM     77  O   UNL     1       4.408   3.734   2.623  1.00  0.00    -0.381 OA
ATOM     78  C   UNL     1       2.995   3.859   2.708  1.00  0.00     0.195 C 
ENDBRANCH  76  77
BRANCH  76  79
ATOM     79  C   UNL     1       4.485   5.143   0.574  1.00  0.00     0.068 C 
BRANCH  79  80
ATOM     80  C   UNL     1       3.979   5.044  -0.845  1.00  0.00    -0.045 A 
ATOM     81  C   UNL     1       4.705   5.596  -1.910  1.00  0.00     0.004 A 
ATOM     82  C   UNL     1       2.753   4.419  -1.117  1.00  0.00     0.004 A 
ATOM     83  C   UNL     1       4.223   5.512  -3.218  1.00  0.00     0.000 A 
ATOM     84  C   UNL     1       2.272   4.337  -2.426  1.00  0.00     0.000 A 
ATOM     85  C   UNL     1       3.008   4.882  -3.476  1.00  0.00     0.000 A 
ENDBRANCH  79  80
ENDBRANCH  76  79
ENDBRANCH  74  76
ENDBRANCH  72  74
ENDBRANCH  70  71
ENDBRANCH   1  69
TORSDOF 17
ENDMDL
MODEL 20
REMARK VINA RESULT:    -6.530      4.042      6.785
REMARK INTER + INTRA:         -27.425
REMARK INTER:                 -18.869
REMARK INTRA:                  -8.556
REMARK UNBOUND:                -7.916
REMARK SMILES C=C1C(=O)N[C@H](C)C(=O)N[C@@H](CC(C)C)C(=O)N[C@@H](C(=O)O)[C@H](C)C(=O)N[C@@H](CCCN=C(N)N)C(=O)N[C@@H](/C=C/C(C)=C/[C@H](C)[C@H](Cc2ccccc2)OC)[C@H](C)C(=O)N[C@@H](C(=O)O)CCC(=O)N1C
REMARK SMILES IDX 39 1 38 2 37 3 36 4 28 6 27 7 25 8 26 9 23 11 24 12 19 13
REMARK SMILES IDX 18 14 16 15 17 16 11 18 10 19 8 20 9 21 12 24 13 25 14 26
REMARK SMILES IDX 15 27 20 28 21 29 22 30 29 32 30 33 31 34 32 35 33 36 34 37
REMARK SMILES IDX 35 38 57 43 58 44 59 45 60 46 61 47 62 49 66 50 67 51 68 52
REMARK SMILES IDX 69 53 70 54 71 55 2 56 1 57 3 58 4 59 5 60 6 62 7 63 63 65
REMARK SMILES IDX 64 66 65 67 40 69 41 70 42 71 44 72 43 73 45 74 46 75 47 76
REMARK SMILES IDX 55 77 56 78 48 79 49 80 50 81 54 82 51 83 53 84 52 85
REMARK H PARENT 38 5 27 10 18 17 10 22 22 31 34 39 34 40 35 41 35 42 61 48
REMARK H PARENT 5 61 65 68
REMARK Flexibility Score:  369.900
ROOT
ATOM      1  C   UNL     1       4.110  -3.511   2.447  1.00  0.00     0.117 C 
ENDROOT
BRANCH   1   2
ATOM      2  N   UNL     1       3.353  -4.734   2.178  1.00  0.00    -0.347 N 
ATOM      3  O   UNL     1       3.964  -5.004  -0.018  1.00  0.00    -0.273 OA
ATOM      4  C   UNL     1       3.413  -5.435   0.989  1.00  0.00     0.243 C 
ATOM      5  H   UNL     1       2.784  -5.134   2.909  1.00  0.00     0.164 HD
BRANCH   4   6
ATOM      6  C   UNL     1       2.582  -6.743   0.994  1.00  0.00     0.171 C 
BRANCH   6   7
ATOM      7  N   UNL     1       1.171  -6.454   1.296  1.00  0.00    -0.344 N 
ATOM      8  C   UNL     1       0.396  -7.368   1.978  1.00  0.00     0.226 C 
ATOM      9  O   UNL     1       0.826  -8.456   2.342  1.00  0.00    -0.275 OA
ATOM     10  H   UNL     1       0.762  -5.594   0.952  1.00  0.00     0.164 HD
BRANCH   8  11
ATOM     11  C   UNL     1      -1.021  -6.900   2.260  1.00  0.00     0.109 C 
ATOM     12  C   UNL     1      -1.965  -7.393   1.163  1.00  0.00     0.021 C 
BRANCH  11  13
ATOM     13  C   UNL     1      -1.427  -7.300   3.692  1.00  0.00     0.204 C 
BRANCH  13  14
ATOM     14  N   UNL     1      -1.174  -6.225   4.657  1.00  0.00    -0.340 N 
ATOM     15  C   UNL     1      -0.452  -6.414   5.816  1.00  0.00     0.243 C 
ATOM     16  O   UNL     1       0.083  -7.486   6.093  1.00  0.00    -0.273 OA
ATOM     17  H   UNL     1      -1.712  -5.360   4.565  1.00  0.00     0.164 HD
BRANCH  15  18
ATOM     18  C   UNL     1      -0.493  -5.200   6.775  1.00  0.00     0.171 C 
BRANCH  18  19
ATOM     19  N   UNL     1      -1.628  -5.411   7.671  1.00  0.00    -0.343 N 
ATOM     20  C   UNL     1      -2.894  -4.951   7.364  1.00  0.00     0.242 CG0
ATOM     21  O   UNL     1      -3.098  -4.228   6.391  1.00  0.00    -0.273 OA
ATOM     22  H   UNL     1      -1.487  -5.904   8.545  1.00  0.00     0.164 HD
ATOM     23  G   UNL     1      -3.979  -5.337   8.391  1.00  0.00     0.000 G0
ENDBRANCH  18  19
BRANCH  18  24
ATOM     24  C   UNL     1       0.823  -5.081   7.554  1.00  0.00     0.038 C 
BRANCH  24  25
ATOM     25  C   UNL     1       2.017  -4.561   6.727  1.00  0.00    -0.015 C 
ATOM     26  C   UNL     1       3.091  -5.628   6.515  1.00  0.00     0.007 C 
ATOM     27  C   UNL     1       2.631  -3.342   7.419  1.00  0.00     0.007 C 
ENDBRANCH  24  25
ENDBRANCH  18  24
ENDBRANCH  15  18
ENDBRANCH  13  14
BRANCH  13  28
ATOM     28  C   UNL     1      -2.905  -7.682   3.816  1.00  0.00     0.327 C 
ATOM     29  O   UNL     1      -3.842  -6.911   3.950  1.00  0.00    -0.250 OA
BRANCH  28  30
ATOM     30  O   UNL     1      -3.102  -9.014   3.883  1.00  0.00    -0.480 OA
ATOM     31  H   UNL     1      -3.048  -9.314   2.952  1.00  0.00     0.296 HD
ENDBRANCH  28  30
ENDBRANCH  13  28
ENDBRANCH  11  13
ENDBRANCH   8  11
ENDBRANCH   6   7
BRANCH   6  32
ATOM     32  C   UNL     1       2.720  -7.433  -0.367  1.00  0.00     0.037 C 
BRANCH  32  33
ATOM     33  C   UNL     1       1.555  -7.096  -1.308  1.00  0.00     0.026 C 
BRANCH  33  34
ATOM     34  C   UNL     1       1.488  -8.034  -2.515  1.00  0.00     0.146 C 
BRANCH  34  35
ATOM     35  N   UNL     1       2.785  -8.041  -3.177  1.00  0.00    -0.254 NA
ATOM     36  C   UNL     1       3.445  -9.138  -3.224  1.00  0.00     0.185 C 
ATOM     37  N   UNL     1       4.639  -9.157  -3.836  1.00  0.00    -0.370 N 
ATOM     38  N   UNL     1       3.115 -10.344  -2.730  1.00  0.00    -0.370 N 
ATOM     39  H   UNL     1       4.955  -8.286  -4.244  1.00  0.00     0.159 HD
ATOM     40  H   UNL     1       5.133 -10.002  -4.066  1.00  0.00     0.159 HD
ATOM     41  H   UNL     1       3.781 -11.098  -2.708  1.00  0.00     0.159 HD
ATOM     42  H   UNL     1       2.249 -10.474  -2.229  1.00  0.00     0.159 HD
ENDBRANCH  34  35
ENDBRANCH  33  34
ENDBRANCH  32  33
ENDBRANCH   6  32
ENDBRANCH   4   6
ENDBRANCH   1   2
BRANCH   1  43
ATOM     43  C   UNL     1       5.492  -3.905   3.045  1.00  0.00     0.102 C 
ATOM     44  C   UNL     1       5.615  -3.607   4.549  1.00  0.00     0.020 C 
BRANCH  43  45
ATOM     45  C   UNL     1       6.638  -3.338   2.203  1.00  0.00     0.225 C 
ATOM     46  O   UNL     1       7.476  -2.559   2.649  1.00  0.00    -0.275 OA
ATOM     47  N   UNL     1       6.622  -3.682   0.871  1.00  0.00    -0.342 N 
ATOM     48  H   UNL     1       6.025  -4.434   0.556  1.00  0.00     0.164 HD
BRANCH  47  49
ATOM     49  C   UNL     1       7.676  -3.241  -0.047  1.00  0.00     0.192 C 
BRANCH  49  50
ATOM     50  C   UNL     1       7.089  -2.272  -1.077  1.00  0.00     0.047 C 
BRANCH  50  51
ATOM     51  C   UNL     1       7.956  -1.018  -1.256  1.00  0.00     0.103 C 
BRANCH  51  52
ATOM     52  C   UNL     1       8.466  -0.873  -2.688  1.00  0.00     0.226 C 
ATOM     53  O   UNL     1       7.898  -0.100  -3.462  1.00  0.00    -0.275 OA
BRANCH  52  54
ATOM     54  N   UNL     1       9.627  -1.596  -3.017  1.00  0.00    -0.311 N 
ATOM     55  C   UNL     1       9.553  -2.820  -3.824  1.00  0.00     0.153 C 
BRANCH  54  56
ATOM     56  C   UNL     1      10.898  -1.172  -2.592  1.00  0.00     0.102 C 
ATOM     57  C   UNL     1      11.554  -1.661  -1.527  1.00  0.00     0.043 C 
BRANCH  56  58
ATOM     58  C   UNL     1      11.664  -0.124  -3.364  1.00  0.00     0.268 C 
ATOM     59  O   UNL     1      11.621  -0.026  -4.583  1.00  0.00    -0.268 OA
ATOM     60  N   UNL     1      12.357   0.744  -2.555  1.00  0.00    -0.339 N 
ATOM     61  H   UNL     1      12.350   0.588  -1.554  1.00  0.00     0.164 HD
BRANCH  60  62
ATOM     62  C   UNL     1      13.116   1.872  -3.092  1.00  0.00     0.168 CG0
ATOM     63  C   UNL     1      12.275   3.143  -3.100  1.00  0.00     0.041 C 
ATOM     64  G   UNL     1      13.607   1.534  -4.515  1.00  0.00     0.000 G0
ENDBRANCH  60  62
ENDBRANCH  56  58
ENDBRANCH  54  56
ENDBRANCH  52  54
ENDBRANCH  51  52
ENDBRANCH  50  51
ENDBRANCH  49  50
BRANCH  49  65
ATOM     65  C   UNL     1       8.324  -4.428  -0.778  1.00  0.00     0.326 C 
ATOM     66  O   UNL     1       9.501  -4.752  -0.702  1.00  0.00    -0.250 OA
BRANCH  65  67
ATOM     67  O   UNL     1       7.494  -5.104  -1.602  1.00  0.00    -0.480 OA
ATOM     68  H   UNL     1       7.275  -5.915  -1.095  1.00  0.00     0.296 HD
ENDBRANCH  65  67
ENDBRANCH  49  65
ENDBRANCH  47  49
ENDBRANCH  43  45
ENDBRANCH   1  43
BRANCH   1  69
ATOM     69  C   UNL     1       3.191  -2.612   3.253  1.00  0.00    -0.001 C 
ATOM     70  C   UNL     1       3.192  -1.268   3.293  1.00  0.00     0.001 C 
BRANCH  70  71
ATOM     71  C   UNL     1       2.286  -0.410   4.059  1.00  0.00    -0.055 C 
ATOM     72  C   UNL     1       1.940  -0.813   5.300  1.00  0.00    -0.018 C 
ATOM     73  C   UNL     1       1.810   0.864   3.412  1.00  0.00     0.044 C 
BRANCH  72  74
ATOM     74  C   UNL     1       1.030  -0.134   6.314  1.00  0.00     0.038 C 
ATOM     75  C   UNL     1       1.930   0.451   7.410  1.00  0.00     0.015 C 
BRANCH  74  76
ATOM     76  C   UNL     1      -0.021  -1.168   6.816  1.00  0.00     0.128 C 
BRANCH  76  77
ATOM     77  O   UNL     1      -0.336  -0.919   8.196  1.00  0.00    -0.381 OA
ATOM     78  C   UNL     1      -1.350  -1.769   8.713  1.00  0.00     0.195 C 
ENDBRANCH  76  77
BRANCH  76  79
ATOM     79  C   UNL     1      -1.282  -1.268   5.921  1.00  0.00     0.068 C 
BRANCH  79  80
ATOM     80  C   UNL     1      -1.095  -1.664   4.477  1.00  0.00    -0.045 A 
ATOM     81  C   UNL     1      -0.568  -2.915   4.133  1.00  0.00     0.004 A 
ATOM     82  C   UNL     1      -1.423  -0.766   3.449  1.00  0.00     0.004 A 
ATOM     83  C   UNL     1      -0.385  -3.268   2.795  1.00  0.00     0.000 A 
ATOM     84  C   UNL     1      -1.239  -1.120   2.111  1.00  0.00     0.000 A 
ATOM     85  C   UNL     1      -0.722  -2.371   1.784  1.00  0.00     0.000 A 
ENDBRANCH  79  80
ENDBRANCH  76  79
ENDBRANCH  74  76
ENDBRANCH  72  74
ENDBRANCH  70  71
ENDBRANCH   1  69
TORSDOF 17
ENDMDL
MODEL 21
REMARK VINA RESULT:    -6.521      4.234      7.603
REMARK INTER + INTRA:         -27.399
REMARK INTER:                 -20.044
REMARK INTRA:                  -7.356
REMARK UNBOUND:                -7.916
REMARK SMILES C=C1C(=O)N[C@H](C)C(=O)N[C@@H](CC(C)C)C(=O)N[C@@H](C(=O)O)[C@H](C)C(=O)N[C@@H](CCCN=C(N)N)C(=O)N[C@@H](/C=C/C(C)=C/[C@H](C)[C@H](Cc2ccccc2)OC)[C@H](C)C(=O)N[C@@H](C(=O)O)CCC(=O)N1C
REMARK SMILES IDX 39 1 38 2 37 3 36 4 28 6 27 7 25 8 26 9 23 11 24 12 19 13
REMARK SMILES IDX 18 14 16 15 17 16 11 18 10 19 8 20 9 21 12 24 13 25 14 26
REMARK SMILES IDX 15 27 20 28 21 29 22 30 29 32 30 33 31 34 32 35 33 36 34 37
REMARK SMILES IDX 35 38 57 43 58 44 59 45 60 46 61 47 62 49 66 50 67 51 68 52
REMARK SMILES IDX 69 53 70 54 71 55 2 56 1 57 3 58 4 59 5 60 6 62 7 63 63 65
REMARK SMILES IDX 64 66 65 67 40 69 41 70 42 71 44 72 43 73 45 74 46 75 47 76
REMARK SMILES IDX 55 77 56 78 48 79 49 80 50 81 54 82 51 83 53 84 52 85
REMARK H PARENT 38 5 27 10 18 17 10 22 22 31 34 39 34 40 35 41 35 42 61 48
REMARK H PARENT 5 61 65 68
REMARK Flexibility Score:  369.900
ROOT
ATOM      1  C   UNL     1       4.879  -4.168   0.662  1.00  0.00     0.117 C 
ENDROOT
BRANCH   1   2
ATOM      2  N   UNL     1       3.796  -5.134   0.848  1.00  0.00    -0.347 N 
ATOM      3  O   UNL     1       3.163  -4.494   2.960  1.00  0.00    -0.273 OA
ATOM      4  C   UNL     1       2.962  -5.159   1.949  1.00  0.00     0.243 C 
ATOM      5  H   UNL     1       3.596  -5.800   0.117  1.00  0.00     0.164 HD
BRANCH   4   6
ATOM      6  C   UNL     1       1.842  -6.227   1.859  1.00  0.00     0.171 C 
BRANCH   6   7
ATOM      7  N   UNL     1       2.286  -7.371   1.047  1.00  0.00    -0.344 N 
ATOM      8  C   UNL     1       1.732  -7.609  -0.192  1.00  0.00     0.226 C 
ATOM      9  O   UNL     1       0.844  -6.910  -0.665  1.00  0.00    -0.275 OA
ATOM     10  H   UNL     1       2.969  -8.010   1.432  1.00  0.00     0.164 HD
BRANCH   8  11
ATOM     11  C   UNL     1       2.334  -8.794  -0.928  1.00  0.00     0.109 C 
ATOM     12  C   UNL     1       3.371  -9.489  -0.046  1.00  0.00     0.021 C 
BRANCH  11  13
ATOM     13  C   UNL     1       1.209  -9.709  -1.451  1.00  0.00     0.204 C 
BRANCH  13  14
ATOM     14  N   UNL     1      -0.015  -9.590  -0.653  1.00  0.00    -0.340 N 
ATOM     15  C   UNL     1      -0.742 -10.682  -0.232  1.00  0.00     0.243 C 
ATOM     16  O   UNL     1      -0.382 -11.838  -0.445  1.00  0.00    -0.273 OA
ATOM     17  H   UNL     1      -0.448  -8.666  -0.572  1.00  0.00     0.164 HD
BRANCH  15  18
ATOM     18  C   UNL     1      -2.100 -10.309   0.413  1.00  0.00     0.171 C 
BRANCH  18  19
ATOM     19  N   UNL     1      -2.656 -11.544   0.963  1.00  0.00    -0.343 N 
ATOM     20  C   UNL     1      -4.006 -11.829   0.895  1.00  0.00     0.242 CG0
ATOM     21  O   UNL     1      -4.819 -11.000   0.491  1.00  0.00    -0.273 OA
ATOM     22  H   UNL     1      -2.038 -12.211   1.412  1.00  0.00     0.164 HD
ATOM     23  G   UNL     1      -4.394 -13.212   1.457  1.00  0.00     0.000 G0
ENDBRANCH  18  19
BRANCH  18  24
ATOM     24  C   UNL     1      -1.909  -9.246   1.502  1.00  0.00     0.038 C 
BRANCH  24  25
ATOM     25  C   UNL     1      -2.918  -8.079   1.448  1.00  0.00    -0.015 C 
ATOM     26  C   UNL     1      -2.232  -6.713   1.411  1.00  0.00     0.007 C 
ATOM     27  C   UNL     1      -3.855  -8.153   2.656  1.00  0.00     0.007 C 
ENDBRANCH  24  25
ENDBRANCH  18  24
ENDBRANCH  15  18
ENDBRANCH  13  14
BRANCH  13  28
ATOM     28  C   UNL     1       0.830  -9.427  -2.908  1.00  0.00     0.327 C 
ATOM     29  O   UNL     1       1.368  -9.897  -3.899  1.00  0.00    -0.250 OA
BRANCH  28  30
ATOM     30  O   UNL     1      -0.123  -8.481  -3.033  1.00  0.00    -0.480 OA
ATOM     31  H   UNL     1       0.048  -8.081  -3.911  1.00  0.00     0.296 HD
ENDBRANCH  28  30
ENDBRANCH  13  28
ENDBRANCH  11  13
ENDBRANCH   8  11
ENDBRANCH   6   7
BRANCH   6  32
ATOM     32  C   UNL     1       1.459  -6.675   3.274  1.00  0.00     0.037 C 
BRANCH  32  33
ATOM     33  C   UNL     1       1.871  -8.127   3.553  1.00  0.00     0.026 C 
BRANCH  33  34
ATOM     34  C   UNL     1       1.411  -8.612   4.928  1.00  0.00     0.146 C 
BRANCH  34  35
ATOM     35  N   UNL     1       0.520  -9.750   4.750  1.00  0.00    -0.254 NA
ATOM     36  C   UNL     1      -0.718  -9.614   5.050  1.00  0.00     0.185 C 
ATOM     37  N   UNL     1      -1.549 -10.655   4.886  1.00  0.00    -0.370 N 
ATOM     38  N   UNL     1      -1.356  -8.532   5.531  1.00  0.00    -0.370 N 
ATOM     39  H   UNL     1      -1.144 -11.505   4.517  1.00  0.00     0.159 HD
ATOM     40  H   UNL     1      -2.551 -10.579   4.931  1.00  0.00     0.159 HD
ATOM     41  H   UNL     1      -2.306  -8.591   5.859  1.00  0.00     0.159 HD
ATOM     42  H   UNL     1      -0.851  -7.680   5.718  1.00  0.00     0.159 HD
ENDBRANCH  34  35
ENDBRANCH  33  34
ENDBRANCH  32  33
ENDBRANCH   6  32
ENDBRANCH   4   6
ENDBRANCH   1   2
BRANCH   1  43
ATOM     43  C   UNL     1       6.086  -4.603   1.543  1.00  0.00     0.102 C 
ATOM     44  C   UNL     1       6.220  -3.791   2.842  1.00  0.00     0.020 C 
BRANCH  43  45
ATOM     45  C   UNL     1       7.374  -4.668   0.716  1.00  0.00     0.225 C 
ATOM     46  O   UNL     1       8.454  -5.017   1.184  1.00  0.00    -0.275 OA
ATOM     47  N   UNL     1       7.270  -4.218  -0.580  1.00  0.00    -0.342 N 
ATOM     48  H   UNL     1       6.357  -4.081  -0.990  1.00  0.00     0.164 HD
BRANCH  47  49
ATOM     49  C   UNL     1       8.412  -4.255  -1.498  1.00  0.00     0.192 C 
BRANCH  49  50
ATOM     50  C   UNL     1       8.207  -3.230  -2.616  1.00  0.00     0.047 C 
BRANCH  50  51
ATOM     51  C   UNL     1       6.925  -2.408  -2.424  1.00  0.00     0.103 C 
BRANCH  51  52
ATOM     52  C   UNL     1       6.754  -1.350  -3.512  1.00  0.00     0.226 C 
ATOM     53  O   UNL     1       6.745  -1.689  -4.697  1.00  0.00    -0.275 OA
BRANCH  52  54
ATOM     54  N   UNL     1       6.536  -0.030  -3.075  1.00  0.00    -0.311 N 
ATOM     55  C   UNL     1       5.385   0.746  -3.556  1.00  0.00     0.153 C 
BRANCH  54  56
ATOM     56  C   UNL     1       7.404   0.591  -2.161  1.00  0.00     0.102 C 
ATOM     57  C   UNL     1       7.023   1.162  -1.006  1.00  0.00     0.043 C 
BRANCH  56  58
ATOM     58  C   UNL     1       8.894   0.620  -2.404  1.00  0.00     0.268 C 
ATOM     59  O   UNL     1       9.398   1.083  -3.419  1.00  0.00    -0.268 OA
ATOM     60  N   UNL     1       9.624   0.136  -1.345  1.00  0.00    -0.339 N 
ATOM     61  H   UNL     1       9.130  -0.239  -0.544  1.00  0.00     0.164 HD
BRANCH  60  62
ATOM     62  C   UNL     1      11.086   0.131  -1.344  1.00  0.00     0.168 CG0
ATOM     63  C   UNL     1      11.628  -1.272  -1.593  1.00  0.00     0.041 C 
ATOM     64  G   UNL     1      11.605   0.686  -0.001  1.00  0.00     0.000 G0
ENDBRANCH  60  62
ENDBRANCH  56  58
ENDBRANCH  54  56
ENDBRANCH  52  54
ENDBRANCH  51  52
ENDBRANCH  50  51
ENDBRANCH  49  50
BRANCH  49  65
ATOM     65  C   UNL     1       8.597  -5.650  -2.115  1.00  0.00     0.326 C 
ATOM     66  O   UNL     1       9.643  -6.283  -2.140  1.00  0.00    -0.250 OA
BRANCH  65  67
ATOM     67  O   UNL     1       7.496  -6.152  -2.717  1.00  0.00    -0.480 OA
ATOM     68  H   UNL     1       7.361  -5.557  -3.486  1.00  0.00     0.296 HD
ENDBRANCH  65  67
ENDBRANCH  49  65
ENDBRANCH  47  49
ENDBRANCH  43  45
ENDBRANCH   1  43
BRANCH   1  69
ATOM     69  C   UNL     1       4.266  -2.797   0.883  1.00  0.00    -0.001 C 
ATOM     70  C   UNL     1       4.476  -1.683   0.160  1.00  0.00     0.001 C 
BRANCH  70  71
ATOM     71  C   UNL     1       3.863  -0.370   0.369  1.00  0.00    -0.055 C 
ATOM     72  C   UNL     1       3.973   0.186   1.594  1.00  0.00    -0.018 C 
ATOM     73  C   UNL     1       3.159   0.271  -0.799  1.00  0.00     0.044 C 
BRANCH  72  74
ATOM     74  C   UNL     1       3.446   1.523   2.096  1.00  0.00     0.038 C 
ATOM     75  C   UNL     1       4.602   2.222   2.821  1.00  0.00     0.015 C 
BRANCH  74  76
ATOM     76  C   UNL     1       2.185   1.267   2.973  1.00  0.00     0.128 C 
BRANCH  76  77
ATOM     77  O   UNL     1       2.069   2.290   3.977  1.00  0.00    -0.381 OA
ATOM     78  C   UNL     1       1.833   1.783   5.284  1.00  0.00     0.195 C 
ENDBRANCH  76  77
BRANCH  76  79
ATOM     79  C   UNL     1       0.880   1.075   2.159  1.00  0.00     0.068 C 
BRANCH  79  80
ATOM     80  C   UNL     1       0.224  -0.284   2.186  1.00  0.00    -0.045 A 
ATOM     81  C   UNL     1       0.940  -1.438   1.841  1.00  0.00     0.004 A 
ATOM     82  C   UNL     1      -1.130  -0.409   2.532  1.00  0.00     0.004 A 
ATOM     83  C   UNL     1       0.321  -2.690   1.854  1.00  0.00     0.000 A 
ATOM     84  C   UNL     1      -1.748  -1.661   2.544  1.00  0.00     0.000 A 
ATOM     85  C   UNL     1      -1.022  -2.801   2.207  1.00  0.00     0.000 A 
ENDBRANCH  79  80
ENDBRANCH  76  79
ENDBRANCH  74  76
ENDBRANCH  72  74
ENDBRANCH  70  71
ENDBRANCH   1  69
TORSDOF 17
ENDMDL
MODEL 22
REMARK VINA RESULT:    -6.517      6.127     12.496
REMARK INTER + INTRA:         -27.386
REMARK INTER:                 -20.177
REMARK INTRA:                  -7.209
REMARK UNBOUND:                -7.916
REMARK SMILES C=C1C(=O)N[C@H](C)C(=O)N[C@@H](CC(C)C)C(=O)N[C@@H](C(=O)O)[C@H](C)C(=O)N[C@@H](CCCN=C(N)N)C(=O)N[C@@H](/C=C/C(C)=C/[C@H](C)[C@H](Cc2ccccc2)OC)[C@H](C)C(=O)N[C@@H](C(=O)O)CCC(=O)N1C
REMARK SMILES IDX 39 1 38 2 37 3 36 4 28 6 27 7 25 8 26 9 23 11 24 12 19 13
REMARK SMILES IDX 18 14 16 15 17 16 11 18 10 19 8 20 9 21 12 24 13 25 14 26
REMARK SMILES IDX 15 27 20 28 21 29 22 30 29 32 30 33 31 34 32 35 33 36 34 37
REMARK SMILES IDX 35 38 57 43 58 44 59 45 60 46 61 47 62 49 66 50 67 51 68 52
REMARK SMILES IDX 69 53 70 54 71 55 2 56 1 57 3 58 4 59 5 60 6 62 7 63 63 65
REMARK SMILES IDX 64 66 65 67 40 69 41 70 42 71 44 72 43 73 45 74 46 75 47 76
REMARK SMILES IDX 55 77 56 78 48 79 49 80 50 81 54 82 51 83 53 84 52 85
REMARK H PARENT 38 5 27 10 18 17 10 22 22 31 34 39 34 40 35 41 35 42 61 48
REMARK H PARENT 5 61 65 68
REMARK Flexibility Score:  369.900
ROOT
ATOM      1  C   UNL     1       1.101  -1.131   2.348  1.00  0.00     0.117 C 
ENDROOT
BRANCH   1   2
ATOM      2  N   UNL     1       1.905  -0.498   1.301  1.00  0.00    -0.347 N 
ATOM      3  O   UNL     1       3.337  -2.249   0.906  1.00  0.00    -0.273 OA
ATOM      4  C   UNL     1       2.905  -1.143   0.598  1.00  0.00     0.243 C 
ATOM      5  H   UNL     1       1.701   0.450   1.026  1.00  0.00     0.164 HD
BRANCH   4   6
ATOM      6  C   UNL     1       3.543  -0.275  -0.516  1.00  0.00     0.171 C 
BRANCH   6   7
ATOM      7  N   UNL     1       3.183   1.141  -0.334  1.00  0.00    -0.344 N 
ATOM      8  C   UNL     1       2.922   1.944  -1.423  1.00  0.00     0.226 C 
ATOM      9  O   UNL     1       2.996   1.538  -2.576  1.00  0.00    -0.275 OA
ATOM     10  H   UNL     1       3.177   1.529   0.600  1.00  0.00     0.164 HD
BRANCH   8  11
ATOM     11  C   UNL     1       2.512   3.363  -1.069  1.00  0.00     0.109 C 
ATOM     12  C   UNL     1       2.355   3.503   0.445  1.00  0.00     0.021 C 
BRANCH  11  13
ATOM     13  C   UNL     1       3.489   4.365  -1.715  1.00  0.00     0.204 C 
BRANCH  13  14
ATOM     14  N   UNL     1       4.827   3.793  -1.894  1.00  0.00    -0.340 N 
ATOM     15  C   UNL     1       5.915   4.187  -1.146  1.00  0.00     0.243 C 
ATOM     16  O   UNL     1       5.827   5.005  -0.231  1.00  0.00    -0.273 OA
ATOM     17  H   UNL     1       5.000   3.227  -2.729  1.00  0.00     0.164 HD
BRANCH  15  18
ATOM     18  C   UNL     1       7.257   3.601  -1.650  1.00  0.00     0.171 C 
BRANCH  18  19
ATOM     19  N   UNL     1       7.663   4.411  -2.797  1.00  0.00    -0.343 N 
ATOM     20  C   UNL     1       7.873   3.854  -4.044  1.00  0.00     0.242 CG0
ATOM     21  O   UNL     1       7.858   2.638  -4.216  1.00  0.00    -0.273 OA
ATOM     22  H   UNL     1       7.801   5.408  -2.678  1.00  0.00     0.164 HD
ATOM     23  G   UNL     1       8.218   4.876  -5.147  1.00  0.00     0.000 G0
ENDBRANCH  18  19
BRANCH  18  24
ATOM     24  C   UNL     1       8.313   3.633  -0.538  1.00  0.00     0.038 C 
BRANCH  24  25
ATOM     25  C   UNL     1       8.170   2.517   0.519  1.00  0.00    -0.015 C 
ATOM     26  C   UNL     1       8.969   2.808   1.789  1.00  0.00     0.007 C 
ATOM     27  C   UNL     1       8.622   1.182  -0.079  1.00  0.00     0.007 C 
ENDBRANCH  24  25
ENDBRANCH  18  24
ENDBRANCH  15  18
ENDBRANCH  13  14
BRANCH  13  28
ATOM     28  C   UNL     1       3.022   4.866  -3.085  1.00  0.00     0.327 C 
ATOM     29  O   UNL     1       3.562   5.727  -3.762  1.00  0.00    -0.250 OA
BRANCH  28  30
ATOM     30  O   UNL     1       1.841   4.339  -3.466  1.00  0.00    -0.480 OA
ATOM     31  H   UNL     1       1.630   4.801  -4.304  1.00  0.00     0.296 HD
ENDBRANCH  28  30
ENDBRANCH  13  28
ENDBRANCH  11  13
ENDBRANCH   8  11
ENDBRANCH   6   7
BRANCH   6  32
ATOM     32  C   UNL     1       5.064  -0.460  -0.489  1.00  0.00     0.037 C 
BRANCH  32  33
ATOM     33  C   UNL     1       5.535  -1.528  -1.487  1.00  0.00     0.026 C 
BRANCH  33  34
ATOM     34  C   UNL     1       6.620  -1.008  -2.431  1.00  0.00     0.146 C 
BRANCH  34  35
ATOM     35  N   UNL     1       6.197  -1.241  -3.805  1.00  0.00    -0.254 NA
ATOM     36  C   UNL     1       5.637  -0.284  -4.447  1.00  0.00     0.185 C 
ATOM     37  N   UNL     1       5.248  -0.487  -5.715  1.00  0.00    -0.370 N 
ATOM     38  N   UNL     1       5.361   0.964  -4.030  1.00  0.00    -0.370 N 
ATOM     39  H   UNL     1       5.432  -1.402  -6.106  1.00  0.00     0.159 HD
ATOM     40  H   UNL     1       4.965   0.252  -6.335  1.00  0.00     0.159 HD
ATOM     41  H   UNL     1       4.791   1.583  -4.583  1.00  0.00     0.159 HD
ATOM     42  H   UNL     1       5.584   1.252  -3.090  1.00  0.00     0.159 HD
ENDBRANCH  34  35
ENDBRANCH  33  34
ENDBRANCH  32  33
ENDBRANCH   6  32
ENDBRANCH   4   6
ENDBRANCH   1   2
BRANCH   1  43
ATOM     43  C   UNL     1      -0.162  -1.758   1.691  1.00  0.00     0.102 C 
ATOM     44  C   UNL     1      -1.478  -1.115   2.160  1.00  0.00     0.020 C 
BRANCH  43  45
ATOM     45  C   UNL     1      -0.141  -3.285   1.805  1.00  0.00     0.225 C 
ATOM     46  O   UNL     1      -1.061  -3.934   2.295  1.00  0.00    -0.275 OA
ATOM     47  N   UNL     1       1.027  -3.893   1.404  1.00  0.00    -0.342 N 
ATOM     48  H   UNL     1       1.705  -3.369   0.869  1.00  0.00     0.164 HD
BRANCH  47  49
ATOM     49  C   UNL     1       1.178  -5.351   1.424  1.00  0.00     0.192 C 
BRANCH  49  50
ATOM     50  C   UNL     1       1.983  -5.768   2.657  1.00  0.00     0.047 C 
BRANCH  50  51
ATOM     51  C   UNL     1       1.492  -7.096   3.250  1.00  0.00     0.103 C 
BRANCH  51  52
ATOM     52  C   UNL     1       0.114  -6.961   3.895  1.00  0.00     0.226 C 
ATOM     53  O   UNL     1      -0.103  -6.040   4.684  1.00  0.00    -0.275 OA
BRANCH  52  54
ATOM     54  N   UNL     1      -0.867  -7.880   3.475  1.00  0.00    -0.311 N 
ATOM     55  C   UNL     1      -1.104  -8.133   2.048  1.00  0.00     0.153 C 
BRANCH  54  56
ATOM     56  C   UNL     1      -1.648  -8.591   4.401  1.00  0.00     0.102 C 
ATOM     57  C   UNL     1      -1.256  -9.703   5.044  1.00  0.00     0.043 C 
BRANCH  56  58
ATOM     58  C   UNL     1      -3.026  -8.106   4.787  1.00  0.00     0.268 C 
ATOM     59  O   UNL     1      -3.578  -7.158   4.244  1.00  0.00    -0.268 OA
ATOM     60  N   UNL     1      -3.617  -8.877   5.759  1.00  0.00    -0.339 N 
ATOM     61  H   UNL     1      -3.088  -9.639   6.165  1.00  0.00     0.164 HD
BRANCH  60  62
ATOM     62  C   UNL     1      -4.976  -8.622   6.235  1.00  0.00     0.168 CG0
ATOM     63  C   UNL     1      -5.634  -9.906   6.725  1.00  0.00     0.041 C 
ATOM     64  G   UNL     1      -5.808  -7.979   5.106  1.00  0.00     0.000 G0
ENDBRANCH  60  62
ENDBRANCH  56  58
ENDBRANCH  54  56
ENDBRANCH  52  54
ENDBRANCH  51  52
ENDBRANCH  50  51
ENDBRANCH  49  50
BRANCH  49  65
ATOM     65  C   UNL     1       1.882  -5.865   0.158  1.00  0.00     0.326 C 
ATOM     66  O   UNL     1       1.468  -6.751  -0.575  1.00  0.00    -0.250 OA
BRANCH  65  67
ATOM     67  O   UNL     1       3.082  -5.295  -0.090  1.00  0.00    -0.480 OA
ATOM     68  H   UNL     1       2.851  -4.392  -0.396  1.00  0.00     0.296 HD
ENDBRANCH  65  67
ENDBRANCH  49  65
ENDBRANCH  47  49
ENDBRANCH  43  45
ENDBRANCH   1  43
BRANCH   1  69
ATOM     69  C   UNL     1       0.921  -0.086   3.434  1.00  0.00    -0.001 C 
ATOM     70  C   UNL     1       1.058   1.247   3.316  1.00  0.00     0.001 C 
BRANCH  70  71
ATOM     71  C   UNL     1       0.861   2.248   4.366  1.00  0.00    -0.055 C 
ATOM     72  C   UNL     1      -0.104   2.015   5.281  1.00  0.00    -0.018 C 
ATOM     73  C   UNL     1       1.753   3.462   4.356  1.00  0.00     0.044 C 
BRANCH  72  74
ATOM     74  C   UNL     1      -0.527   2.864   6.472  1.00  0.00     0.038 C 
ATOM     75  C   UNL     1       0.099   2.234   7.722  1.00  0.00     0.015 C 
BRANCH  74  76
ATOM     76  C   UNL     1      -2.081   2.955   6.494  1.00  0.00     0.128 C 
BRANCH  76  77
ATOM     77  O   UNL     1      -2.597   2.259   7.642  1.00  0.00    -0.381 OA
ATOM     78  C   UNL     1      -3.112   0.969   7.343  1.00  0.00     0.195 C 
ENDBRANCH  76  77
BRANCH  76  79
ATOM     79  C   UNL     1      -2.629   4.400   6.373  1.00  0.00     0.068 C 
BRANCH  79  80
ATOM     80  C   UNL     1      -1.646   5.506   6.074  1.00  0.00    -0.045 A 
ATOM     81  C   UNL     1      -1.129   5.683   4.784  1.00  0.00     0.004 A 
ATOM     82  C   UNL     1      -1.211   6.362   7.097  1.00  0.00     0.004 A 
ATOM     83  C   UNL     1      -0.209   6.699   4.518  1.00  0.00     0.000 A 
ATOM     84  C   UNL     1      -0.291   7.378   6.831  1.00  0.00     0.000 A 
ATOM     85  C   UNL     1       0.209   7.547   5.542  1.00  0.00     0.000 A 
ENDBRANCH  79  80
ENDBRANCH  76  79
ENDBRANCH  74  76
ENDBRANCH  72  74
ENDBRANCH  70  71
ENDBRANCH   1  69
TORSDOF 17
ENDMDL
MODEL 23
REMARK VINA RESULT:    -6.516      5.584     13.537
REMARK INTER + INTRA:         -27.384
REMARK INTER:                 -20.264
REMARK INTRA:                  -7.120
REMARK UNBOUND:                -7.916
REMARK SMILES C=C1C(=O)N[C@H](C)C(=O)N[C@@H](CC(C)C)C(=O)N[C@@H](C(=O)O)[C@H](C)C(=O)N[C@@H](CCCN=C(N)N)C(=O)N[C@@H](/C=C/C(C)=C/[C@H](C)[C@H](Cc2ccccc2)OC)[C@H](C)C(=O)N[C@@H](C(=O)O)CCC(=O)N1C
REMARK SMILES IDX 39 1 38 2 37 3 36 4 28 6 27 7 25 8 26 9 23 11 24 12 19 13
REMARK SMILES IDX 18 14 16 15 17 16 11 18 10 19 8 20 9 21 12 24 13 25 14 26
REMARK SMILES IDX 15 27 20 28 21 29 22 30 29 32 30 33 31 34 32 35 33 36 34 37
REMARK SMILES IDX 35 38 57 43 58 44 59 45 60 46 61 47 62 49 66 50 67 51 68 52
REMARK SMILES IDX 69 53 70 54 71 55 2 56 1 57 3 58 4 59 5 60 6 62 7 63 63 65
REMARK SMILES IDX 64 66 65 67 40 69 41 70 42 71 44 72 43 73 45 74 46 75 47 76
REMARK SMILES IDX 55 77 56 78 48 79 49 80 50 81 54 82 51 83 53 84 52 85
REMARK H PARENT 38 5 27 10 18 17 10 22 22 31 34 39 34 40 35 41 35 42 61 48
REMARK H PARENT 5 61 65 68
REMARK Flexibility Score:  369.900
ROOT
ATOM      1  C   UNL     1      -5.798  -5.562   7.613  1.00  0.00     0.117 C 
ENDROOT
BRANCH   1   2
ATOM      2  N   UNL     1      -4.471  -5.095   7.208  1.00  0.00    -0.347 N 
ATOM      3  O   UNL     1      -4.967  -2.861   7.026  1.00  0.00    -0.273 OA
ATOM      4  C   UNL     1      -4.139  -3.765   7.035  1.00  0.00     0.243 C 
ATOM      5  H   UNL     1      -3.726  -5.765   7.090  1.00  0.00     0.164 HD
BRANCH   4   6
ATOM      6  C   UNL     1      -2.645  -3.536   6.689  1.00  0.00     0.171 C 
BRANCH   6   7
ATOM      7  N   UNL     1      -2.122  -4.662   5.898  1.00  0.00    -0.344 N 
ATOM      8  C   UNL     1      -1.019  -5.368   6.326  1.00  0.00     0.226 C 
ATOM      9  O   UNL     1      -0.414  -5.089   7.354  1.00  0.00    -0.275 OA
ATOM     10  H   UNL     1      -2.554  -4.879   5.009  1.00  0.00     0.164 HD
BRANCH   8  11
ATOM     11  C   UNL     1      -0.636  -6.533   5.430  1.00  0.00     0.109 C 
ATOM     12  C   UNL     1      -1.202  -6.324   4.025  1.00  0.00     0.021 C 
BRANCH  11  13
ATOM     13  C   UNL     1       0.888  -6.757   5.488  1.00  0.00     0.204 C 
BRANCH  13  14
ATOM     14  N   UNL     1       1.628  -5.494   5.581  1.00  0.00    -0.340 N 
ATOM     15  C   UNL     1       2.308  -4.946   4.516  1.00  0.00     0.243 C 
ATOM     16  O   UNL     1       2.292  -5.447   3.393  1.00  0.00    -0.273 OA
ATOM     17  H   UNL     1       1.807  -5.110   6.513  1.00  0.00     0.164 HD
BRANCH  15  18
ATOM     18  C   UNL     1       3.183  -3.727   4.902  1.00  0.00     0.171 C 
BRANCH  18  19
ATOM     19  N   UNL     1       3.873  -3.305   3.685  1.00  0.00    -0.343 N 
ATOM     20  C   UNL     1       5.231  -3.494   3.514  1.00  0.00     0.242 CG0
ATOM     21  O   UNL     1       5.943  -3.902   4.428  1.00  0.00    -0.273 OA
ATOM     22  H   UNL     1       3.346  -2.855   2.945  1.00  0.00     0.164 HD
ATOM     23  G   UNL     1       5.766  -3.057   2.135  1.00  0.00     0.000 G0
ENDBRANCH  18  19
BRANCH  18  24
ATOM     24  C   UNL     1       2.317  -2.600   5.477  1.00  0.00     0.038 C 
BRANCH  24  25
ATOM     25  C   UNL     1       2.613  -2.247   6.950  1.00  0.00    -0.015 C 
ATOM     26  C   UNL     1       1.342  -2.129   7.791  1.00  0.00     0.007 C 
ATOM     27  C   UNL     1       3.398  -0.934   7.017  1.00  0.00     0.007 C 
ENDBRANCH  24  25
ENDBRANCH  18  24
ENDBRANCH  15  18
ENDBRANCH  13  14
BRANCH  13  28
ATOM     28  C   UNL     1       1.325  -7.627   6.670  1.00  0.00     0.327 C 
ATOM     29  O   UNL     1       0.830  -8.692   7.006  1.00  0.00    -0.250 OA
BRANCH  28  30
ATOM     30  O   UNL     1       2.279  -7.049   7.429  1.00  0.00    -0.480 OA
ATOM     31  H   UNL     1       2.995  -6.837   6.795  1.00  0.00     0.296 HD
ENDBRANCH  28  30
ENDBRANCH  13  28
ENDBRANCH  11  13
ENDBRANCH   8  11
ENDBRANCH   6   7
BRANCH   6  32
ATOM     32  C   UNL     1      -2.503  -2.216   5.924  1.00  0.00     0.037 C 
BRANCH  32  33
ATOM     33  C   UNL     1      -1.207  -2.160   5.103  1.00  0.00     0.026 C 
BRANCH  33  34
ATOM     34  C   UNL     1      -1.457  -2.323   3.603  1.00  0.00     0.146 C 
BRANCH  34  35
ATOM     35  N   UNL     1      -0.385  -3.126   3.032  1.00  0.00    -0.254 NA
ATOM     36  C   UNL     1       0.143  -2.751   1.927  1.00  0.00     0.185 C 
ATOM     37  N   UNL     1       1.135  -3.482   1.395  1.00  0.00    -0.370 N 
ATOM     38  N   UNL     1      -0.153  -1.680   1.170  1.00  0.00    -0.370 N 
ATOM     39  H   UNL     1       1.424  -4.302   1.913  1.00  0.00     0.159 HD
ATOM     40  H   UNL     1       1.712  -3.166   0.634  1.00  0.00     0.159 HD
ATOM     41  H   UNL     1       0.238  -1.568   0.249  1.00  0.00     0.159 HD
ATOM     42  H   UNL     1      -0.892  -1.049   1.441  1.00  0.00     0.159 HD
ENDBRANCH  34  35
ENDBRANCH  33  34
ENDBRANCH  32  33
ENDBRANCH   6  32
ENDBRANCH   4   6
ENDBRANCH   1   2
BRANCH   1  43
ATOM     43  C   UNL     1      -6.049  -5.122   9.085  1.00  0.00     0.102 C 
ATOM     44  C   UNL     1      -4.915  -5.519  10.044  1.00  0.00     0.020 C 
BRANCH  43  45
ATOM     45  C   UNL     1      -7.441  -5.552   9.557  1.00  0.00     0.225 C 
ATOM     46  O   UNL     1      -7.635  -6.169  10.601  1.00  0.00    -0.275 OA
ATOM     47  N   UNL     1      -8.471  -5.285   8.684  1.00  0.00    -0.342 N 
ATOM     48  H   UNL     1      -8.322  -4.651   7.912  1.00  0.00     0.164 HD
BRANCH  47  49
ATOM     49  C   UNL     1      -9.862  -5.608   9.019  1.00  0.00     0.192 C 
BRANCH  49  50
ATOM     50  C   UNL     1     -10.573  -6.161   7.781  1.00  0.00     0.047 C 
BRANCH  50  51
ATOM     51  C   UNL     1     -10.598  -7.696   7.761  1.00  0.00     0.103 C 
BRANCH  51  52
ATOM     52  C   UNL     1     -12.001  -8.243   7.506  1.00  0.00     0.226 C 
ATOM     53  O   UNL     1     -12.366  -8.473   6.352  1.00  0.00    -0.275 OA
BRANCH  52  54
ATOM     54  N   UNL     1     -12.779  -8.528   8.644  1.00  0.00    -0.311 N 
ATOM     55  C   UNL     1     -12.963  -9.909   9.109  1.00  0.00     0.153 C 
BRANCH  54  56
ATOM     56  C   UNL     1     -13.403  -7.506   9.379  1.00  0.00     0.102 C 
ATOM     57  C   UNL     1     -12.980  -7.046  10.568  1.00  0.00     0.043 C 
BRANCH  56  58
ATOM     58  C   UNL     1     -14.619  -6.792   8.837  1.00  0.00     0.268 C 
ATOM     59  O   UNL     1     -15.752  -7.249   8.911  1.00  0.00    -0.268 OA
ATOM     60  N   UNL     1     -14.331  -5.554   8.313  1.00  0.00    -0.339 N 
ATOM     61  H   UNL     1     -13.364  -5.253   8.279  1.00  0.00     0.164 HD
BRANCH  60  62
ATOM     62  C   UNL     1     -15.370  -4.668   7.791  1.00  0.00     0.168 CG0
ATOM     63  C   UNL     1     -14.762  -3.406   7.192  1.00  0.00     0.041 C 
ATOM     64  G   UNL     1     -16.362  -4.315   8.918  1.00  0.00     0.000 G0
ENDBRANCH  60  62
ENDBRANCH  56  58
ENDBRANCH  54  56
ENDBRANCH  52  54
ENDBRANCH  51  52
ENDBRANCH  50  51
ENDBRANCH  49  50
BRANCH  49  65
ATOM     65  C   UNL     1     -10.621  -4.376   9.535  1.00  0.00     0.326 C 
ATOM     66  O   UNL     1     -10.327  -3.724  10.526  1.00  0.00    -0.250 OA
BRANCH  65  67
ATOM     67  O   UNL     1     -11.732  -4.063   8.831  1.00  0.00    -0.480 OA
ATOM     68  H   UNL     1     -11.479  -3.243   8.354  1.00  0.00     0.296 HD
ENDBRANCH  65  67
ENDBRANCH  49  65
ENDBRANCH  47  49
ENDBRANCH  43  45
ENDBRANCH   1  43
BRANCH   1  69
ATOM     69  C   UNL     1      -5.851  -7.039   7.270  1.00  0.00    -0.001 C 
ATOM     70  C   UNL     1      -4.860  -7.797   6.768  1.00  0.00     0.001 C 
BRANCH  70  71
ATOM     71  C   UNL     1      -4.917  -9.228   6.460  1.00  0.00    -0.055 C 
ATOM     72  C   UNL     1      -3.907  -9.754   5.736  1.00  0.00    -0.018 C 
ATOM     73  C   UNL     1      -6.092 -10.012   6.982  1.00  0.00     0.044 C 
BRANCH  72  74
ATOM     74  C   UNL     1      -3.700 -11.189   5.274  1.00  0.00     0.038 C 
ATOM     75  C   UNL     1      -3.130 -11.970   6.464  1.00  0.00     0.015 C 
BRANCH  74  76
ATOM     76  C   UNL     1      -2.797 -11.182   4.005  1.00  0.00     0.128 C 
BRANCH  76  77
ATOM     77  O   UNL     1      -3.539 -11.661   2.871  1.00  0.00    -0.381 OA
ATOM     78  C   UNL     1      -2.988 -12.830   2.280  1.00  0.00     0.195 C 
ENDBRANCH  76  77
BRANCH  76  79
ATOM     79  C   UNL     1      -2.101  -9.824   3.736  1.00  0.00     0.068 C 
BRANCH  79  80
ATOM     80  C   UNL     1      -2.180  -9.254   2.340  1.00  0.00    -0.045 A 
ATOM     81  C   UNL     1      -3.308  -8.541   1.914  1.00  0.00     0.004 A 
ATOM     82  C   UNL     1      -1.128  -9.455   1.434  1.00  0.00     0.004 A 
ATOM     83  C   UNL     1      -3.379  -8.029   0.617  1.00  0.00     0.000 A 
ATOM     84  C   UNL     1      -1.200  -8.943   0.136  1.00  0.00     0.000 A 
ATOM     85  C   UNL     1      -2.324  -8.229  -0.271  1.00  0.00     0.000 A 
ENDBRANCH  79  80
ENDBRANCH  76  79
ENDBRANCH  74  76
ENDBRANCH  72  74
ENDBRANCH  70  71
ENDBRANCH   1  69
TORSDOF 17
ENDMDL
MODEL 24
REMARK VINA RESULT:    -6.511      4.320     10.909
REMARK INTER + INTRA:         -27.367
REMARK INTER:                 -20.293
REMARK INTRA:                  -7.074
REMARK UNBOUND:                -7.916
REMARK SMILES C=C1C(=O)N[C@H](C)C(=O)N[C@@H](CC(C)C)C(=O)N[C@@H](C(=O)O)[C@H](C)C(=O)N[C@@H](CCCN=C(N)N)C(=O)N[C@@H](/C=C/C(C)=C/[C@H](C)[C@H](Cc2ccccc2)OC)[C@H](C)C(=O)N[C@@H](C(=O)O)CCC(=O)N1C
REMARK SMILES IDX 39 1 38 2 37 3 36 4 28 6 27 7 25 8 26 9 23 11 24 12 19 13
REMARK SMILES IDX 18 14 16 15 17 16 11 18 10 19 8 20 9 21 12 24 13 25 14 26
REMARK SMILES IDX 15 27 20 28 21 29 22 30 29 32 30 33 31 34 32 35 33 36 34 37
REMARK SMILES IDX 35 38 57 43 58 44 59 45 60 46 61 47 62 49 66 50 67 51 68 52
REMARK SMILES IDX 69 53 70 54 71 55 2 56 1 57 3 58 4 59 5 60 6 62 7 63 63 65
REMARK SMILES IDX 64 66 65 67 40 69 41 70 42 71 44 72 43 73 45 74 46 75 47 76
REMARK SMILES IDX 55 77 56 78 48 79 49 80 50 81 54 82 51 83 53 84 52 85
REMARK H PARENT 38 5 27 10 18 17 10 22 22 31 34 39 34 40 35 41 35 42 61 48
REMARK H PARENT 5 61 65 68
REMARK Flexibility Score:  369.900
ROOT
ATOM      1  C   UNL     1       5.007  -4.117   1.939  1.00  0.00     0.117 C 
ENDROOT
BRANCH   1   2
ATOM      2  N   UNL     1       3.836  -4.760   1.341  1.00  0.00    -0.347 N 
ATOM      3  O   UNL     1       4.928  -6.480   0.284  1.00  0.00    -0.273 OA
ATOM      4  C   UNL     1       3.881  -5.946   0.635  1.00  0.00     0.243 C 
ATOM      5  H   UNL     1       2.923  -4.354   1.483  1.00  0.00     0.164 HD
BRANCH   4   6
ATOM      6  C   UNL     1       2.489  -6.455   0.183  1.00  0.00     0.171 C 
BRANCH   6   7
ATOM      7  N   UNL     1       2.624  -7.689  -0.608  1.00  0.00    -0.344 N 
ATOM      8  C   UNL     1       2.182  -7.741  -1.912  1.00  0.00     0.226 C 
ATOM      9  O   UNL     1       1.644  -6.789  -2.464  1.00  0.00    -0.275 OA
ATOM     10  H   UNL     1       3.003  -8.517  -0.164  1.00  0.00     0.164 HD
BRANCH   8  11
ATOM     11  C   UNL     1       2.442  -9.065  -2.609  1.00  0.00     0.109 C 
ATOM     12  C   UNL     1       2.138 -10.226  -1.663  1.00  0.00     0.021 C 
BRANCH  11  13
ATOM     13  C   UNL     1       1.684  -9.106  -3.951  1.00  0.00     0.204 C 
BRANCH  13  14
ATOM     14  N   UNL     1       2.592  -9.028  -5.100  1.00  0.00    -0.340 N 
ATOM     15  C   UNL     1       2.676  -7.920  -5.913  1.00  0.00     0.243 C 
ATOM     16  O   UNL     1       2.038  -6.891  -5.696  1.00  0.00    -0.273 OA
ATOM     17  H   UNL     1       3.032  -9.894  -5.423  1.00  0.00     0.164 HD
BRANCH  15  18
ATOM     18  C   UNL     1       3.542  -8.144  -7.177  1.00  0.00     0.171 C 
BRANCH  18  19
ATOM     19  N   UNL     1       2.618  -8.435  -8.272  1.00  0.00    -0.343 N 
ATOM     20  C   UNL     1       1.971  -9.652  -8.375  1.00  0.00     0.242 CG0
ATOM     21  O   UNL     1       2.241 -10.590  -7.629  1.00  0.00    -0.273 OA
ATOM     22  H   UNL     1       2.449  -7.731  -8.980  1.00  0.00     0.164 HD
ATOM     23  G   UNL     1       0.976  -9.745  -9.550  1.00  0.00     0.000 G0
ENDBRANCH  18  19
BRANCH  18  24
ATOM     24  C   UNL     1       4.395  -6.905  -7.476  1.00  0.00     0.038 C 
BRANCH  24  25
ATOM     25  C   UNL     1       5.649  -6.756  -6.588  1.00  0.00    -0.015 C 
ATOM     26  C   UNL     1       6.347  -5.410  -6.784  1.00  0.00     0.007 C 
ATOM     27  C   UNL     1       6.629  -7.894  -6.887  1.00  0.00     0.007 C 
ENDBRANCH  24  25
ENDBRANCH  18  24
ENDBRANCH  15  18
ENDBRANCH  13  14
BRANCH  13  28
ATOM     28  C   UNL     1       0.836 -10.369  -4.126  1.00  0.00     0.327 C 
ATOM     29  O   UNL     1      -0.379 -10.443  -4.026  1.00  0.00    -0.250 OA
BRANCH  28  30
ATOM     30  O   UNL     1       1.576 -11.483  -4.299  1.00  0.00    -0.480 OA
ATOM     31  H   UNL     1       2.481 -11.148  -4.467  1.00  0.00     0.296 HD
ENDBRANCH  28  30
ENDBRANCH  13  28
ENDBRANCH  11  13
ENDBRANCH   8  11
ENDBRANCH   6   7
BRANCH   6  32
ATOM     32  C   UNL     1       1.613  -6.690   1.419  1.00  0.00     0.037 C 
BRANCH  32  33
ATOM     33  C   UNL     1       0.116  -6.657   1.082  1.00  0.00     0.026 C 
BRANCH  33  34
ATOM     34  C   UNL     1      -0.421  -8.026   0.663  1.00  0.00     0.146 C 
BRANCH  34  35
ATOM     35  N   UNL     1      -1.203  -7.872  -0.556  1.00  0.00    -0.254 NA
ATOM     36  C   UNL     1      -1.523  -8.921  -1.217  1.00  0.00     0.185 C 
ATOM     37  N   UNL     1      -2.247  -8.790  -2.339  1.00  0.00    -0.370 N 
ATOM     38  N   UNL     1      -1.234 -10.207  -0.953  1.00  0.00    -0.370 N 
ATOM     39  H   UNL     1      -2.514  -7.850  -2.601  1.00  0.00     0.159 HD
ATOM     40  H   UNL     1      -2.682  -9.563  -2.814  1.00  0.00     0.159 HD
ATOM     41  H   UNL     1      -1.424 -10.932  -1.625  1.00  0.00     0.159 HD
ATOM     42  H   UNL     1      -0.680 -10.453  -0.147  1.00  0.00     0.159 HD
ENDBRANCH  34  35
ENDBRANCH  33  34
ENDBRANCH  32  33
ENDBRANCH   6  32
ENDBRANCH   4   6
ENDBRANCH   1   2
BRANCH   1  43
ATOM     43  C   UNL     1       4.547  -3.314   3.189  1.00  0.00     0.102 C 
ATOM     44  C   UNL     1       5.041  -3.912   4.517  1.00  0.00     0.020 C 
BRANCH  43  45
ATOM     45  C   UNL     1       3.039  -3.050   3.149  1.00  0.00     0.225 C 
ATOM     46  O   UNL     1       2.201  -3.898   3.442  1.00  0.00    -0.275 OA
ATOM     47  N   UNL     1       2.666  -1.815   2.669  1.00  0.00    -0.342 N 
ATOM     48  H   UNL     1       3.358  -1.084   2.579  1.00  0.00     0.164 HD
BRANCH  47  49
ATOM     49  C   UNL     1       1.259  -1.410   2.607  1.00  0.00     0.192 C 
BRANCH  49  50
ATOM     50  C   UNL     1       0.975  -0.740   1.260  1.00  0.00     0.047 C 
BRANCH  50  51
ATOM     51  C   UNL     1       2.246  -0.564   0.418  1.00  0.00     0.103 C 
BRANCH  51  52
ATOM     52  C   UNL     1       2.437   0.882  -0.036  1.00  0.00     0.226 C 
ATOM     53  O   UNL     1       2.246   1.181  -1.216  1.00  0.00    -0.275 OA
BRANCH  52  54
ATOM     54  N   UNL     1       2.755   1.817   0.967  1.00  0.00    -0.311 N 
ATOM     55  C   UNL     1       3.831   1.553   1.932  1.00  0.00     0.153 C 
BRANCH  54  56
ATOM     56  C   UNL     1       2.064   3.034   1.078  1.00  0.00     0.102 C 
ATOM     57  C   UNL     1       1.975   3.959   0.108  1.00  0.00     0.043 C 
BRANCH  56  58
ATOM     58  C   UNL     1       1.303   3.381   2.336  1.00  0.00     0.268 C 
ATOM     59  O   UNL     1       0.389   2.697   2.776  1.00  0.00    -0.268 OA
ATOM     60  N   UNL     1       1.786   4.503   2.968  1.00  0.00    -0.339 N 
ATOM     61  H   UNL     1       2.540   5.020   2.532  1.00  0.00     0.164 HD
BRANCH  60  62
ATOM     62  C   UNL     1       1.235   4.981   4.235  1.00  0.00     0.168 CG0
ATOM     63  C   UNL     1       0.366   6.214   4.024  1.00  0.00     0.041 C 
ATOM     64  G   UNL     1       2.386   5.286   5.216  1.00  0.00     0.000 G0
ENDBRANCH  60  62
ENDBRANCH  56  58
ENDBRANCH  54  56
ENDBRANCH  52  54
ENDBRANCH  51  52
ENDBRANCH  50  51
ENDBRANCH  49  50
BRANCH  49  65
ATOM     65  C   UNL     1       0.897  -0.441   3.743  1.00  0.00     0.326 C 
ATOM     66  O   UNL     1       1.655  -0.068   4.627  1.00  0.00    -0.250 OA
BRANCH  65  67
ATOM     67  O   UNL     1      -0.393  -0.039   3.753  1.00  0.00    -0.480 OA
ATOM     68  H   UNL     1      -0.441   0.604   3.014  1.00  0.00     0.296 HD
ENDBRANCH  65  67
ENDBRANCH  49  65
ENDBRANCH  47  49
ENDBRANCH  43  45
ENDBRANCH   1  43
BRANCH   1  69
ATOM     69  C   UNL     1       5.709  -3.382   0.811  1.00  0.00    -0.001 C 
ATOM     70  C   UNL     1       5.174  -2.484  -0.036  1.00  0.00     0.001 C 
BRANCH  70  71
ATOM     71  C   UNL     1       5.867  -1.765  -1.106  1.00  0.00    -0.055 C 
ATOM     72  C   UNL     1       6.849  -2.415  -1.766  1.00  0.00    -0.018 C 
ATOM     73  C   UNL     1       5.429  -0.354  -1.402  1.00  0.00     0.044 C 
BRANCH  72  74
ATOM     74  C   UNL     1       7.727  -1.927  -2.910  1.00  0.00     0.038 C 
ATOM     75  C   UNL     1       7.001  -2.271  -4.216  1.00  0.00     0.015 C 
BRANCH  74  76
ATOM     76  C   UNL     1       9.141  -2.562  -2.762  1.00  0.00     0.128 C 
BRANCH  76  77
ATOM     77  O   UNL     1       9.236  -3.262  -1.509  1.00  0.00    -0.381 OA
ATOM     78  C   UNL     1      10.478  -3.076  -0.844  1.00  0.00     0.195 C 
ENDBRANCH  76  77
BRANCH  76  79
ATOM     79  C   UNL     1       9.569  -3.433  -3.969  1.00  0.00     0.068 C 
BRANCH  79  80
ATOM     80  C   UNL     1       9.536  -4.934  -3.806  1.00  0.00    -0.045 A 
ATOM     81  C   UNL     1       8.322  -5.633  -3.807  1.00  0.00     0.004 A 
ATOM     82  C   UNL     1      10.728  -5.651  -3.621  1.00  0.00     0.004 A 
ATOM     83  C   UNL     1       8.299  -7.020  -3.641  1.00  0.00     0.000 A 
ATOM     84  C   UNL     1      10.703  -7.038  -3.455  1.00  0.00     0.000 A 
ATOM     85  C   UNL     1       9.490  -7.722  -3.466  1.00  0.00     0.000 A 
ENDBRANCH  79  80
ENDBRANCH  76  79
ENDBRANCH  74  76
ENDBRANCH  72  74
ENDBRANCH  70  71
ENDBRANCH   1  69
TORSDOF 17
ENDMDL
MODEL 25
REMARK VINA RESULT:    -6.491      5.326      8.495
REMARK INTER + INTRA:         -27.310
REMARK INTER:                 -20.684
REMARK INTRA:                  -6.626
REMARK UNBOUND:                -7.916
REMARK SMILES C=C1C(=O)N[C@H](C)C(=O)N[C@@H](CC(C)C)C(=O)N[C@@H](C(=O)O)[C@H](C)C(=O)N[C@@H](CCCN=C(N)N)C(=O)N[C@@H](/C=C/C(C)=C/[C@H](C)[C@H](Cc2ccccc2)OC)[C@H](C)C(=O)N[C@@H](C(=O)O)CCC(=O)N1C
REMARK SMILES IDX 39 1 38 2 37 3 36 4 28 6 27 7 25 8 26 9 23 11 24 12 19 13
REMARK SMILES IDX 18 14 16 15 17 16 11 18 10 19 8 20 9 21 12 24 13 25 14 26
REMARK SMILES IDX 15 27 20 28 21 29 22 30 29 32 30 33 31 34 32 35 33 36 34 37
REMARK SMILES IDX 35 38 57 43 58 44 59 45 60 46 61 47 62 49 66 50 67 51 68 52
REMARK SMILES IDX 69 53 70 54 71 55 2 56 1 57 3 58 4 59 5 60 6 62 7 63 63 65
REMARK SMILES IDX 64 66 65 67 40 69 41 70 42 71 44 72 43 73 45 74 46 75 47 76
REMARK SMILES IDX 55 77 56 78 48 79 49 80 50 81 54 82 51 83 53 84 52 85
REMARK H PARENT 38 5 27 10 18 17 10 22 22 31 34 39 34 40 35 41 35 42 61 48
REMARK H PARENT 5 61 65 68
REMARK Flexibility Score:  369.900
ROOT
ATOM      1  C   UNL     1       5.309  -3.833   0.576  1.00  0.00     0.117 C 
ENDROOT
BRANCH   1   2
ATOM      2  N   UNL     1       4.000  -3.863   1.229  1.00  0.00    -0.347 N 
ATOM      3  O   UNL     1       3.029  -5.470  -0.091  1.00  0.00    -0.273 OA
ATOM      4  C   UNL     1       2.992  -4.748   0.900  1.00  0.00     0.243 C 
ATOM      5  H   UNL     1       3.819  -3.242   2.003  1.00  0.00     0.164 HD
BRANCH   4   6
ATOM      6  C   UNL     1       1.738  -4.628   1.802  1.00  0.00     0.171 C 
BRANCH   6   7
ATOM      7  N   UNL     1       1.708  -5.719   2.790  1.00  0.00    -0.344 N 
ATOM      8  C   UNL     1       1.116  -6.926   2.486  1.00  0.00     0.226 C 
ATOM      9  O   UNL     1       0.574  -7.143   1.409  1.00  0.00    -0.275 OA
ATOM     10  H   UNL     1       2.086  -5.554   3.714  1.00  0.00     0.164 HD
BRANCH   8  11
ATOM     11  C   UNL     1       1.215  -7.966   3.588  1.00  0.00     0.109 C 
ATOM     12  C   UNL     1       1.871  -7.358   4.828  1.00  0.00     0.021 C 
BRANCH  11  13
ATOM     13  C   UNL     1      -0.168  -8.601   3.831  1.00  0.00     0.204 C 
BRANCH  13  14
ATOM     14  N   UNL     1      -0.561  -9.502   2.743  1.00  0.00    -0.340 N 
ATOM     15  C   UNL     1      -1.861  -9.622   2.303  1.00  0.00     0.243 C 
ATOM     16  O   UNL     1      -2.776  -8.934   2.753  1.00  0.00    -0.273 OA
ATOM     17  H   UNL     1       0.116 -10.205   2.434  1.00  0.00     0.164 HD
BRANCH  15  18
ATOM     18  C   UNL     1      -2.069 -10.778   1.295  1.00  0.00     0.171 C 
BRANCH  18  19
ATOM     19  N   UNL     1      -2.818 -11.817   1.999  1.00  0.00    -0.343 N 
ATOM     20  C   UNL     1      -4.197 -11.889   1.939  1.00  0.00     0.242 CG0
ATOM     21  O   UNL     1      -4.864 -11.008   1.403  1.00  0.00    -0.273 OA
ATOM     22  H   UNL     1      -2.317 -12.503   2.552  1.00  0.00     0.164 HD
ATOM     23  G   UNL     1      -4.804 -13.098   2.680  1.00  0.00     0.000 G0
ENDBRANCH  18  19
BRANCH  18  24
ATOM     24  C   UNL     1      -2.823 -10.286   0.054  1.00  0.00     0.038 C 
BRANCH  24  25
ATOM     25  C   UNL     1      -2.284  -8.970  -0.547  1.00  0.00    -0.015 C 
ATOM     26  C   UNL     1      -3.379  -8.144  -1.223  1.00  0.00     0.007 C 
ATOM     27  C   UNL     1      -1.175  -9.280  -1.555  1.00  0.00     0.007 C 
ENDBRANCH  24  25
ENDBRANCH  18  24
ENDBRANCH  15  18
ENDBRANCH  13  14
BRANCH  13  28
ATOM     28  C   UNL     1      -0.243  -9.403   5.134  1.00  0.00     0.327 C 
ATOM     29  O   UNL     1       0.476 -10.340   5.449  1.00  0.00    -0.250 OA
BRANCH  28  30
ATOM     30  O   UNL     1      -1.291  -9.057   5.909  1.00  0.00    -0.480 OA
ATOM     31  H   UNL     1      -1.404  -9.817   6.516  1.00  0.00     0.296 HD
ENDBRANCH  28  30
ENDBRANCH  13  28
ENDBRANCH  11  13
ENDBRANCH   8  11
ENDBRANCH   6   7
BRANCH   6  32
ATOM     32  C   UNL     1       1.746  -3.261   2.496  1.00  0.00     0.037 C 
BRANCH  32  33
ATOM     33  C   UNL     1       0.382  -2.915   3.110  1.00  0.00     0.026 C 
BRANCH  33  34
ATOM     34  C   UNL     1      -0.765  -3.689   2.460  1.00  0.00     0.146 C 
BRANCH  34  35
ATOM     35  N   UNL     1      -1.431  -4.486   3.480  1.00  0.00    -0.254 NA
ATOM     36  C   UNL     1      -2.079  -5.530   3.118  1.00  0.00     0.185 C 
ATOM     37  N   UNL     1      -2.693  -6.275   4.051  1.00  0.00    -0.370 N 
ATOM     38  N   UNL     1      -2.254  -6.030   1.882  1.00  0.00    -0.370 N 
ATOM     39  H   UNL     1      -2.598  -5.969   5.011  1.00  0.00     0.159 HD
ATOM     40  H   UNL     1      -3.068  -7.191   3.872  1.00  0.00     0.159 HD
ATOM     41  H   UNL     1      -2.902  -6.780   1.710  1.00  0.00     0.159 HD
ATOM     42  H   UNL     1      -1.861  -5.562   1.080  1.00  0.00     0.159 HD
ENDBRANCH  34  35
ENDBRANCH  33  34
ENDBRANCH  32  33
ENDBRANCH   6  32
ENDBRANCH   4   6
ENDBRANCH   1   2
BRANCH   1  43
ATOM     43  C   UNL     1       6.412  -3.893   1.673  1.00  0.00     0.102 C 
ATOM     44  C   UNL     1       6.613  -2.559   2.411  1.00  0.00     0.020 C 
BRANCH  43  45
ATOM     45  C   UNL     1       7.705  -4.499   1.120  1.00  0.00     0.225 C 
ATOM     46  O   UNL     1       8.311  -5.410   1.677  1.00  0.00    -0.275 OA
ATOM     47  N   UNL     1       8.210  -3.891  -0.007  1.00  0.00    -0.342 N 
ATOM     48  H   UNL     1       7.630  -3.252  -0.533  1.00  0.00     0.164 HD
BRANCH  47  49
ATOM     49  C   UNL     1       9.422  -4.386  -0.666  1.00  0.00     0.192 C 
BRANCH  49  50
ATOM     50  C   UNL     1      10.418  -3.236  -0.843  1.00  0.00     0.047 C 
BRANCH  50  51
ATOM     51  C   UNL     1       9.718  -1.892  -1.086  1.00  0.00     0.103 C 
BRANCH  51  52
ATOM     52  C   UNL     1      10.146  -1.253  -2.405  1.00  0.00     0.226 C 
ATOM     53  O   UNL     1       9.669  -1.663  -3.465  1.00  0.00    -0.275 OA
BRANCH  52  54
ATOM     54  N   UNL     1      11.026  -0.158  -2.315  1.00  0.00    -0.311 N 
ATOM     55  C   UNL     1      10.758   0.953  -1.392  1.00  0.00     0.153 C 
BRANCH  54  56
ATOM     56  C   UNL     1      12.191  -0.088  -3.096  1.00  0.00     0.102 C 
ATOM     57  C   UNL     1      13.399  -0.537  -2.716  1.00  0.00     0.043 C 
BRANCH  56  58
ATOM     58  C   UNL     1      12.154   0.481  -4.495  1.00  0.00     0.268 C 
ATOM     59  O   UNL     1      11.515   1.481  -4.794  1.00  0.00    -0.268 OA
ATOM     60  N   UNL     1      12.960  -0.199  -5.376  1.00  0.00    -0.339 N 
ATOM     61  H   UNL     1      13.449  -1.024  -5.052  1.00  0.00     0.164 HD
BRANCH  60  62
ATOM     62  C   UNL     1      13.121   0.221  -6.768  1.00  0.00     0.168 CG0
ATOM     63  C   UNL     1      12.557  -0.823  -7.723  1.00  0.00     0.041 C 
ATOM     64  G   UNL     1      14.613   0.479  -7.060  1.00  0.00     0.000 G0
ENDBRANCH  60  62
ENDBRANCH  56  58
ENDBRANCH  54  56
ENDBRANCH  52  54
ENDBRANCH  51  52
ENDBRANCH  50  51
ENDBRANCH  49  50
BRANCH  49  65
ATOM     65  C   UNL     1       9.109  -5.002  -2.039  1.00  0.00     0.326 C 
ATOM     66  O   UNL     1       8.148  -5.714  -2.295  1.00  0.00    -0.250 OA
BRANCH  65  67
ATOM     67  O   UNL     1      10.032  -4.752  -2.993  1.00  0.00    -0.480 OA
ATOM     68  H   UNL     1       9.846  -3.826  -3.258  1.00  0.00     0.296 HD
ENDBRANCH  65  67
ENDBRANCH  49  65
ENDBRANCH  47  49
ENDBRANCH  43  45
ENDBRANCH   1  43
BRANCH   1  69
ATOM     69  C   UNL     1       5.283  -2.649  -0.373  1.00  0.00    -0.001 C 
ATOM     70  C   UNL     1       4.502  -1.557  -0.294  1.00  0.00     0.001 C 
BRANCH  70  71
ATOM     71  C   UNL     1       4.500  -0.410  -1.205  1.00  0.00    -0.055 C 
ATOM     72  C   UNL     1       5.588  -0.223  -1.981  1.00  0.00    -0.018 C 
ATOM     73  C   UNL     1       3.282   0.476  -1.216  1.00  0.00     0.044 C 
BRANCH  72  74
ATOM     74  C   UNL     1       5.863   0.866  -3.009  1.00  0.00     0.038 C 
ATOM     75  C   UNL     1       5.792   0.210  -4.393  1.00  0.00     0.015 C 
BRANCH  74  76
ATOM     76  C   UNL     1       7.227   1.538  -2.674  1.00  0.00     0.128 C 
BRANCH  76  77
ATOM     77  O   UNL     1       8.063   1.560  -3.843  1.00  0.00    -0.381 OA
ATOM     78  C   UNL     1       8.416   2.869  -4.268  1.00  0.00     0.195 C 
ENDBRANCH  76  77
BRANCH  76  79
ATOM     79  C   UNL     1       7.095   2.930  -2.005  1.00  0.00     0.068 C 
BRANCH  79  80
ATOM     80  C   UNL     1       5.708   3.497  -1.820  1.00  0.00    -0.045 A 
ATOM     81  C   UNL     1       5.000   4.041  -2.900  1.00  0.00     0.004 A 
ATOM     82  C   UNL     1       5.114   3.512  -0.548  1.00  0.00     0.004 A 
ATOM     83  C   UNL     1       3.723   4.576  -2.717  1.00  0.00     0.000 A 
ATOM     84  C   UNL     1       3.837   4.048  -0.367  1.00  0.00     0.000 A 
ATOM     85  C   UNL     1       3.142   4.578  -1.451  1.00  0.00     0.000 A 
ENDBRANCH  79  80
ENDBRANCH  76  79
ENDBRANCH  74  76
ENDBRANCH  72  74
ENDBRANCH  70  71
ENDBRANCH   1  69
TORSDOF 17
ENDMDL
MODEL 26
REMARK VINA RESULT:    -6.490      4.487      8.047
REMARK INTER + INTRA:         -27.306
REMARK INTER:                 -19.232
REMARK INTRA:                  -8.074
REMARK UNBOUND:                -7.916
REMARK SMILES C=C1C(=O)N[C@H](C)C(=O)N[C@@H](CC(C)C)C(=O)N[C@@H](C(=O)O)[C@H](C)C(=O)N[C@@H](CCCN=C(N)N)C(=O)N[C@@H](/C=C/C(C)=C/[C@H](C)[C@H](Cc2ccccc2)OC)[C@H](C)C(=O)N[C@@H](C(=O)O)CCC(=O)N1C
REMARK SMILES IDX 39 1 38 2 37 3 36 4 28 6 27 7 25 8 26 9 23 11 24 12 19 13
REMARK SMILES IDX 18 14 16 15 17 16 11 18 10 19 8 20 9 21 12 24 13 25 14 26
REMARK SMILES IDX 15 27 20 28 21 29 22 30 29 32 30 33 31 34 32 35 33 36 34 37
REMARK SMILES IDX 35 38 57 43 58 44 59 45 60 46 61 47 62 49 66 50 67 51 68 52
REMARK SMILES IDX 69 53 70 54 71 55 2 56 1 57 3 58 4 59 5 60 6 62 7 63 63 65
REMARK SMILES IDX 64 66 65 67 40 69 41 70 42 71 44 72 43 73 45 74 46 75 47 76
REMARK SMILES IDX 55 77 56 78 48 79 49 80 50 81 54 82 51 83 53 84 52 85
REMARK H PARENT 38 5 27 10 18 17 10 22 22 31 34 39 34 40 35 41 35 42 61 48
REMARK H PARENT 5 61 65 68
REMARK Flexibility Score:  369.900
ROOT
ATOM      1  C   UNL     1       4.150  -3.226   1.900  1.00  0.00     0.117 C 
ENDROOT
BRANCH   1   2
ATOM      2  N   UNL     1       3.133  -4.277   1.838  1.00  0.00    -0.347 N 
ATOM      3  O   UNL     1       3.851  -5.294  -0.091  1.00  0.00    -0.273 OA
ATOM      4  C   UNL     1       3.120  -5.285   0.894  1.00  0.00     0.243 C 
ATOM      5  H   UNL     1       2.417  -4.314   2.547  1.00  0.00     0.164 HD
BRANCH   4   6
ATOM      6  C   UNL     1       1.984  -6.320   1.103  1.00  0.00     0.171 C 
BRANCH   6   7
ATOM      7  N   UNL     1       2.357  -7.618   0.518  1.00  0.00    -0.344 N 
ATOM      8  C   UNL     1       1.882  -7.993  -0.720  1.00  0.00     0.226 C 
ATOM      9  O   UNL     1       1.121  -7.291  -1.376  1.00  0.00    -0.275 OA
ATOM     10  H   UNL     1       2.929  -8.254   1.059  1.00  0.00     0.164 HD
BRANCH   8  11
ATOM     11  C   UNL     1       2.400  -9.334  -1.208  1.00  0.00     0.109 C 
ATOM     12  C   UNL     1       3.371  -9.927  -0.187  1.00  0.00     0.021 C 
BRANCH  11  13
ATOM     13  C   UNL     1       1.214 -10.247  -1.581  1.00  0.00     0.204 C 
BRANCH  13  14
ATOM     14  N   UNL     1      -0.011  -9.880  -0.864  1.00  0.00    -0.340 N 
ATOM     15  C   UNL     1      -0.829 -10.807  -0.256  1.00  0.00     0.243 C 
ATOM     16  O   UNL     1      -0.555 -12.006  -0.220  1.00  0.00    -0.273 OA
ATOM     17  H   UNL     1      -0.372  -8.930  -0.985  1.00  0.00     0.164 HD
BRANCH  15  18
ATOM     18  C   UNL     1      -2.165 -10.214   0.255  1.00  0.00     0.171 C 
BRANCH  18  19
ATOM     19  N   UNL     1      -2.860 -11.291   0.957  1.00  0.00    -0.343 N 
ATOM     20  C   UNL     1      -4.129 -11.697   0.594  1.00  0.00     0.242 CG0
ATOM     21  O   UNL     1      -4.785 -11.086  -0.247  1.00  0.00    -0.273 OA
ATOM     22  H   UNL     1      -2.404 -11.751   1.737  1.00  0.00     0.164 HD
ATOM     23  G   UNL     1      -4.668 -12.898   1.398  1.00  0.00     0.000 G0
ENDBRANCH  18  19
BRANCH  18  24
ATOM     24  C   UNL     1      -1.908  -9.016   1.177  1.00  0.00     0.038 C 
BRANCH  24  25
ATOM     25  C   UNL     1      -2.876  -7.830   0.979  1.00  0.00    -0.015 C 
ATOM     26  C   UNL     1      -3.336  -7.687  -0.472  1.00  0.00     0.007 C 
ATOM     27  C   UNL     1      -2.203  -6.534   1.437  1.00  0.00     0.007 C 
ENDBRANCH  24  25
ENDBRANCH  18  24
ENDBRANCH  15  18
ENDBRANCH  13  14
BRANCH  13  28
ATOM     28  C   UNL     1       0.887 -10.231  -3.077  1.00  0.00     0.327 C 
ATOM     29  O   UNL     1       0.053  -9.528  -3.627  1.00  0.00    -0.250 OA
BRANCH  28  30
ATOM     30  O   UNL     1       1.543 -11.182  -3.772  1.00  0.00    -0.480 OA
ATOM     31  H   UNL     1       0.977 -11.342  -4.555  1.00  0.00     0.296 HD
ENDBRANCH  28  30
ENDBRANCH  13  28
ENDBRANCH  11  13
ENDBRANCH   8  11
ENDBRANCH   6   7
BRANCH   6  32
ATOM     32  C   UNL     1       1.699  -6.457   2.603  1.00  0.00     0.037 C 
BRANCH  32  33
ATOM     33  C   UNL     1       1.714  -7.921   3.064  1.00  0.00     0.026 C 
BRANCH  33  34
ATOM     34  C   UNL     1       0.758  -8.177   4.230  1.00  0.00     0.146 C 
BRANCH  34  35
ATOM     35  N   UNL     1       0.119  -9.472   4.038  1.00  0.00    -0.254 NA
ATOM     36  C   UNL     1      -0.905  -9.763   4.750  1.00  0.00     0.185 C 
ATOM     37  N   UNL     1      -1.505 -10.951   4.578  1.00  0.00    -0.370 N 
ATOM     38  N   UNL     1      -1.513  -9.026   5.696  1.00  0.00    -0.370 N 
ATOM     39  H   UNL     1      -1.110 -11.561   3.873  1.00  0.00     0.159 HD
ATOM     40  H   UNL     1      -2.403 -11.182   4.966  1.00  0.00     0.159 HD
ATOM     41  H   UNL     1      -2.228  -9.421   6.285  1.00  0.00     0.159 HD
ATOM     42  H   UNL     1      -1.160  -8.115   5.942  1.00  0.00     0.159 HD
ENDBRANCH  34  35
ENDBRANCH  33  34
ENDBRANCH  32  33
ENDBRANCH   6  32
ENDBRANCH   4   6
ENDBRANCH   1   2
BRANCH   1  43
ATOM     43  C   UNL     1       5.419  -3.806   2.589  1.00  0.00     0.102 C 
ATOM     44  C   UNL     1       5.552  -3.399   4.067  1.00  0.00     0.020 C 
BRANCH  43  45
ATOM     45  C   UNL     1       6.673  -3.531   1.754  1.00  0.00     0.225 C 
ATOM     46  O   UNL     1       7.799  -3.456   2.239  1.00  0.00    -0.275 OA
ATOM     47  N   UNL     1       6.452  -3.277   0.420  1.00  0.00    -0.342 N 
ATOM     48  H   UNL     1       5.553  -3.490   0.012  1.00  0.00     0.164 HD
BRANCH  47  49
ATOM     49  C   UNL     1       7.561  -3.033  -0.507  1.00  0.00     0.192 C 
BRANCH  49  50
ATOM     50  C   UNL     1       7.148  -1.979  -1.538  1.00  0.00     0.047 C 
BRANCH  50  51
ATOM     51  C   UNL     1       5.704  -1.501  -1.334  1.00  0.00     0.103 C 
BRANCH  51  52
ATOM     52  C   UNL     1       5.387  -0.261  -2.168  1.00  0.00     0.226 C 
ATOM     53  O   UNL     1       5.569  -0.282  -3.386  1.00  0.00    -0.275 OA
BRANCH  52  54
ATOM     54  N   UNL     1       4.823   0.830  -1.480  1.00  0.00    -0.311 N 
ATOM     55  C   UNL     1       3.371   1.052  -1.477  1.00  0.00     0.153 C 
BRANCH  54  56
ATOM     56  C   UNL     1       5.622   1.740  -0.768  1.00  0.00     0.102 C 
ATOM     57  C   UNL     1       5.452   2.064   0.524  1.00  0.00     0.043 C 
BRANCH  56  58
ATOM     58  C   UNL     1       6.806   2.410  -1.424  1.00  0.00     0.268 C 
ATOM     59  O   UNL     1       7.955   2.280  -1.024  1.00  0.00    -0.268 OA
ATOM     60  N   UNL     1       6.468   3.122  -2.550  1.00  0.00    -0.339 N 
ATOM     61  H   UNL     1       5.491   3.189  -2.809  1.00  0.00     0.164 HD
BRANCH  60  62
ATOM     62  C   UNL     1       7.470   3.798  -3.374  1.00  0.00     0.168 CG0
ATOM     63  C   UNL     1       8.054   2.848  -4.412  1.00  0.00     0.041 C 
ATOM     64  G   UNL     1       8.581   4.370  -2.470  1.00  0.00     0.000 G0
ENDBRANCH  60  62
ENDBRANCH  56  58
ENDBRANCH  54  56
ENDBRANCH  52  54
ENDBRANCH  51  52
ENDBRANCH  50  51
ENDBRANCH  49  50
BRANCH  49  65
ATOM     65  C   UNL     1       7.984  -4.318  -1.236  1.00  0.00     0.326 C 
ATOM     66  O   UNL     1       7.496  -4.739  -2.275  1.00  0.00    -0.250 OA
BRANCH  65  67
ATOM     67  O   UNL     1       8.941  -5.035  -0.606  1.00  0.00    -0.480 OA
ATOM     68  H   UNL     1       9.035  -4.583   0.260  1.00  0.00     0.296 HD
ENDBRANCH  65  67
ENDBRANCH  49  65
ENDBRANCH  47  49
ENDBRANCH  43  45
ENDBRANCH   1  43
BRANCH   1  69
ATOM     69  C   UNL     1       3.471  -2.014   2.511  1.00  0.00    -0.001 C 
ATOM     70  C   UNL     1       3.711  -0.720   2.239  1.00  0.00     0.001 C 
BRANCH  70  71
ATOM     71  C   UNL     1       3.034   0.441   2.820  1.00  0.00    -0.055 C 
ATOM     72  C   UNL     1       2.225   1.164   2.016  1.00  0.00    -0.018 C 
ATOM     73  C   UNL     1       3.281   0.743   4.275  1.00  0.00     0.044 C 
BRANCH  72  74
ATOM     74  C   UNL     1       1.401   2.402   2.341  1.00  0.00     0.038 C 
ATOM     75  C   UNL     1       2.384   3.506   2.747  1.00  0.00     0.015 C 
BRANCH  74  76
ATOM     76  C   UNL     1       0.349   2.032   3.427  1.00  0.00     0.128 C 
BRANCH  76  77
ATOM     77  O   UNL     1      -0.187   3.228   4.019  1.00  0.00    -0.381 OA
ATOM     78  C   UNL     1      -1.001   2.987   5.159  1.00  0.00     0.195 C 
ENDBRANCH  76  77
BRANCH  76  79
ATOM     79  C   UNL     1      -0.754   1.063   2.932  1.00  0.00     0.068 C 
BRANCH  79  80
ATOM     80  C   UNL     1      -0.507  -0.420   3.072  1.00  0.00    -0.045 A 
ATOM     81  C   UNL     1      -0.779  -1.300   2.016  1.00  0.00     0.004 A 
ATOM     82  C   UNL     1      -0.026  -0.945   4.281  1.00  0.00     0.004 A 
ATOM     83  C   UNL     1      -0.561  -2.672   2.159  1.00  0.00     0.000 A 
ATOM     84  C   UNL     1       0.191  -2.317   4.423  1.00  0.00     0.000 A 
ATOM     85  C   UNL     1      -0.075  -3.180   3.362  1.00  0.00     0.000 A 
ENDBRANCH  79  80
ENDBRANCH  76  79
ENDBRANCH  74  76
ENDBRANCH  72  74
ENDBRANCH  70  71
ENDBRANCH   1  69
TORSDOF 17
ENDMDL
MODEL 27
REMARK VINA RESULT:    -6.459      3.738      8.282
REMARK INTER + INTRA:         -27.213
REMARK INTER:                 -18.741
REMARK INTRA:                  -8.472
REMARK UNBOUND:                -7.916
REMARK SMILES C=C1C(=O)N[C@H](C)C(=O)N[C@@H](CC(C)C)C(=O)N[C@@H](C(=O)O)[C@H](C)C(=O)N[C@@H](CCCN=C(N)N)C(=O)N[C@@H](/C=C/C(C)=C/[C@H](C)[C@H](Cc2ccccc2)OC)[C@H](C)C(=O)N[C@@H](C(=O)O)CCC(=O)N1C
REMARK SMILES IDX 39 1 38 2 37 3 36 4 28 6 27 7 25 8 26 9 23 11 24 12 19 13
REMARK SMILES IDX 18 14 16 15 17 16 11 18 10 19 8 20 9 21 12 24 13 25 14 26
REMARK SMILES IDX 15 27 20 28 21 29 22 30 29 32 30 33 31 34 32 35 33 36 34 37
REMARK SMILES IDX 35 38 57 43 58 44 59 45 60 46 61 47 62 49 66 50 67 51 68 52
REMARK SMILES IDX 69 53 70 54 71 55 2 56 1 57 3 58 4 59 5 60 6 62 7 63 63 65
REMARK SMILES IDX 64 66 65 67 40 69 41 70 42 71 44 72 43 73 45 74 46 75 47 76
REMARK SMILES IDX 55 77 56 78 48 79 49 80 50 81 54 82 51 83 53 84 52 85
REMARK H PARENT 38 5 27 10 18 17 10 22 22 31 34 39 34 40 35 41 35 42 61 48
REMARK H PARENT 5 61 65 68
REMARK Flexibility Score:  369.900
ROOT
ATOM      1  C   UNL     1       0.396  -7.510   5.883  1.00  0.00     0.117 C 
ENDROOT
BRANCH   1   2
ATOM      2  N   UNL     1      -0.258  -6.274   6.315  1.00  0.00    -0.347 N 
ATOM      3  O   UNL     1       1.126  -5.787   8.080  1.00  0.00    -0.273 OA
ATOM      4  C   UNL     1       0.216  -5.461   7.326  1.00  0.00     0.243 C 
ATOM      5  H   UNL     1      -1.079  -5.953   5.826  1.00  0.00     0.164 HD
BRANCH   4   6
ATOM      6  C   UNL     1      -0.615  -4.168   7.527  1.00  0.00     0.171 C 
BRANCH   6   7
ATOM      7  N   UNL     1       0.267  -2.991   7.569  1.00  0.00    -0.344 N 
ATOM      8  C   UNL     1       0.571  -2.383   8.768  1.00  0.00     0.226 C 
ATOM      9  O   UNL     1       0.114  -2.768   9.838  1.00  0.00    -0.275 OA
ATOM     10  H   UNL     1       0.610  -2.603   6.699  1.00  0.00     0.164 HD
BRANCH   8  11
ATOM     11  C   UNL     1       1.536  -1.216   8.651  1.00  0.00     0.109 C 
ATOM     12  C   UNL     1       2.427  -1.392   7.422  1.00  0.00     0.021 C 
BRANCH  11  13
ATOM     13  C   UNL     1       0.756   0.113   8.702  1.00  0.00     0.204 C 
BRANCH  13  14
ATOM     14  N   UNL     1      -0.641  -0.083   9.102  1.00  0.00    -0.340 N 
ATOM     15  C   UNL     1      -1.681   0.652   8.574  1.00  0.00     0.243 C 
ATOM     16  O   UNL     1      -1.516   1.483   7.683  1.00  0.00    -0.273 OA
ATOM     17  H   UNL     1      -0.827  -0.643   9.938  1.00  0.00     0.164 HD
BRANCH  15  18
ATOM     18  C   UNL     1      -3.031   0.419   9.295  1.00  0.00     0.171 C 
BRANCH  18  19
ATOM     19  N   UNL     1      -3.336   1.650  10.021  1.00  0.00    -0.343 N 
ATOM     20  C   UNL     1      -3.665   1.642  11.363  1.00  0.00     0.242 CG0
ATOM     21  O   UNL     1      -3.847   0.592  11.974  1.00  0.00    -0.273 OA
ATOM     22  H   UNL     1      -3.312   2.536   9.530  1.00  0.00     0.164 HD
ATOM     23  G   UNL     1      -3.876   3.042  11.975  1.00  0.00     0.000 G0
ENDBRANCH  18  19
BRANCH  18  24
ATOM     24  C   UNL     1      -4.132   0.076   8.283  1.00  0.00     0.038 C 
BRANCH  24  25
ATOM     25  C   UNL     1      -4.717  -1.346   8.425  1.00  0.00    -0.015 C 
ATOM     26  C   UNL     1      -3.778  -2.293   9.173  1.00  0.00     0.007 C 
ATOM     27  C   UNL     1      -5.025  -1.915   7.038  1.00  0.00     0.007 C 
ENDBRANCH  24  25
ENDBRANCH  18  24
ENDBRANCH  15  18
ENDBRANCH  13  14
BRANCH  13  28
ATOM     28  C   UNL     1       1.366   1.134   9.666  1.00  0.00     0.327 C 
ATOM     29  O   UNL     1       1.506   2.330   9.459  1.00  0.00    -0.250 OA
BRANCH  28  30
ATOM     30  O   UNL     1       1.871   0.571  10.783  1.00  0.00    -0.480 OA
ATOM     31  H   UNL     1       1.297  -0.207  10.941  1.00  0.00     0.296 HD
ENDBRANCH  28  30
ENDBRANCH  13  28
ENDBRANCH  11  13
ENDBRANCH   8  11
ENDBRANCH   6   7
BRANCH   6  32
ATOM     32  C   UNL     1      -1.637  -4.045   6.392  1.00  0.00     0.037 C 
BRANCH  32  33
ATOM     33  C   UNL     1      -1.649  -2.641   5.772  1.00  0.00     0.026 C 
BRANCH  33  34
ATOM     34  C   UNL     1      -2.255  -2.626   4.368  1.00  0.00     0.146 C 
BRANCH  34  35
ATOM     35  N   UNL     1      -1.179  -2.502   3.394  1.00  0.00    -0.254 NA
ATOM     36  C   UNL     1      -0.952  -3.482   2.601  1.00  0.00     0.185 C 
ATOM     37  N   UNL     1       0.034  -3.377   1.697  1.00  0.00    -0.370 N 
ATOM     38  N   UNL     1      -1.579  -4.670   2.525  1.00  0.00    -0.370 N 
ATOM     39  H   UNL     1       0.548  -2.505   1.684  1.00  0.00     0.159 HD
ATOM     40  H   UNL     1       0.160  -4.021   0.935  1.00  0.00     0.159 HD
ATOM     41  H   UNL     1      -1.217  -5.414   1.952  1.00  0.00     0.159 HD
ATOM     42  H   UNL     1      -2.331  -4.893   3.157  1.00  0.00     0.159 HD
ENDBRANCH  34  35
ENDBRANCH  33  34
ENDBRANCH  32  33
ENDBRANCH   6  32
ENDBRANCH   4   6
ENDBRANCH   1   2
BRANCH   1  43
ATOM     43  C   UNL     1       1.440  -7.159   4.784  1.00  0.00     0.102 C 
ATOM     44  C   UNL     1       1.489  -5.660   4.442  1.00  0.00     0.020 C 
BRANCH  43  45
ATOM     45  C   UNL     1       1.281  -8.070   3.563  1.00  0.00     0.225 C 
ATOM     46  O   UNL     1       1.738  -9.209   3.511  1.00  0.00    -0.275 OA
ATOM     47  N   UNL     1       0.666  -7.498   2.473  1.00  0.00    -0.342 N 
ATOM     48  H   UNL     1       0.167  -6.626   2.581  1.00  0.00     0.164 HD
BRANCH  47  49
ATOM     49  C   UNL     1       0.413  -8.261   1.247  1.00  0.00     0.192 C 
BRANCH  49  50
ATOM     50  C   UNL     1       1.301  -7.731   0.119  1.00  0.00     0.047 C 
BRANCH  50  51
ATOM     51  C   UNL     1       2.388  -8.735  -0.289  1.00  0.00     0.103 C 
BRANCH  51  52
ATOM     52  C   UNL     1       1.823  -9.882  -1.125  1.00  0.00     0.226 C 
ATOM     53  O   UNL     1       1.625 -10.980  -0.600  1.00  0.00    -0.275 OA
BRANCH  52  54
ATOM     54  N   UNL     1       1.488  -9.581  -2.458  1.00  0.00    -0.311 N 
ATOM     55  C   UNL     1       2.467  -8.962  -3.362  1.00  0.00     0.153 C 
BRANCH  54  56
ATOM     56  C   UNL     1       0.213  -9.863  -2.974  1.00  0.00     0.102 C 
ATOM     57  C   UNL     1      -0.893  -9.141  -2.728  1.00  0.00     0.043 C 
BRANCH  56  58
ATOM     58  C   UNL     1      -0.002 -11.023  -3.918  1.00  0.00     0.268 C 
ATOM     59  O   UNL     1      -0.244 -10.881  -5.109  1.00  0.00    -0.268 OA
ATOM     60  N   UNL     1       0.168 -12.247  -3.316  1.00  0.00    -0.339 N 
ATOM     61  H   UNL     1       0.357 -12.279  -2.322  1.00  0.00     0.164 HD
BRANCH  60  62
ATOM     62  C   UNL     1       0.068 -13.502  -4.061  1.00  0.00     0.168 CG0
ATOM     63  C   UNL     1       1.437 -13.960  -4.547  1.00  0.00     0.041 C 
ATOM     64  G   UNL     1      -0.901 -13.322  -5.248  1.00  0.00     0.000 G0
ENDBRANCH  60  62
ENDBRANCH  56  58
ENDBRANCH  54  56
ENDBRANCH  52  54
ENDBRANCH  51  52
ENDBRANCH  50  51
ENDBRANCH  49  50
BRANCH  49  65
ATOM     65  C   UNL     1      -1.060  -8.175   0.820  1.00  0.00     0.326 C 
ATOM     66  O   UNL     1      -1.801  -9.128   0.627  1.00  0.00    -0.250 OA
BRANCH  65  67
ATOM     67  O   UNL     1      -1.510  -6.920   0.598  1.00  0.00    -0.480 OA
ATOM     68  H   UNL     1      -1.428  -6.813  -0.374  1.00  0.00     0.296 HD
ENDBRANCH  65  67
ENDBRANCH  49  65
ENDBRANCH  47  49
ENDBRANCH  43  45
ENDBRANCH   1  43
BRANCH   1  69
ATOM     69  C   UNL     1      -0.718  -8.486   5.552  1.00  0.00    -0.001 C 
ATOM     70  C   UNL     1      -0.809  -9.777   5.919  1.00  0.00     0.001 C 
BRANCH  70  71
ATOM     71  C   UNL     1      -1.900 -10.703   5.612  1.00  0.00    -0.055 C 
ATOM     72  C   UNL     1      -2.150 -10.969   4.312  1.00  0.00    -0.018 C 
ATOM     73  C   UNL     1      -2.660 -11.302   6.766  1.00  0.00     0.044 C 
BRANCH  72  74
ATOM     74  C   UNL     1      -3.204 -11.881   3.701  1.00  0.00     0.038 C 
ATOM     75  C   UNL     1      -2.473 -13.113   3.153  1.00  0.00     0.015 C 
BRANCH  74  76
ATOM     76  C   UNL     1      -4.011 -11.075   2.641  1.00  0.00     0.128 C 
BRANCH  76  77
ATOM     77  O   UNL     1      -4.438 -11.948   1.581  1.00  0.00    -0.381 OA
ATOM     78  C   UNL     1      -4.129 -11.462   0.282  1.00  0.00     0.195 C 
ENDBRANCH  76  77
BRANCH  76  79
ATOM     79  C   UNL     1      -5.173 -10.241   3.236  1.00  0.00     0.068 C 
BRANCH  79  80
ATOM     80  C   UNL     1      -4.822  -9.064   4.113  1.00  0.00    -0.045 A 
ATOM     81  C   UNL     1      -4.079  -7.987   3.612  1.00  0.00     0.004 A 
ATOM     82  C   UNL     1      -5.213  -9.044   5.460  1.00  0.00     0.004 A 
ATOM     83  C   UNL     1      -3.746  -6.908   4.434  1.00  0.00     0.000 A 
ATOM     84  C   UNL     1      -4.879  -7.965   6.282  1.00  0.00     0.000 A 
ATOM     85  C   UNL     1      -4.147  -6.897   5.769  1.00  0.00     0.000 A 
ENDBRANCH  79  80
ENDBRANCH  76  79
ENDBRANCH  74  76
ENDBRANCH  72  74
ENDBRANCH  70  71
ENDBRANCH   1  69
TORSDOF 17
ENDMDL
MODEL 28
REMARK VINA RESULT:    -6.459      3.023     12.767
REMARK INTER + INTRA:         -27.213
REMARK INTER:                 -20.603
REMARK INTRA:                  -6.610
REMARK UNBOUND:                -7.916
REMARK SMILES C=C1C(=O)N[C@H](C)C(=O)N[C@@H](CC(C)C)C(=O)N[C@@H](C(=O)O)[C@H](C)C(=O)N[C@@H](CCCN=C(N)N)C(=O)N[C@@H](/C=C/C(C)=C/[C@H](C)[C@H](Cc2ccccc2)OC)[C@H](C)C(=O)N[C@@H](C(=O)O)CCC(=O)N1C
REMARK SMILES IDX 39 1 38 2 37 3 36 4 28 6 27 7 25 8 26 9 23 11 24 12 19 13
REMARK SMILES IDX 18 14 16 15 17 16 11 18 10 19 8 20 9 21 12 24 13 25 14 26
REMARK SMILES IDX 15 27 20 28 21 29 22 30 29 32 30 33 31 34 32 35 33 36 34 37
REMARK SMILES IDX 35 38 57 43 58 44 59 45 60 46 61 47 62 49 66 50 67 51 68 52
REMARK SMILES IDX 69 53 70 54 71 55 2 56 1 57 3 58 4 59 5 60 6 62 7 63 63 65
REMARK SMILES IDX 64 66 65 67 40 69 41 70 42 71 44 72 43 73 45 74 46 75 47 76
REMARK SMILES IDX 55 77 56 78 48 79 49 80 50 81 54 82 51 83 53 84 52 85
REMARK H PARENT 38 5 27 10 18 17 10 22 22 31 34 39 34 40 35 41 35 42 61 48
REMARK H PARENT 5 61 65 68
REMARK Flexibility Score:  369.900
ROOT
ATOM      1  C   UNL     1       0.699  -6.618   4.432  1.00  0.00     0.117 C 
ENDROOT
BRANCH   1   2
ATOM      2  N   UNL     1       1.191  -6.555   3.056  1.00  0.00    -0.347 N 
ATOM      3  O   UNL     1       2.486  -4.672   3.273  1.00  0.00    -0.273 OA
ATOM      4  C   UNL     1       2.120  -5.636   2.608  1.00  0.00     0.243 C 
ATOM      5  H   UNL     1       0.882  -7.245   2.388  1.00  0.00     0.164 HD
BRANCH   4   6
ATOM      6  C   UNL     1       2.536  -5.840   1.129  1.00  0.00     0.171 C 
BRANCH   6   7
ATOM      7  N   UNL     1       1.577  -6.720   0.442  1.00  0.00    -0.344 N 
ATOM      8  C   UNL     1       2.006  -7.619  -0.510  1.00  0.00     0.226 C 
ATOM      9  O   UNL     1       3.181  -7.716  -0.845  1.00  0.00    -0.275 OA
ATOM     10  H   UNL     1       0.590  -6.622   0.643  1.00  0.00     0.164 HD
BRANCH   8  11
ATOM     11  C   UNL     1       0.906  -8.491  -1.087  1.00  0.00     0.109 C 
ATOM     12  C   UNL     1      -0.317  -8.471  -0.170  1.00  0.00     0.021 C 
BRANCH  11  13
ATOM     13  C   UNL     1       0.628  -8.082  -2.548  1.00  0.00     0.204 C 
BRANCH  13  14
ATOM     14  N   UNL     1       1.691  -8.524  -3.456  1.00  0.00    -0.340 N 
ATOM     15  C   UNL     1       2.026  -7.839  -4.604  1.00  0.00     0.243 C 
ATOM     16  O   UNL     1       1.495  -6.775  -4.917  1.00  0.00    -0.273 OA
ATOM     17  H   UNL     1       2.062  -9.470  -3.337  1.00  0.00     0.164 HD
BRANCH  15  18
ATOM     18  C   UNL     1       3.027  -8.600  -5.508  1.00  0.00     0.171 C 
BRANCH  18  19
ATOM     19  N   UNL     1       2.252  -9.160  -6.613  1.00  0.00    -0.343 N 
ATOM     20  C   UNL     1       1.491 -10.304  -6.463  1.00  0.00     0.242 CG0
ATOM     21  O   UNL     1       1.535 -10.976  -5.435  1.00  0.00    -0.273 OA
ATOM     22  H   UNL     1       2.274  -8.704  -7.518  1.00  0.00     0.164 HD
ATOM     23  G   UNL     1       0.681 -10.698  -7.715  1.00  0.00     0.000 G0
ENDBRANCH  18  19
BRANCH  18  24
ATOM     24  C   UNL     1       4.125  -7.656  -6.014  1.00  0.00     0.038 C 
BRANCH  24  25
ATOM     25  C   UNL     1       3.942  -7.176  -7.469  1.00  0.00    -0.015 C 
ATOM     26  C   UNL     1       5.157  -7.484  -8.344  1.00  0.00     0.007 C 
ATOM     27  C   UNL     1       3.665  -5.670  -7.484  1.00  0.00     0.007 C 
ENDBRANCH  24  25
ENDBRANCH  18  24
ENDBRANCH  15  18
ENDBRANCH  13  14
BRANCH  13  28
ATOM     28  C   UNL     1      -0.692  -8.639  -3.090  1.00  0.00     0.327 C 
ATOM     29  O   UNL     1      -1.759  -8.046  -3.145  1.00  0.00    -0.250 OA
BRANCH  28  30
ATOM     30  O   UNL     1      -0.620  -9.945  -3.418  1.00  0.00    -0.480 OA
ATOM     31  H   UNL     1       0.011  -9.971  -4.166  1.00  0.00     0.296 HD
ENDBRANCH  28  30
ENDBRANCH  13  28
ENDBRANCH  11  13
ENDBRANCH   8  11
ENDBRANCH   6   7
BRANCH   6  32
ATOM     32  C   UNL     1       2.620  -4.475   0.437  1.00  0.00     0.037 C 
BRANCH  32  33
ATOM     33  C   UNL     1       3.537  -3.500   1.189  1.00  0.00     0.026 C 
BRANCH  33  34
ATOM     34  C   UNL     1       5.019  -3.813   0.983  1.00  0.00     0.146 C 
BRANCH  34  35
ATOM     35  N   UNL     1       5.772  -3.285   2.112  1.00  0.00    -0.254 NA
ATOM     36  C   UNL     1       6.800  -2.557   1.879  1.00  0.00     0.185 C 
ATOM     37  N   UNL     1       7.498  -2.060   2.912  1.00  0.00    -0.370 N 
ATOM     38  N   UNL     1       7.322  -2.187   0.696  1.00  0.00    -0.370 N 
ATOM     39  H   UNL     1       7.160  -2.287   3.839  1.00  0.00     0.159 HD
ATOM     40  H   UNL     1       8.202  -1.348   2.817  1.00  0.00     0.159 HD
ATOM     41  H   UNL     1       8.216  -1.727   0.642  1.00  0.00     0.159 HD
ATOM     42  H   UNL     1       6.908  -2.501  -0.168  1.00  0.00     0.159 HD
ENDBRANCH  34  35
ENDBRANCH  33  34
ENDBRANCH  32  33
ENDBRANCH   6  32
ENDBRANCH   4   6
ENDBRANCH   1   2
BRANCH   1  43
ATOM     43  C   UNL     1       1.840  -7.158   5.342  1.00  0.00     0.102 C 
ATOM     44  C   UNL     1       1.593  -8.590   5.848  1.00  0.00     0.020 C 
BRANCH  43  45
ATOM     45  C   UNL     1       2.180  -6.158   6.450  1.00  0.00     0.225 C 
ATOM     46  O   UNL     1       2.889  -6.438   7.413  1.00  0.00    -0.275 OA
ATOM     47  N   UNL     1       1.561  -4.933   6.353  1.00  0.00    -0.342 N 
ATOM     48  H   UNL     1       1.109  -4.667   5.489  1.00  0.00     0.164 HD
BRANCH  47  49
ATOM     49  C   UNL     1       1.820  -3.864   7.323  1.00  0.00     0.192 C 
BRANCH  49  50
ATOM     50  C   UNL     1       0.492  -3.331   7.867  1.00  0.00     0.047 C 
BRANCH  50  51
ATOM     51  C   UNL     1      -0.286  -4.397   8.650  1.00  0.00     0.103 C 
BRANCH  51  52
ATOM     52  C   UNL     1      -1.342  -3.779   9.566  1.00  0.00     0.226 C 
ATOM     53  O   UNL     1      -1.064  -3.540  10.743  1.00  0.00    -0.275 OA
BRANCH  52  54
ATOM     54  N   UNL     1      -2.572  -3.446   8.969  1.00  0.00    -0.311 N 
ATOM     55  C   UNL     1      -2.925  -2.047   8.694  1.00  0.00     0.153 C 
BRANCH  54  56
ATOM     56  C   UNL     1      -3.503  -4.435   8.609  1.00  0.00     0.102 C 
ATOM     57  C   UNL     1      -3.594  -4.998   7.393  1.00  0.00     0.043 C 
BRANCH  56  58
ATOM     58  C   UNL     1      -4.477  -4.988   9.622  1.00  0.00     0.268 C 
ATOM     59  O   UNL     1      -4.146  -5.743  10.527  1.00  0.00    -0.268 OA
ATOM     60  N   UNL     1      -5.754  -4.506   9.463  1.00  0.00    -0.339 N 
ATOM     61  H   UNL     1      -5.949  -3.892   8.681  1.00  0.00     0.164 HD
BRANCH  60  62
ATOM     62  C   UNL     1      -6.841  -4.863  10.374  1.00  0.00     0.168 CG0
ATOM     63  C   UNL     1      -7.641  -6.043   9.835  1.00  0.00     0.041 C 
ATOM     64  G   UNL     1      -7.754  -3.639  10.594  1.00  0.00     0.000 G0
ENDBRANCH  60  62
ENDBRANCH  56  58
ENDBRANCH  54  56
ENDBRANCH  52  54
ENDBRANCH  51  52
ENDBRANCH  50  51
ENDBRANCH  49  50
BRANCH  49  65
ATOM     65  C   UNL     1       2.613  -2.708   6.694  1.00  0.00     0.326 C 
ATOM     66  O   UNL     1       3.374  -2.804   5.742  1.00  0.00    -0.250 OA
BRANCH  65  67
ATOM     67  O   UNL     1       2.464  -1.518   7.317  1.00  0.00    -0.480 OA
ATOM     68  H   UNL     1       1.540  -1.261   7.107  1.00  0.00     0.296 HD
ENDBRANCH  65  67
ENDBRANCH  49  65
ENDBRANCH  47  49
ENDBRANCH  43  45
ENDBRANCH   1  43
BRANCH   1  69
ATOM     69  C   UNL     1      -0.616  -7.374   4.378  1.00  0.00    -0.001 C 
ATOM     70  C   UNL     1      -1.857  -6.856   4.381  1.00  0.00     0.001 C 
BRANCH  70  71
ATOM     71  C   UNL     1      -3.119  -7.595   4.307  1.00  0.00    -0.055 C 
ATOM     72  C   UNL     1      -3.579  -8.167   5.440  1.00  0.00    -0.018 C 
ATOM     73  C   UNL     1      -3.819  -7.659   2.975  1.00  0.00     0.044 C 
BRANCH  72  74
ATOM     74  C   UNL     1      -4.845  -8.982   5.662  1.00  0.00     0.038 C 
ATOM     75  C   UNL     1      -5.587  -8.353   6.847  1.00  0.00     0.015 C 
BRANCH  74  76
ATOM     76  C   UNL     1      -4.451 -10.476   5.857  1.00  0.00     0.128 C 
BRANCH  76  77
ATOM     77  O   UNL     1      -4.939 -10.951   7.124  1.00  0.00    -0.381 OA
ATOM     78  C   UNL     1      -4.529 -12.276   7.433  1.00  0.00     0.195 C 
ENDBRANCH  76  77
BRANCH  76  79
ATOM     79  C   UNL     1      -4.857 -11.394   4.676  1.00  0.00     0.068 C 
BRANCH  79  80
ATOM     80  C   UNL     1      -4.122 -11.230   3.368  1.00  0.00    -0.045 A 
ATOM     81  C   UNL     1      -4.817 -11.140   2.155  1.00  0.00     0.004 A 
ATOM     82  C   UNL     1      -2.719 -11.193   3.345  1.00  0.00     0.004 A 
ATOM     83  C   UNL     1      -4.129 -11.003   0.948  1.00  0.00     0.000 A 
ATOM     84  C   UNL     1      -2.032 -11.056   2.137  1.00  0.00     0.000 A 
ATOM     85  C   UNL     1      -2.737 -10.959   0.940  1.00  0.00     0.000 A 
ENDBRANCH  79  80
ENDBRANCH  76  79
ENDBRANCH  74  76
ENDBRANCH  72  74
ENDBRANCH  70  71
ENDBRANCH   1  69
TORSDOF 17
ENDMDL
MODEL 29
REMARK VINA RESULT:    -6.457      4.568      8.274
REMARK INTER + INTRA:         -27.208
REMARK INTER:                 -19.621
REMARK INTRA:                  -7.588
REMARK UNBOUND:                -7.916
REMARK SMILES C=C1C(=O)N[C@H](C)C(=O)N[C@@H](CC(C)C)C(=O)N[C@@H](C(=O)O)[C@H](C)C(=O)N[C@@H](CCCN=C(N)N)C(=O)N[C@@H](/C=C/C(C)=C/[C@H](C)[C@H](Cc2ccccc2)OC)[C@H](C)C(=O)N[C@@H](C(=O)O)CCC(=O)N1C
REMARK SMILES IDX 39 1 38 2 37 3 36 4 28 6 27 7 25 8 26 9 23 11 24 12 19 13
REMARK SMILES IDX 18 14 16 15 17 16 11 18 10 19 8 20 9 21 12 24 13 25 14 26
REMARK SMILES IDX 15 27 20 28 21 29 22 30 29 32 30 33 31 34 32 35 33 36 34 37
REMARK SMILES IDX 35 38 57 43 58 44 59 45 60 46 61 47 62 49 66 50 67 51 68 52
REMARK SMILES IDX 69 53 70 54 71 55 2 56 1 57 3 58 4 59 5 60 6 62 7 63 63 65
REMARK SMILES IDX 64 66 65 67 40 69 41 70 42 71 44 72 43 73 45 74 46 75 47 76
REMARK SMILES IDX 55 77 56 78 48 79 49 80 50 81 54 82 51 83 53 84 52 85
REMARK H PARENT 38 5 27 10 18 17 10 22 22 31 34 39 34 40 35 41 35 42 61 48
REMARK H PARENT 5 61 65 68
REMARK Flexibility Score:  369.900
ROOT
ATOM      1  C   UNL     1       3.233  -3.367   1.881  1.00  0.00     0.117 C 
ENDROOT
BRANCH   1   2
ATOM      2  N   UNL     1       2.323  -4.497   1.691  1.00  0.00    -0.347 N 
ATOM      3  O   UNL     1       3.460  -5.531  -0.014  1.00  0.00    -0.273 OA
ATOM      4  C   UNL     1       2.559  -5.541   0.817  1.00  0.00     0.243 C 
ATOM      5  H   UNL     1       1.491  -4.562   2.257  1.00  0.00     0.164 HD
BRANCH   4   6
ATOM      6  C   UNL     1       1.480  -6.653   0.870  1.00  0.00     0.171 C 
BRANCH   6   7
ATOM      7  N   UNL     1       1.944  -7.853   0.156  1.00  0.00    -0.344 N 
ATOM      8  C   UNL     1       1.335  -8.256  -1.012  1.00  0.00     0.226 C 
ATOM      9  O   UNL     1       0.379  -7.661  -1.497  1.00  0.00    -0.275 OA
ATOM     10  H   UNL     1       2.687  -8.409   0.561  1.00  0.00     0.164 HD
BRANCH   8  11
ATOM     11  C   UNL     1       1.963  -9.479  -1.657  1.00  0.00     0.109 C 
ATOM     12  C   UNL     1       3.199  -9.912  -0.869  1.00  0.00     0.021 C 
BRANCH  11  13
ATOM     13  C   UNL     1       0.896 -10.576  -1.842  1.00  0.00     0.204 C 
BRANCH  13  14
ATOM     14  N   UNL     1      -0.255 -10.383  -0.954  1.00  0.00    -0.340 N 
ATOM     15  C   UNL     1      -0.830 -11.412  -0.241  1.00  0.00     0.243 C 
ATOM     16  O   UNL     1      -0.380 -12.556  -0.252  1.00  0.00    -0.273 OA
ATOM     17  H   UNL     1      -0.766  -9.499  -1.016  1.00  0.00     0.164 HD
BRANCH  15  18
ATOM     18  C   UNL     1      -2.152 -11.014   0.461  1.00  0.00     0.171 C 
BRANCH  18  19
ATOM     19  N   UNL     1      -2.790 -12.258   0.888  1.00  0.00    -0.343 N 
ATOM     20  C   UNL     1      -4.130 -12.505   0.662  1.00  0.00     0.242 CG0
ATOM     21  O   UNL     1      -4.877 -11.639   0.211  1.00  0.00    -0.273 OA
ATOM     22  H   UNL     1      -2.239 -12.960   1.370  1.00  0.00     0.164 HD
ATOM     23  G   UNL     1      -4.605 -13.902   1.112  1.00  0.00     0.000 G0
ENDBRANCH  18  19
BRANCH  18  24
ATOM     24  C   UNL     1      -1.876 -10.087   1.651  1.00  0.00     0.038 C 
BRANCH  24  25
ATOM     25  C   UNL     1      -2.728  -8.801   1.677  1.00  0.00    -0.015 C 
ATOM     26  C   UNL     1      -4.049  -8.989   2.424  1.00  0.00     0.007 C 
ATOM     27  C   UNL     1      -3.007  -8.339   0.244  1.00  0.00     0.007 C 
ENDBRANCH  24  25
ENDBRANCH  18  24
ENDBRANCH  15  18
ENDBRANCH  13  14
BRANCH  13  28
ATOM     28  C   UNL     1       0.356 -10.657  -3.274  1.00  0.00     0.327 C 
ATOM     29  O   UNL     1       0.883 -11.231  -4.214  1.00  0.00    -0.250 OA
BRANCH  28  30
ATOM     30  O   UNL     1      -0.752  -9.912  -3.463  1.00  0.00    -0.480 OA
ATOM     31  H   UNL     1      -0.923  -9.506  -2.588  1.00  0.00     0.296 HD
ENDBRANCH  28  30
ENDBRANCH  13  28
ENDBRANCH  11  13
ENDBRANCH   8  11
ENDBRANCH   6   7
BRANCH   6  32
ATOM     32  C   UNL     1       1.162  -6.976   2.334  1.00  0.00     0.037 C 
BRANCH  32  33
ATOM     33  C   UNL     1       1.869  -8.251   2.813  1.00  0.00     0.026 C 
BRANCH  33  34
ATOM     34  C   UNL     1       1.292  -8.783   4.126  1.00  0.00     0.146 C 
BRANCH  34  35
ATOM     35  N   UNL     1      -0.089  -8.335   4.247  1.00  0.00    -0.254 NA
ATOM     36  C   UNL     1      -0.543  -8.053   5.411  1.00  0.00     0.185 C 
ATOM     37  N   UNL     1      -1.812  -7.635   5.534  1.00  0.00    -0.370 N 
ATOM     38  N   UNL     1       0.084  -8.110   6.600  1.00  0.00    -0.370 N 
ATOM     39  H   UNL     1      -2.349  -7.555   4.680  1.00  0.00     0.159 HD
ATOM     40  H   UNL     1      -2.186  -7.232   6.376  1.00  0.00     0.159 HD
ATOM     41  H   UNL     1      -0.423  -7.997   7.462  1.00  0.00     0.159 HD
ATOM     42  H   UNL     1       1.040  -8.424   6.660  1.00  0.00     0.159 HD
ENDBRANCH  34  35
ENDBRANCH  33  34
ENDBRANCH  32  33
ENDBRANCH   6  32
ENDBRANCH   4   6
ENDBRANCH   1   2
BRANCH   1  43
ATOM     43  C   UNL     1       4.324  -3.778   2.912  1.00  0.00     0.102 C 
ATOM     44  C   UNL     1       4.141  -3.123   4.292  1.00  0.00     0.020 C 
BRANCH  43  45
ATOM     45  C   UNL     1       5.728  -3.608   2.325  1.00  0.00     0.225 C 
ATOM     46  O   UNL     1       6.742  -3.555   3.015  1.00  0.00    -0.275 OA
ATOM     47  N   UNL     1       5.782  -3.421   0.963  1.00  0.00    -0.342 N 
ATOM     48  H   UNL     1       4.967  -3.617   0.398  1.00  0.00     0.164 HD
BRANCH  47  49
ATOM     49  C   UNL     1       7.060  -3.280   0.259  1.00  0.00     0.192 C 
BRANCH  49  50
ATOM     50  C   UNL     1       7.029  -2.024  -0.616  1.00  0.00     0.047 C 
BRANCH  50  51
ATOM     51  C   UNL     1       8.301  -1.179  -0.466  1.00  0.00     0.103 C 
BRANCH  51  52
ATOM     52  C   UNL     1       8.981  -0.921  -1.809  1.00  0.00     0.226 C 
ATOM     53  O   UNL     1       8.346  -0.389  -2.722  1.00  0.00    -0.275 OA
BRANCH  52  54
ATOM     54  N   UNL     1      10.347  -1.249  -1.894  1.00  0.00    -0.311 N 
ATOM     55  C   UNL     1      10.884  -2.432  -1.207  1.00  0.00     0.153 C 
BRANCH  54  56
ATOM     56  C   UNL     1      11.244  -0.466  -2.639  1.00  0.00     0.102 C 
ATOM     57  C   UNL     1      11.845  -0.858  -3.774  1.00  0.00     0.043 C 
BRANCH  56  58
ATOM     58  C   UNL     1      11.571   0.947  -2.220  1.00  0.00     0.268 C 
ATOM     59  O   UNL     1      11.576   1.316  -1.053  1.00  0.00    -0.268 OA
ATOM     60  N   UNL     1      11.927   1.755  -3.274  1.00  0.00    -0.339 N 
ATOM     61  H   UNL     1      11.888   1.376  -4.213  1.00  0.00     0.164 HD
BRANCH  60  62
ATOM     62  C   UNL     1      12.343   3.144  -3.086  1.00  0.00     0.168 CG0
ATOM     63  C   UNL     1      11.224   4.106  -3.467  1.00  0.00     0.041 C 
ATOM     64  G   UNL     1      13.610   3.422  -3.921  1.00  0.00     0.000 G0
ENDBRANCH  60  62
ENDBRANCH  56  58
ENDBRANCH  54  56
ENDBRANCH  52  54
ENDBRANCH  51  52
ENDBRANCH  50  51
ENDBRANCH  49  50
BRANCH  49  65
ATOM     65  C   UNL     1       7.362  -4.505  -0.619  1.00  0.00     0.326 C 
ATOM     66  O   UNL     1       8.380  -4.677  -1.274  1.00  0.00    -0.250 OA
BRANCH  65  67
ATOM     67  O   UNL     1       6.363  -5.413  -0.682  1.00  0.00    -0.480 OA
ATOM     68  H   UNL     1       5.550  -4.868  -0.612  1.00  0.00     0.296 HD
ENDBRANCH  65  67
ENDBRANCH  49  65
ENDBRANCH  47  49
ENDBRANCH  43  45
ENDBRANCH   1  43
BRANCH   1  69
ATOM     69  C   UNL     1       2.358  -2.163   2.180  1.00  0.00    -0.001 C 
ATOM     70  C   UNL     1       1.028  -2.060   2.016  1.00  0.00     0.001 C 
BRANCH  70  71
ATOM     71  C   UNL     1       0.191  -0.899   2.328  1.00  0.00    -0.055 C 
ATOM     72  C   UNL     1       0.806   0.217   2.771  1.00  0.00    -0.018 C 
ATOM     73  C   UNL     1      -1.296  -1.031   2.125  1.00  0.00     0.044 C 
BRANCH  72  74
ATOM     74  C   UNL     1       0.202   1.558   3.165  1.00  0.00     0.038 C 
ATOM     75  C   UNL     1       0.738   2.603   2.179  1.00  0.00     0.015 C 
BRANCH  74  76
ATOM     76  C   UNL     1       0.537   1.838   4.660  1.00  0.00     0.128 C 
BRANCH  76  77
ATOM     77  O   UNL     1       0.742   3.247   4.861  1.00  0.00    -0.381 OA
ATOM     78  C   UNL     1       1.849   3.549   5.699  1.00  0.00     0.195 C 
ENDBRANCH  76  77
BRANCH  76  79
ATOM     79  C   UNL     1      -0.481   1.232   5.658  1.00  0.00     0.068 C 
BRANCH  79  80
ATOM     80  C   UNL     1      -0.523  -0.271   5.800  1.00  0.00    -0.045 A 
ATOM     81  C   UNL     1       0.650  -1.009   6.005  1.00  0.00     0.004 A 
ATOM     82  C   UNL     1      -1.743  -0.957   5.700  1.00  0.00     0.004 A 
ATOM     83  C   UNL     1       0.604  -2.400   6.121  1.00  0.00     0.000 A 
ATOM     84  C   UNL     1      -1.787  -2.348   5.816  1.00  0.00     0.000 A 
ATOM     85  C   UNL     1      -0.615  -3.069   6.028  1.00  0.00     0.000 A 
ENDBRANCH  79  80
ENDBRANCH  76  79
ENDBRANCH  74  76
ENDBRANCH  72  74
ENDBRANCH  70  71
ENDBRANCH   1  69
TORSDOF 17
ENDMDL
MODEL 30
REMARK VINA RESULT:    -6.445      4.531     10.332
REMARK INTER + INTRA:         -27.173
REMARK INTER:                 -18.551
REMARK INTRA:                  -8.621
REMARK UNBOUND:                -7.916
REMARK SMILES C=C1C(=O)N[C@H](C)C(=O)N[C@@H](CC(C)C)C(=O)N[C@@H](C(=O)O)[C@H](C)C(=O)N[C@@H](CCCN=C(N)N)C(=O)N[C@@H](/C=C/C(C)=C/[C@H](C)[C@H](Cc2ccccc2)OC)[C@H](C)C(=O)N[C@@H](C(=O)O)CCC(=O)N1C
REMARK SMILES IDX 39 1 38 2 37 3 36 4 28 6 27 7 25 8 26 9 23 11 24 12 19 13
REMARK SMILES IDX 18 14 16 15 17 16 11 18 10 19 8 20 9 21 12 24 13 25 14 26
REMARK SMILES IDX 15 27 20 28 21 29 22 30 29 32 30 33 31 34 32 35 33 36 34 37
REMARK SMILES IDX 35 38 57 43 58 44 59 45 60 46 61 47 62 49 66 50 67 51 68 52
REMARK SMILES IDX 69 53 70 54 71 55 2 56 1 57 3 58 4 59 5 60 6 62 7 63 63 65
REMARK SMILES IDX 64 66 65 67 40 69 41 70 42 71 44 72 43 73 45 74 46 75 47 76
REMARK SMILES IDX 55 77 56 78 48 79 49 80 50 81 54 82 51 83 53 84 52 85
REMARK H PARENT 38 5 27 10 18 17 10 22 22 31 34 39 34 40 35 41 35 42 61 48
REMARK H PARENT 5 61 65 68
REMARK Flexibility Score:  369.900
ROOT
ATOM      1  C   UNL     1      -0.506  -5.480   6.651  1.00  0.00     0.117 C 
ENDROOT
BRANCH   1   2
ATOM      2  N   UNL     1      -0.612  -6.725   5.889  1.00  0.00    -0.347 N 
ATOM      3  O   UNL     1       1.050  -7.890   6.961  1.00  0.00    -0.273 OA
ATOM      4  C   UNL     1       0.115  -7.866   6.167  1.00  0.00     0.243 C 
ATOM      5  H   UNL     1      -1.287  -6.791   5.142  1.00  0.00     0.164 HD
BRANCH   4   6
ATOM      6  C   UNL     1      -0.249  -9.072   5.265  1.00  0.00     0.171 C 
BRANCH   6   7
ATOM      7  N   UNL     1      -1.684  -9.379   5.371  1.00  0.00    -0.344 N 
ATOM      8  C   UNL     1      -2.130 -10.682   5.318  1.00  0.00     0.226 C 
ATOM      9  O   UNL     1      -1.373 -11.633   5.159  1.00  0.00    -0.275 OA
ATOM     10  H   UNL     1      -2.346  -8.616   5.436  1.00  0.00     0.164 HD
BRANCH   8  11
ATOM     11  C   UNL     1      -3.630 -10.838   5.496  1.00  0.00     0.109 C 
ATOM     12  C   UNL     1      -4.251  -9.505   5.914  1.00  0.00     0.021 C 
BRANCH  11  13
ATOM     13  C   UNL     1      -4.243 -11.471   4.231  1.00  0.00     0.204 C 
BRANCH  13  14
ATOM     14  N   UNL     1      -3.463 -11.165   3.028  1.00  0.00    -0.340 N 
ATOM     15  C   UNL     1      -4.033 -10.682   1.870  1.00  0.00     0.243 C 
ATOM     16  O   UNL     1      -5.230 -10.416   1.784  1.00  0.00    -0.273 OA
ATOM     17  H   UNL     1      -2.498 -11.503   2.982  1.00  0.00     0.164 HD
BRANCH  15  18
ATOM     18  C   UNL     1      -3.052 -10.632   0.672  1.00  0.00     0.171 C 
BRANCH  18  19
ATOM     19  N   UNL     1      -3.118 -11.939   0.022  1.00  0.00    -0.343 N 
ATOM     20  C   UNL     1      -2.368 -13.012   0.465  1.00  0.00     0.242 CG0
ATOM     21  O   UNL     1      -1.514 -12.883   1.338  1.00  0.00    -0.273 OA
ATOM     22  H   UNL     1      -3.726 -12.066  -0.779  1.00  0.00     0.164 HD
ATOM     23  G   UNL     1      -2.630 -14.329  -0.295  1.00  0.00     0.000 G0
ENDBRANCH  18  19
BRANCH  18  24
ATOM     24  C   UNL     1      -3.435  -9.504  -0.294  1.00  0.00     0.038 C 
BRANCH  24  25
ATOM     25  C   UNL     1      -2.502  -8.275  -0.251  1.00  0.00    -0.015 C 
ATOM     26  C   UNL     1      -1.051  -8.652   0.048  1.00  0.00     0.007 C 
ATOM     27  C   UNL     1      -3.004  -7.284   0.801  1.00  0.00     0.007 C 
ENDBRANCH  24  25
ENDBRANCH  18  24
ENDBRANCH  15  18
ENDBRANCH  13  14
BRANCH  13  28
ATOM     28  C   UNL     1      -4.365 -12.995   4.317  1.00  0.00     0.327 C 
ATOM     29  O   UNL     1      -5.242 -13.619   4.896  1.00  0.00    -0.250 OA
BRANCH  28  30
ATOM     30  O   UNL     1      -3.314 -13.642   3.773  1.00  0.00    -0.480 OA
ATOM     31  H   UNL     1      -3.150 -14.391   4.383  1.00  0.00     0.296 HD
ENDBRANCH  28  30
ENDBRANCH  13  28
ENDBRANCH  11  13
ENDBRANCH   8  11
ENDBRANCH   6   7
BRANCH   6  32
ATOM     32  C   UNL     1       0.136  -8.752   3.816  1.00  0.00     0.037 C 
BRANCH  32  33
ATOM     33  C   UNL     1       1.617  -8.372   3.682  1.00  0.00     0.026 C 
BRANCH  33  34
ATOM     34  C   UNL     1       1.991  -7.971   2.254  1.00  0.00     0.146 C 
BRANCH  34  35
ATOM     35  N   UNL     1       2.274  -9.176   1.487  1.00  0.00    -0.254 NA
ATOM     36  C   UNL     1       3.085  -9.099   0.498  1.00  0.00     0.185 C 
ATOM     37  N   UNL     1       3.358 -10.204  -0.213  1.00  0.00    -0.370 N 
ATOM     38  N   UNL     1       3.748  -8.025   0.031  1.00  0.00    -0.370 N 
ATOM     39  H   UNL     1       2.904 -11.058   0.085  1.00  0.00     0.159 HD
ATOM     40  H   UNL     1       4.105 -10.264  -0.883  1.00  0.00     0.159 HD
ATOM     41  H   UNL     1       4.250  -8.062  -0.841  1.00  0.00     0.159 HD
ATOM     42  H   UNL     1       3.626  -7.121   0.460  1.00  0.00     0.159 HD
ENDBRANCH  34  35
ENDBRANCH  33  34
ENDBRANCH  32  33
ENDBRANCH   6  32
ENDBRANCH   4   6
ENDBRANCH   1   2
BRANCH   1  43
ATOM     43  C   UNL     1      -1.941  -4.982   6.989  1.00  0.00     0.102 C 
ATOM     44  C   UNL     1      -3.023  -5.559   6.060  1.00  0.00     0.020 C 
BRANCH  43  45
ATOM     45  C   UNL     1      -1.979  -3.456   7.113  1.00  0.00     0.225 C 
ATOM     46  O   UNL     1      -1.656  -2.858   8.136  1.00  0.00    -0.275 OA
ATOM     47  N   UNL     1      -2.493  -2.785   6.027  1.00  0.00    -0.342 N 
ATOM     48  H   UNL     1      -2.609  -3.271   5.149  1.00  0.00     0.164 HD
BRANCH  47  49
ATOM     49  C   UNL     1      -2.557  -1.321   5.990  1.00  0.00     0.192 C 
BRANCH  49  50
ATOM     50  C   UNL     1      -1.166  -0.739   6.252  1.00  0.00     0.047 C 
BRANCH  50  51
ATOM     51  C   UNL     1      -0.747   0.274   5.178  1.00  0.00     0.103 C 
BRANCH  51  52
ATOM     52  C   UNL     1       0.010   1.460   5.771  1.00  0.00     0.226 C 
ATOM     53  O   UNL     1       0.983   1.260   6.501  1.00  0.00    -0.275 OA
BRANCH  52  54
ATOM     54  N   UNL     1      -0.420   2.740   5.374  1.00  0.00    -0.311 N 
ATOM     55  C   UNL     1       0.322   3.508   4.366  1.00  0.00     0.153 C 
BRANCH  54  56
ATOM     56  C   UNL     1      -1.573   3.327   5.921  1.00  0.00     0.102 C 
ATOM     57  C   UNL     1      -2.554   3.904   5.206  1.00  0.00     0.043 C 
BRANCH  56  58
ATOM     58  C   UNL     1      -1.821   3.309   7.411  1.00  0.00     0.268 C 
ATOM     59  O   UNL     1      -2.639   2.573   7.945  1.00  0.00    -0.268 OA
ATOM     60  N   UNL     1      -0.989   4.154   8.106  1.00  0.00    -0.339 N 
ATOM     61  H   UNL     1      -0.345   4.740   7.588  1.00  0.00     0.164 HD
BRANCH  60  62
ATOM     62  C   UNL     1      -1.017   4.247   9.566  1.00  0.00     0.168 CG0
ATOM     63  C   UNL     1      -1.830   5.452  10.022  1.00  0.00     0.041 C 
ATOM     64  G   UNL     1       0.426   4.325  10.106  1.00  0.00     0.000 G0
ENDBRANCH  60  62
ENDBRANCH  56  58
ENDBRANCH  54  56
ENDBRANCH  52  54
ENDBRANCH  51  52
ENDBRANCH  50  51
ENDBRANCH  49  50
BRANCH  49  65
ATOM     65  C   UNL     1      -3.544  -0.771   7.032  1.00  0.00     0.326 C 
ATOM     66  O   UNL     1      -4.762  -0.809   6.946  1.00  0.00    -0.250 OA
BRANCH  65  67
ATOM     67  O   UNL     1      -2.965  -0.154   8.086  1.00  0.00    -0.480 OA
ATOM     68  H   UNL     1      -2.314  -0.813   8.411  1.00  0.00     0.296 HD
ENDBRANCH  65  67
ENDBRANCH  49  65
ENDBRANCH  47  49
ENDBRANCH  43  45
ENDBRANCH   1  43
BRANCH   1  69
ATOM     69  C   UNL     1       0.417  -4.574   5.857  1.00  0.00    -0.001 C 
ATOM     70  C   UNL     1       1.761  -4.543   5.892  1.00  0.00     0.001 C 
BRANCH  70  71
ATOM     71  C   UNL     1       2.641  -3.678   5.104  1.00  0.00    -0.055 C 
ATOM     72  C   UNL     1       3.421  -4.261   4.169  1.00  0.00    -0.018 C 
ATOM     73  C   UNL     1       2.610  -2.199   5.387  1.00  0.00     0.044 C 
BRANCH  72  74
ATOM     74  C   UNL     1       4.418  -3.624   3.212  1.00  0.00     0.038 C 
ATOM     75  C   UNL     1       5.583  -3.097   4.058  1.00  0.00     0.015 C 
BRANCH  74  76
ATOM     76  C   UNL     1       3.681  -2.542   2.369  1.00  0.00     0.128 C 
BRANCH  76  77
ATOM     77  O   UNL     1       4.638  -1.654   1.766  1.00  0.00    -0.381 OA
ATOM     78  C   UNL     1       4.291  -0.280   1.876  1.00  0.00     0.195 C 
ENDBRANCH  76  77
BRANCH  76  79
ATOM     79  C   UNL     1       2.672  -3.121   1.345  1.00  0.00     0.068 C 
BRANCH  79  80
ATOM     80  C   UNL     1       1.265  -3.396   1.817  1.00  0.00    -0.045 A 
ATOM     81  C   UNL     1       0.459  -2.367   2.322  1.00  0.00     0.004 A 
ATOM     82  C   UNL     1       0.750  -4.701   1.783  1.00  0.00     0.004 A 
ATOM     83  C   UNL     1      -0.837  -2.633   2.771  1.00  0.00     0.000 A 
ATOM     84  C   UNL     1      -0.545  -4.965   2.232  1.00  0.00     0.000 A 
ATOM     85  C   UNL     1      -1.339  -3.931   2.724  1.00  0.00     0.000 A 
ENDBRANCH  79  80
ENDBRANCH  76  79
ENDBRANCH  74  76
ENDBRANCH  72  74
ENDBRANCH  70  71
ENDBRANCH   1  69
TORSDOF 17
ENDMDL
MODEL 31
REMARK VINA RESULT:    -6.443      4.926     12.317
REMARK INTER + INTRA:         -27.165
REMARK INTER:                 -19.220
REMARK INTRA:                  -7.945
REMARK UNBOUND:                -7.916
REMARK SMILES C=C1C(=O)N[C@H](C)C(=O)N[C@@H](CC(C)C)C(=O)N[C@@H](C(=O)O)[C@H](C)C(=O)N[C@@H](CCCN=C(N)N)C(=O)N[C@@H](/C=C/C(C)=C/[C@H](C)[C@H](Cc2ccccc2)OC)[C@H](C)C(=O)N[C@@H](C(=O)O)CCC(=O)N1C
REMARK SMILES IDX 39 1 38 2 37 3 36 4 28 6 27 7 25 8 26 9 23 11 24 12 19 13
REMARK SMILES IDX 18 14 16 15 17 16 11 18 10 19 8 20 9 21 12 24 13 25 14 26
REMARK SMILES IDX 15 27 20 28 21 29 22 30 29 32 30 33 31 34 32 35 33 36 34 37
REMARK SMILES IDX 35 38 57 43 58 44 59 45 60 46 61 47 62 49 66 50 67 51 68 52
REMARK SMILES IDX 69 53 70 54 71 55 2 56 1 57 3 58 4 59 5 60 6 62 7 63 63 65
REMARK SMILES IDX 64 66 65 67 40 69 41 70 42 71 44 72 43 73 45 74 46 75 47 76
REMARK SMILES IDX 55 77 56 78 48 79 49 80 50 81 54 82 51 83 53 84 52 85
REMARK H PARENT 38 5 27 10 18 17 10 22 22 31 34 39 34 40 35 41 35 42 61 48
REMARK H PARENT 5 61 65 68
REMARK Flexibility Score:  369.900
ROOT
ATOM      1  C   UNL     1      -3.582  -5.026   8.018  1.00  0.00     0.117 C 
ENDROOT
BRANCH   1   2
ATOM      2  N   UNL     1      -3.735  -5.492   6.639  1.00  0.00    -0.347 N 
ATOM      3  O   UNL     1      -1.541  -6.042   6.249  1.00  0.00    -0.273 OA
ATOM      4  C   UNL     1      -2.715  -6.050   5.894  1.00  0.00     0.243 C 
ATOM      5  H   UNL     1      -4.645  -5.458   6.204  1.00  0.00     0.164 HD
BRANCH   4   6
ATOM      6  C   UNL     1      -3.163  -6.541   4.493  1.00  0.00     0.171 C 
BRANCH   6   7
ATOM      7  N   UNL     1      -2.131  -7.403   3.896  1.00  0.00    -0.344 N 
ATOM      8  C   UNL     1      -1.740  -7.228   2.587  1.00  0.00     0.226 C 
ATOM      9  O   UNL     1      -2.236  -6.378   1.858  1.00  0.00    -0.275 OA
ATOM     10  H   UNL     1      -1.745  -8.161   4.447  1.00  0.00     0.164 HD
BRANCH   8  11
ATOM     11  C   UNL     1      -0.628  -8.159   2.136  1.00  0.00     0.109 C 
ATOM     12  C   UNL     1      -0.804  -8.512   0.658  1.00  0.00     0.021 C 
BRANCH  11  13
ATOM     13  C   UNL     1       0.741  -7.551   2.498  1.00  0.00     0.204 C 
BRANCH  13  14
ATOM     14  N   UNL     1       0.705  -6.086   2.520  1.00  0.00    -0.340 N 
ATOM     15  C   UNL     1       1.110  -5.311   1.454  1.00  0.00     0.243 C 
ATOM     16  O   UNL     1       1.473  -5.797   0.385  1.00  0.00    -0.273 OA
ATOM     17  H   UNL     1       0.561  -5.622   3.421  1.00  0.00     0.164 HD
BRANCH  15  18
ATOM     18  C   UNL     1       1.181  -3.799   1.780  1.00  0.00     0.171 C 
BRANCH  18  19
ATOM     19  N   UNL     1       1.869  -3.161   0.660  1.00  0.00    -0.343 N 
ATOM     20  C   UNL     1       3.056  -2.475   0.830  1.00  0.00     0.242 CG0
ATOM     21  O   UNL     1       3.518  -2.255   1.947  1.00  0.00    -0.273 OA
ATOM     22  H   UNL     1       1.466  -3.216  -0.268  1.00  0.00     0.164 HD
ATOM     23  G   UNL     1       3.674  -1.938  -0.478  1.00  0.00     0.000 G0
ENDBRANCH  18  19
BRANCH  18  24
ATOM     24  C   UNL     1      -0.226  -3.221   1.978  1.00  0.00     0.038 C 
BRANCH  24  25
ATOM     25  C   UNL     1      -0.412  -2.406   3.275  1.00  0.00    -0.015 C 
ATOM     26  C   UNL     1       0.484  -1.168   3.323  1.00  0.00     0.007 C 
ATOM     27  C   UNL     1      -0.125  -3.297   4.487  1.00  0.00     0.007 C 
ENDBRANCH  24  25
ENDBRANCH  18  24
ENDBRANCH  15  18
ENDBRANCH  13  14
BRANCH  13  28
ATOM     28  C   UNL     1       1.265  -8.013   3.862  1.00  0.00     0.327 C 
ATOM     29  O   UNL     1       0.945  -7.559   4.950  1.00  0.00    -0.250 OA
BRANCH  28  30
ATOM     30  O   UNL     1       2.245  -8.934   3.767  1.00  0.00    -0.480 OA
ATOM     31  H   UNL     1       3.052  -8.458   4.053  1.00  0.00     0.296 HD
ENDBRANCH  28  30
ENDBRANCH  13  28
ENDBRANCH  11  13
ENDBRANCH   8  11
ENDBRANCH   6   7
BRANCH   6  32
ATOM     32  C   UNL     1      -4.494  -7.289   4.624  1.00  0.00     0.037 C 
BRANCH  32  33
ATOM     33  C   UNL     1      -4.319  -8.672   5.267  1.00  0.00     0.026 C 
BRANCH  33  34
ATOM     34  C   UNL     1      -4.867  -9.799   4.390  1.00  0.00     0.146 C 
BRANCH  34  35
ATOM     35  N   UNL     1      -4.894  -9.346   3.006  1.00  0.00    -0.254 NA
ATOM     36  C   UNL     1      -4.108  -9.904   2.161  1.00  0.00     0.185 C 
ATOM     37  N   UNL     1      -4.128  -9.498   0.883  1.00  0.00    -0.370 N 
ATOM     38  N   UNL     1      -3.216 -10.889   2.362  1.00  0.00    -0.370 N 
ATOM     39  H   UNL     1      -4.784  -8.763   0.649  1.00  0.00     0.159 HD
ATOM     40  H   UNL     1      -3.677  -9.995   0.134  1.00  0.00     0.159 HD
ATOM     41  H   UNL     1      -2.556 -11.148   1.646  1.00  0.00     0.159 HD
ATOM     42  H   UNL     1      -3.082 -11.281   3.281  1.00  0.00     0.159 HD
ENDBRANCH  34  35
ENDBRANCH  33  34
ENDBRANCH  32  33
ENDBRANCH   6  32
ENDBRANCH   4   6
ENDBRANCH   1   2
BRANCH   1  43
ATOM     43  C   UNL     1      -4.917  -5.277   8.777  1.00  0.00     0.102 C 
ATOM     44  C   UNL     1      -4.718  -5.751  10.226  1.00  0.00     0.020 C 
BRANCH  43  45
ATOM     45  C   UNL     1      -5.858  -6.165   7.956  1.00  0.00     0.225 C 
ATOM     46  O   UNL     1      -6.302  -5.838   6.859  1.00  0.00    -0.275 OA
ATOM     47  N   UNL     1      -6.259  -7.329   8.570  1.00  0.00    -0.342 N 
ATOM     48  H   UNL     1      -5.773  -7.653   9.395  1.00  0.00     0.164 HD
BRANCH  47  49
ATOM     49  C   UNL     1      -7.130  -8.293   7.891  1.00  0.00     0.192 C 
BRANCH  49  50
ATOM     50  C   UNL     1      -8.595  -7.923   8.133  1.00  0.00     0.047 C 
BRANCH  50  51
ATOM     51  C   UNL     1      -8.743  -6.714   9.067  1.00  0.00     0.103 C 
BRANCH  51  52
ATOM     52  C   UNL     1     -10.017  -5.921   8.782  1.00  0.00     0.226 C 
ATOM     53  O   UNL     1     -10.076  -5.200   7.784  1.00  0.00    -0.275 OA
BRANCH  52  54
ATOM     54  N   UNL     1     -11.095  -6.130   9.661  1.00  0.00    -0.311 N 
ATOM     55  C   UNL     1     -11.102  -5.537  11.005  1.00  0.00     0.153 C 
BRANCH  54  56
ATOM     56  C   UNL     1     -12.205  -6.907   9.287  1.00  0.00     0.102 C 
ATOM     57  C   UNL     1     -12.171  -7.922   8.409  1.00  0.00     0.043 C 
BRANCH  56  58
ATOM     58  C   UNL     1     -13.561  -6.669   9.908  1.00  0.00     0.268 C 
ATOM     59  O   UNL     1     -14.276  -5.720   9.614  1.00  0.00    -0.268 OA
ATOM     60  N   UNL     1     -13.936  -7.661  10.783  1.00  0.00    -0.339 N 
ATOM     61  H   UNL     1     -13.281  -8.408  10.981  1.00  0.00     0.164 HD
BRANCH  60  62
ATOM     62  C   UNL     1     -15.238  -7.661  11.449  1.00  0.00     0.168 CG0
ATOM     63  C   UNL     1     -15.147  -7.018  12.827  1.00  0.00     0.041 C 
ATOM     64  G   UNL     1     -15.763  -9.108  11.555  1.00  0.00     0.000 G0
ENDBRANCH  60  62
ENDBRANCH  56  58
ENDBRANCH  54  56
ENDBRANCH  52  54
ENDBRANCH  51  52
ENDBRANCH  50  51
ENDBRANCH  49  50
BRANCH  49  65
ATOM     65  C   UNL     1      -6.879  -9.728   8.382  1.00  0.00     0.326 C 
ATOM     66  O   UNL     1      -7.488 -10.286   9.283  1.00  0.00    -0.250 OA
BRANCH  65  67
ATOM     67  O   UNL     1      -5.854 -10.362   7.772  1.00  0.00    -0.480 OA
ATOM     68  H   UNL     1      -5.107  -9.730   7.857  1.00  0.00     0.296 HD
ENDBRANCH  65  67
ENDBRANCH  49  65
ENDBRANCH  47  49
ENDBRANCH  43  45
ENDBRANCH   1  43
BRANCH   1  69
ATOM     69  C   UNL     1      -3.044  -3.610   7.930  1.00  0.00    -0.001 C 
ATOM     70  C   UNL     1      -2.084  -3.052   8.688  1.00  0.00     0.001 C 
BRANCH  70  71
ATOM     71  C   UNL     1      -1.557  -1.690   8.579  1.00  0.00    -0.055 C 
ATOM     72  C   UNL     1      -0.782  -1.401   7.513  1.00  0.00    -0.018 C 
ATOM     73  C   UNL     1      -1.923  -0.707   9.660  1.00  0.00     0.044 C 
BRANCH  72  74
ATOM     74  C   UNL     1      -0.108  -0.088   7.141  1.00  0.00     0.038 C 
ATOM     75  C   UNL     1      -1.055   0.654   6.191  1.00  0.00     0.015 C 
BRANCH  74  76
ATOM     76  C   UNL     1       1.299  -0.397   6.549  1.00  0.00     0.128 C 
BRANCH  76  77
ATOM     77  O   UNL     1       1.990   0.829   6.258  1.00  0.00    -0.381 OA
ATOM     78  C   UNL     1       3.228   0.964   6.943  1.00  0.00     0.195 C 
ENDBRANCH  76  77
BRANCH  76  79
ATOM     79  C   UNL     1       2.144  -1.371   7.410  1.00  0.00     0.068 C 
BRANCH  79  80
ATOM     80  C   UNL     1       2.573  -2.676   6.785  1.00  0.00    -0.045 A 
ATOM     81  C   UNL     1       2.247  -3.903   7.379  1.00  0.00     0.004 A 
ATOM     82  C   UNL     1       3.334  -2.680   5.606  1.00  0.00     0.004 A 
ATOM     83  C   UNL     1       2.660  -5.106   6.802  1.00  0.00     0.000 A 
ATOM     84  C   UNL     1       3.747  -3.883   5.030  1.00  0.00     0.000 A 
ATOM     85  C   UNL     1       3.408  -5.096   5.627  1.00  0.00     0.000 A 
ENDBRANCH  79  80
ENDBRANCH  76  79
ENDBRANCH  74  76
ENDBRANCH  72  74
ENDBRANCH  70  71
ENDBRANCH   1  69
TORSDOF 17
ENDMDL
MODEL 32
REMARK VINA RESULT:    -6.429      3.921      7.807
REMARK INTER + INTRA:         -27.123
REMARK INTER:                 -19.240
REMARK INTRA:                  -7.883
REMARK UNBOUND:                -7.916
REMARK SMILES C=C1C(=O)N[C@H](C)C(=O)N[C@@H](CC(C)C)C(=O)N[C@@H](C(=O)O)[C@H](C)C(=O)N[C@@H](CCCN=C(N)N)C(=O)N[C@@H](/C=C/C(C)=C/[C@H](C)[C@H](Cc2ccccc2)OC)[C@H](C)C(=O)N[C@@H](C(=O)O)CCC(=O)N1C
REMARK SMILES IDX 39 1 38 2 37 3 36 4 28 6 27 7 25 8 26 9 23 11 24 12 19 13
REMARK SMILES IDX 18 14 16 15 17 16 11 18 10 19 8 20 9 21 12 24 13 25 14 26
REMARK SMILES IDX 15 27 20 28 21 29 22 30 29 32 30 33 31 34 32 35 33 36 34 37
REMARK SMILES IDX 35 38 57 43 58 44 59 45 60 46 61 47 62 49 66 50 67 51 68 52
REMARK SMILES IDX 69 53 70 54 71 55 2 56 1 57 3 58 4 59 5 60 6 62 7 63 63 65
REMARK SMILES IDX 64 66 65 67 40 69 41 70 42 71 44 72 43 73 45 74 46 75 47 76
REMARK SMILES IDX 55 77 56 78 48 79 49 80 50 81 54 82 51 83 53 84 52 85
REMARK H PARENT 38 5 27 10 18 17 10 22 22 31 34 39 34 40 35 41 35 42 61 48
REMARK H PARENT 5 61 65 68
REMARK Flexibility Score:  369.900
ROOT
ATOM      1  C   UNL     1      -1.782  -6.576   4.961  1.00  0.00     0.117 C 
ENDROOT
BRANCH   1   2
ATOM      2  N   UNL     1      -2.762  -6.285   6.008  1.00  0.00    -0.347 N 
ATOM      3  O   UNL     1      -4.645  -6.924   4.862  1.00  0.00    -0.273 OA
ATOM      4  C   UNL     1      -4.110  -6.569   5.907  1.00  0.00     0.243 C 
ATOM      5  H   UNL     1      -2.448  -5.898   6.886  1.00  0.00     0.164 HD
BRANCH   4   6
ATOM      6  C   UNL     1      -4.915  -6.241   7.190  1.00  0.00     0.171 C 
BRANCH   6   7
ATOM      7  N   UNL     1      -4.837  -4.803   7.492  1.00  0.00    -0.344 N 
ATOM      8  C   UNL     1      -4.622  -4.366   8.782  1.00  0.00     0.226 C 
ATOM      9  O   UNL     1      -4.510  -5.135   9.729  1.00  0.00    -0.275 OA
ATOM     10  H   UNL     1      -4.992  -4.136   6.747  1.00  0.00     0.164 HD
BRANCH   8  11
ATOM     11  C   UNL     1      -4.512  -2.858   8.922  1.00  0.00     0.109 C 
ATOM     12  C   UNL     1      -3.785  -2.270   7.713  1.00  0.00     0.021 C 
BRANCH  11  13
ATOM     13  C   UNL     1      -5.905  -2.257   9.196  1.00  0.00     0.204 C 
BRANCH  13  14
ATOM     14  N   UNL     1      -6.601  -2.951  10.283  1.00  0.00    -0.340 N 
ATOM     15  C   UNL     1      -7.975  -3.015  10.373  1.00  0.00     0.243 C 
ATOM     16  O   UNL     1      -8.715  -2.544   9.511  1.00  0.00    -0.273 OA
ATOM     17  H   UNL     1      -6.055  -3.229  11.103  1.00  0.00     0.164 HD
BRANCH  15  18
ATOM     18  C   UNL     1      -8.481  -3.615  11.707  1.00  0.00     0.171 C 
BRANCH  18  19
ATOM     19  N   UNL     1      -8.200  -2.625  12.745  1.00  0.00    -0.343 N 
ATOM     20  C   UNL     1      -8.978  -1.494  12.903  1.00  0.00     0.242 CG0
ATOM     21  O   UNL     1      -9.859  -1.201  12.098  1.00  0.00    -0.273 OA
ATOM     22  H   UNL     1      -7.410  -2.765  13.364  1.00  0.00     0.164 HD
ATOM     23  G   UNL     1      -8.576  -0.608  14.100  1.00  0.00     0.000 G0
ENDBRANCH  18  19
BRANCH  18  24
ATOM     24  C   UNL     1      -9.979  -3.932  11.624  1.00  0.00     0.038 C 
BRANCH  24  25
ATOM     25  C   UNL     1     -10.346  -5.398  11.940  1.00  0.00    -0.015 C 
ATOM     26  C   UNL     1     -11.726  -5.784  11.407  1.00  0.00     0.007 C 
ATOM     27  C   UNL     1     -10.296  -5.626  13.453  1.00  0.00     0.007 C 
ENDBRANCH  24  25
ENDBRANCH  18  24
ENDBRANCH  15  18
ENDBRANCH  13  14
BRANCH  13  28
ATOM     28  C   UNL     1      -5.859  -0.770   9.563  1.00  0.00     0.327 C 
ATOM     29  O   UNL     1      -5.168  -0.261  10.431  1.00  0.00    -0.250 OA
BRANCH  28  30
ATOM     30  O   UNL     1      -6.771  -0.033   8.897  1.00  0.00    -0.480 OA
ATOM     31  H   UNL     1      -7.444  -0.685   8.608  1.00  0.00     0.296 HD
ENDBRANCH  28  30
ENDBRANCH  13  28
ENDBRANCH  11  13
ENDBRANCH   8  11
ENDBRANCH   6   7
BRANCH   6  32
ATOM     32  C   UNL     1      -6.370  -6.682   6.998  1.00  0.00     0.037 C 
BRANCH  32  33
ATOM     33  C   UNL     1      -6.786  -7.762   8.006  1.00  0.00     0.026 C 
BRANCH  33  34
ATOM     34  C   UNL     1      -7.452  -7.176   9.251  1.00  0.00     0.146 C 
BRANCH  34  35
ATOM     35  N   UNL     1      -8.205  -5.990   8.867  1.00  0.00    -0.254 NA
ATOM     36  C   UNL     1      -9.428  -6.127   8.511  1.00  0.00     0.185 C 
ATOM     37  N   UNL     1     -10.132  -5.040   8.160  1.00  0.00    -0.370 N 
ATOM     38  N   UNL     1     -10.162  -7.250   8.428  1.00  0.00    -0.370 N 
ATOM     39  H   UNL     1      -9.650  -4.152   8.206  1.00  0.00     0.159 HD
ATOM     40  H   UNL     1     -11.130  -5.040   8.038  1.00  0.00     0.159 HD
ATOM     41  H   UNL     1     -11.074  -7.246   8.000  1.00  0.00     0.159 HD
ATOM     42  H   UNL     1      -9.756  -8.146   8.647  1.00  0.00     0.159 HD
ENDBRANCH  34  35
ENDBRANCH  33  34
ENDBRANCH  32  33
ENDBRANCH   6  32
ENDBRANCH   4   6
ENDBRANCH   1   2
BRANCH   1  43
ATOM     43  C   UNL     1      -1.144  -7.964   5.253  1.00  0.00     0.102 C 
ATOM     44  C   UNL     1       0.355  -7.890   5.589  1.00  0.00     0.020 C 
BRANCH  43  45
ATOM     45  C   UNL     1      -1.484  -8.969   4.148  1.00  0.00     0.225 C 
ATOM     46  O   UNL     1      -0.850 -10.004   3.963  1.00  0.00    -0.275 OA
ATOM     47  N   UNL     1      -2.501  -8.595   3.300  1.00  0.00    -0.342 N 
ATOM     48  H   UNL     1      -3.105  -7.826   3.552  1.00  0.00     0.164 HD
BRANCH  47  49
ATOM     49  C   UNL     1      -2.959  -9.472   2.218  1.00  0.00     0.192 C 
BRANCH  49  50
ATOM     50  C   UNL     1      -2.600  -8.852   0.865  1.00  0.00     0.047 C 
BRANCH  50  51
ATOM     51  C   UNL     1      -1.087  -8.848   0.609  1.00  0.00     0.103 C 
BRANCH  51  52
ATOM     52  C   UNL     1      -0.456  -7.493   0.922  1.00  0.00     0.226 C 
ATOM     53  O   UNL     1      -1.172  -6.495   1.026  1.00  0.00    -0.275 OA
BRANCH  52  54
ATOM     54  N   UNL     1       0.933  -7.486   1.150  1.00  0.00    -0.311 N 
ATOM     55  C   UNL     1       1.500  -6.851   2.347  1.00  0.00     0.153 C 
BRANCH  54  56
ATOM     56  C   UNL     1       1.826  -8.088   0.248  1.00  0.00     0.102 C 
ATOM     57  C   UNL     1       2.702  -9.056   0.564  1.00  0.00     0.043 C 
BRANCH  56  58
ATOM     58  C   UNL     1       1.831  -7.701  -1.212  1.00  0.00     0.268 C 
ATOM     59  O   UNL     1       1.876  -6.541  -1.598  1.00  0.00    -0.268 OA
ATOM     60  N   UNL     1       1.847  -8.785  -2.058  1.00  0.00    -0.339 N 
ATOM     61  H   UNL     1       1.797  -9.715  -1.659  1.00  0.00     0.164 HD
BRANCH  60  62
ATOM     62  C   UNL     1       1.916  -8.638  -3.511  1.00  0.00     0.168 CG0
ATOM     63  C   UNL     1       3.271  -9.088  -4.043  1.00  0.00     0.041 C 
ATOM     64  G   UNL     1       1.639  -7.170  -3.896  1.00  0.00     0.000 G0
ENDBRANCH  60  62
ENDBRANCH  56  58
ENDBRANCH  54  56
ENDBRANCH  52  54
ENDBRANCH  51  52
ENDBRANCH  50  51
ENDBRANCH  49  50
BRANCH  49  65
ATOM     65  C   UNL     1      -4.475  -9.709   2.284  1.00  0.00     0.326 C 
ATOM     66  O   UNL     1      -5.070 -10.651   1.781  1.00  0.00    -0.250 OA
BRANCH  65  67
ATOM     67  O   UNL     1      -5.171  -8.737   2.914  1.00  0.00    -0.480 OA
ATOM     68  H   UNL     1      -4.839  -8.776   3.837  1.00  0.00     0.296 HD
ENDBRANCH  65  67
ENDBRANCH  49  65
ENDBRANCH  47  49
ENDBRANCH  43  45
ENDBRANCH   1  43
BRANCH   1  69
ATOM     69  C   UNL     1      -0.881  -5.358   4.874  1.00  0.00    -0.001 C 
ATOM     70  C   UNL     1      -1.138  -4.193   4.253  1.00  0.00     0.001 C 
BRANCH  70  71
ATOM     71  C   UNL     1      -0.269  -3.017   4.193  1.00  0.00    -0.055 C 
ATOM     72  C   UNL     1       1.013  -3.202   3.815  1.00  0.00    -0.018 C 
ATOM     73  C   UNL     1      -0.868  -1.682   4.551  1.00  0.00     0.044 C 
BRANCH  72  74
ATOM     74  C   UNL     1       2.130  -2.179   3.661  1.00  0.00     0.038 C 
ATOM     75  C   UNL     1       2.430  -2.059   2.162  1.00  0.00     0.015 C 
BRANCH  74  76
ATOM     76  C   UNL     1       3.339  -2.623   4.536  1.00  0.00     0.128 C 
BRANCH  76  77
ATOM     77  O   UNL     1       4.571  -2.241   3.900  1.00  0.00    -0.381 OA
ATOM     78  C   UNL     1       5.565  -3.256   3.925  1.00  0.00     0.195 C 
ENDBRANCH  76  77
BRANCH  76  79
ATOM     79  C   UNL     1       3.255  -2.155   6.010  1.00  0.00     0.068 C 
BRANCH  79  80
ATOM     80  C   UNL     1       2.197  -2.777   6.890  1.00  0.00    -0.045 A 
ATOM     81  C   UNL     1       2.119  -4.166   7.054  1.00  0.00     0.004 A 
ATOM     82  C   UNL     1       1.253  -1.968   7.539  1.00  0.00     0.004 A 
ATOM     83  C   UNL     1       1.129  -4.734   7.858  1.00  0.00     0.000 A 
ATOM     84  C   UNL     1       0.262  -2.537   8.343  1.00  0.00     0.000 A 
ATOM     85  C   UNL     1       0.202  -3.919   8.503  1.00  0.00     0.000 A 
ENDBRANCH  79  80
ENDBRANCH  76  79
ENDBRANCH  74  76
ENDBRANCH  72  74
ENDBRANCH  70  71
ENDBRANCH   1  69
TORSDOF 17
ENDMDL
MODEL 33
REMARK VINA RESULT:    -6.396      4.097      8.163
REMARK INTER + INTRA:         -27.024
REMARK INTER:                 -17.381
REMARK INTRA:                  -9.643
REMARK UNBOUND:                -7.916
REMARK SMILES C=C1C(=O)N[C@H](C)C(=O)N[C@@H](CC(C)C)C(=O)N[C@@H](C(=O)O)[C@H](C)C(=O)N[C@@H](CCCN=C(N)N)C(=O)N[C@@H](/C=C/C(C)=C/[C@H](C)[C@H](Cc2ccccc2)OC)[C@H](C)C(=O)N[C@@H](C(=O)O)CCC(=O)N1C
REMARK SMILES IDX 39 1 38 2 37 3 36 4 28 6 27 7 25 8 26 9 23 11 24 12 19 13
REMARK SMILES IDX 18 14 16 15 17 16 11 18 10 19 8 20 9 21 12 24 13 25 14 26
REMARK SMILES IDX 15 27 20 28 21 29 22 30 29 32 30 33 31 34 32 35 33 36 34 37
REMARK SMILES IDX 35 38 57 43 58 44 59 45 60 46 61 47 62 49 66 50 67 51 68 52
REMARK SMILES IDX 69 53 70 54 71 55 2 56 1 57 3 58 4 59 5 60 6 62 7 63 63 65
REMARK SMILES IDX 64 66 65 67 40 69 41 70 42 71 44 72 43 73 45 74 46 75 47 76
REMARK SMILES IDX 55 77 56 78 48 79 49 80 50 81 54 82 51 83 53 84 52 85
REMARK H PARENT 38 5 27 10 18 17 10 22 22 31 34 39 34 40 35 41 35 42 61 48
REMARK H PARENT 5 61 65 68
REMARK Flexibility Score:  369.900
ROOT
ATOM      1  C   UNL     1       1.013  -2.868   2.544  1.00  0.00     0.117 C 
ENDROOT
BRANCH   1   2
ATOM      2  N   UNL     1       1.491  -3.063   3.914  1.00  0.00    -0.347 N 
ATOM      3  O   UNL     1       0.068  -1.592   4.954  1.00  0.00    -0.273 OA
ATOM      4  C   UNL     1       0.917  -2.475   5.024  1.00  0.00     0.243 C 
ATOM      5  H   UNL     1       2.255  -3.699   4.085  1.00  0.00     0.164 HD
BRANCH   4   6
ATOM      6  C   UNL     1       1.559  -2.913   6.364  1.00  0.00     0.171 C 
BRANCH   6   7
ATOM      7  N   UNL     1       0.900  -2.242   7.495  1.00  0.00    -0.344 N 
ATOM      8  C   UNL     1       1.438  -1.099   8.045  1.00  0.00     0.226 C 
ATOM      9  O   UNL     1       2.485  -0.604   7.646  1.00  0.00    -0.275 OA
ATOM     10  H   UNL     1       0.069  -2.659   7.897  1.00  0.00     0.164 HD
BRANCH   8  11
ATOM     11  C   UNL     1       0.612  -0.495   9.168  1.00  0.00     0.109 C 
ATOM     12  C   UNL     1       1.524   0.210  10.171  1.00  0.00     0.021 C 
BRANCH  11  13
ATOM     13  C   UNL     1      -0.506   0.386   8.576  1.00  0.00     0.204 C 
BRANCH  13  14
ATOM     14  N   UNL     1      -0.100   1.021   7.318  1.00  0.00    -0.340 N 
ATOM     15  C   UNL     1      -0.136   2.385   7.123  1.00  0.00     0.243 C 
ATOM     16  O   UNL     1      -0.454   3.171   8.013  1.00  0.00    -0.273 OA
ATOM     17  H   UNL     1       0.027   0.423   6.498  1.00  0.00     0.164 HD
BRANCH  15  18
ATOM     18  C   UNL     1       0.135   2.807   5.658  1.00  0.00     0.171 C 
BRANCH  18  19
ATOM     19  N   UNL     1       0.997   3.986   5.715  1.00  0.00    -0.343 N 
ATOM     20  C   UNL     1       0.583   5.215   5.237  1.00  0.00     0.242 CG0
ATOM     21  O   UNL     1      -0.474   5.343   4.623  1.00  0.00    -0.273 OA
ATOM     22  H   UNL     1       1.927   3.904   6.109  1.00  0.00     0.164 HD
ATOM     23  G   UNL     1       1.596   6.357   5.455  1.00  0.00     0.000 G0
ENDBRANCH  18  19
BRANCH  18  24
ATOM     24  C   UNL     1       0.798   1.664   4.879  1.00  0.00     0.038 C 
BRANCH  24  25
ATOM     25  C   UNL     1       0.921   1.905   3.360  1.00  0.00    -0.015 C 
ATOM     26  C   UNL     1      -0.093   1.093   2.554  1.00  0.00     0.007 C 
ATOM     27  C   UNL     1       2.340   1.563   2.897  1.00  0.00     0.007 C 
ENDBRANCH  24  25
ENDBRANCH  18  24
ENDBRANCH  15  18
ENDBRANCH  13  14
BRANCH  13  28
ATOM     28  C   UNL     1      -1.800  -0.385   8.299  1.00  0.00     0.327 C 
ATOM     29  O   UNL     1      -2.683  -0.629   9.108  1.00  0.00    -0.250 OA
BRANCH  28  30
ATOM     30  O   UNL     1      -1.850  -0.903   7.056  1.00  0.00    -0.480 OA
ATOM     31  H   UNL     1      -2.177  -0.166   6.500  1.00  0.00     0.296 HD
ENDBRANCH  28  30
ENDBRANCH  13  28
ENDBRANCH  11  13
ENDBRANCH   8  11
ENDBRANCH   6   7
BRANCH   6  32
ATOM     32  C   UNL     1       1.457  -4.437   6.497  1.00  0.00     0.037 C 
BRANCH  32  33
ATOM     33  C   UNL     1       0.433  -4.858   7.561  1.00  0.00     0.026 C 
BRANCH  33  34
ATOM     34  C   UNL     1      -0.934  -5.186   6.960  1.00  0.00     0.146 C 
BRANCH  34  35
ATOM     35  N   UNL     1      -1.814  -4.039   7.142  1.00  0.00    -0.254 NA
ATOM     36  C   UNL     1      -3.021  -4.245   7.518  1.00  0.00     0.185 C 
ATOM     37  N   UNL     1      -3.839  -3.195   7.694  1.00  0.00    -0.370 N 
ATOM     38  N   UNL     1      -3.637  -5.411   7.782  1.00  0.00    -0.370 N 
ATOM     39  H   UNL     1      -3.444  -2.279   7.524  1.00  0.00     0.159 HD
ATOM     40  H   UNL     1      -4.733  -3.257   8.148  1.00  0.00     0.159 HD
ATOM     41  H   UNL     1      -4.631  -5.452   7.935  1.00  0.00     0.159 HD
ATOM     42  H   UNL     1      -3.146  -6.285   7.676  1.00  0.00     0.159 HD
ENDBRANCH  34  35
ENDBRANCH  33  34
ENDBRANCH  32  33
ENDBRANCH   6  32
ENDBRANCH   4   6
ENDBRANCH   1   2
BRANCH   1  43
ATOM     43  C   UNL     1       0.601  -4.252   1.963  1.00  0.00     0.102 C 
ATOM     44  C   UNL     1      -0.858  -4.632   2.265  1.00  0.00     0.020 C 
BRANCH  43  45
ATOM     45  C   UNL     1       1.617  -5.333   2.343  1.00  0.00     0.225 C 
ATOM     46  O   UNL     1       2.831  -5.175   2.251  1.00  0.00    -0.275 OA
ATOM     47  N   UNL     1       1.081  -6.545   2.713  1.00  0.00    -0.342 N 
ATOM     48  H   UNL     1       0.096  -6.612   2.929  1.00  0.00     0.164 HD
BRANCH  47  49
ATOM     49  C   UNL     1       1.931  -7.661   3.137  1.00  0.00     0.192 C 
BRANCH  49  50
ATOM     50  C   UNL     1       1.875  -8.778   2.092  1.00  0.00     0.047 C 
BRANCH  50  51
ATOM     51  C   UNL     1       0.702  -8.604   1.117  1.00  0.00     0.103 C 
BRANCH  51  52
ATOM     52  C   UNL     1      -0.390  -9.648   1.340  1.00  0.00     0.226 C 
ATOM     53  O   UNL     1      -0.757  -9.911   2.487  1.00  0.00    -0.275 OA
BRANCH  52  54
ATOM     54  N   UNL     1      -0.973 -10.202   0.186  1.00  0.00    -0.311 N 
ATOM     55  C   UNL     1      -1.989  -9.464  -0.576  1.00  0.00     0.153 C 
BRANCH  54  56
ATOM     56  C   UNL     1      -0.604 -11.473  -0.283  1.00  0.00     0.102 C 
ATOM     57  C   UNL     1      -1.129 -12.633   0.146  1.00  0.00     0.043 C 
BRANCH  56  58
ATOM     58  C   UNL     1       0.421 -11.626  -1.382  1.00  0.00     0.268 C 
ATOM     59  O   UNL     1       1.496 -11.043  -1.381  1.00  0.00    -0.268 OA
ATOM     60  N   UNL     1       0.050 -12.535  -2.344  1.00  0.00    -0.339 N 
ATOM     61  H   UNL     1      -0.863 -12.969  -2.278  1.00  0.00     0.164 HD
BRANCH  60  62
ATOM     62  C   UNL     1       0.922 -12.883  -3.466  1.00  0.00     0.168 CG0
ATOM     63  C   UNL     1       0.210 -12.673  -4.797  1.00  0.00     0.041 C 
ATOM     64  G   UNL     1       1.391 -14.345  -3.322  1.00  0.00     0.000 G0
ENDBRANCH  60  62
ENDBRANCH  56  58
ENDBRANCH  54  56
ENDBRANCH  52  54
ENDBRANCH  51  52
ENDBRANCH  50  51
ENDBRANCH  49  50
BRANCH  49  65
ATOM     65  C   UNL     1       1.496  -8.219   4.501  1.00  0.00     0.326 C 
ATOM     66  O   UNL     1       1.309  -7.558   5.513  1.00  0.00    -0.250 OA
BRANCH  65  67
ATOM     67  O   UNL     1       1.376  -9.564   4.548  1.00  0.00    -0.480 OA
ATOM     68  H   UNL     1       2.043  -9.833   5.216  1.00  0.00     0.296 HD
ENDBRANCH  65  67
ENDBRANCH  49  65
ENDBRANCH  47  49
ENDBRANCH  43  45
ENDBRANCH   1  43
BRANCH   1  69
ATOM     69  C   UNL     1       2.084  -2.063   1.832  1.00  0.00    -0.001 C 
ATOM     70  C   UNL     1       2.034  -1.560   0.586  1.00  0.00     0.001 C 
BRANCH  70  71
ATOM     71  C   UNL     1       3.066  -0.765  -0.084  1.00  0.00    -0.055 C 
ATOM     72  C   UNL     1       4.310  -1.284  -0.156  1.00  0.00    -0.018 C 
ATOM     73  C   UNL     1       2.664   0.572  -0.652  1.00  0.00     0.044 C 
BRANCH  72  74
ATOM     74  C   UNL     1       5.564  -0.695  -0.786  1.00  0.00     0.038 C 
ATOM     75  C   UNL     1       5.621  -1.195  -2.234  1.00  0.00     0.015 C 
BRANCH  74  76
ATOM     76  C   UNL     1       6.793  -1.083   0.088  1.00  0.00     0.128 C 
BRANCH  76  77
ATOM     77  O   UNL     1       8.004  -0.625  -0.537  1.00  0.00    -0.381 OA
ATOM     78  C   UNL     1       8.919  -1.669  -0.841  1.00  0.00     0.195 C 
ENDBRANCH  76  77
BRANCH  76  79
ATOM     79  C   UNL     1       6.677  -0.640   1.568  1.00  0.00     0.068 C 
BRANCH  79  80
ATOM     80  C   UNL     1       6.142  -1.639   2.566  1.00  0.00    -0.045 A 
ATOM     81  C   UNL     1       6.505  -2.991   2.499  1.00  0.00     0.004 A 
ATOM     82  C   UNL     1       5.245  -1.230   3.564  1.00  0.00     0.004 A 
ATOM     83  C   UNL     1       5.995  -3.911   3.417  1.00  0.00     0.000 A 
ATOM     84  C   UNL     1       4.734  -2.152   4.481  1.00  0.00     0.000 A 
ATOM     85  C   UNL     1       5.110  -3.491   4.408  1.00  0.00     0.000 A 
ENDBRANCH  79  80
ENDBRANCH  76  79
ENDBRANCH  74  76
ENDBRANCH  72  74
ENDBRANCH  70  71
ENDBRANCH   1  69
TORSDOF 17
ENDMDL
MODEL 34
REMARK VINA RESULT:    -6.391      4.576      8.437
REMARK INTER + INTRA:         -27.009
REMARK INTER:                 -19.408
REMARK INTRA:                  -7.601
REMARK UNBOUND:                -7.916
REMARK SMILES C=C1C(=O)N[C@H](C)C(=O)N[C@@H](CC(C)C)C(=O)N[C@@H](C(=O)O)[C@H](C)C(=O)N[C@@H](CCCN=C(N)N)C(=O)N[C@@H](/C=C/C(C)=C/[C@H](C)[C@H](Cc2ccccc2)OC)[C@H](C)C(=O)N[C@@H](C(=O)O)CCC(=O)N1C
REMARK SMILES IDX 39 1 38 2 37 3 36 4 28 6 27 7 25 8 26 9 23 11 24 12 19 13
REMARK SMILES IDX 18 14 16 15 17 16 11 18 10 19 8 20 9 21 12 24 13 25 14 26
REMARK SMILES IDX 15 27 20 28 21 29 22 30 29 32 30 33 31 34 32 35 33 36 34 37
REMARK SMILES IDX 35 38 57 43 58 44 59 45 60 46 61 47 62 49 66 50 67 51 68 52
REMARK SMILES IDX 69 53 70 54 71 55 2 56 1 57 3 58 4 59 5 60 6 62 7 63 63 65
REMARK SMILES IDX 64 66 65 67 40 69 41 70 42 71 44 72 43 73 45 74 46 75 47 76
REMARK SMILES IDX 55 77 56 78 48 79 49 80 50 81 54 82 51 83 53 84 52 85
REMARK H PARENT 38 5 27 10 18 17 10 22 22 31 34 39 34 40 35 41 35 42 61 48
REMARK H PARENT 5 61 65 68
REMARK Flexibility Score:  369.900
ROOT
ATOM      1  C   UNL     1       3.751  -3.137   1.819  1.00  0.00     0.117 C 
ENDROOT
BRANCH   1   2
ATOM      2  N   UNL     1       2.723  -4.077   1.372  1.00  0.00    -0.347 N 
ATOM      3  O   UNL     1       4.018  -5.286  -0.087  1.00  0.00    -0.273 OA
ATOM      4  C   UNL     1       2.963  -5.138   0.520  1.00  0.00     0.243 C 
ATOM      5  H   UNL     1       1.785  -3.994   1.735  1.00  0.00     0.164 HD
BRANCH   4   6
ATOM      6  C   UNL     1       1.721  -6.033   0.273  1.00  0.00     0.171 C 
BRANCH   6   7
ATOM      7  N   UNL     1       2.132  -7.355  -0.225  1.00  0.00    -0.344 N 
ATOM      8  C   UNL     1       1.806  -7.757  -1.502  1.00  0.00     0.226 C 
ATOM      9  O   UNL     1       1.153  -7.058  -2.268  1.00  0.00    -0.275 OA
ATOM     10  H   UNL     1       2.615  -7.987   0.401  1.00  0.00     0.164 HD
BRANCH   8  11
ATOM     11  C   UNL     1       2.348  -9.123  -1.885  1.00  0.00     0.109 C 
ATOM     12  C   UNL     1       3.322  -9.621  -0.818  1.00  0.00     0.021 C 
BRANCH  11  13
ATOM     13  C   UNL     1       1.178 -10.080  -2.192  1.00  0.00     0.204 C 
BRANCH  13  14
ATOM     14  N   UNL     1      -0.005  -9.783  -1.379  1.00  0.00    -0.340 N 
ATOM     15  C   UNL     1      -0.626 -10.727  -0.589  1.00  0.00     0.243 C 
ATOM     16  O   UNL     1      -0.193 -11.871  -0.463  1.00  0.00    -0.273 OA
ATOM     17  H   UNL     1      -0.500  -8.905  -1.554  1.00  0.00     0.164 HD
BRANCH  15  18
ATOM     18  C   UNL     1      -1.970 -10.244   0.010  1.00  0.00     0.171 C 
BRANCH  18  19
ATOM     19  N   UNL     1      -2.615 -11.420   0.591  1.00  0.00    -0.343 N 
ATOM     20  C   UNL     1      -3.923 -11.753   0.297  1.00  0.00     0.242 CG0
ATOM     21  O   UNL     1      -4.645 -11.006  -0.359  1.00  0.00    -0.273 OA
ATOM     22  H   UNL     1      -2.094 -12.007   1.233  1.00  0.00     0.164 HD
ATOM     23  G   UNL     1      -4.405 -13.069   0.941  1.00  0.00     0.000 G0
ENDBRANCH  18  19
BRANCH  18  24
ATOM     24  C   UNL     1      -1.733  -9.155   1.064  1.00  0.00     0.038 C 
BRANCH  24  25
ATOM     25  C   UNL     1      -2.160  -7.736   0.631  1.00  0.00    -0.015 C 
ATOM     26  C   UNL     1      -2.716  -6.913   1.793  1.00  0.00     0.007 C 
ATOM     27  C   UNL     1      -3.208  -7.831  -0.481  1.00  0.00     0.007 C 
ENDBRANCH  24  25
ENDBRANCH  18  24
ENDBRANCH  15  18
ENDBRANCH  13  14
BRANCH  13  28
ATOM     28  C   UNL     1       0.741 -10.047  -3.660  1.00  0.00     0.327 C 
ATOM     29  O   UNL     1      -0.022 -10.830  -4.205  1.00  0.00    -0.250 OA
BRANCH  28  30
ATOM     30  O   UNL     1       1.380  -9.104  -4.381  1.00  0.00    -0.480 OA
ATOM     31  H   UNL     1       0.933  -9.122  -5.253  1.00  0.00     0.296 HD
ENDBRANCH  28  30
ENDBRANCH  13  28
ENDBRANCH  11  13
ENDBRANCH   8  11
ENDBRANCH   6   7
BRANCH   6  32
ATOM     32  C   UNL     1       0.927  -6.161   1.578  1.00  0.00     0.037 C 
BRANCH  32  33
ATOM     33  C   UNL     1       1.476  -7.272   2.483  1.00  0.00     0.026 C 
BRANCH  33  34
ATOM     34  C   UNL     1       0.551  -7.576   3.663  1.00  0.00     0.146 C 
BRANCH  34  35
ATOM     35  N   UNL     1       0.801  -8.937   4.117  1.00  0.00    -0.254 NA
ATOM     36  C   UNL     1       0.156  -9.374   5.135  1.00  0.00     0.185 C 
ATOM     37  N   UNL     1       0.375 -10.628   5.559  1.00  0.00    -0.370 N 
ATOM     38  N   UNL     1      -0.759  -8.741   5.890  1.00  0.00    -0.370 N 
ATOM     39  H   UNL     1       1.046 -11.174   5.034  1.00  0.00     0.159 HD
ATOM     40  H   UNL     1      -0.208 -11.097   6.230  1.00  0.00     0.159 HD
ATOM     41  H   UNL     1      -1.094  -9.144   6.750  1.00  0.00     0.159 HD
ATOM     42  H   UNL     1      -1.011  -7.784   5.695  1.00  0.00     0.159 HD
ENDBRANCH  34  35
ENDBRANCH  33  34
ENDBRANCH  32  33
ENDBRANCH   6  32
ENDBRANCH   4   6
ENDBRANCH   1   2
BRANCH   1  43
ATOM     43  C   UNL     1       4.683  -3.866   2.829  1.00  0.00     0.102 C 
ATOM     44  C   UNL     1       4.144  -3.866   4.270  1.00  0.00     0.020 C 
BRANCH  43  45
ATOM     45  C   UNL     1       6.125  -3.366   2.706  1.00  0.00     0.225 C 
ATOM     46  O   UNL     1       6.730  -2.828   3.629  1.00  0.00    -0.275 OA
ATOM     47  N   UNL     1       6.684  -3.472   1.453  1.00  0.00    -0.342 N 
ATOM     48  H   UNL     1       6.237  -4.047   0.753  1.00  0.00     0.164 HD
BRANCH  47  49
ATOM     49  C   UNL     1       8.069  -3.066   1.195  1.00  0.00     0.192 C 
BRANCH  49  50
ATOM     50  C   UNL     1       8.133  -2.248  -0.097  1.00  0.00     0.047 C 
BRANCH  50  51
ATOM     51  C   UNL     1       6.764  -1.680  -0.495  1.00  0.00     0.103 C 
BRANCH  51  52
ATOM     52  C   UNL     1       6.494  -0.325   0.156  1.00  0.00     0.226 C 
ATOM     53  O   UNL     1       5.864  -0.271   1.215  1.00  0.00    -0.275 OA
BRANCH  52  54
ATOM     54  N   UNL     1       7.061   0.798  -0.474  1.00  0.00    -0.311 N 
ATOM     55  C   UNL     1       6.542   1.287  -1.758  1.00  0.00     0.153 C 
BRANCH  54  56
ATOM     56  C   UNL     1       8.138   1.494   0.100  1.00  0.00     0.102 C 
ATOM     57  C   UNL     1       8.176   1.941   1.366  1.00  0.00     0.043 C 
BRANCH  56  58
ATOM     58  C   UNL     1       9.399   1.759  -0.689  1.00  0.00     0.268 C 
ATOM     59  O   UNL     1       9.725   2.874  -1.075  1.00  0.00    -0.268 OA
ATOM     60  N   UNL     1      10.169   0.636  -0.869  1.00  0.00    -0.339 N 
ATOM     61  H   UNL     1       9.823  -0.253  -0.528  1.00  0.00     0.164 HD
BRANCH  60  62
ATOM     62  C   UNL     1      11.462   0.679  -1.552  1.00  0.00     0.168 CG0
ATOM     63  C   UNL     1      12.008  -0.725  -1.779  1.00  0.00     0.041 C 
ATOM     64  G   UNL     1      12.454   1.524  -0.726  1.00  0.00     0.000 G0
ENDBRANCH  60  62
ENDBRANCH  56  58
ENDBRANCH  54  56
ENDBRANCH  52  54
ENDBRANCH  51  52
ENDBRANCH  50  51
ENDBRANCH  49  50
BRANCH  49  65
ATOM     65  C   UNL     1       9.002  -4.281   1.074  1.00  0.00     0.326 C 
ATOM     66  O   UNL     1      10.089  -4.290   0.515  1.00  0.00    -0.250 OA
BRANCH  65  67
ATOM     67  O   UNL     1       8.509  -5.425   1.598  1.00  0.00    -0.480 OA
ATOM     68  H   UNL     1       9.157  -6.107   1.317  1.00  0.00     0.296 HD
ENDBRANCH  65  67
ENDBRANCH  49  65
ENDBRANCH  47  49
ENDBRANCH  43  45
ENDBRANCH   1  43
BRANCH   1  69
ATOM     69  C   UNL     1       3.015  -1.888   2.270  1.00  0.00    -0.001 C 
ATOM     70  C   UNL     1       2.219  -1.097   1.529  1.00  0.00     0.001 C 
BRANCH  70  71
ATOM     71  C   UNL     1       1.497   0.094   1.981  1.00  0.00    -0.055 C 
ATOM     72  C   UNL     1       2.094   1.293   1.808  1.00  0.00    -0.018 C 
ATOM     73  C   UNL     1       0.137  -0.100   2.598  1.00  0.00     0.044 C 
BRANCH  72  74
ATOM     74  C   UNL     1       1.589   2.682   2.171  1.00  0.00     0.038 C 
ATOM     75  C   UNL     1       1.868   3.594   0.970  1.00  0.00     0.015 C 
BRANCH  74  76
ATOM     76  C   UNL     1       2.264   3.128   3.501  1.00  0.00     0.128 C 
BRANCH  76  77
ATOM     77  O   UNL     1       2.366   4.562   3.543  1.00  0.00    -0.381 OA
ATOM     78  C   UNL     1       3.065   5.052   4.679  1.00  0.00     0.195 C 
ENDBRANCH  76  77
BRANCH  76  79
ATOM     79  C   UNL     1       1.604   2.537   4.772  1.00  0.00     0.068 C 
BRANCH  79  80
ATOM     80  C   UNL     1       2.217   1.296   5.375  1.00  0.00    -0.045 A 
ATOM     81  C   UNL     1       1.490   0.488   6.259  1.00  0.00     0.004 A 
ATOM     82  C   UNL     1       3.544   0.948   5.080  1.00  0.00     0.004 A 
ATOM     83  C   UNL     1       2.069  -0.651   6.823  1.00  0.00     0.000 A 
ATOM     84  C   UNL     1       4.123  -0.190   5.646  1.00  0.00     0.000 A 
ATOM     85  C   UNL     1       3.385  -0.990   6.516  1.00  0.00     0.000 A 
ENDBRANCH  79  80
ENDBRANCH  76  79
ENDBRANCH  74  76
ENDBRANCH  72  74
ENDBRANCH  70  71
ENDBRANCH   1  69
TORSDOF 17
ENDMDL
MODEL 35
REMARK VINA RESULT:    -6.317      4.676      8.982
REMARK INTER + INTRA:         -26.788
REMARK INTER:                 -19.814
REMARK INTRA:                  -6.975
REMARK UNBOUND:                -7.916
REMARK SMILES C=C1C(=O)N[C@H](C)C(=O)N[C@@H](CC(C)C)C(=O)N[C@@H](C(=O)O)[C@H](C)C(=O)N[C@@H](CCCN=C(N)N)C(=O)N[C@@H](/C=C/C(C)=C/[C@H](C)[C@H](Cc2ccccc2)OC)[C@H](C)C(=O)N[C@@H](C(=O)O)CCC(=O)N1C
REMARK SMILES IDX 39 1 38 2 37 3 36 4 28 6 27 7 25 8 26 9 23 11 24 12 19 13
REMARK SMILES IDX 18 14 16 15 17 16 11 18 10 19 8 20 9 21 12 24 13 25 14 26
REMARK SMILES IDX 15 27 20 28 21 29 22 30 29 32 30 33 31 34 32 35 33 36 34 37
REMARK SMILES IDX 35 38 57 43 58 44 59 45 60 46 61 47 62 49 66 50 67 51 68 52
REMARK SMILES IDX 69 53 70 54 71 55 2 56 1 57 3 58 4 59 5 60 6 62 7 63 63 65
REMARK SMILES IDX 64 66 65 67 40 69 41 70 42 71 44 72 43 73 45 74 46 75 47 76
REMARK SMILES IDX 55 77 56 78 48 79 49 80 50 81 54 82 51 83 53 84 52 85
REMARK H PARENT 38 5 27 10 18 17 10 22 22 31 34 39 34 40 35 41 35 42 61 48
REMARK H PARENT 5 61 65 68
REMARK Flexibility Score:  369.900
ROOT
ATOM      1  C   UNL     1       3.190  -3.604   2.231  1.00  0.00     0.117 C 
ENDROOT
BRANCH   1   2
ATOM      2  N   UNL     1       2.396  -4.827   2.105  1.00  0.00    -0.347 N 
ATOM      3  O   UNL     1       3.657  -5.852   0.483  1.00  0.00    -0.273 OA
ATOM      4  C   UNL     1       2.746  -5.897   1.303  1.00  0.00     0.243 C 
ATOM      5  H   UNL     1       1.565  -4.937   2.665  1.00  0.00     0.164 HD
BRANCH   4   6
ATOM      6  C   UNL     1       1.780  -7.103   1.417  1.00  0.00     0.171 C 
BRANCH   6   7
ATOM      7  N   UNL     1       2.146  -8.149   0.448  1.00  0.00    -0.344 N 
ATOM      8  C   UNL     1       1.576  -8.175  -0.806  1.00  0.00     0.226 C 
ATOM      9  O   UNL     1       0.735  -7.360  -1.167  1.00  0.00    -0.275 OA
ATOM     10  H   UNL     1       2.787  -8.878   0.733  1.00  0.00     0.164 HD
BRANCH   8  11
ATOM     11  C   UNL     1       2.098  -9.281  -1.707  1.00  0.00     0.109 C 
ATOM     12  C   UNL     1       3.342  -9.919  -1.090  1.00  0.00     0.021 C 
BRANCH  11  13
ATOM     13  C   UNL     1       0.958 -10.267  -2.035  1.00  0.00     0.204 C 
BRANCH  13  14
ATOM     14  N   UNL     1      -0.248  -9.998  -1.246  1.00  0.00    -0.340 N 
ATOM     15  C   UNL     1      -0.862 -10.956  -0.468  1.00  0.00     0.243 C 
ATOM     16  O   UNL     1      -0.405 -12.089  -0.332  1.00  0.00    -0.273 OA
ATOM     17  H   UNL     1      -0.760  -9.132  -1.432  1.00  0.00     0.164 HD
BRANCH  15  18
ATOM     18  C   UNL     1      -2.229 -10.505   0.104  1.00  0.00     0.171 C 
BRANCH  18  19
ATOM     19  N   UNL     1      -2.779 -11.651   0.824  1.00  0.00    -0.343 N 
ATOM     20  C   UNL     1      -4.082 -12.071   0.638  1.00  0.00     0.242 CG0
ATOM     21  O   UNL     1      -4.877 -11.423  -0.039  1.00  0.00    -0.273 OA
ATOM     22  H   UNL     1      -2.195 -12.151   1.484  1.00  0.00     0.164 HD
ATOM     23  G   UNL     1      -4.460 -13.344   1.424  1.00  0.00     0.000 G0
ENDBRANCH  18  19
BRANCH  18  24
ATOM     24  C   UNL     1      -2.056  -9.292   1.026  1.00  0.00     0.038 C 
BRANCH  24  25
ATOM     25  C   UNL     1      -3.055  -8.143   0.773  1.00  0.00    -0.015 C 
ATOM     26  C   UNL     1      -3.378  -7.964  -0.711  1.00  0.00     0.007 C 
ATOM     27  C   UNL     1      -2.492  -6.837   1.338  1.00  0.00     0.007 C 
ENDBRANCH  24  25
ENDBRANCH  18  24
ENDBRANCH  15  18
ENDBRANCH  13  14
BRANCH  13  28
ATOM     28  C   UNL     1       0.549 -10.247  -3.511  1.00  0.00     0.327 C 
ATOM     29  O   UNL     1       1.291 -10.406  -4.469  1.00  0.00    -0.250 OA
BRANCH  28  30
ATOM     30  O   UNL     1      -0.743  -9.911  -3.697  1.00  0.00    -0.480 OA
ATOM     31  H   UNL     1      -1.122 -10.671  -4.186  1.00  0.00     0.296 HD
ENDBRANCH  28  30
ENDBRANCH  13  28
ENDBRANCH  11  13
ENDBRANCH   8  11
ENDBRANCH   6   7
BRANCH   6  32
ATOM     32  C   UNL     1       1.819  -7.646   2.850  1.00  0.00     0.037 C 
BRANCH  32  33
ATOM     33  C   UNL     1       0.420  -7.726   3.477  1.00  0.00     0.026 C 
BRANCH  33  34
ATOM     34  C   UNL     1       0.407  -8.535   4.775  1.00  0.00     0.146 C 
BRANCH  34  35
ATOM     35  N   UNL     1       1.504  -8.085   5.621  1.00  0.00    -0.254 NA
ATOM     36  C   UNL     1       1.238  -7.330   6.621  1.00  0.00     0.185 C 
ATOM     37  N   UNL     1       2.241  -6.913   7.410  1.00  0.00    -0.370 N 
ATOM     38  N   UNL     1       0.047  -6.861   7.033  1.00  0.00    -0.370 N 
ATOM     39  H   UNL     1       3.170  -7.233   7.170  1.00  0.00     0.159 HD
ATOM     40  H   UNL     1       2.099  -6.470   8.301  1.00  0.00     0.159 HD
ATOM     41  H   UNL     1      -0.016  -6.161   7.754  1.00  0.00     0.159 HD
ATOM     42  H   UNL     1      -0.795  -7.082   6.524  1.00  0.00     0.159 HD
ENDBRANCH  34  35
ENDBRANCH  33  34
ENDBRANCH  32  33
ENDBRANCH   6  32
ENDBRANCH   4   6
ENDBRANCH   1   2
BRANCH   1  43
ATOM     43  C   UNL     1       4.310  -3.847   3.283  1.00  0.00     0.102 C 
ATOM     44  C   UNL     1       4.052  -3.142   4.626  1.00  0.00     0.020 C 
BRANCH  43  45
ATOM     45  C   UNL     1       5.693  -3.566   2.690  1.00  0.00     0.225 C 
ATOM     46  O   UNL     1       6.718  -3.525   3.365  1.00  0.00    -0.275 OA
ATOM     47  N   UNL     1       5.711  -3.264   1.347  1.00  0.00    -0.342 N 
ATOM     48  H   UNL     1       4.895  -3.449   0.782  1.00  0.00     0.164 HD
BRANCH  47  49
ATOM     49  C   UNL     1       6.968  -3.007   0.636  1.00  0.00     0.192 C 
BRANCH  49  50
ATOM     50  C   UNL     1       6.728  -1.988  -0.480  1.00  0.00     0.047 C 
BRANCH  50  51
ATOM     51  C   UNL     1       5.304  -1.417  -0.451  1.00  0.00     0.103 C 
BRANCH  51  52
ATOM     52  C   UNL     1       5.285   0.055  -0.041  1.00  0.00     0.226 C 
ATOM     53  O   UNL     1       6.347   0.668   0.082  1.00  0.00    -0.275 OA
BRANCH  52  54
ATOM     54  N   UNL     1       4.017   0.649   0.101  1.00  0.00    -0.311 N 
ATOM     55  C   UNL     1       2.930   0.346  -0.840  1.00  0.00     0.153 C 
BRANCH  54  56
ATOM     56  C   UNL     1       3.742   1.547   1.146  1.00  0.00     0.102 C 
ATOM     57  C   UNL     1       3.577   1.200   2.433  1.00  0.00     0.043 C 
BRANCH  56  58
ATOM     58  C   UNL     1       3.653   3.033   0.888  1.00  0.00     0.268 C 
ATOM     59  O   UNL     1       2.745   3.733   1.315  1.00  0.00    -0.268 OA
ATOM     60  N   UNL     1       4.727   3.524   0.185  1.00  0.00    -0.339 N 
ATOM     61  H   UNL     1       5.433   2.876  -0.142  1.00  0.00     0.164 HD
BRANCH  60  62
ATOM     62  C   UNL     1       4.873   4.947  -0.119  1.00  0.00     0.168 CG0
ATOM     63  C   UNL     1       4.344   5.265  -1.512  1.00  0.00     0.041 C 
ATOM     64  G   UNL     1       6.356   5.352   0.007  1.00  0.00     0.000 G0
ENDBRANCH  60  62
ENDBRANCH  56  58
ENDBRANCH  54  56
ENDBRANCH  52  54
ENDBRANCH  51  52
ENDBRANCH  50  51
ENDBRANCH  49  50
BRANCH  49  65
ATOM     65  C   UNL     1       7.551  -4.295   0.034  1.00  0.00     0.326 C 
ATOM     66  O   UNL     1       8.383  -5.015   0.567  1.00  0.00    -0.250 OA
BRANCH  65  67
ATOM     67  O   UNL     1       7.118  -4.580  -1.213  1.00  0.00    -0.480 OA
ATOM     68  H   UNL     1       7.210  -5.556  -1.273  1.00  0.00     0.296 HD
ENDBRANCH  65  67
ENDBRANCH  49  65
ENDBRANCH  47  49
ENDBRANCH  43  45
ENDBRANCH   1  43
BRANCH   1  69
ATOM     69  C   UNL     1       2.199  -2.478   2.461  1.00  0.00    -0.001 C 
ATOM     70  C   UNL     1       0.857  -2.546   2.409  1.00  0.00     0.001 C 
BRANCH  70  71
ATOM     71  C   UNL     1      -0.090  -1.457   2.654  1.00  0.00    -0.055 C 
ATOM     72  C   UNL     1       0.366  -0.364   3.302  1.00  0.00    -0.018 C 
ATOM     73  C   UNL     1      -1.502  -1.629   2.159  1.00  0.00     0.044 C 
BRANCH  72  74
ATOM     74  C   UNL     1      -0.378   0.907   3.688  1.00  0.00     0.038 C 
ATOM     75  C   UNL     1      -0.178   1.912   2.547  1.00  0.00     0.015 C 
BRANCH  74  76
ATOM     76  C   UNL     1       0.135   1.386   5.078  1.00  0.00     0.128 C 
BRANCH  76  77
ATOM     77  O   UNL     1       1.279   0.609   5.473  1.00  0.00    -0.381 OA
ATOM     78  C   UNL     1       2.367   1.393   5.943  1.00  0.00     0.195 C 
ENDBRANCH  76  77
BRANCH  76  79
ATOM     79  C   UNL     1       0.388   2.912   5.164  1.00  0.00     0.068 C 
BRANCH  79  80
ATOM     80  C   UNL     1      -0.671   3.769   5.813  1.00  0.00    -0.045 A 
ATOM     81  C   UNL     1      -1.925   3.944   5.214  1.00  0.00     0.004 A 
ATOM     82  C   UNL     1      -0.403   4.430   7.021  1.00  0.00     0.004 A 
ATOM     83  C   UNL     1      -2.895   4.750   5.815  1.00  0.00     0.000 A 
ATOM     84  C   UNL     1      -1.373   5.237   7.621  1.00  0.00     0.000 A 
ATOM     85  C   UNL     1      -2.619   5.395   7.018  1.00  0.00     0.000 A 
ENDBRANCH  79  80
ENDBRANCH  76  79
ENDBRANCH  74  76
ENDBRANCH  72  74
ENDBRANCH  70  71
ENDBRANCH   1  69
TORSDOF 17
ENDMDL
MODEL 36
REMARK VINA RESULT:    -6.313      4.483     12.951
REMARK INTER + INTRA:         -26.775
REMARK INTER:                 -19.521
REMARK INTRA:                  -7.254
REMARK UNBOUND:                -7.916
REMARK SMILES C=C1C(=O)N[C@H](C)C(=O)N[C@@H](CC(C)C)C(=O)N[C@@H](C(=O)O)[C@H](C)C(=O)N[C@@H](CCCN=C(N)N)C(=O)N[C@@H](/C=C/C(C)=C/[C@H](C)[C@H](Cc2ccccc2)OC)[C@H](C)C(=O)N[C@@H](C(=O)O)CCC(=O)N1C
REMARK SMILES IDX 39 1 38 2 37 3 36 4 28 6 27 7 25 8 26 9 23 11 24 12 19 13
REMARK SMILES IDX 18 14 16 15 17 16 11 18 10 19 8 20 9 21 12 24 13 25 14 26
REMARK SMILES IDX 15 27 20 28 21 29 22 30 29 32 30 33 31 34 32 35 33 36 34 37
REMARK SMILES IDX 35 38 57 43 58 44 59 45 60 46 61 47 62 49 66 50 67 51 68 52
REMARK SMILES IDX 69 53 70 54 71 55 2 56 1 57 3 58 4 59 5 60 6 62 7 63 63 65
REMARK SMILES IDX 64 66 65 67 40 69 41 70 42 71 44 72 43 73 45 74 46 75 47 76
REMARK SMILES IDX 55 77 56 78 48 79 49 80 50 81 54 82 51 83 53 84 52 85
REMARK H PARENT 38 5 27 10 18 17 10 22 22 31 34 39 34 40 35 41 35 42 61 48
REMARK H PARENT 5 61 65 68
REMARK Flexibility Score:  369.900
ROOT
ATOM      1  C   UNL     1      -1.165  -4.512   2.534  1.00  0.00     0.117 C 
ENDROOT
BRANCH   1   2
ATOM      2  N   UNL     1       0.204  -4.648   3.031  1.00  0.00    -0.347 N 
ATOM      3  O   UNL     1       1.239  -4.990   1.011  1.00  0.00    -0.273 OA
ATOM      4  C   UNL     1       1.313  -4.785   2.218  1.00  0.00     0.243 C 
ATOM      5  H   UNL     1       0.378  -4.591   4.023  1.00  0.00     0.164 HD
BRANCH   4   6
ATOM      6  C   UNL     1       2.654  -4.823   2.993  1.00  0.00     0.171 C 
BRANCH   6   7
ATOM      7  N   UNL     1       3.413  -3.582   2.767  1.00  0.00    -0.344 N 
ATOM      8  C   UNL     1       2.874  -2.358   3.098  1.00  0.00     0.226 C 
ATOM      9  O   UNL     1       1.748  -2.238   3.567  1.00  0.00    -0.275 OA
ATOM     10  H   UNL     1       4.319  -3.636   2.319  1.00  0.00     0.164 HD
BRANCH   8  11
ATOM     11  C   UNL     1       3.800  -1.180   2.856  1.00  0.00     0.109 C 
ATOM     12  C   UNL     1       5.230  -1.545   3.255  1.00  0.00     0.021 C 
BRANCH  11  13
ATOM     13  C   UNL     1       3.639  -0.679   1.407  1.00  0.00     0.204 C 
BRANCH  13  14
ATOM     14  N   UNL     1       4.528  -1.384   0.478  1.00  0.00    -0.340 N 
ATOM     15  C   UNL     1       5.392  -0.730  -0.373  1.00  0.00     0.243 C 
ATOM     16  O   UNL     1       5.523   0.493  -0.370  1.00  0.00    -0.273 OA
ATOM     17  H   UNL     1       4.361  -2.381   0.318  1.00  0.00     0.164 HD
BRANCH  15  18
ATOM     18  C   UNL     1       6.073  -1.665  -1.402  1.00  0.00     0.171 C 
BRANCH  18  19
ATOM     19  N   UNL     1       7.325  -1.019  -1.792  1.00  0.00    -0.343 N 
ATOM     20  C   UNL     1       7.563  -0.615  -3.091  1.00  0.00     0.242 CG0
ATOM     21  O   UNL     1       6.792  -0.898  -4.005  1.00  0.00    -0.273 OA
ATOM     22  H   UNL     1       8.044  -0.866  -1.093  1.00  0.00     0.164 HD
ATOM     23  G   UNL     1       8.905   0.119  -3.294  1.00  0.00     0.000 G0
ENDBRANCH  18  19
BRANCH  18  24
ATOM     24  C   UNL     1       6.322  -3.051  -0.793  1.00  0.00     0.038 C 
BRANCH  24  25
ATOM     25  C   UNL     1       7.809  -3.443  -0.670  1.00  0.00    -0.015 C 
ATOM     26  C   UNL     1       8.214  -4.526  -1.670  1.00  0.00     0.007 C 
ATOM     27  C   UNL     1       8.099  -3.922   0.755  1.00  0.00     0.007 C 
ENDBRANCH  24  25
ENDBRANCH  18  24
ENDBRANCH  15  18
ENDBRANCH  13  14
BRANCH  13  28
ATOM     28  C   UNL     1       2.212  -0.828   0.872  1.00  0.00     0.327 C 
ATOM     29  O   UNL     1       1.298  -0.031   1.019  1.00  0.00    -0.250 OA
BRANCH  28  30
ATOM     30  O   UNL     1       1.988  -2.023   0.288  1.00  0.00    -0.480 OA
ATOM     31  H   UNL     1       2.096  -2.671   1.015  1.00  0.00     0.296 HD
ENDBRANCH  28  30
ENDBRANCH  13  28
ENDBRANCH  11  13
ENDBRANCH   8  11
ENDBRANCH   6   7
BRANCH   6  32
ATOM     32  C   UNL     1       2.368  -5.025   4.485  1.00  0.00     0.037 C 
BRANCH  32  33
ATOM     33  C   UNL     1       3.653  -5.036   5.325  1.00  0.00     0.026 C 
BRANCH  33  34
ATOM     34  C   UNL     1       3.378  -5.272   6.811  1.00  0.00     0.146 C 
BRANCH  34  35
ATOM     35  N   UNL     1       1.987  -4.942   7.090  1.00  0.00    -0.254 NA
ATOM     36  C   UNL     1       1.213  -5.864   7.529  1.00  0.00     0.185 C 
ATOM     37  N   UNL     1      -0.069  -5.570   7.794  1.00  0.00    -0.370 N 
ATOM     38  N   UNL     1       1.496  -7.154   7.784  1.00  0.00    -0.370 N 
ATOM     39  H   UNL     1      -0.357  -4.612   7.637  1.00  0.00     0.159 HD
ATOM     40  H   UNL     1      -0.687  -6.181   8.299  1.00  0.00     0.159 HD
ATOM     41  H   UNL     1       0.766  -7.815   7.995  1.00  0.00     0.159 HD
ATOM     42  H   UNL     1       2.420  -7.519   7.615  1.00  0.00     0.159 HD
ENDBRANCH  34  35
ENDBRANCH  33  34
ENDBRANCH  32  33
ENDBRANCH   6  32
ENDBRANCH   4   6
ENDBRANCH   1   2
BRANCH   1  43
ATOM     43  C   UNL     1      -1.879  -3.395   3.348  1.00  0.00     0.102 C 
ATOM     44  C   UNL     1      -1.734  -1.996   2.725  1.00  0.00     0.020 C 
BRANCH  43  45
ATOM     45  C   UNL     1      -1.490  -3.459   4.828  1.00  0.00     0.225 C 
ATOM     46  O   UNL     1      -1.724  -4.430   5.542  1.00  0.00    -0.275 OA
ATOM     47  N   UNL     1      -0.937  -2.310   5.345  1.00  0.00    -0.342 N 
ATOM     48  H   UNL     1      -0.614  -1.585   4.720  1.00  0.00     0.164 HD
BRANCH  47  49
ATOM     49  C   UNL     1      -0.484  -2.237   6.737  1.00  0.00     0.192 C 
BRANCH  49  50
ATOM     50  C   UNL     1      -1.596  -1.651   7.611  1.00  0.00     0.047 C 
BRANCH  50  51
ATOM     51  C   UNL     1      -1.987  -2.588   8.762  1.00  0.00     0.103 C 
BRANCH  51  52
ATOM     52  C   UNL     1      -3.387  -2.290   9.294  1.00  0.00     0.226 C 
ATOM     53  O   UNL     1      -3.564  -1.319  10.033  1.00  0.00    -0.275 OA
BRANCH  52  54
ATOM     54  N   UNL     1      -4.424  -3.121   8.833  1.00  0.00    -0.311 N 
ATOM     55  C   UNL     1      -4.945  -2.993   7.465  1.00  0.00     0.153 C 
BRANCH  54  56
ATOM     56  C   UNL     1      -4.995  -4.106   9.657  1.00  0.00     0.102 C 
ATOM     57  C   UNL     1      -4.383  -5.241  10.034  1.00  0.00     0.043 C 
BRANCH  56  58
ATOM     58  C   UNL     1      -6.378  -3.926  10.236  1.00  0.00     0.268 C 
ATOM     59  O   UNL     1      -6.754  -2.886  10.761  1.00  0.00    -0.268 OA
ATOM     60  N   UNL     1      -7.187  -5.022  10.053  1.00  0.00    -0.339 N 
ATOM     61  H   UNL     1      -6.796  -5.849   9.618  1.00  0.00     0.164 HD
BRANCH  60  62
ATOM     62  C   UNL     1      -8.585  -5.038  10.481  1.00  0.00     0.168 CG0
ATOM     63  C   UNL     1      -9.455  -5.787   9.479  1.00  0.00     0.041 C 
ATOM     64  G   UNL     1      -9.086  -3.591  10.665  1.00  0.00     0.000 G0
ENDBRANCH  60  62
ENDBRANCH  56  58
ENDBRANCH  54  56
ENDBRANCH  52  54
ENDBRANCH  51  52
ENDBRANCH  50  51
ENDBRANCH  49  50
BRANCH  49  65
ATOM     65  C   UNL     1       0.781  -1.375   6.878  1.00  0.00     0.326 C 
ATOM     66  O   UNL     1       0.810  -0.212   7.255  1.00  0.00    -0.250 OA
BRANCH  65  67
ATOM     67  O   UNL     1       1.923  -1.981   6.487  1.00  0.00    -0.480 OA
ATOM     68  H   UNL     1       1.684  -2.395   5.629  1.00  0.00     0.296 HD
ENDBRANCH  65  67
ENDBRANCH  49  65
ENDBRANCH  47  49
ENDBRANCH  43  45
ENDBRANCH   1  43
BRANCH   1  69
ATOM     69  C   UNL     1      -1.756  -5.910   2.532  1.00  0.00    -0.001 C 
ATOM     70  C   UNL     1      -2.370  -6.536   1.513  1.00  0.00     0.001 C 
BRANCH  70  71
ATOM     71  C   UNL     1      -2.918  -7.894   1.517  1.00  0.00    -0.055 C 
ATOM     72  C   UNL     1      -3.343  -8.396   2.696  1.00  0.00    -0.018 C 
ATOM     73  C   UNL     1      -2.977  -8.632   0.205  1.00  0.00     0.044 C 
BRANCH  72  74
ATOM     74  C   UNL     1      -3.952  -9.758   2.999  1.00  0.00     0.038 C 
ATOM     75  C   UNL     1      -5.438  -9.681   2.631  1.00  0.00     0.015 C 
BRANCH  74  76
ATOM     76  C   UNL     1      -3.665 -10.114   4.488  1.00  0.00     0.128 C 
BRANCH  76  77
ATOM     77  O   UNL     1      -2.433 -10.847   4.589  1.00  0.00    -0.381 OA
ATOM     78  C   UNL     1      -1.506 -10.281   5.506  1.00  0.00     0.195 C 
ENDBRANCH  76  77
BRANCH  76  79
ATOM     79  C   UNL     1      -3.721  -8.899   5.448  1.00  0.00     0.068 C 
BRANCH  79  80
ATOM     80  C   UNL     1      -4.878  -8.813   6.413  1.00  0.00    -0.045 A 
ATOM     81  C   UNL     1      -5.335  -7.575   6.885  1.00  0.00     0.004 A 
ATOM     82  C   UNL     1      -5.499  -9.982   6.878  1.00  0.00     0.004 A 
ATOM     83  C   UNL     1      -6.397  -7.505   7.789  1.00  0.00     0.000 A 
ATOM     84  C   UNL     1      -6.561  -9.911   7.783  1.00  0.00     0.000 A 
ATOM     85  C   UNL     1      -7.010  -8.673   8.237  1.00  0.00     0.000 A 
ENDBRANCH  79  80
ENDBRANCH  76  79
ENDBRANCH  74  76
ENDBRANCH  72  74
ENDBRANCH  70  71
ENDBRANCH   1  69
TORSDOF 17
ENDMDL
MODEL 37
REMARK VINA RESULT:    -6.308      4.327      6.694
REMARK INTER + INTRA:         -26.763
REMARK INTER:                 -18.675
REMARK INTRA:                  -8.089
REMARK UNBOUND:                -7.916
REMARK SMILES C=C1C(=O)N[C@H](C)C(=O)N[C@@H](CC(C)C)C(=O)N[C@@H](C(=O)O)[C@H](C)C(=O)N[C@@H](CCCN=C(N)N)C(=O)N[C@@H](/C=C/C(C)=C/[C@H](C)[C@H](Cc2ccccc2)OC)[C@H](C)C(=O)N[C@@H](C(=O)O)CCC(=O)N1C
REMARK SMILES IDX 39 1 38 2 37 3 36 4 28 6 27 7 25 8 26 9 23 11 24 12 19 13
REMARK SMILES IDX 18 14 16 15 17 16 11 18 10 19 8 20 9 21 12 24 13 25 14 26
REMARK SMILES IDX 15 27 20 28 21 29 22 30 29 32 30 33 31 34 32 35 33 36 34 37
REMARK SMILES IDX 35 38 57 43 58 44 59 45 60 46 61 47 62 49 66 50 67 51 68 52
REMARK SMILES IDX 69 53 70 54 71 55 2 56 1 57 3 58 4 59 5 60 6 62 7 63 63 65
REMARK SMILES IDX 64 66 65 67 40 69 41 70 42 71 44 72 43 73 45 74 46 75 47 76
REMARK SMILES IDX 55 77 56 78 48 79 49 80 50 81 54 82 51 83 53 84 52 85
REMARK H PARENT 38 5 27 10 18 17 10 22 22 31 34 39 34 40 35 41 35 42 61 48
REMARK H PARENT 5 61 65 68
REMARK Flexibility Score:  369.900
ROOT
ATOM      1  C   UNL     1       4.765  -3.586   0.349  1.00  0.00     0.117 C 
ENDROOT
BRANCH   1   2
ATOM      2  N   UNL     1       3.678  -4.087   1.192  1.00  0.00    -0.347 N 
ATOM      3  O   UNL     1       2.818  -5.620  -0.285  1.00  0.00    -0.273 OA
ATOM      4  C   UNL     1       2.845  -5.132   0.840  1.00  0.00     0.243 C 
ATOM      5  H   UNL     1       3.542  -3.691   2.110  1.00  0.00     0.164 HD
BRANCH   4   6
ATOM      6  C   UNL     1       1.833  -5.521   1.947  1.00  0.00     0.171 C 
BRANCH   6   7
ATOM      7  N   UNL     1       2.356  -5.158   3.274  1.00  0.00    -0.344 N 
ATOM      8  C   UNL     1       2.229  -6.022   4.340  1.00  0.00     0.226 C 
ATOM      9  O   UNL     1       1.666  -7.106   4.248  1.00  0.00    -0.275 OA
ATOM     10  H   UNL     1       2.769  -4.242   3.405  1.00  0.00     0.164 HD
BRANCH   8  11
ATOM     11  C   UNL     1       2.868  -5.526   5.626  1.00  0.00     0.109 C 
ATOM     12  C   UNL     1       3.828  -4.375   5.327  1.00  0.00     0.021 C 
BRANCH  11  13
ATOM     13  C   UNL     1       1.772  -5.204   6.662  1.00  0.00     0.204 C 
BRANCH  13  14
ATOM     14  N   UNL     1       0.611  -4.549   6.051  1.00  0.00    -0.340 N 
ATOM     15  C   UNL     1       0.332  -3.210   6.221  1.00  0.00     0.243 C 
ATOM     16  O   UNL     1       1.073  -2.456   6.849  1.00  0.00    -0.273 OA
ATOM     17  H   UNL     1      -0.119  -5.143   5.649  1.00  0.00     0.164 HD
BRANCH  15  18
ATOM     18  C   UNL     1      -1.048  -2.790   5.660  1.00  0.00     0.171 C 
BRANCH  18  19
ATOM     19  N   UNL     1      -1.927  -2.598   6.812  1.00  0.00    -0.343 N 
ATOM     20  C   UNL     1      -2.512  -3.664   7.468  1.00  0.00     0.242 CG0
ATOM     21  O   UNL     1      -2.427  -4.811   7.035  1.00  0.00    -0.273 OA
ATOM     22  H   UNL     1      -2.122  -1.658   7.138  1.00  0.00     0.164 HD
ATOM     23  G   UNL     1      -3.342  -3.270   8.707  1.00  0.00     0.000 G0
ENDBRANCH  18  19
BRANCH  18  24
ATOM     24  C   UNL     1      -0.927  -1.509   4.826  1.00  0.00     0.038 C 
BRANCH  24  25
ATOM     25  C   UNL     1      -0.595  -1.739   3.336  1.00  0.00    -0.015 C 
ATOM     26  C   UNL     1       0.424  -0.732   2.801  1.00  0.00     0.007 C 
ATOM     27  C   UNL     1      -1.879  -1.663   2.506  1.00  0.00     0.007 C 
ENDBRANCH  24  25
ENDBRANCH  18  24
ENDBRANCH  15  18
ENDBRANCH  13  14
BRANCH  13  28
ATOM     28  C   UNL     1       1.258  -6.443   7.401  1.00  0.00     0.327 C 
ATOM     29  O   UNL     1       1.941  -7.343   7.865  1.00  0.00    -0.250 OA
BRANCH  28  30
ATOM     30  O   UNL     1      -0.088  -6.534   7.407  1.00  0.00    -0.480 OA
ATOM     31  H   UNL     1      -0.391  -5.616   7.562  1.00  0.00     0.296 HD
ENDBRANCH  28  30
ENDBRANCH  13  28
ENDBRANCH  11  13
ENDBRANCH   8  11
ENDBRANCH   6   7
BRANCH   6  32
ATOM     32  C   UNL     1       0.496  -4.822   1.676  1.00  0.00     0.037 C 
BRANCH  32  33
ATOM     33  C   UNL     1      -0.687  -5.799   1.715  1.00  0.00     0.026 C 
BRANCH  33  34
ATOM     34  C   UNL     1      -1.762  -5.376   2.717  1.00  0.00     0.146 C 
BRANCH  34  35
ATOM     35  N   UNL     1      -1.485  -6.010   3.999  1.00  0.00    -0.254 NA
ATOM     36  C   UNL     1      -2.202  -7.009   4.358  1.00  0.00     0.185 C 
ATOM     37  N   UNL     1      -1.952  -7.603   5.535  1.00  0.00    -0.370 N 
ATOM     38  N   UNL     1      -3.224  -7.593   3.708  1.00  0.00    -0.370 N 
ATOM     39  H   UNL     1      -1.188  -7.226   6.081  1.00  0.00     0.159 HD
ATOM     40  H   UNL     1      -2.347  -8.487   5.807  1.00  0.00     0.159 HD
ATOM     41  H   UNL     1      -3.800  -8.285   4.158  1.00  0.00     0.159 HD
ATOM     42  H   UNL     1      -3.533  -7.239   2.816  1.00  0.00     0.159 HD
ENDBRANCH  34  35
ENDBRANCH  33  34
ENDBRANCH  32  33
ENDBRANCH   6  32
ENDBRANCH   4   6
ENDBRANCH   1   2
BRANCH   1  43
ATOM     43  C   UNL     1       6.076  -4.327   0.740  1.00  0.00     0.102 C 
ATOM     44  C   UNL     1       6.629  -3.908   2.113  1.00  0.00     0.020 C 
BRANCH  43  45
ATOM     45  C   UNL     1       7.105  -4.258  -0.391  1.00  0.00     0.225 C 
ATOM     46  O   UNL     1       7.103  -5.028  -1.348  1.00  0.00    -0.275 OA
ATOM     47  N   UNL     1       8.106  -3.328  -0.226  1.00  0.00    -0.342 N 
ATOM     48  H   UNL     1       8.010  -2.610   0.478  1.00  0.00     0.164 HD
BRANCH  47  49
ATOM     49  C   UNL     1       9.140  -3.126  -1.245  1.00  0.00     0.192 C 
BRANCH  49  50
ATOM     50  C   UNL     1      10.291  -4.108  -1.012  1.00  0.00     0.047 C 
BRANCH  50  51
ATOM     51  C   UNL     1      10.871  -4.648  -2.327  1.00  0.00     0.103 C 
BRANCH  51  52
ATOM     52  C   UNL     1       9.946  -5.669  -2.985  1.00  0.00     0.226 C 
ATOM     53  O   UNL     1       9.561  -6.648  -2.342  1.00  0.00    -0.275 OA
BRANCH  52  54
ATOM     54  N   UNL     1       9.521  -5.378  -4.295  1.00  0.00    -0.311 N 
ATOM     55  C   UNL     1       8.106  -5.116  -4.591  1.00  0.00     0.153 C 
BRANCH  54  56
ATOM     56  C   UNL     1      10.431  -5.321  -5.364  1.00  0.00     0.102 C 
ATOM     57  C   UNL     1      10.853  -4.191  -5.954  1.00  0.00     0.043 C 
BRANCH  56  58
ATOM     58  C   UNL     1      11.058  -6.580  -5.916  1.00  0.00     0.268 C 
ATOM     59  O   UNL     1      10.437  -7.622  -6.077  1.00  0.00    -0.268 OA
ATOM     60  N   UNL     1      12.373  -6.414  -6.279  1.00  0.00    -0.339 N 
ATOM     61  H   UNL     1      12.818  -5.521  -6.103  1.00  0.00     0.164 HD
BRANCH  60  62
ATOM     62  C   UNL     1      13.153  -7.488  -6.893  1.00  0.00     0.168 CG0
ATOM     63  C   UNL     1      14.222  -6.925  -7.822  1.00  0.00     0.041 C 
ATOM     64  G   UNL     1      12.210  -8.438  -7.659  1.00  0.00     0.000 G0
ENDBRANCH  60  62
ENDBRANCH  56  58
ENDBRANCH  54  56
ENDBRANCH  52  54
ENDBRANCH  51  52
ENDBRANCH  50  51
ENDBRANCH  49  50
BRANCH  49  65
ATOM     65  C   UNL     1       9.684  -1.689  -1.223  1.00  0.00     0.326 C 
ATOM     66  O   UNL     1       9.007  -0.672  -1.260  1.00  0.00    -0.250 OA
BRANCH  65  67
ATOM     67  O   UNL     1      11.032  -1.596  -1.218  1.00  0.00    -0.480 OA
ATOM     68  H   UNL     1      11.324  -2.442  -1.622  1.00  0.00     0.296 HD
ENDBRANCH  65  67
ENDBRANCH  49  65
ENDBRANCH  47  49
ENDBRANCH  43  45
ENDBRANCH   1  43
BRANCH   1  69
ATOM     69  C   UNL     1       4.719  -2.073   0.452  1.00  0.00    -0.001 C 
ATOM     70  C   UNL     1       4.172  -1.337   1.436  1.00  0.00     0.001 C 
BRANCH  70  71
ATOM     71  C   UNL     1       4.152   0.124   1.535  1.00  0.00    -0.055 C 
ATOM     72  C   UNL     1       3.183   0.785   0.868  1.00  0.00    -0.018 C 
ATOM     73  C   UNL     1       5.210   0.784   2.380  1.00  0.00     0.044 C 
BRANCH  72  74
ATOM     74  C   UNL     1       2.916   2.282   0.791  1.00  0.00     0.038 C 
ATOM     75  C   UNL     1       1.518   2.523   1.372  1.00  0.00     0.015 C 
BRANCH  74  76
ATOM     76  C   UNL     1       3.100   2.748  -0.683  1.00  0.00     0.128 C 
BRANCH  76  77
ATOM     77  O   UNL     1       2.256   3.881  -0.949  1.00  0.00    -0.381 OA
ATOM     78  C   UNL     1       2.236   4.271  -2.315  1.00  0.00     0.195 C 
ENDBRANCH  76  77
BRANCH  76  79
ATOM     79  C   UNL     1       4.576   2.992  -1.087  1.00  0.00     0.068 C 
BRANCH  79  80
ATOM     80  C   UNL     1       5.227   1.999  -2.019  1.00  0.00    -0.045 A 
ATOM     81  C   UNL     1       4.630   0.759  -2.285  1.00  0.00     0.004 A 
ATOM     82  C   UNL     1       6.462   2.294  -2.615  1.00  0.00     0.004 A 
ATOM     83  C   UNL     1       5.246  -0.160  -3.138  1.00  0.00     0.000 A 
ATOM     84  C   UNL     1       7.078   1.374  -3.467  1.00  0.00     0.000 A 
ATOM     85  C   UNL     1       6.469   0.149  -3.729  1.00  0.00     0.000 A 
ENDBRANCH  79  80
ENDBRANCH  76  79
ENDBRANCH  74  76
ENDBRANCH  72  74
ENDBRANCH  70  71
ENDBRANCH   1  69
TORSDOF 17
ENDMDL
MODEL 38
REMARK VINA RESULT:    -6.307      6.486     12.763
REMARK INTER + INTRA:         -26.760
REMARK INTER:                 -18.707
REMARK INTRA:                  -8.052
REMARK UNBOUND:                -7.916
REMARK SMILES C=C1C(=O)N[C@H](C)C(=O)N[C@@H](CC(C)C)C(=O)N[C@@H](C(=O)O)[C@H](C)C(=O)N[C@@H](CCCN=C(N)N)C(=O)N[C@@H](/C=C/C(C)=C/[C@H](C)[C@H](Cc2ccccc2)OC)[C@H](C)C(=O)N[C@@H](C(=O)O)CCC(=O)N1C
REMARK SMILES IDX 39 1 38 2 37 3 36 4 28 6 27 7 25 8 26 9 23 11 24 12 19 13
REMARK SMILES IDX 18 14 16 15 17 16 11 18 10 19 8 20 9 21 12 24 13 25 14 26
REMARK SMILES IDX 15 27 20 28 21 29 22 30 29 32 30 33 31 34 32 35 33 36 34 37
REMARK SMILES IDX 35 38 57 43 58 44 59 45 60 46 61 47 62 49 66 50 67 51 68 52
REMARK SMILES IDX 69 53 70 54 71 55 2 56 1 57 3 58 4 59 5 60 6 62 7 63 63 65
REMARK SMILES IDX 64 66 65 67 40 69 41 70 42 71 44 72 43 73 45 74 46 75 47 76
REMARK SMILES IDX 55 77 56 78 48 79 49 80 50 81 54 82 51 83 53 84 52 85
REMARK H PARENT 38 5 27 10 18 17 10 22 22 31 34 39 34 40 35 41 35 42 61 48
REMARK H PARENT 5 61 65 68
REMARK Flexibility Score:  369.900
ROOT
ATOM      1  C   UNL     1       6.952  -2.156   1.862  1.00  0.00     0.117 C 
ENDROOT
BRANCH   1   2
ATOM      2  N   UNL     1       7.488  -2.034   0.506  1.00  0.00    -0.347 N 
ATOM      3  O   UNL     1       9.219  -3.526   0.717  1.00  0.00    -0.273 OA
ATOM      4  C   UNL     1       8.526  -2.800   0.012  1.00  0.00     0.243 C 
ATOM      5  H   UNL     1       7.054  -1.392  -0.141  1.00  0.00     0.164 HD
BRANCH   4   6
ATOM      6  C   UNL     1       8.842  -2.533  -1.481  1.00  0.00     0.171 C 
BRANCH   6   7
ATOM      7  N   UNL     1      10.012  -1.650  -1.610  1.00  0.00    -0.344 N 
ATOM      8  C   UNL     1       9.865  -0.280  -1.589  1.00  0.00     0.226 C 
ATOM      9  O   UNL     1       8.772   0.264  -1.488  1.00  0.00    -0.275 OA
ATOM     10  H   UNL     1      10.924  -2.063  -1.764  1.00  0.00     0.164 HD
BRANCH   8  11
ATOM     11  C   UNL     1      11.170   0.491  -1.678  1.00  0.00     0.109 C 
ATOM     12  C   UNL     1      12.356  -0.469  -1.578  1.00  0.00     0.021 C 
BRANCH  11  13
ATOM     13  C   UNL     1      11.164   1.385  -2.934  1.00  0.00     0.204 C 
BRANCH  13  14
ATOM     14  N   UNL     1      10.257   2.528  -2.792  1.00  0.00    -0.340 N 
ATOM     15  C   UNL     1       9.676   3.161  -3.870  1.00  0.00     0.243 C 
ATOM     16  O   UNL     1       9.831   2.771  -5.026  1.00  0.00    -0.273 OA
ATOM     17  H   UNL     1      10.208   2.992  -1.881  1.00  0.00     0.164 HD
BRANCH  15  18
ATOM     18  C   UNL     1       8.929   4.464  -3.494  1.00  0.00     0.171 C 
BRANCH  18  19
ATOM     19  N   UNL     1       9.804   5.572  -3.872  1.00  0.00    -0.343 N 
ATOM     20  C   UNL     1      10.869   5.962  -3.083  1.00  0.00     0.242 CG0
ATOM     21  O   UNL     1      11.051   5.484  -1.966  1.00  0.00    -0.273 OA
ATOM     22  H   UNL     1       9.624   6.076  -4.733  1.00  0.00     0.164 HD
ATOM     23  G   UNL     1      11.724   7.097  -3.684  1.00  0.00     0.000 G0
ENDBRANCH  18  19
BRANCH  18  24
ATOM     24  C   UNL     1       7.579   4.542  -4.217  1.00  0.00     0.038 C 
BRANCH  24  25
ATOM     25  C   UNL     1       6.358   4.188  -3.341  1.00  0.00    -0.015 C 
ATOM     26  C   UNL     1       6.294   5.022  -2.062  1.00  0.00     0.007 C 
ATOM     27  C   UNL     1       6.394   2.699  -2.984  1.00  0.00     0.007 C 
ENDBRANCH  24  25
ENDBRANCH  18  24
ENDBRANCH  15  18
ENDBRANCH  13  14
BRANCH  13  28
ATOM     28  C   UNL     1      12.546   1.943  -3.285  1.00  0.00     0.327 C 
ATOM     29  O   UNL     1      13.123   2.857  -2.715  1.00  0.00    -0.250 OA
BRANCH  28  30
ATOM     30  O   UNL     1      13.068   1.397  -4.402  1.00  0.00    -0.480 OA
ATOM     31  H   UNL     1      12.918   2.075  -5.094  1.00  0.00     0.296 HD
ENDBRANCH  28  30
ENDBRANCH  13  28
ENDBRANCH  11  13
ENDBRANCH   8  11
ENDBRANCH   6   7
BRANCH   6  32
ATOM     32  C   UNL     1       9.084  -3.870  -2.191  1.00  0.00     0.037 C 
BRANCH  32  33
ATOM     33  C   UNL     1       8.528  -3.876  -3.622  1.00  0.00     0.026 C 
BRANCH  33  34
ATOM     34  C   UNL     1       9.632  -3.924  -4.679  1.00  0.00     0.146 C 
BRANCH  34  35
ATOM     35  N   UNL     1      10.380  -2.676  -4.633  1.00  0.00    -0.254 NA
ATOM     36  C   UNL     1      11.616  -2.687  -4.972  1.00  0.00     0.185 C 
ATOM     37  N   UNL     1      12.314  -1.541  -4.938  1.00  0.00    -0.370 N 
ATOM     38  N   UNL     1      12.370  -3.723  -5.380  1.00  0.00    -0.370 N 
ATOM     39  H   UNL     1      11.811  -0.712  -4.650  1.00  0.00     0.159 HD
ATOM     40  H   UNL     1      13.225  -1.433  -5.349  1.00  0.00     0.159 HD
ATOM     41  H   UNL     1      13.367  -3.632  -5.484  1.00  0.00     0.159 HD
ATOM     42  H   UNL     1      11.979  -4.651  -5.437  1.00  0.00     0.159 HD
ENDBRANCH  34  35
ENDBRANCH  33  34
ENDBRANCH  32  33
ENDBRANCH   6  32
ENDBRANCH   4   6
ENDBRANCH   1   2
BRANCH   1  43
ATOM     43  C   UNL     1       6.099  -3.455   1.943  1.00  0.00     0.102 C 
ATOM     44  C   UNL     1       5.093  -3.598   0.789  1.00  0.00     0.020 C 
BRANCH  43  45
ATOM     45  C   UNL     1       5.478  -3.619   3.333  1.00  0.00     0.225 C 
ATOM     46  O   UNL     1       6.145  -3.783   4.351  1.00  0.00    -0.275 OA
ATOM     47  N   UNL     1       4.103  -3.668   3.366  1.00  0.00    -0.342 N 
ATOM     48  H   UNL     1       3.573  -3.383   2.554  1.00  0.00     0.164 HD
BRANCH  47  49
ATOM     49  C   UNL     1       3.371  -3.786   4.630  1.00  0.00     0.192 C 
BRANCH  49  50
ATOM     50  C   UNL     1       2.138  -4.671   4.429  1.00  0.00     0.047 C 
BRANCH  50  51
ATOM     51  C   UNL     1       2.252  -5.553   3.179  1.00  0.00     0.103 C 
BRANCH  51  52
ATOM     52  C   UNL     1       1.222  -5.177   2.115  1.00  0.00     0.226 C 
ATOM     53  O   UNL     1       0.626  -4.101   2.197  1.00  0.00    -0.275 OA
BRANCH  52  54
ATOM     54  N   UNL     1       1.073  -6.075   1.042  1.00  0.00    -0.311 N 
ATOM     55  C   UNL     1       1.909  -5.963  -0.160  1.00  0.00     0.153 C 
BRANCH  54  56
ATOM     56  C   UNL     1       0.126  -7.112   1.082  1.00  0.00     0.102 C 
ATOM     57  C   UNL     1      -1.197  -6.939   1.241  1.00  0.00     0.043 C 
BRANCH  56  58
ATOM     58  C   UNL     1       0.544  -8.551   0.895  1.00  0.00     0.268 C 
ATOM     59  O   UNL     1       1.240  -9.156   1.699  1.00  0.00    -0.268 OA
ATOM     60  N   UNL     1       0.009  -9.127  -0.233  1.00  0.00    -0.339 N 
ATOM     61  H   UNL     1      -0.550  -8.554  -0.854  1.00  0.00     0.164 HD
BRANCH  60  62
ATOM     62  C   UNL     1       0.235 -10.531  -0.573  1.00  0.00     0.168 CG0
ATOM     63  C   UNL     1       0.375 -10.714  -2.079  1.00  0.00     0.041 C 
ATOM     64  G   UNL     1      -0.925 -11.388  -0.024  1.00  0.00     0.000 G0
ENDBRANCH  60  62
ENDBRANCH  56  58
ENDBRANCH  54  56
ENDBRANCH  52  54
ENDBRANCH  51  52
ENDBRANCH  50  51
ENDBRANCH  49  50
BRANCH  49  65
ATOM     65  C   UNL     1       2.931  -2.413   5.161  1.00  0.00     0.326 C 
ATOM     66  O   UNL     1       3.385  -1.854   6.149  1.00  0.00    -0.250 OA
BRANCH  65  67
ATOM     67  O   UNL     1       1.916  -1.842   4.475  1.00  0.00    -0.480 OA
ATOM     68  H   UNL     1       2.263  -0.952   4.248  1.00  0.00     0.296 HD
ENDBRANCH  65  67
ENDBRANCH  49  65
ENDBRANCH  47  49
ENDBRANCH  43  45
ENDBRANCH   1  43
BRANCH   1  69
ATOM     69  C   UNL     1       6.295  -0.825   2.180  1.00  0.00    -0.001 C 
ATOM     70  C   UNL     1       6.306   0.291   1.430  1.00  0.00     0.001 C 
BRANCH  70  71
ATOM     71  C   UNL     1       5.649   1.563   1.737  1.00  0.00    -0.055 C 
ATOM     72  C   UNL     1       4.757   1.581   2.750  1.00  0.00    -0.018 C 
ATOM     73  C   UNL     1       6.022   2.764   0.907  1.00  0.00     0.044 C 
BRANCH  72  74
ATOM     74  C   UNL     1       3.935   2.742   3.289  1.00  0.00     0.038 C 
ATOM     75  C   UNL     1       4.496   3.091   4.673  1.00  0.00     0.015 C 
BRANCH  74  76
ATOM     76  C   UNL     1       2.431   2.339   3.277  1.00  0.00     0.128 C 
BRANCH  76  77
ATOM     77  O   UNL     1       1.795   2.781   4.488  1.00  0.00    -0.381 OA
ATOM     78  C   UNL     1       0.389   2.953   4.365  1.00  0.00     0.195 C 
ENDBRANCH  76  77
BRANCH  76  79
ATOM     79  C   UNL     1       1.670   2.785   2.003  1.00  0.00     0.068 C 
BRANCH  79  80
ATOM     80  C   UNL     1       2.220   2.357   0.664  1.00  0.00    -0.045 A 
ATOM     81  C   UNL     1       2.576   3.303  -0.306  1.00  0.00     0.004 A 
ATOM     82  C   UNL     1       2.359   0.994   0.360  1.00  0.00     0.004 A 
ATOM     83  C   UNL     1       3.071   2.898  -1.547  1.00  0.00     0.000 A 
ATOM     84  C   UNL     1       2.854   0.590  -0.882  1.00  0.00     0.000 A 
ATOM     85  C   UNL     1       3.211   1.542  -1.834  1.00  0.00     0.000 A 
ENDBRANCH  79  80
ENDBRANCH  76  79
ENDBRANCH  74  76
ENDBRANCH  72  74
ENDBRANCH  70  71
ENDBRANCH   1  69
TORSDOF 17
ENDMDL
MODEL 39
REMARK VINA RESULT:    -6.284      3.352      7.821
REMARK INTER + INTRA:         -26.690
REMARK INTER:                 -18.694
REMARK INTRA:                  -7.995
REMARK UNBOUND:                -7.916
REMARK SMILES C=C1C(=O)N[C@H](C)C(=O)N[C@@H](CC(C)C)C(=O)N[C@@H](C(=O)O)[C@H](C)C(=O)N[C@@H](CCCN=C(N)N)C(=O)N[C@@H](/C=C/C(C)=C/[C@H](C)[C@H](Cc2ccccc2)OC)[C@H](C)C(=O)N[C@@H](C(=O)O)CCC(=O)N1C
REMARK SMILES IDX 39 1 38 2 37 3 36 4 28 6 27 7 25 8 26 9 23 11 24 12 19 13
REMARK SMILES IDX 18 14 16 15 17 16 11 18 10 19 8 20 9 21 12 24 13 25 14 26
REMARK SMILES IDX 15 27 20 28 21 29 22 30 29 32 30 33 31 34 32 35 33 36 34 37
REMARK SMILES IDX 35 38 57 43 58 44 59 45 60 46 61 47 62 49 66 50 67 51 68 52
REMARK SMILES IDX 69 53 70 54 71 55 2 56 1 57 3 58 4 59 5 60 6 62 7 63 63 65
REMARK SMILES IDX 64 66 65 67 40 69 41 70 42 71 44 72 43 73 45 74 46 75 47 76
REMARK SMILES IDX 55 77 56 78 48 79 49 80 50 81 54 82 51 83 53 84 52 85
REMARK H PARENT 38 5 27 10 18 17 10 22 22 31 34 39 34 40 35 41 35 42 61 48
REMARK H PARENT 5 61 65 68
REMARK Flexibility Score:  369.900
ROOT
ATOM      1  C   UNL     1       2.654  -5.265   2.546  1.00  0.00     0.117 C 
ENDROOT
BRANCH   1   2
ATOM      2  N   UNL     1       1.613  -5.501   3.547  1.00  0.00    -0.347 N 
ATOM      3  O   UNL     1       2.980  -5.700   5.380  1.00  0.00    -0.273 OA
ATOM      4  C   UNL     1       1.854  -5.609   4.903  1.00  0.00     0.243 C 
ATOM      5  H   UNL     1       0.648  -5.542   3.256  1.00  0.00     0.164 HD
BRANCH   4   6
ATOM      6  C   UNL     1       0.568  -5.772   5.754  1.00  0.00     0.171 C 
BRANCH   6   7
ATOM      7  N   UNL     1      -0.157  -6.991   5.363  1.00  0.00    -0.344 N 
ATOM      8  C   UNL     1      -1.176  -6.936   4.436  1.00  0.00     0.226 C 
ATOM      9  O   UNL     1      -1.540  -5.888   3.917  1.00  0.00    -0.275 OA
ATOM     10  H   UNL     1       0.070  -7.865   5.820  1.00  0.00     0.164 HD
BRANCH   8  11
ATOM     11  C   UNL     1      -1.787  -8.285   4.099  1.00  0.00     0.109 C 
ATOM     12  C   UNL     1      -0.970  -9.408   4.738  1.00  0.00     0.021 C 
BRANCH  11  13
ATOM     13  C   UNL     1      -3.285  -8.284   4.464  1.00  0.00     0.204 C 
BRANCH  13  14
ATOM     14  N   UNL     1      -3.642  -7.153   5.326  1.00  0.00    -0.340 N 
ATOM     15  C   UNL     1      -4.637  -7.222   6.278  1.00  0.00     0.243 C 
ATOM     16  O   UNL     1      -5.254  -8.259   6.513  1.00  0.00    -0.273 OA
ATOM     17  H   UNL     1      -3.277  -6.229   5.081  1.00  0.00     0.164 HD
BRANCH  15  18
ATOM     18  C   UNL     1      -4.977  -5.854   6.918  1.00  0.00     0.171 C 
BRANCH  18  19
ATOM     19  N   UNL     1      -5.842  -6.130   8.062  1.00  0.00    -0.343 N 
ATOM     20  C   UNL     1      -7.210  -5.943   8.004  1.00  0.00     0.242 CG0
ATOM     21  O   UNL     1      -7.746  -5.411   7.034  1.00  0.00    -0.273 OA
ATOM     22  H   UNL     1      -5.432  -6.463   8.927  1.00  0.00     0.164 HD
ATOM     23  G   UNL     1      -7.965  -6.363   9.281  1.00  0.00     0.000 G0
ENDBRANCH  18  19
BRANCH  18  24
ATOM     24  C   UNL     1      -3.698  -5.123   7.344  1.00  0.00     0.038 C 
BRANCH  24  25
ATOM     25  C   UNL     1      -3.895  -4.078   8.463  1.00  0.00    -0.015 C 
ATOM     26  C   UNL     1      -3.594  -2.655   7.995  1.00  0.00     0.007 C 
ATOM     27  C   UNL     1      -3.002  -4.428   9.657  1.00  0.00     0.007 C 
ENDBRANCH  24  25
ENDBRANCH  18  24
ENDBRANCH  15  18
ENDBRANCH  13  14
BRANCH  13  28
ATOM     28  C   UNL     1      -4.205  -8.231   3.240  1.00  0.00     0.327 C 
ATOM     29  O   UNL     1      -5.200  -8.913   3.054  1.00  0.00    -0.250 OA
BRANCH  28  30
ATOM     30  O   UNL     1      -3.751  -7.407   2.273  1.00  0.00    -0.480 OA
ATOM     31  H   UNL     1      -3.082  -7.942   1.797  1.00  0.00     0.296 HD
ENDBRANCH  28  30
ENDBRANCH  13  28
ENDBRANCH  11  13
ENDBRANCH   8  11
ENDBRANCH   6   7
BRANCH   6  32
ATOM     32  C   UNL     1       0.948  -5.813   7.238  1.00  0.00     0.037 C 
BRANCH  32  33
ATOM     33  C   UNL     1       0.400  -4.605   8.010  1.00  0.00     0.026 C 
BRANCH  33  34
ATOM     34  C   UNL     1       0.126  -3.405   7.102  1.00  0.00     0.146 C 
BRANCH  34  35
ATOM     35  N   UNL     1       0.831  -2.246   7.630  1.00  0.00    -0.254 NA
ATOM     36  C   UNL     1       1.993  -1.969   7.165  1.00  0.00     0.185 C 
ATOM     37  N   UNL     1       2.649  -0.899   7.641  1.00  0.00    -0.370 N 
ATOM     38  N   UNL     1       2.701  -2.614   6.221  1.00  0.00    -0.370 N 
ATOM     39  H   UNL     1       2.176  -0.354   8.350  1.00  0.00     0.159 HD
ATOM     40  H   UNL     1       3.475  -0.518   7.213  1.00  0.00     0.159 HD
ATOM     41  H   UNL     1       3.663  -2.379   6.041  1.00  0.00     0.159 HD
ATOM     42  H   UNL     1       2.335  -3.447   5.786  1.00  0.00     0.159 HD
ENDBRANCH  34  35
ENDBRANCH  33  34
ENDBRANCH  32  33
ENDBRANCH   6  32
ENDBRANCH   4   6
ENDBRANCH   1   2
BRANCH   1  43
ATOM     43  C   UNL     1       2.755  -3.734   2.289  1.00  0.00     0.102 C 
ATOM     44  C   UNL     1       2.259  -3.313   0.896  1.00  0.00     0.020 C 
BRANCH  43  45
ATOM     45  C   UNL     1       4.151  -3.209   2.636  1.00  0.00     0.225 C 
ATOM     46  O   UNL     1       4.455  -2.794   3.751  1.00  0.00    -0.275 OA
ATOM     47  N   UNL     1       5.036  -3.140   1.585  1.00  0.00    -0.342 N 
ATOM     48  H   UNL     1       4.825  -3.620   0.721  1.00  0.00     0.164 HD
BRANCH  47  49
ATOM     49  C   UNL     1       6.419  -2.691   1.775  1.00  0.00     0.192 C 
BRANCH  49  50
ATOM     50  C   UNL     1       6.803  -1.720   0.656  1.00  0.00     0.047 C 
BRANCH  50  51
ATOM     51  C   UNL     1       6.062  -2.019  -0.655  1.00  0.00     0.103 C 
BRANCH  51  52
ATOM     52  C   UNL     1       6.937  -2.782  -1.647  1.00  0.00     0.226 C 
ATOM     53  O   UNL     1       7.018  -4.009  -1.571  1.00  0.00    -0.275 OA
BRANCH  52  54
ATOM     54  N   UNL     1       7.551  -2.018  -2.657  1.00  0.00    -0.311 N 
ATOM     55  C   UNL     1       6.785  -1.543  -3.817  1.00  0.00     0.153 C 
BRANCH  54  56
ATOM     56  C   UNL     1       8.912  -1.678  -2.593  1.00  0.00     0.102 C 
ATOM     57  C   UNL     1       9.385  -0.443  -2.355  1.00  0.00     0.043 C 
BRANCH  56  58
ATOM     58  C   UNL     1       9.983  -2.732  -2.750  1.00  0.00     0.268 C 
ATOM     59  O   UNL     1      10.714  -3.085  -1.834  1.00  0.00    -0.268 OA
ATOM     60  N   UNL     1      10.006  -3.296  -4.003  1.00  0.00    -0.339 N 
ATOM     61  H   UNL     1       9.374  -2.940  -4.709  1.00  0.00     0.164 HD
BRANCH  60  62
ATOM     62  C   UNL     1      10.923  -4.380  -4.352  1.00  0.00     0.168 CG0
ATOM     63  C   UNL     1      11.980  -3.905  -5.341  1.00  0.00     0.041 C 
ATOM     64  G   UNL     1      10.125  -5.566  -4.933  1.00  0.00     0.000 G0
ENDBRANCH  60  62
ENDBRANCH  56  58
ENDBRANCH  54  56
ENDBRANCH  52  54
ENDBRANCH  51  52
ENDBRANCH  50  51
ENDBRANCH  49  50
BRANCH  49  65
ATOM     65  C   UNL     1       7.402  -3.872   1.783  1.00  0.00     0.326 C 
ATOM     66  O   UNL     1       8.577  -3.816   2.115  1.00  0.00    -0.250 OA
BRANCH  65  67
ATOM     67  O   UNL     1       6.890  -5.036   1.325  1.00  0.00    -0.480 OA
ATOM     68  H   UNL     1       7.527  -5.711   1.644  1.00  0.00     0.296 HD
ENDBRANCH  65  67
ENDBRANCH  49  65
ENDBRANCH  47  49
ENDBRANCH  43  45
ENDBRANCH   1  43
BRANCH   1  69
ATOM     69  C   UNL     1       2.339  -6.185   1.381  1.00  0.00    -0.001 C 
ATOM     70  C   UNL     1       3.026  -7.272   0.990  1.00  0.00     0.001 C 
BRANCH  70  71
ATOM     71  C   UNL     1       2.700  -8.165  -0.124  1.00  0.00    -0.055 C 
ATOM     72  C   UNL     1       1.827  -7.719  -1.051  1.00  0.00    -0.018 C 
ATOM     73  C   UNL     1       3.368  -9.515  -0.161  1.00  0.00     0.044 C 
BRANCH  72  74
ATOM     74  C   UNL     1       1.310  -8.416  -2.302  1.00  0.00     0.038 C 
ATOM     75  C   UNL     1       1.496  -7.442  -3.472  1.00  0.00     0.015 C 
BRANCH  74  76
ATOM     76  C   UNL     1      -0.160  -8.865  -2.054  1.00  0.00     0.128 C 
BRANCH  76  77
ATOM     77  O   UNL     1      -0.311 -10.256  -2.382  1.00  0.00    -0.381 OA
ATOM     78  C   UNL     1       0.921 -10.963  -2.449  1.00  0.00     0.195 C 
ENDBRANCH  76  77
BRANCH  76  79
ATOM     79  C   UNL     1      -0.693  -8.521  -0.640  1.00  0.00     0.068 C 
BRANCH  79  80
ATOM     80  C   UNL     1      -1.674  -9.476  -0.003  1.00  0.00    -0.045 A 
ATOM     81  C   UNL     1      -1.276 -10.336   1.029  1.00  0.00     0.004 A 
ATOM     82  C   UNL     1      -3.000  -9.536  -0.457  1.00  0.00     0.004 A 
ATOM     83  C   UNL     1      -2.186 -11.227   1.604  1.00  0.00     0.000 A 
ATOM     84  C   UNL     1      -3.908 -10.427   0.118  1.00  0.00     0.000 A 
ATOM     85  C   UNL     1      -3.502 -11.271   1.149  1.00  0.00     0.000 A 
ENDBRANCH  79  80
ENDBRANCH  76  79
ENDBRANCH  74  76
ENDBRANCH  72  74
ENDBRANCH  70  71
ENDBRANCH   1  69
TORSDOF 17
ENDMDL
MODEL 40
REMARK VINA RESULT:    -6.274      4.506      8.489
REMARK INTER + INTRA:         -26.660
REMARK INTER:                 -19.030
REMARK INTRA:                  -7.631
REMARK UNBOUND:                -7.916
REMARK SMILES C=C1C(=O)N[C@H](C)C(=O)N[C@@H](CC(C)C)C(=O)N[C@@H](C(=O)O)[C@H](C)C(=O)N[C@@H](CCCN=C(N)N)C(=O)N[C@@H](/C=C/C(C)=C/[C@H](C)[C@H](Cc2ccccc2)OC)[C@H](C)C(=O)N[C@@H](C(=O)O)CCC(=O)N1C
REMARK SMILES IDX 39 1 38 2 37 3 36 4 28 6 27 7 25 8 26 9 23 11 24 12 19 13
REMARK SMILES IDX 18 14 16 15 17 16 11 18 10 19 8 20 9 21 12 24 13 25 14 26
REMARK SMILES IDX 15 27 20 28 21 29 22 30 29 32 30 33 31 34 32 35 33 36 34 37
REMARK SMILES IDX 35 38 57 43 58 44 59 45 60 46 61 47 62 49 66 50 67 51 68 52
REMARK SMILES IDX 69 53 70 54 71 55 2 56 1 57 3 58 4 59 5 60 6 62 7 63 63 65
REMARK SMILES IDX 64 66 65 67 40 69 41 70 42 71 44 72 43 73 45 74 46 75 47 76
REMARK SMILES IDX 55 77 56 78 48 79 49 80 50 81 54 82 51 83 53 84 52 85
REMARK H PARENT 38 5 27 10 18 17 10 22 22 31 34 39 34 40 35 41 35 42 61 48
REMARK H PARENT 5 61 65 68
REMARK Flexibility Score:  369.900
ROOT
ATOM      1  C   UNL     1       3.208  -4.110   2.677  1.00  0.00     0.117 C 
ENDROOT
BRANCH   1   2
ATOM      2  N   UNL     1       2.447  -5.340   2.455  1.00  0.00    -0.347 N 
ATOM      3  O   UNL     1       3.279  -5.853   0.378  1.00  0.00    -0.273 OA
ATOM      4  C   UNL     1       2.612  -6.165   1.359  1.00  0.00     0.243 C 
ATOM      5  H   UNL     1       1.792  -5.650   3.157  1.00  0.00     0.164 HD
BRANCH   4   6
ATOM      6  C   UNL     1       1.746  -7.449   1.409  1.00  0.00     0.171 C 
BRANCH   6   7
ATOM      7  N   UNL     1       2.095  -8.348   0.297  1.00  0.00    -0.344 N 
ATOM      8  C   UNL     1       1.256  -8.483  -0.788  1.00  0.00     0.226 C 
ATOM      9  O   UNL     1       0.186  -7.891  -0.873  1.00  0.00    -0.275 OA
ATOM     10  H   UNL     1       2.937  -8.905   0.363  1.00  0.00     0.164 HD
BRANCH   8  11
ATOM     11  C   UNL     1       1.781  -9.405  -1.874  1.00  0.00     0.109 C 
ATOM     12  C   UNL     1       3.177  -9.909  -1.506  1.00  0.00     0.021 C 
BRANCH  11  13
ATOM     13  C   UNL     1       0.748 -10.511  -2.164  1.00  0.00     0.204 C 
BRANCH  13  14
ATOM     14  N   UNL     1      -0.238 -10.641  -1.087  1.00  0.00    -0.340 N 
ATOM     15  C   UNL     1      -0.522 -11.842  -0.473  1.00  0.00     0.243 C 
ATOM     16  O   UNL     1       0.077 -12.881  -0.745  1.00  0.00    -0.273 OA
ATOM     17  H   UNL     1      -0.874  -9.856  -0.920  1.00  0.00     0.164 HD
BRANCH  15  18
ATOM     18  C   UNL     1      -1.738 -11.775   0.483  1.00  0.00     0.171 C 
BRANCH  18  19
ATOM     19  N   UNL     1      -1.501 -12.765   1.532  1.00  0.00    -0.343 N 
ATOM     20  C   UNL     1      -2.503 -13.600   1.987  1.00  0.00     0.242 CG0
ATOM     21  O   UNL     1      -3.670 -13.460   1.627  1.00  0.00    -0.273 OA
ATOM     22  H   UNL     1      -0.578 -12.841   1.944  1.00  0.00     0.164 HD
ATOM     23  G   UNL     1      -2.044 -14.631   3.039  1.00  0.00     0.000 G0
ENDBRANCH  18  19
BRANCH  18  24
ATOM     24  C   UNL     1      -1.892 -10.365   1.066  1.00  0.00     0.038 C 
BRANCH  24  25
ATOM     25  C   UNL     1      -3.319  -9.784   0.979  1.00  0.00    -0.015 C 
ATOM     26  C   UNL     1      -4.061  -9.850   2.314  1.00  0.00     0.007 C 
ATOM     27  C   UNL     1      -4.116 -10.535  -0.091  1.00  0.00     0.007 C 
ENDBRANCH  24  25
ENDBRANCH  18  24
ENDBRANCH  15  18
ENDBRANCH  13  14
BRANCH  13  28
ATOM     28  C   UNL     1      -0.028 -10.286  -3.465  1.00  0.00     0.327 C 
ATOM     29  O   UNL     1       0.314 -10.644  -4.582  1.00  0.00    -0.250 OA
BRANCH  28  30
ATOM     30  O   UNL     1      -1.127  -9.522  -3.300  1.00  0.00    -0.480 OA
ATOM     31  H   UNL     1      -1.519  -9.467  -4.196  1.00  0.00     0.296 HD
ENDBRANCH  28  30
ENDBRANCH  13  28
ENDBRANCH  11  13
ENDBRANCH   8  11
ENDBRANCH   6   7
BRANCH   6  32
ATOM     32  C   UNL     1       1.951  -8.143   2.760  1.00  0.00     0.037 C 
BRANCH  32  33
ATOM     33  C   UNL     1       0.626  -8.603   3.382  1.00  0.00     0.026 C 
BRANCH  33  34
ATOM     34  C   UNL     1      -0.261  -7.430   3.804  1.00  0.00     0.146 C 
BRANCH  34  35
ATOM     35  N   UNL     1      -1.411  -7.367   2.913  1.00  0.00    -0.254 NA
ATOM     36  C   UNL     1      -1.605  -6.298   2.234  1.00  0.00     0.185 C 
ATOM     37  N   UNL     1      -2.659  -6.231   1.406  1.00  0.00    -0.370 N 
ATOM     38  N   UNL     1      -0.879  -5.166   2.215  1.00  0.00    -0.370 N 
ATOM     39  H   UNL     1      -3.250  -7.051   1.357  1.00  0.00     0.159 HD
ATOM     40  H   UNL     1      -2.781  -5.508   0.718  1.00  0.00     0.159 HD
ATOM     41  H   UNL     1      -1.212  -4.342   1.743  1.00  0.00     0.159 HD
ATOM     42  H   UNL     1      -0.065  -5.069   2.801  1.00  0.00     0.159 HD
ENDBRANCH  34  35
ENDBRANCH  33  34
ENDBRANCH  32  33
ENDBRANCH   6  32
ENDBRANCH   4   6
ENDBRANCH   1   2
BRANCH   1  43
ATOM     43  C   UNL     1       4.268  -4.377   3.785  1.00  0.00     0.102 C 
ATOM     44  C   UNL     1       3.694  -4.306   5.210  1.00  0.00     0.020 C 
BRANCH  43  45
ATOM     45  C   UNL     1       5.514  -3.512   3.573  1.00  0.00     0.225 C 
ATOM     46  O   UNL     1       6.370  -3.345   4.437  1.00  0.00    -0.275 OA
ATOM     47  N   UNL     1       5.576  -2.846   2.370  1.00  0.00    -0.342 N 
ATOM     48  H   UNL     1       4.952  -3.109   1.620  1.00  0.00     0.164 HD
BRANCH  47  49
ATOM     49  C   UNL     1       6.727  -2.011   2.015  1.00  0.00     0.192 C 
BRANCH  49  50
ATOM     50  C   UNL     1       6.270  -0.861   1.114  1.00  0.00     0.047 C 
BRANCH  50  51
ATOM     51  C   UNL     1       4.944  -1.169   0.404  1.00  0.00     0.103 C 
BRANCH  51  52
ATOM     52  C   UNL     1       4.876  -0.535  -0.984  1.00  0.00     0.226 C 
ATOM     53  O   UNL     1       5.246  -1.179  -1.968  1.00  0.00    -0.275 OA
BRANCH  52  54
ATOM     54  N   UNL     1       4.309   0.751  -1.058  1.00  0.00    -0.311 N 
ATOM     55  C   UNL     1       2.894   0.973  -0.734  1.00  0.00     0.153 C 
BRANCH  54  56
ATOM     56  C   UNL     1       5.073   1.867  -1.437  1.00  0.00     0.102 C 
ATOM     57  C   UNL     1       6.339   2.098  -1.053  1.00  0.00     0.043 C 
BRANCH  56  58
ATOM     58  C   UNL     1       4.513   2.905  -2.381  1.00  0.00     0.268 C 
ATOM     59  O   UNL     1       3.537   2.707  -3.092  1.00  0.00    -0.268 OA
ATOM     60  N   UNL     1       5.170   4.110  -2.310  1.00  0.00    -0.339 N 
ATOM     61  H   UNL     1       5.977   4.190  -1.703  1.00  0.00     0.164 HD
BRANCH  60  62
ATOM     62  C   UNL     1       4.752   5.273  -3.092  1.00  0.00     0.168 CG0
ATOM     63  C   UNL     1       4.119   6.334  -2.200  1.00  0.00     0.041 C 
ATOM     64  G   UNL     1       3.769   4.828  -4.194  1.00  0.00     0.000 G0
ENDBRANCH  60  62
ENDBRANCH  56  58
ENDBRANCH  54  56
ENDBRANCH  52  54
ENDBRANCH  51  52
ENDBRANCH  50  51
ENDBRANCH  49  50
BRANCH  49  65
ATOM     65  C   UNL     1       7.814  -2.822   1.292  1.00  0.00     0.326 C 
ATOM     66  O   UNL     1       7.957  -2.898   0.081  1.00  0.00    -0.250 OA
BRANCH  65  67
ATOM     67  O   UNL     1       8.620  -3.536   2.108  1.00  0.00    -0.480 OA
ATOM     68  H   UNL     1       9.212  -4.015   1.488  1.00  0.00     0.296 HD
ENDBRANCH  65  67
ENDBRANCH  49  65
ENDBRANCH  47  49
ENDBRANCH  43  45
ENDBRANCH   1  43
BRANCH   1  69
ATOM     69  C   UNL     1       2.184  -3.011   2.891  1.00  0.00    -0.001 C 
ATOM     70  C   UNL     1       1.504  -2.333   1.949  1.00  0.00     0.001 C 
BRANCH  70  71
ATOM     71  C   UNL     1       0.502  -1.289   2.168  1.00  0.00    -0.055 C 
ATOM     72  C   UNL     1       0.933  -0.089   2.611  1.00  0.00    -0.018 C 
ATOM     73  C   UNL     1      -0.938  -1.624   1.877  1.00  0.00     0.044 C 
BRANCH  72  74
ATOM     74  C   UNL     1       0.132   1.168   2.920  1.00  0.00     0.038 C 
ATOM     75  C   UNL     1       0.782   2.321   2.146  1.00  0.00     0.015 C 
BRANCH  74  76
ATOM     76  C   UNL     1       0.083   1.364   4.464  1.00  0.00     0.128 C 
BRANCH  76  77
ATOM     77  O   UNL     1      -0.399   2.681   4.777  1.00  0.00    -0.381 OA
ATOM     78  C   UNL     1       0.063   3.177   6.027  1.00  0.00     0.195 C 
ENDBRANCH  76  77
BRANCH  76  79
ATOM     79  C   UNL     1      -0.688   0.249   5.216  1.00  0.00     0.068 C 
BRANCH  79  80
ATOM     80  C   UNL     1       0.110  -0.719   6.056  1.00  0.00    -0.045 A 
ATOM     81  C   UNL     1      -0.507  -1.812   6.679  1.00  0.00     0.004 A 
ATOM     82  C   UNL     1       1.485  -0.520   6.250  1.00  0.00     0.004 A 
ATOM     83  C   UNL     1       0.235  -2.695   7.466  1.00  0.00     0.000 A 
ATOM     84  C   UNL     1       2.227  -1.404   7.038  1.00  0.00     0.000 A 
ATOM     85  C   UNL     1       1.602  -2.491   7.644  1.00  0.00     0.000 A 
ENDBRANCH  79  80
ENDBRANCH  76  79
ENDBRANCH  74  76
ENDBRANCH  72  74
ENDBRANCH  70  71
ENDBRANCH   1  69
TORSDOF 17
ENDMDL
MODEL 41
REMARK VINA RESULT:    -6.270      6.181      9.648
REMARK INTER + INTRA:         -26.650
REMARK INTER:                 -19.960
REMARK INTRA:                  -6.689
REMARK UNBOUND:                -7.916
REMARK SMILES C=C1C(=O)N[C@H](C)C(=O)N[C@@H](CC(C)C)C(=O)N[C@@H](C(=O)O)[C@H](C)C(=O)N[C@@H](CCCN=C(N)N)C(=O)N[C@@H](/C=C/C(C)=C/[C@H](C)[C@H](Cc2ccccc2)OC)[C@H](C)C(=O)N[C@@H](C(=O)O)CCC(=O)N1C
REMARK SMILES IDX 39 1 38 2 37 3 36 4 28 6 27 7 25 8 26 9 23 11 24 12 19 13
REMARK SMILES IDX 18 14 16 15 17 16 11 18 10 19 8 20 9 21 12 24 13 25 14 26
REMARK SMILES IDX 15 27 20 28 21 29 22 30 29 32 30 33 31 34 32 35 33 36 34 37
REMARK SMILES IDX 35 38 57 43 58 44 59 45 60 46 61 47 62 49 66 50 67 51 68 52
REMARK SMILES IDX 69 53 70 54 71 55 2 56 1 57 3 58 4 59 5 60 6 62 7 63 63 65
REMARK SMILES IDX 64 66 65 67 40 69 41 70 42 71 44 72 43 73 45 74 46 75 47 76
REMARK SMILES IDX 55 77 56 78 48 79 49 80 50 81 54 82 51 83 53 84 52 85
REMARK H PARENT 38 5 27 10 18 17 10 22 22 31 34 39 34 40 35 41 35 42 61 48
REMARK H PARENT 5 61 65 68
REMARK Flexibility Score:  369.900
ROOT
ATOM      1  C   UNL     1       5.829  -2.157   0.015  1.00  0.00     0.117 C 
ENDROOT
BRANCH   1   2
ATOM      2  N   UNL     1       4.586  -2.788   0.461  1.00  0.00    -0.347 N 
ATOM      3  O   UNL     1       5.134  -4.957  -0.052  1.00  0.00    -0.273 OA
ATOM      4  C   UNL     1       4.374  -4.153   0.476  1.00  0.00     0.243 C 
ATOM      5  H   UNL     1       3.844  -2.213   0.830  1.00  0.00     0.164 HD
BRANCH   4   6
ATOM      6  C   UNL     1       3.005  -4.565   1.077  1.00  0.00     0.171 C 
BRANCH   6   7
ATOM      7  N   UNL     1       2.960  -6.018   1.306  1.00  0.00    -0.344 N 
ATOM      8  C   UNL     1       1.809  -6.733   1.055  1.00  0.00     0.226 C 
ATOM      9  O   UNL     1       0.777  -6.205   0.658  1.00  0.00    -0.275 OA
ATOM     10  H   UNL     1       3.772  -6.478   1.697  1.00  0.00     0.164 HD
BRANCH   8  11
ATOM     11  C   UNL     1       1.938  -8.228   1.288  1.00  0.00     0.109 C 
ATOM     12  C   UNL     1       1.856  -8.536   2.783  1.00  0.00     0.021 C 
BRANCH  11  13
ATOM     13  C   UNL     1       0.917  -8.982   0.414  1.00  0.00     0.204 C 
BRANCH  13  14
ATOM     14  N   UNL     1      -0.466  -8.675   0.791  1.00  0.00    -0.340 N 
ATOM     15  C   UNL     1      -1.348  -9.631   1.246  1.00  0.00     0.243 C 
ATOM     16  O   UNL     1      -1.018 -10.802   1.426  1.00  0.00    -0.273 OA
ATOM     17  H   UNL     1      -0.845  -7.762   0.524  1.00  0.00     0.164 HD
BRANCH  15  18
ATOM     18  C   UNL     1      -2.802  -9.117   1.383  1.00  0.00     0.171 C 
BRANCH  18  19
ATOM     19  N   UNL     1      -3.505  -9.521   0.167  1.00  0.00    -0.343 N 
ATOM     20  C   UNL     1      -3.451  -8.769  -0.991  1.00  0.00     0.242 CG0
ATOM     21  O   UNL     1      -2.921  -7.661  -1.014  1.00  0.00    -0.273 OA
ATOM     22  H   UNL     1      -4.054 -10.374   0.170  1.00  0.00     0.164 HD
ATOM     23  G   UNL     1      -4.189  -9.395  -2.192  1.00  0.00     0.000 G0
ENDBRANCH  18  19
BRANCH  18  24
ATOM     24  C   UNL     1      -3.467  -9.698   2.636  1.00  0.00     0.038 C 
BRANCH  24  25
ATOM     25  C   UNL     1      -4.584 -10.725   2.355  1.00  0.00    -0.015 C 
ATOM     26  C   UNL     1      -5.711 -10.661   3.387  1.00  0.00     0.007 C 
ATOM     27  C   UNL     1      -3.991 -12.136   2.327  1.00  0.00     0.007 C 
ENDBRANCH  24  25
ENDBRANCH  18  24
ENDBRANCH  15  18
ENDBRANCH  13  14
BRANCH  13  28
ATOM     28  C   UNL     1       1.059  -8.676  -1.080  1.00  0.00     0.327 C 
ATOM     29  O   UNL     1       2.051  -8.869  -1.767  1.00  0.00    -0.250 OA
BRANCH  28  30
ATOM     30  O   UNL     1      -0.013  -8.037  -1.593  1.00  0.00    -0.480 OA
ATOM     31  H   UNL     1       0.091  -8.132  -2.563  1.00  0.00     0.296 HD
ENDBRANCH  28  30
ENDBRANCH  13  28
ENDBRANCH  11  13
ENDBRANCH   8  11
ENDBRANCH   6   7
BRANCH   6  32
ATOM     32  C   UNL     1       2.778  -3.797   2.384  1.00  0.00     0.037 C 
BRANCH  32  33
ATOM     33  C   UNL     1       2.997  -4.681   3.620  1.00  0.00     0.026 C 
BRANCH  33  34
ATOM     34  C   UNL     1       3.720  -3.941   4.747  1.00  0.00     0.146 C 
BRANCH  34  35
ATOM     35  N   UNL     1       2.776  -3.695   5.828  1.00  0.00    -0.254 NA
ATOM     36  C   UNL     1       2.745  -4.510   6.815  1.00  0.00     0.185 C 
ATOM     37  N   UNL     1       1.883  -4.289   7.819  1.00  0.00    -0.370 N 
ATOM     38  N   UNL     1       3.482  -5.616   7.020  1.00  0.00    -0.370 N 
ATOM     39  H   UNL     1       1.298  -3.467   7.743  1.00  0.00     0.159 HD
ATOM     40  H   UNL     1       1.917  -4.775   8.699  1.00  0.00     0.159 HD
ATOM     41  H   UNL     1       3.268  -6.253   7.770  1.00  0.00     0.159 HD
ATOM     42  H   UNL     1       4.162  -5.913   6.337  1.00  0.00     0.159 HD
ENDBRANCH  34  35
ENDBRANCH  33  34
ENDBRANCH  32  33
ENDBRANCH   6  32
ENDBRANCH   4   6
ENDBRANCH   1   2
BRANCH   1  43
ATOM     43  C   UNL     1       6.794  -2.050   1.231  1.00  0.00     0.102 C 
ATOM     44  C   UNL     1       6.988  -0.609   1.733  1.00  0.00     0.020 C 
BRANCH  43  45
ATOM     45  C   UNL     1       8.103  -2.797   0.962  1.00  0.00     0.225 C 
ATOM     46  O   UNL     1       8.636  -3.536   1.784  1.00  0.00    -0.275 OA
ATOM     47  N   UNL     1       8.709  -2.515  -0.242  1.00  0.00    -0.342 N 
ATOM     48  H   UNL     1       8.191  -2.031  -0.961  1.00  0.00     0.164 HD
BRANCH  47  49
ATOM     49  C   UNL     1       9.949  -3.181  -0.650  1.00  0.00     0.192 C 
BRANCH  49  50
ATOM     50  C   UNL     1      10.880  -2.169  -1.322  1.00  0.00     0.047 C 
BRANCH  50  51
ATOM     51  C   UNL     1      10.236  -0.782  -1.451  1.00  0.00     0.103 C 
BRANCH  51  52
ATOM     52  C   UNL     1      11.280   0.327  -1.561  1.00  0.00     0.226 C 
ATOM     53  O   UNL     1      11.997   0.589  -0.593  1.00  0.00    -0.275 OA
BRANCH  52  54
ATOM     54  N   UNL     1      11.410   0.944  -2.819  1.00  0.00    -0.311 N 
ATOM     55  C   UNL     1      12.298   0.386  -3.847  1.00  0.00     0.153 C 
BRANCH  54  56
ATOM     56  C   UNL     1      10.693   2.109  -3.141  1.00  0.00     0.102 C 
ATOM     57  C   UNL     1       9.406   2.138  -3.522  1.00  0.00     0.043 C 
BRANCH  56  58
ATOM     58  C   UNL     1      11.338   3.470  -3.031  1.00  0.00     0.268 C 
ATOM     59  O   UNL     1      12.324   3.691  -2.342  1.00  0.00    -0.268 OA
ATOM     60  N   UNL     1      10.744   4.415  -3.833  1.00  0.00    -0.339 N 
ATOM     61  H   UNL     1       9.923   4.155  -4.367  1.00  0.00     0.164 HD
BRANCH  60  62
ATOM     62  C   UNL     1      11.248   5.785  -3.928  1.00  0.00     0.168 CG0
ATOM     63  C   UNL     1      10.198   6.787  -3.467  1.00  0.00     0.041 C 
ATOM     64  G   UNL     1      11.681   6.077  -5.380  1.00  0.00     0.000 G0
ENDBRANCH  60  62
ENDBRANCH  56  58
ENDBRANCH  54  56
ENDBRANCH  52  54
ENDBRANCH  51  52
ENDBRANCH  50  51
ENDBRANCH  49  50
BRANCH  49  65
ATOM     65  C   UNL     1       9.676  -4.343  -1.618  1.00  0.00     0.326 C 
ATOM     66  O   UNL     1       9.322  -5.468  -1.297  1.00  0.00    -0.250 OA
BRANCH  65  67
ATOM     67  O   UNL     1       9.915  -4.061  -2.918  1.00  0.00    -0.480 OA
ATOM     68  H   UNL     1       9.865  -4.937  -3.358  1.00  0.00     0.296 HD
ENDBRANCH  65  67
ENDBRANCH  49  65
ENDBRANCH  47  49
ENDBRANCH  43  45
ENDBRANCH   1  43
BRANCH   1  69
ATOM     69  C   UNL     1       5.423  -0.889  -0.713  1.00  0.00    -0.001 C 
ATOM     70  C   UNL     1       5.828  -0.480  -1.928  1.00  0.00     0.001 C 
BRANCH  70  71
ATOM     71  C   UNL     1       5.412   0.736  -2.631  1.00  0.00    -0.055 C 
ATOM     72  C   UNL     1       5.547   1.912  -1.982  1.00  0.00    -0.018 C 
ATOM     73  C   UNL     1       4.871   0.590  -4.029  1.00  0.00     0.044 C 
BRANCH  72  74
ATOM     74  C   UNL     1       5.207   3.318  -2.457  1.00  0.00     0.038 C 
ATOM     75  C   UNL     1       6.308   3.745  -3.435  1.00  0.00     0.015 C 
BRANCH  74  76
ATOM     76  C   UNL     1       5.045   4.241  -1.213  1.00  0.00     0.128 C 
BRANCH  76  77
ATOM     77  O   UNL     1       4.370   3.531  -0.160  1.00  0.00    -0.381 OA
ATOM     78  C   UNL     1       2.978   3.805  -0.088  1.00  0.00     0.195 C 
ENDBRANCH  76  77
BRANCH  76  79
ATOM     79  C   UNL     1       6.366   4.899  -0.741  1.00  0.00     0.068 C 
BRANCH  79  80
ATOM     80  C   UNL     1       7.228   4.136   0.235  1.00  0.00    -0.045 A 
ATOM     81  C   UNL     1       8.151   3.181  -0.211  1.00  0.00     0.004 A 
ATOM     82  C   UNL     1       7.095   4.352   1.615  1.00  0.00     0.004 A 
ATOM     83  C   UNL     1       8.935   2.469   0.700  1.00  0.00     0.000 A 
ATOM     84  C   UNL     1       7.878   3.639   2.525  1.00  0.00     0.000 A 
ATOM     85  C   UNL     1       8.799   2.699   2.067  1.00  0.00     0.000 A 
ENDBRANCH  79  80
ENDBRANCH  76  79
ENDBRANCH  74  76
ENDBRANCH  72  74
ENDBRANCH  70  71
ENDBRANCH   1  69
TORSDOF 17
ENDMDL
MODEL 42
REMARK VINA RESULT:    -6.243      5.995     12.045
REMARK INTER + INTRA:         -26.568
REMARK INTER:                 -16.799
REMARK INTRA:                  -9.769
REMARK UNBOUND:                -7.916
REMARK SMILES C=C1C(=O)N[C@H](C)C(=O)N[C@@H](CC(C)C)C(=O)N[C@@H](C(=O)O)[C@H](C)C(=O)N[C@@H](CCCN=C(N)N)C(=O)N[C@@H](/C=C/C(C)=C/[C@H](C)[C@H](Cc2ccccc2)OC)[C@H](C)C(=O)N[C@@H](C(=O)O)CCC(=O)N1C
REMARK SMILES IDX 39 1 38 2 37 3 36 4 28 6 27 7 25 8 26 9 23 11 24 12 19 13
REMARK SMILES IDX 18 14 16 15 17 16 11 18 10 19 8 20 9 21 12 24 13 25 14 26
REMARK SMILES IDX 15 27 20 28 21 29 22 30 29 32 30 33 31 34 32 35 33 36 34 37
REMARK SMILES IDX 35 38 57 43 58 44 59 45 60 46 61 47 62 49 66 50 67 51 68 52
REMARK SMILES IDX 69 53 70 54 71 55 2 56 1 57 3 58 4 59 5 60 6 62 7 63 63 65
REMARK SMILES IDX 64 66 65 67 40 69 41 70 42 71 44 72 43 73 45 74 46 75 47 76
REMARK SMILES IDX 55 77 56 78 48 79 49 80 50 81 54 82 51 83 53 84 52 85
REMARK H PARENT 38 5 27 10 18 17 10 22 22 31 34 39 34 40 35 41 35 42 61 48
REMARK H PARENT 5 61 65 68
REMARK Flexibility Score:  369.900
ROOT
ATOM      1  C   UNL     1       5.097  -2.873   2.070  1.00  0.00     0.117 C 
ENDROOT
BRANCH   1   2
ATOM      2  N   UNL     1       5.395  -1.534   1.562  1.00  0.00    -0.347 N 
ATOM      3  O   UNL     1       7.496  -1.319   2.459  1.00  0.00    -0.273 OA
ATOM      4  C   UNL     1       6.611  -0.899   1.721  1.00  0.00     0.243 C 
ATOM      5  H   UNL     1       4.700  -1.046   1.016  1.00  0.00     0.164 HD
BRANCH   4   6
ATOM      6  C   UNL     1       6.694   0.477   1.013  1.00  0.00     0.171 C 
BRANCH   6   7
ATOM      7  N   UNL     1       6.811   0.299  -0.444  1.00  0.00    -0.344 N 
ATOM      8  C   UNL     1       7.607   1.139  -1.192  1.00  0.00     0.226 C 
ATOM      9  O   UNL     1       8.228   2.073  -0.699  1.00  0.00    -0.275 OA
ATOM     10  H   UNL     1       6.260  -0.419  -0.896  1.00  0.00     0.164 HD
BRANCH   8  11
ATOM     11  C   UNL     1       7.666   0.792  -2.670  1.00  0.00     0.109 C 
ATOM     12  C   UNL     1       7.137  -0.623  -2.899  1.00  0.00     0.021 C 
BRANCH  11  13
ATOM     13  C   UNL     1       6.960   1.889  -3.491  1.00  0.00     0.204 C 
BRANCH  13  14
ATOM     14  N   UNL     1       5.984   2.636  -2.691  1.00  0.00    -0.340 N 
ATOM     15  C   UNL     1       4.629   2.391  -2.744  1.00  0.00     0.243 C 
ATOM     16  O   UNL     1       4.148   1.486  -3.423  1.00  0.00    -0.273 OA
ATOM     17  H   UNL     1       6.298   3.493  -2.227  1.00  0.00     0.164 HD
BRANCH  15  18
ATOM     18  C   UNL     1       3.781   3.435  -1.977  1.00  0.00     0.171 C 
BRANCH  18  19
ATOM     19  N   UNL     1       3.340   4.422  -2.961  1.00  0.00    -0.343 N 
ATOM     20  C   UNL     1       4.157   5.457  -3.372  1.00  0.00     0.242 CG0
ATOM     21  O   UNL     1       5.240   5.674  -2.834  1.00  0.00    -0.273 OA
ATOM     22  H   UNL     1       2.407   4.352  -3.351  1.00  0.00     0.164 HD
ATOM     23  G   UNL     1       3.549   6.349  -4.473  1.00  0.00     0.000 G0
ENDBRANCH  18  19
BRANCH  18  24
ATOM     24  C   UNL     1       2.591   2.762  -1.283  1.00  0.00     0.038 C 
BRANCH  24  25
ATOM     25  C   UNL     1       2.422   3.127   0.207  1.00  0.00    -0.015 C 
ATOM     26  C   UNL     1       1.869   1.966   1.035  1.00  0.00     0.007 C 
ATOM     27  C   UNL     1       1.497   4.339   0.338  1.00  0.00     0.007 C 
ENDBRANCH  24  25
ENDBRANCH  18  24
ENDBRANCH  15  18
ENDBRANCH  13  14
BRANCH  13  28
ATOM     28  C   UNL     1       7.930   2.911  -4.093  1.00  0.00     0.327 C 
ATOM     29  O   UNL     1       8.620   2.753  -5.088  1.00  0.00    -0.250 OA
BRANCH  28  30
ATOM     30  O   UNL     1       8.062   4.022  -3.340  1.00  0.00    -0.480 OA
ATOM     31  H   UNL     1       8.102   3.687  -2.420  1.00  0.00     0.296 HD
ENDBRANCH  28  30
ENDBRANCH  13  28
ENDBRANCH  11  13
ENDBRANCH   8  11
ENDBRANCH   6   7
BRANCH   6  32
ATOM     32  C   UNL     1       5.450   1.300   1.365  1.00  0.00     0.037 C 
BRANCH  32  33
ATOM     33  C   UNL     1       5.639   2.111   2.655  1.00  0.00     0.026 C 
BRANCH  33  34
ATOM     34  C   UNL     1       5.625   3.620   2.405  1.00  0.00     0.146 C 
BRANCH  34  35
ATOM     35  N   UNL     1       6.574   3.929   1.344  1.00  0.00    -0.254 NA
ATOM     36  C   UNL     1       6.245   4.792   0.457  1.00  0.00     0.185 C 
ATOM     37  N   UNL     1       7.114   5.089  -0.521  1.00  0.00    -0.370 N 
ATOM     38  N   UNL     1       5.102   5.492   0.343  1.00  0.00    -0.370 N 
ATOM     39  H   UNL     1       8.005   4.609  -0.498  1.00  0.00     0.159 HD
ATOM     40  H   UNL     1       7.005   5.870  -1.145  1.00  0.00     0.159 HD
ATOM     41  H   UNL     1       4.907   6.039  -0.480  1.00  0.00     0.159 HD
ATOM     42  H   UNL     1       4.351   5.359   1.002  1.00  0.00     0.159 HD
ENDBRANCH  34  35
ENDBRANCH  33  34
ENDBRANCH  32  33
ENDBRANCH   6  32
ENDBRANCH   4   6
ENDBRANCH   1   2
BRANCH   1  43
ATOM     43  C   UNL     1       4.944  -3.840   0.860  1.00  0.00     0.102 C 
ATOM     44  C   UNL     1       5.649  -3.342  -0.413  1.00  0.00     0.020 C 
BRANCH  43  45
ATOM     45  C   UNL     1       3.477  -4.227   0.647  1.00  0.00     0.225 C 
ATOM     46  O   UNL     1       2.645  -3.464   0.165  1.00  0.00    -0.275 OA
ATOM     47  N   UNL     1       3.118  -5.468   1.120  1.00  0.00    -0.342 N 
ATOM     48  H   UNL     1       3.834  -6.135   1.370  1.00  0.00     0.164 HD
BRANCH  47  49
ATOM     49  C   UNL     1       1.757  -5.986   0.954  1.00  0.00     0.192 C 
BRANCH  49  50
ATOM     50  C   UNL     1       1.229  -6.486   2.301  1.00  0.00     0.047 C 
BRANCH  50  51
ATOM     51  C   UNL     1      -0.234  -6.944   2.219  1.00  0.00     0.103 C 
BRANCH  51  52
ATOM     52  C   UNL     1      -0.419  -8.369   2.736  1.00  0.00     0.226 C 
ATOM     53  O   UNL     1       0.376  -9.249   2.397  1.00  0.00    -0.275 OA
BRANCH  52  54
ATOM     54  N   UNL     1      -1.470  -8.574   3.649  1.00  0.00    -0.311 N 
ATOM     55  C   UNL     1      -2.743  -7.855   3.510  1.00  0.00     0.153 C 
BRANCH  54  56
ATOM     56  C   UNL     1      -1.344  -9.473   4.721  1.00  0.00     0.102 C 
ATOM     57  C   UNL     1      -0.560  -9.284   5.795  1.00  0.00     0.043 C 
BRANCH  56  58
ATOM     58  C   UNL     1      -2.151 -10.750   4.760  1.00  0.00     0.268 C 
ATOM     59  O   UNL     1      -1.879 -11.735   4.088  1.00  0.00    -0.268 OA
ATOM     60  N   UNL     1      -3.177 -10.712   5.674  1.00  0.00    -0.339 N 
ATOM     61  H   UNL     1      -3.343  -9.853   6.185  1.00  0.00     0.164 HD
BRANCH  60  62
ATOM     62  C   UNL     1      -4.044 -11.863   5.920  1.00  0.00     0.168 CG0
ATOM     63  C   UNL     1      -4.134 -12.173   7.409  1.00  0.00     0.041 C 
ATOM     64  G   UNL     1      -3.516 -13.084   5.138  1.00  0.00     0.000 G0
ENDBRANCH  60  62
ENDBRANCH  56  58
ENDBRANCH  54  56
ENDBRANCH  52  54
ENDBRANCH  51  52
ENDBRANCH  50  51
ENDBRANCH  49  50
BRANCH  49  65
ATOM     65  C   UNL     1       1.707  -7.132  -0.069  1.00  0.00     0.326 C 
ATOM     66  O   UNL     1       1.121  -7.103  -1.141  1.00  0.00    -0.250 OA
BRANCH  65  67
ATOM     67  O   UNL     1       2.334  -8.264   0.321  1.00  0.00    -0.480 OA
ATOM     68  H   UNL     1       2.715  -8.617  -0.512  1.00  0.00     0.296 HD
ENDBRANCH  65  67
ENDBRANCH  49  65
ENDBRANCH  47  49
ENDBRANCH  43  45
ENDBRANCH   1  43
BRANCH   1  69
ATOM     69  C   UNL     1       3.934  -2.713   3.032  1.00  0.00    -0.001 C 
ATOM     70  C   UNL     1       3.644  -3.479   4.099  1.00  0.00     0.001 C 
BRANCH  70  71
ATOM     71  C   UNL     1       2.531  -3.301   5.033  1.00  0.00    -0.055 C 
ATOM     72  C   UNL     1       1.808  -4.392   5.362  1.00  0.00    -0.018 C 
ATOM     73  C   UNL     1       2.275  -1.916   5.566  1.00  0.00     0.044 C 
BRANCH  72  74
ATOM     74  C   UNL     1       0.613  -4.510   6.298  1.00  0.00     0.038 C 
ATOM     75  C   UNL     1       0.968  -5.562   7.355  1.00  0.00     0.015 C 
BRANCH  74  76
ATOM     76  C   UNL     1      -0.654  -4.834   5.453  1.00  0.00     0.128 C 
BRANCH  76  77
ATOM     77  O   UNL     1      -1.411  -5.880   6.086  1.00  0.00    -0.381 OA
ATOM     78  C   UNL     1      -2.740  -5.501   6.420  1.00  0.00     0.195 C 
ENDBRANCH  76  77
BRANCH  76  79
ATOM     79  C   UNL     1      -1.517  -3.593   5.110  1.00  0.00     0.068 C 
BRANCH  79  80
ATOM     80  C   UNL     1      -1.039  -2.684   4.004  1.00  0.00    -0.045 A 
ATOM     81  C   UNL     1      -1.125  -1.291   4.127  1.00  0.00     0.004 A 
ATOM     82  C   UNL     1      -0.523  -3.225   2.817  1.00  0.00     0.004 A 
ATOM     83  C   UNL     1      -0.694  -0.456   3.093  1.00  0.00     0.000 A 
ATOM     84  C   UNL     1      -0.092  -2.390   1.784  1.00  0.00     0.000 A 
ATOM     85  C   UNL     1      -0.176  -1.006   1.923  1.00  0.00     0.000 A 
ENDBRANCH  79  80
ENDBRANCH  76  79
ENDBRANCH  74  76
ENDBRANCH  72  74
ENDBRANCH  70  71
ENDBRANCH   1  69
TORSDOF 17
ENDMDL
MODEL 43
REMARK VINA RESULT:    -6.221      4.610     10.684
REMARK INTER + INTRA:         -26.501
REMARK INTER:                 -18.404
REMARK INTRA:                  -8.096
REMARK UNBOUND:                -7.916
REMARK SMILES C=C1C(=O)N[C@H](C)C(=O)N[C@@H](CC(C)C)C(=O)N[C@@H](C(=O)O)[C@H](C)C(=O)N[C@@H](CCCN=C(N)N)C(=O)N[C@@H](/C=C/C(C)=C/[C@H](C)[C@H](Cc2ccccc2)OC)[C@H](C)C(=O)N[C@@H](C(=O)O)CCC(=O)N1C
REMARK SMILES IDX 39 1 38 2 37 3 36 4 28 6 27 7 25 8 26 9 23 11 24 12 19 13
REMARK SMILES IDX 18 14 16 15 17 16 11 18 10 19 8 20 9 21 12 24 13 25 14 26
REMARK SMILES IDX 15 27 20 28 21 29 22 30 29 32 30 33 31 34 32 35 33 36 34 37
REMARK SMILES IDX 35 38 57 43 58 44 59 45 60 46 61 47 62 49 66 50 67 51 68 52
REMARK SMILES IDX 69 53 70 54 71 55 2 56 1 57 3 58 4 59 5 60 6 62 7 63 63 65
REMARK SMILES IDX 64 66 65 67 40 69 41 70 42 71 44 72 43 73 45 74 46 75 47 76
REMARK SMILES IDX 55 77 56 78 48 79 49 80 50 81 54 82 51 83 53 84 52 85
REMARK H PARENT 38 5 27 10 18 17 10 22 22 31 34 39 34 40 35 41 35 42 61 48
REMARK H PARENT 5 61 65 68
REMARK Flexibility Score:  369.900
ROOT
ATOM      1  C   UNL     1      -0.589  -5.685   6.760  1.00  0.00     0.117 C 
ENDROOT
BRANCH   1   2
ATOM      2  N   UNL     1      -0.736  -6.818   5.846  1.00  0.00    -0.347 N 
ATOM      3  O   UNL     1       0.889  -8.163   6.752  1.00  0.00    -0.273 OA
ATOM      4  C   UNL     1      -0.046  -8.008   5.973  1.00  0.00     0.243 C 
ATOM      5  H   UNL     1      -1.414  -6.768   5.101  1.00  0.00     0.164 HD
BRANCH   4   6
ATOM      6  C   UNL     1      -0.450  -9.078   4.926  1.00  0.00     0.171 C 
BRANCH   6   7
ATOM      7  N   UNL     1      -1.858  -9.465   5.104  1.00  0.00    -0.344 N 
ATOM      8  C   UNL     1      -2.216 -10.792   5.197  1.00  0.00     0.226 C 
ATOM      9  O   UNL     1      -1.400 -11.703   5.114  1.00  0.00    -0.275 OA
ATOM     10  H   UNL     1      -2.569  -8.744   5.109  1.00  0.00     0.164 HD
BRANCH   8  11
ATOM     11  C   UNL     1      -3.698 -11.026   5.433  1.00  0.00     0.109 C 
ATOM     12  C   UNL     1      -4.379  -9.718   5.837  1.00  0.00     0.021 C 
BRANCH  11  13
ATOM     13  C   UNL     1      -4.317 -11.729   4.209  1.00  0.00     0.204 C 
BRANCH  13  14
ATOM     14  N   UNL     1      -3.574 -11.446   2.976  1.00  0.00    -0.340 N 
ATOM     15  C   UNL     1      -4.121 -10.759   1.914  1.00  0.00     0.243 C 
ATOM     16  O   UNL     1      -5.254 -10.281   1.949  1.00  0.00    -0.273 OA
ATOM     17  H   UNL     1      -2.692 -11.941   2.823  1.00  0.00     0.164 HD
BRANCH  15  18
ATOM     18  C   UNL     1      -3.228 -10.763   0.649  1.00  0.00     0.171 C 
BRANCH  18  19
ATOM     19  N   UNL     1      -3.082 -12.159   0.243  1.00  0.00    -0.343 N 
ATOM     20  C   UNL     1      -1.867 -12.814   0.308  1.00  0.00     0.242 CG0
ATOM     21  O   UNL     1      -0.829 -12.218   0.581  1.00  0.00    -0.273 OA
ATOM     22  H   UNL     1      -3.891 -12.664  -0.101  1.00  0.00     0.164 HD
ATOM     23  G   UNL     1      -1.926 -14.304  -0.087  1.00  0.00     0.000 G0
ENDBRANCH  18  19
BRANCH  18  24
ATOM     24  C   UNL     1      -3.860  -9.917  -0.463  1.00  0.00     0.038 C 
BRANCH  24  25
ATOM     25  C   UNL     1      -3.002  -8.723  -0.932  1.00  0.00    -0.015 C 
ATOM     26  C   UNL     1      -1.578  -9.137  -1.304  1.00  0.00     0.007 C 
ATOM     27  C   UNL     1      -2.958  -7.658   0.167  1.00  0.00     0.007 C 
ENDBRANCH  24  25
ENDBRANCH  18  24
ENDBRANCH  15  18
ENDBRANCH  13  14
BRANCH  13  28
ATOM     28  C   UNL     1      -4.386 -13.252   4.357  1.00  0.00     0.327 C 
ATOM     29  O   UNL     1      -5.261 -13.883   4.931  1.00  0.00    -0.250 OA
BRANCH  28  30
ATOM     30  O   UNL     1      -3.292 -13.880   3.880  1.00  0.00    -0.480 OA
ATOM     31  H   UNL     1      -3.544 -14.145   2.971  1.00  0.00     0.296 HD
ENDBRANCH  28  30
ENDBRANCH  13  28
ENDBRANCH  11  13
ENDBRANCH   8  11
ENDBRANCH   6   7
BRANCH   6  32
ATOM     32  C   UNL     1      -0.209  -8.521   3.519  1.00  0.00     0.037 C 
BRANCH  32  33
ATOM     33  C   UNL     1       1.181  -7.885   3.377  1.00  0.00     0.026 C 
BRANCH  33  34
ATOM     34  C   UNL     1       1.132  -6.515   2.700  1.00  0.00     0.146 C 
BRANCH  34  35
ATOM     35  N   UNL     1      -0.113  -5.854   3.066  1.00  0.00    -0.254 NA
ATOM     36  C   UNL     1      -0.355  -4.691   2.589  1.00  0.00     0.185 C 
ATOM     37  N   UNL     1      -1.502  -4.075   2.916  1.00  0.00    -0.370 N 
ATOM     38  N   UNL     1       0.399  -3.943   1.764  1.00  0.00    -0.370 N 
ATOM     39  H   UNL     1      -2.130  -4.580   3.527  1.00  0.00     0.159 HD
ATOM     40  H   UNL     1      -1.842  -3.250   2.452  1.00  0.00     0.159 HD
ATOM     41  H   UNL     1       0.164  -2.983   1.570  1.00  0.00     0.159 HD
ATOM     42  H   UNL     1       1.297  -4.274   1.449  1.00  0.00     0.159 HD
ENDBRANCH  34  35
ENDBRANCH  33  34
ENDBRANCH  32  33
ENDBRANCH   6  32
ENDBRANCH   4   6
ENDBRANCH   1   2
BRANCH   1  43
ATOM     43  C   UNL     1      -1.985  -5.029   6.964  1.00  0.00     0.102 C 
ATOM     44  C   UNL     1      -3.065  -5.581   6.019  1.00  0.00     0.020 C 
BRANCH  43  45
ATOM     45  C   UNL     1      -1.880  -3.501   6.963  1.00  0.00     0.225 C 
ATOM     46  O   UNL     1      -2.035  -2.818   5.954  1.00  0.00    -0.275 OA
ATOM     47  N   UNL     1      -1.504  -2.932   8.159  1.00  0.00    -0.342 N 
ATOM     48  H   UNL     1      -1.529  -3.483   9.005  1.00  0.00     0.164 HD
BRANCH  47  49
ATOM     49  C   UNL     1      -1.398  -1.478   8.315  1.00  0.00     0.192 C 
BRANCH  49  50
ATOM     50  C   UNL     1       0.070  -1.056   8.217  1.00  0.00     0.047 C 
BRANCH  50  51
ATOM     51  C   UNL     1       0.301  -0.002   7.125  1.00  0.00     0.103 C 
BRANCH  51  52
ATOM     52  C   UNL     1       0.228   1.421   7.677  1.00  0.00     0.226 C 
ATOM     53  O   UNL     1       0.738   1.678   8.769  1.00  0.00    -0.275 OA
BRANCH  52  54
ATOM     54  N   UNL     1      -0.368   2.386   6.845  1.00  0.00    -0.311 N 
ATOM     55  C   UNL     1       0.430   3.138   5.867  1.00  0.00     0.153 C 
BRANCH  54  56
ATOM     56  C   UNL     1      -1.743   2.663   6.913  1.00  0.00     0.102 C 
ATOM     57  C   UNL     1      -2.708   1.737   7.038  1.00  0.00     0.043 C 
BRANCH  56  58
ATOM     58  C   UNL     1      -2.249   4.086   6.894  1.00  0.00     0.268 C 
ATOM     59  O   UNL     1      -3.001   4.518   6.030  1.00  0.00    -0.268 OA
ATOM     60  N   UNL     1      -1.833   4.822   7.977  1.00  0.00    -0.339 N 
ATOM     61  H   UNL     1      -1.202   4.394   8.644  1.00  0.00     0.164 HD
BRANCH  60  62
ATOM     62  C   UNL     1      -2.258   6.206   8.189  1.00  0.00     0.168 CG0
ATOM     63  C   UNL     1      -1.075   7.162   8.094  1.00  0.00     0.041 C 
ATOM     64  G   UNL     1      -2.950   6.329   9.562  1.00  0.00     0.000 G0
ENDBRANCH  60  62
ENDBRANCH  56  58
ENDBRANCH  54  56
ENDBRANCH  52  54
ENDBRANCH  51  52
ENDBRANCH  50  51
ENDBRANCH  49  50
BRANCH  49  65
ATOM     65  C   UNL     1      -1.973  -1.010   9.661  1.00  0.00     0.326 C 
ATOM     66  O   UNL     1      -3.129  -1.156  10.030  1.00  0.00    -0.250 OA
BRANCH  65  67
ATOM     67  O   UNL     1      -1.101  -0.336  10.443  1.00  0.00    -0.480 OA
ATOM     68  H   UNL     1      -0.725   0.341   9.841  1.00  0.00     0.296 HD
ENDBRANCH  65  67
ENDBRANCH  49  65
ENDBRANCH  47  49
ENDBRANCH  43  45
ENDBRANCH   1  43
BRANCH   1  69
ATOM     69  C   UNL     1       0.545  -4.840   6.207  1.00  0.00    -0.001 C 
ATOM     70  C   UNL     1       1.799  -4.745   6.682  1.00  0.00     0.001 C 
BRANCH  70  71
ATOM     71  C   UNL     1       2.891  -3.942   6.127  1.00  0.00    -0.055 C 
ATOM     72  C   UNL     1       2.864  -2.610   6.344  1.00  0.00    -0.018 C 
ATOM     73  C   UNL     1       3.972  -4.660   5.362  1.00  0.00     0.044 C 
BRANCH  72  74
ATOM     74  C   UNL     1       3.851  -1.541   5.898  1.00  0.00     0.038 C 
ATOM     75  C   UNL     1       3.875  -0.463   6.988  1.00  0.00     0.015 C 
BRANCH  74  76
ATOM     76  C   UNL     1       3.434  -1.032   4.486  1.00  0.00     0.128 C 
BRANCH  76  77
ATOM     77  O   UNL     1       2.728   0.215   4.602  1.00  0.00    -0.381 OA
ATOM     78  C   UNL     1       1.691   0.376   3.644  1.00  0.00     0.195 C 
ENDBRANCH  76  77
BRANCH  76  79
ATOM     79  C   UNL     1       4.602  -0.968   3.470  1.00  0.00     0.068 C 
BRANCH  79  80
ATOM     80  C   UNL     1       4.998  -2.243   2.766  1.00  0.00    -0.045 A 
ATOM     81  C   UNL     1       6.268  -2.805   2.951  1.00  0.00     0.004 A 
ATOM     82  C   UNL     1       4.103  -2.873   1.888  1.00  0.00     0.004 A 
ATOM     83  C   UNL     1       6.632  -3.978   2.285  1.00  0.00     0.000 A 
ATOM     84  C   UNL     1       4.468  -4.045   1.222  1.00  0.00     0.000 A 
ATOM     85  C   UNL     1       5.731  -4.598   1.422  1.00  0.00     0.000 A 
ENDBRANCH  79  80
ENDBRANCH  76  79
ENDBRANCH  74  76
ENDBRANCH  72  74
ENDBRANCH  70  71
ENDBRANCH   1  69
TORSDOF 17
ENDMDL
MODEL 44
REMARK VINA RESULT:    -6.219      3.825      8.812
REMARK INTER + INTRA:         -26.498
REMARK INTER:                 -20.027
REMARK INTRA:                  -6.471
REMARK UNBOUND:                -7.916
REMARK SMILES C=C1C(=O)N[C@H](C)C(=O)N[C@@H](CC(C)C)C(=O)N[C@@H](C(=O)O)[C@H](C)C(=O)N[C@@H](CCCN=C(N)N)C(=O)N[C@@H](/C=C/C(C)=C/[C@H](C)[C@H](Cc2ccccc2)OC)[C@H](C)C(=O)N[C@@H](C(=O)O)CCC(=O)N1C
REMARK SMILES IDX 39 1 38 2 37 3 36 4 28 6 27 7 25 8 26 9 23 11 24 12 19 13
REMARK SMILES IDX 18 14 16 15 17 16 11 18 10 19 8 20 9 21 12 24 13 25 14 26
REMARK SMILES IDX 15 27 20 28 21 29 22 30 29 32 30 33 31 34 32 35 33 36 34 37
REMARK SMILES IDX 35 38 57 43 58 44 59 45 60 46 61 47 62 49 66 50 67 51 68 52
REMARK SMILES IDX 69 53 70 54 71 55 2 56 1 57 3 58 4 59 5 60 6 62 7 63 63 65
REMARK SMILES IDX 64 66 65 67 40 69 41 70 42 71 44 72 43 73 45 74 46 75 47 76
REMARK SMILES IDX 55 77 56 78 48 79 49 80 50 81 54 82 51 83 53 84 52 85
REMARK H PARENT 38 5 27 10 18 17 10 22 22 31 34 39 34 40 35 41 35 42 61 48
REMARK H PARENT 5 61 65 68
REMARK Flexibility Score:  369.900
ROOT
ATOM      1  C   UNL     1       0.016  -6.836   5.079  1.00  0.00     0.117 C 
ENDROOT
BRANCH   1   2
ATOM      2  N   UNL     1      -0.559  -5.506   5.282  1.00  0.00    -0.347 N 
ATOM      3  O   UNL     1      -0.211  -5.357   7.546  1.00  0.00    -0.273 OA
ATOM      4  C   UNL     1      -0.543  -4.833   6.488  1.00  0.00     0.243 C 
ATOM      5  H   UNL     1      -0.951  -5.012   4.495  1.00  0.00     0.164 HD
BRANCH   4   6
ATOM      6  C   UNL     1      -1.141  -3.405   6.413  1.00  0.00     0.171 C 
BRANCH   6   7
ATOM      7  N   UNL     1      -2.389  -3.328   7.189  1.00  0.00    -0.344 N 
ATOM      8  C   UNL     1      -3.422  -2.513   6.779  1.00  0.00     0.226 C 
ATOM      9  O   UNL     1      -3.349  -1.806   5.781  1.00  0.00    -0.275 OA
ATOM     10  H   UNL     1      -2.461  -3.846   8.056  1.00  0.00     0.164 HD
BRANCH   8  11
ATOM     11  C   UNL     1      -4.661  -2.585   7.654  1.00  0.00     0.109 C 
ATOM     12  C   UNL     1      -4.776  -3.971   8.289  1.00  0.00     0.021 C 
BRANCH  11  13
ATOM     13  C   UNL     1      -4.663  -1.412   8.653  1.00  0.00     0.204 C 
BRANCH  13  14
ATOM     14  N   UNL     1      -3.583  -0.457   8.386  1.00  0.00    -0.340 N 
ATOM     15  C   UNL     1      -2.470  -0.341   9.190  1.00  0.00     0.243 C 
ATOM     16  O   UNL     1      -2.275  -1.075  10.158  1.00  0.00    -0.273 OA
ATOM     17  H   UNL     1      -3.752   0.278   7.694  1.00  0.00     0.164 HD
BRANCH  15  18
ATOM     18  C   UNL     1      -1.571   0.868   8.832  1.00  0.00     0.171 C 
BRANCH  18  19
ATOM     19  N   UNL     1      -2.465   1.939   8.394  1.00  0.00    -0.343 N 
ATOM     20  C   UNL     1      -2.251   2.630   7.217  1.00  0.00     0.242 CG0
ATOM     21  O   UNL     1      -1.230   2.470   6.553  1.00  0.00    -0.273 OA
ATOM     22  H   UNL     1      -3.262   2.188   8.969  1.00  0.00     0.164 HD
ATOM     23  G   UNL     1      -3.342   3.668   6.882  1.00  0.00     0.000 G0
ENDBRANCH  18  19
BRANCH  18  24
ATOM     24  C   UNL     1      -0.733   1.297  10.043  1.00  0.00     0.038 C 
BRANCH  24  25
ATOM     25  C   UNL     1       0.793   1.221   9.829  1.00  0.00    -0.015 C 
ATOM     26  C   UNL     1       1.344  -0.191  10.033  1.00  0.00     0.007 C 
ATOM     27  C   UNL     1       1.495   2.191  10.783  1.00  0.00     0.007 C 
ENDBRANCH  24  25
ENDBRANCH  18  24
ENDBRANCH  15  18
ENDBRANCH  13  14
BRANCH  13  28
ATOM     28  C   UNL     1      -5.976  -0.623   8.655  1.00  0.00     0.327 C 
ATOM     29  O   UNL     1      -7.024  -0.963   8.129  1.00  0.00    -0.250 OA
BRANCH  28  30
ATOM     30  O   UNL     1      -5.858   0.598   9.216  1.00  0.00    -0.480 OA
ATOM     31  H   UNL     1      -5.646   0.413  10.154  1.00  0.00     0.296 HD
ENDBRANCH  28  30
ENDBRANCH  13  28
ENDBRANCH  11  13
ENDBRANCH   8  11
ENDBRANCH   6   7
BRANCH   6  32
ATOM     32  C   UNL     1      -0.109  -2.399   6.936  1.00  0.00     0.037 C 
BRANCH  32  33
ATOM     33  C   UNL     1       0.714  -1.771   5.802  1.00  0.00     0.026 C 
BRANCH  33  34
ATOM     34  C   UNL     1      -0.154  -0.999   4.808  1.00  0.00     0.146 C 
BRANCH  34  35
ATOM     35  N   UNL     1       0.211  -1.400   3.456  1.00  0.00    -0.254 NA
ATOM     36  C   UNL     1      -0.690  -1.911   2.702  1.00  0.00     0.185 C 
ATOM     37  N   UNL     1      -0.366  -2.279   1.453  1.00  0.00    -0.370 N 
ATOM     38  N   UNL     1      -1.984  -2.151   2.977  1.00  0.00    -0.370 N 
ATOM     39  H   UNL     1       0.592  -2.120   1.167  1.00  0.00     0.159 HD
ATOM     40  H   UNL     1      -1.043  -2.522   0.751  1.00  0.00     0.159 HD
ATOM     41  H   UNL     1      -2.559  -2.687   2.347  1.00  0.00     0.159 HD
ATOM     42  H   UNL     1      -2.364  -1.939   3.886  1.00  0.00     0.159 HD
ENDBRANCH  34  35
ENDBRANCH  33  34
ENDBRANCH  32  33
ENDBRANCH   6  32
ENDBRANCH   4   6
ENDBRANCH   1   2
BRANCH   1  43
ATOM     43  C   UNL     1       1.363  -6.682   4.314  1.00  0.00     0.102 C 
ATOM     44  C   UNL     1       2.426  -5.895   5.099  1.00  0.00     0.020 C 
BRANCH  43  45
ATOM     45  C   UNL     1       1.131  -6.164   2.891  1.00  0.00     0.225 C 
ATOM     46  O   UNL     1       0.625  -5.072   2.649  1.00  0.00    -0.275 OA
ATOM     47  N   UNL     1       1.443  -7.046   1.882  1.00  0.00    -0.342 N 
ATOM     48  H   UNL     1       1.993  -7.867   2.088  1.00  0.00     0.164 HD
BRANCH  47  49
ATOM     49  C   UNL     1       1.306  -6.674   0.470  1.00  0.00     0.192 C 
BRANCH  49  50
ATOM     50  C   UNL     1       1.138  -7.936  -0.380  1.00  0.00     0.047 C 
BRANCH  50  51
ATOM     51  C   UNL     1       1.521  -7.703  -1.848  1.00  0.00     0.103 C 
BRANCH  51  52
ATOM     52  C   UNL     1       0.734  -8.607  -2.796  1.00  0.00     0.226 C 
ATOM     53  O   UNL     1      -0.428  -8.318  -3.090  1.00  0.00    -0.275 OA
BRANCH  52  54
ATOM     54  N   UNL     1       1.431  -9.699  -3.344  1.00  0.00    -0.311 N 
ATOM     55  C   UNL     1       2.751  -9.519  -3.965  1.00  0.00     0.153 C 
BRANCH  54  56
ATOM     56  C   UNL     1       0.898 -10.998  -3.315  1.00  0.00     0.102 C 
ATOM     57  C   UNL     1       0.765 -11.749  -2.209  1.00  0.00     0.043 C 
BRANCH  56  58
ATOM     58  C   UNL     1       0.373 -11.649  -4.573  1.00  0.00     0.268 C 
ATOM     59  O   UNL     1      -0.327 -11.064  -5.388  1.00  0.00    -0.268 OA
ATOM     60  N   UNL     1       0.817 -12.939  -4.739  1.00  0.00    -0.339 N 
ATOM     61  H   UNL     1       1.386 -13.356  -4.012  1.00  0.00     0.164 HD
BRANCH  60  62
ATOM     62  C   UNL     1       0.480 -13.733  -5.920  1.00  0.00     0.168 CG0
ATOM     63  C   UNL     1       1.643 -13.771  -6.903  1.00  0.00     0.041 C 
ATOM     64  G   UNL     1      -0.783 -13.153  -6.590  1.00  0.00     0.000 G0
ENDBRANCH  60  62
ENDBRANCH  56  58
ENDBRANCH  54  56
ENDBRANCH  52  54
ENDBRANCH  51  52
ENDBRANCH  50  51
ENDBRANCH  49  50
BRANCH  49  65
ATOM     65  C   UNL     1       2.526  -5.883  -0.028  1.00  0.00     0.326 C 
ATOM     66  O   UNL     1       3.681  -6.283  -0.027  1.00  0.00    -0.250 OA
BRANCH  65  67
ATOM     67  O   UNL     1       2.252  -4.626  -0.441  1.00  0.00    -0.480 OA
ATOM     68  H   UNL     1       2.965  -4.434  -1.088  1.00  0.00     0.296 HD
ENDBRANCH  65  67
ENDBRANCH  49  65
ENDBRANCH  47  49
ENDBRANCH  43  45
ENDBRANCH   1  43
BRANCH   1  69
ATOM     69  C   UNL     1      -1.083  -7.684   4.465  1.00  0.00    -0.001 C 
ATOM     70  C   UNL     1      -0.967  -8.916   3.939  1.00  0.00     0.001 C 
BRANCH  70  71
ATOM     71  C   UNL     1      -2.039  -9.734   3.369  1.00  0.00    -0.055 C 
ATOM     72  C   UNL     1      -3.213  -9.782   4.034  1.00  0.00    -0.018 C 
ATOM     73  C   UNL     1      -1.761 -10.456   2.077  1.00  0.00     0.044 C 
BRANCH  72  74
ATOM     74  C   UNL     1      -4.488 -10.535   3.683  1.00  0.00     0.038 C 
ATOM     75  C   UNL     1      -5.329  -9.611   2.794  1.00  0.00     0.015 C 
BRANCH  74  76
ATOM     76  C   UNL     1      -5.184 -10.983   5.002  1.00  0.00     0.128 C 
BRANCH  76  77
ATOM     77  O   UNL     1      -5.165 -12.416   5.105  1.00  0.00    -0.381 OA
ATOM     78  C   UNL     1      -5.610 -13.079   3.929  1.00  0.00     0.195 C 
ENDBRANCH  76  77
BRANCH  76  79
ATOM     79  C   UNL     1      -4.636 -10.283   6.272  1.00  0.00     0.068 C 
BRANCH  79  80
ATOM     80  C   UNL     1      -5.573  -9.388   7.046  1.00  0.00    -0.045 A 
ATOM     81  C   UNL     1      -6.612  -9.926   7.818  1.00  0.00     0.004 A 
ATOM     82  C   UNL     1      -5.434  -7.994   6.981  1.00  0.00     0.004 A 
ATOM     83  C   UNL     1      -7.483  -9.090   8.520  1.00  0.00     0.000 A 
ATOM     84  C   UNL     1      -6.307  -7.159   7.683  1.00  0.00     0.000 A 
ATOM     85  C   UNL     1      -7.329  -7.707   8.454  1.00  0.00     0.000 A 
ENDBRANCH  79  80
ENDBRANCH  76  79
ENDBRANCH  74  76
ENDBRANCH  72  74
ENDBRANCH  70  71
ENDBRANCH   1  69
TORSDOF 17
ENDMDL
MODEL 45
REMARK VINA RESULT:    -6.215      5.142      9.050
REMARK INTER + INTRA:         -26.484
REMARK INTER:                 -17.966
REMARK INTRA:                  -8.518
REMARK UNBOUND:                -7.916
REMARK SMILES C=C1C(=O)N[C@H](C)C(=O)N[C@@H](CC(C)C)C(=O)N[C@@H](C(=O)O)[C@H](C)C(=O)N[C@@H](CCCN=C(N)N)C(=O)N[C@@H](/C=C/C(C)=C/[C@H](C)[C@H](Cc2ccccc2)OC)[C@H](C)C(=O)N[C@@H](C(=O)O)CCC(=O)N1C
REMARK SMILES IDX 39 1 38 2 37 3 36 4 28 6 27 7 25 8 26 9 23 11 24 12 19 13
REMARK SMILES IDX 18 14 16 15 17 16 11 18 10 19 8 20 9 21 12 24 13 25 14 26
REMARK SMILES IDX 15 27 20 28 21 29 22 30 29 32 30 33 31 34 32 35 33 36 34 37
REMARK SMILES IDX 35 38 57 43 58 44 59 45 60 46 61 47 62 49 66 50 67 51 68 52
REMARK SMILES IDX 69 53 70 54 71 55 2 56 1 57 3 58 4 59 5 60 6 62 7 63 63 65
REMARK SMILES IDX 64 66 65 67 40 69 41 70 42 71 44 72 43 73 45 74 46 75 47 76
REMARK SMILES IDX 55 77 56 78 48 79 49 80 50 81 54 82 51 83 53 84 52 85
REMARK H PARENT 38 5 27 10 18 17 10 22 22 31 34 39 34 40 35 41 35 42 61 48
REMARK H PARENT 5 61 65 68
REMARK Flexibility Score:  369.900
ROOT
ATOM      1  C   UNL     1       0.015  -2.260   2.848  1.00  0.00     0.117 C 
ENDROOT
BRANCH   1   2
ATOM      2  N   UNL     1       0.049  -1.075   3.705  1.00  0.00    -0.347 N 
ATOM      3  O   UNL     1      -0.662   0.457   2.150  1.00  0.00    -0.273 OA
ATOM      4  C   UNL     1      -0.381   0.177   3.310  1.00  0.00     0.243 C 
ATOM      5  H   UNL     1       0.355  -1.165   4.662  1.00  0.00     0.164 HD
BRANCH   4   6
ATOM      6  C   UNL     1      -0.320   1.241   4.436  1.00  0.00     0.171 C 
BRANCH   6   7
ATOM      7  N   UNL     1       0.262   0.663   5.658  1.00  0.00    -0.344 N 
ATOM      8  C   UNL     1      -0.413   0.730   6.858  1.00  0.00     0.226 C 
ATOM      9  O   UNL     1      -1.501   1.282   6.973  1.00  0.00    -0.275 OA
ATOM     10  H   UNL     1       1.189   0.258   5.617  1.00  0.00     0.164 HD
BRANCH   8  11
ATOM     11  C   UNL     1       0.293   0.041   8.012  1.00  0.00     0.109 C 
ATOM     12  C   UNL     1       1.064  -1.178   7.505  1.00  0.00     0.021 C 
BRANCH  11  13
ATOM     13  C   UNL     1       1.140   1.066   8.792  1.00  0.00     0.204 C 
BRANCH  13  14
ATOM     14  N   UNL     1       0.705   2.444   8.543  1.00  0.00    -0.340 N 
ATOM     15  C   UNL     1       1.534   3.405   8.005  1.00  0.00     0.243 C 
ATOM     16  O   UNL     1       2.681   3.157   7.638  1.00  0.00    -0.273 OA
ATOM     17  H   UNL     1      -0.177   2.752   8.961  1.00  0.00     0.164 HD
BRANCH  15  18
ATOM     18  C   UNL     1       0.927   4.829   8.028  1.00  0.00     0.171 C 
BRANCH  18  19
ATOM     19  N   UNL     1       1.998   5.734   8.439  1.00  0.00    -0.343 N 
ATOM     20  C   UNL     1       2.012   6.330   9.686  1.00  0.00     0.242 CG0
ATOM     21  O   UNL     1       1.060   6.232  10.456  1.00  0.00    -0.273 OA
ATOM     22  H   UNL     1       2.752   5.939   7.792  1.00  0.00     0.164 HD
ATOM     23  G   UNL     1       3.262   7.189   9.967  1.00  0.00     0.000 G0
ENDBRANCH  18  19
BRANCH  18  24
ATOM     24  C   UNL     1       0.372   5.204   6.649  1.00  0.00     0.038 C 
BRANCH  24  25
ATOM     25  C   UNL     1       1.049   6.426   5.992  1.00  0.00    -0.015 C 
ATOM     26  C   UNL     1       0.040   7.485   5.547  1.00  0.00     0.007 C 
ATOM     27  C   UNL     1       1.882   5.970   4.791  1.00  0.00     0.007 C 
ENDBRANCH  24  25
ENDBRANCH  18  24
ENDBRANCH  15  18
ENDBRANCH  13  14
BRANCH  13  28
ATOM     28  C   UNL     1       1.110   0.847  10.307  1.00  0.00     0.327 C 
ATOM     29  O   UNL     1       1.870   1.343  11.125  1.00  0.00    -0.250 OA
BRANCH  28  30
ATOM     30  O   UNL     1       0.202  -0.073  10.690  1.00  0.00    -0.480 OA
ATOM     31  H   UNL     1       0.675  -0.927  10.610  1.00  0.00     0.296 HD
ENDBRANCH  28  30
ENDBRANCH  13  28
ENDBRANCH  11  13
ENDBRANCH   8  11
ENDBRANCH   6   7
BRANCH   6  32
ATOM     32  C   UNL     1       0.503   2.440   3.952  1.00  0.00     0.037 C 
BRANCH  32  33
ATOM     33  C   UNL     1       1.988   2.309   4.318  1.00  0.00     0.026 C 
BRANCH  33  34
ATOM     34  C   UNL     1       2.838   1.813   3.148  1.00  0.00     0.146 C 
BRANCH  34  35
ATOM     35  N   UNL     1       2.821   2.819   2.095  1.00  0.00    -0.254 NA
ATOM     36  C   UNL     1       2.361   2.496   0.944  1.00  0.00     0.185 C 
ATOM     37  N   UNL     1       2.336   3.417  -0.032  1.00  0.00    -0.370 N 
ATOM     38  N   UNL     1       1.871   1.314   0.531  1.00  0.00    -0.370 N 
ATOM     39  H   UNL     1       2.680   4.339   0.205  1.00  0.00     0.159 HD
ATOM     40  H   UNL     1       1.838   3.297  -0.897  1.00  0.00     0.159 HD
ATOM     41  H   UNL     1       1.669   1.144  -0.441  1.00  0.00     0.159 HD
ATOM     42  H   UNL     1       1.844   0.524   1.157  1.00  0.00     0.159 HD
ENDBRANCH  34  35
ENDBRANCH  33  34
ENDBRANCH  32  33
ENDBRANCH   6  32
ENDBRANCH   4   6
ENDBRANCH   1   2
BRANCH   1  43
ATOM     43  C   UNL     1      -0.734  -3.396   3.602  1.00  0.00     0.102 C 
ATOM     44  C   UNL     1      -0.937  -3.106   5.099  1.00  0.00     0.020 C 
BRANCH  43  45
ATOM     45  C   UNL     1      -0.099  -4.760   3.314  1.00  0.00     0.225 C 
ATOM     46  O   UNL     1       0.574  -5.373   4.137  1.00  0.00    -0.275 OA
ATOM     47  N   UNL     1      -0.251  -5.224   2.028  1.00  0.00    -0.342 N 
ATOM     48  H   UNL     1      -0.927  -4.789   1.416  1.00  0.00     0.164 HD
BRANCH  47  49
ATOM     49  C   UNL     1       0.273  -6.531   1.618  1.00  0.00     0.192 C 
BRANCH  49  50
ATOM     50  C   UNL     1       1.223  -6.355   0.431  1.00  0.00     0.047 C 
BRANCH  50  51
ATOM     51  C   UNL     1       1.977  -7.647   0.093  1.00  0.00     0.103 C 
BRANCH  51  52
ATOM     52  C   UNL     1       1.774  -8.067  -1.362  1.00  0.00     0.226 C 
ATOM     53  O   UNL     1       2.133  -7.315  -2.270  1.00  0.00    -0.275 OA
BRANCH  52  54
ATOM     54  N   UNL     1       1.242  -9.352  -1.575  1.00  0.00    -0.311 N 
ATOM     55  C   UNL     1       1.710 -10.504  -0.792  1.00  0.00     0.153 C 
BRANCH  54  56
ATOM     56  C   UNL     1       0.243  -9.582  -2.535  1.00  0.00     0.102 C 
ATOM     57  C   UNL     1       0.376 -10.379  -3.608  1.00  0.00     0.043 C 
BRANCH  56  58
ATOM     58  C   UNL     1      -1.124  -8.954  -2.397  1.00  0.00     0.268 C 
ATOM     59  O   UNL     1      -1.515  -8.037  -3.106  1.00  0.00    -0.268 OA
ATOM     60  N   UNL     1      -1.903  -9.561  -1.441  1.00  0.00    -0.339 N 
ATOM     61  H   UNL     1      -1.502 -10.309  -0.888  1.00  0.00     0.164 HD
BRANCH  60  62
ATOM     62  C   UNL     1      -3.284  -9.152  -1.186  1.00  0.00     0.168 CG0
ATOM     63  C   UNL     1      -3.912 -10.002  -0.089  1.00  0.00     0.041 C 
ATOM     64  G   UNL     1      -4.102  -9.253  -2.490  1.00  0.00     0.000 G0
ENDBRANCH  60  62
ENDBRANCH  56  58
ENDBRANCH  54  56
ENDBRANCH  52  54
ENDBRANCH  51  52
ENDBRANCH  50  51
ENDBRANCH  49  50
BRANCH  49  65
ATOM     65  C   UNL     1      -0.857  -7.497   1.227  1.00  0.00     0.326 C 
ATOM     66  O   UNL     1      -0.836  -8.710   1.372  1.00  0.00    -0.250 OA
BRANCH  65  67
ATOM     67  O   UNL     1      -1.917  -6.912   0.627  1.00  0.00    -0.480 OA
ATOM     68  H   UNL     1      -2.636  -7.572   0.732  1.00  0.00     0.296 HD
ENDBRANCH  65  67
ENDBRANCH  49  65
ENDBRANCH  47  49
ENDBRANCH  43  45
ENDBRANCH   1  43
BRANCH   1  69
ATOM     69  C   UNL     1       1.445  -2.498   2.397  1.00  0.00    -0.001 C 
ATOM     70  C   UNL     1       1.975  -2.239   1.189  1.00  0.00     0.001 C 
BRANCH  70  71
ATOM     71  C   UNL     1       3.362  -2.453   0.772  1.00  0.00    -0.055 C 
ATOM     72  C   UNL     1       4.151  -1.367   0.635  1.00  0.00    -0.018 C 
ATOM     73  C   UNL     1       3.813  -3.871   0.533  1.00  0.00     0.044 C 
BRANCH  72  74
ATOM     74  C   UNL     1       5.614  -1.285   0.224  1.00  0.00     0.038 C 
ATOM     75  C   UNL     1       5.691  -1.672  -1.258  1.00  0.00     0.015 C 
BRANCH  74  76
ATOM     76  C   UNL     1       6.454  -2.184   1.179  1.00  0.00     0.128 C 
BRANCH  76  77
ATOM     77  O   UNL     1       7.763  -2.399   0.626  1.00  0.00    -0.381 OA
ATOM     78  C   UNL     1       8.429  -3.536   1.158  1.00  0.00     0.195 C 
ENDBRANCH  76  77
BRANCH  76  79
ATOM     79  C   UNL     1       6.496  -1.681   2.643  1.00  0.00     0.068 C 
BRANCH  79  80
ATOM     80  C   UNL     1       5.460  -2.211   3.604  1.00  0.00    -0.045 A 
ATOM     81  C   UNL     1       4.589  -1.344   4.277  1.00  0.00     0.004 A 
ATOM     82  C   UNL     1       5.371  -3.588   3.859  1.00  0.00     0.004 A 
ATOM     83  C   UNL     1       3.642  -1.842   5.175  1.00  0.00     0.000 A 
ATOM     84  C   UNL     1       4.424  -4.084   4.758  1.00  0.00     0.000 A 
ATOM     85  C   UNL     1       3.559  -3.211   5.414  1.00  0.00     0.000 A 
ENDBRANCH  79  80
ENDBRANCH  76  79
ENDBRANCH  74  76
ENDBRANCH  72  74
ENDBRANCH  70  71
ENDBRANCH   1  69
TORSDOF 17
ENDMDL
MODEL 46
REMARK VINA RESULT:    -6.209      3.709      8.424
REMARK INTER + INTRA:         -26.467
REMARK INTER:                 -19.219
REMARK INTRA:                  -7.248
REMARK UNBOUND:                -7.916
REMARK SMILES C=C1C(=O)N[C@H](C)C(=O)N[C@@H](CC(C)C)C(=O)N[C@@H](C(=O)O)[C@H](C)C(=O)N[C@@H](CCCN=C(N)N)C(=O)N[C@@H](/C=C/C(C)=C/[C@H](C)[C@H](Cc2ccccc2)OC)[C@H](C)C(=O)N[C@@H](C(=O)O)CCC(=O)N1C
REMARK SMILES IDX 39 1 38 2 37 3 36 4 28 6 27 7 25 8 26 9 23 11 24 12 19 13
REMARK SMILES IDX 18 14 16 15 17 16 11 18 10 19 8 20 9 21 12 24 13 25 14 26
REMARK SMILES IDX 15 27 20 28 21 29 22 30 29 32 30 33 31 34 32 35 33 36 34 37
REMARK SMILES IDX 35 38 57 43 58 44 59 45 60 46 61 47 62 49 66 50 67 51 68 52
REMARK SMILES IDX 69 53 70 54 71 55 2 56 1 57 3 58 4 59 5 60 6 62 7 63 63 65
REMARK SMILES IDX 64 66 65 67 40 69 41 70 42 71 44 72 43 73 45 74 46 75 47 76
REMARK SMILES IDX 55 77 56 78 48 79 49 80 50 81 54 82 51 83 53 84 52 85
REMARK H PARENT 38 5 27 10 18 17 10 22 22 31 34 39 34 40 35 41 35 42 61 48
REMARK H PARENT 5 61 65 68
REMARK Flexibility Score:  369.900
ROOT
ATOM      1  C   UNL     1       0.209  -7.640   5.474  1.00  0.00     0.117 C 
ENDROOT
BRANCH   1   2
ATOM      2  N   UNL     1      -0.158  -6.277   5.862  1.00  0.00    -0.347 N 
ATOM      3  O   UNL     1       1.104  -6.146   7.774  1.00  0.00    -0.273 OA
ATOM      4  C   UNL     1       0.392  -5.604   6.935  1.00  0.00     0.243 C 
ATOM      5  H   UNL     1      -0.815  -5.762   5.295  1.00  0.00     0.164 HD
BRANCH   4   6
ATOM      6  C   UNL     1      -0.105  -4.143   7.076  1.00  0.00     0.171 C 
BRANCH   6   7
ATOM      7  N   UNL     1      -0.409  -3.574   5.753  1.00  0.00    -0.344 N 
ATOM      8  C   UNL     1       0.541  -2.852   5.064  1.00  0.00     0.226 C 
ATOM      9  O   UNL     1       1.659  -2.632   5.515  1.00  0.00    -0.275 OA
ATOM     10  H   UNL     1      -1.343  -3.677   5.377  1.00  0.00     0.164 HD
BRANCH   8  11
ATOM     11  C   UNL     1       0.093  -2.379   3.692  1.00  0.00     0.109 C 
ATOM     12  C   UNL     1      -0.766  -3.450   3.020  1.00  0.00     0.021 C 
BRANCH  11  13
ATOM     13  C   UNL     1      -0.573  -0.993   3.811  1.00  0.00     0.204 C 
BRANCH  13  14
ATOM     14  N   UNL     1      -0.098  -0.251   4.983  1.00  0.00    -0.340 N 
ATOM     15  C   UNL     1      -0.843  -0.116   6.135  1.00  0.00     0.243 C 
ATOM     16  O   UNL     1      -1.935  -0.661   6.283  1.00  0.00    -0.273 OA
ATOM     17  H   UNL     1       0.725   0.347   4.872  1.00  0.00     0.164 HD
BRANCH  15  18
ATOM     18  C   UNL     1      -0.232   0.878   7.153  1.00  0.00     0.171 C 
BRANCH  18  19
ATOM     19  N   UNL     1      -0.927   2.150   6.964  1.00  0.00    -0.343 N 
ATOM     20  C   UNL     1      -0.622   2.999   5.917  1.00  0.00     0.242 CG0
ATOM     21  O   UNL     1       0.335   2.788   5.176  1.00  0.00    -0.273 OA
ATOM     22  H   UNL     1      -1.649   2.424   7.620  1.00  0.00     0.164 HD
ATOM     23  G   UNL     1      -1.514   4.255   5.836  1.00  0.00     0.000 G0
ENDBRANCH  18  19
BRANCH  18  24
ATOM     24  C   UNL     1      -0.395   0.355   8.585  1.00  0.00     0.038 C 
BRANCH  24  25
ATOM     25  C   UNL     1       0.881  -0.262   9.196  1.00  0.00    -0.015 C 
ATOM     26  C   UNL     1       0.613  -1.601   9.882  1.00  0.00     0.007 C 
ATOM     27  C   UNL     1       1.496   0.717  10.199  1.00  0.00     0.007 C 
ENDBRANCH  24  25
ENDBRANCH  18  24
ENDBRANCH  15  18
ENDBRANCH  13  14
BRANCH  13  28
ATOM     28  C   UNL     1      -0.339  -0.104   2.585  1.00  0.00     0.327 C 
ATOM     29  O   UNL     1       0.243  -0.425   1.560  1.00  0.00    -0.250 OA
BRANCH  28  30
ATOM     30  O   UNL     1      -0.747   1.168   2.770  1.00  0.00    -0.480 OA
ATOM     31  H   UNL     1      -0.637   1.586   1.891  1.00  0.00     0.296 HD
ENDBRANCH  28  30
ENDBRANCH  13  28
ENDBRANCH  11  13
ENDBRANCH   8  11
ENDBRANCH   6   7
BRANCH   6  32
ATOM     32  C   UNL     1      -1.342  -4.117   7.980  1.00  0.00     0.037 C 
BRANCH  32  33
ATOM     33  C   UNL     1      -2.644  -4.300   7.187  1.00  0.00     0.026 C 
BRANCH  33  34
ATOM     34  C   UNL     1      -3.853  -3.692   7.898  1.00  0.00     0.146 C 
BRANCH  34  35
ATOM     35  N   UNL     1      -4.381  -2.606   7.083  1.00  0.00    -0.254 NA
ATOM     36  C   UNL     1      -5.506  -2.086   7.407  1.00  0.00     0.185 C 
ATOM     37  N   UNL     1      -5.999  -1.082   6.665  1.00  0.00    -0.370 N 
ATOM     38  N   UNL     1      -6.320  -2.402   8.429  1.00  0.00    -0.370 N 
ATOM     39  H   UNL     1      -5.437  -0.778   5.880  1.00  0.00     0.159 HD
ATOM     40  H   UNL     1      -6.777  -0.511   6.949  1.00  0.00     0.159 HD
ATOM     41  H   UNL     1      -7.246  -2.013   8.497  1.00  0.00     0.159 HD
ATOM     42  H   UNL     1      -6.083  -3.151   9.061  1.00  0.00     0.159 HD
ENDBRANCH  34  35
ENDBRANCH  33  34
ENDBRANCH  32  33
ENDBRANCH   6  32
ENDBRANCH   4   6
ENDBRANCH   1   2
BRANCH   1  43
ATOM     43  C   UNL     1       1.180  -7.565   4.261  1.00  0.00     0.102 C 
ATOM     44  C   UNL     1       1.722  -6.150   3.997  1.00  0.00     0.020 C 
BRANCH  43  45
ATOM     45  C   UNL     1       0.572  -8.237   3.026  1.00  0.00     0.225 C 
ATOM     46  O   UNL     1       0.823  -9.394   2.701  1.00  0.00    -0.275 OA
ATOM     47  N   UNL     1      -0.212  -7.428   2.237  1.00  0.00    -0.342 N 
ATOM     48  H   UNL     1      -0.529  -6.537   2.593  1.00  0.00     0.164 HD
BRANCH  47  49
ATOM     49  C   UNL     1      -0.888  -7.945   1.043  1.00  0.00     0.192 C 
BRANCH  49  50
ATOM     50  C   UNL     1       0.051  -7.851  -0.161  1.00  0.00     0.047 C 
BRANCH  50  51
ATOM     51  C   UNL     1       0.054  -9.137  -0.999  1.00  0.00     0.103 C 
BRANCH  51  52
ATOM     52  C   UNL     1       0.168  -8.847  -2.494  1.00  0.00     0.226 C 
ATOM     53  O   UNL     1      -0.783  -8.339  -3.091  1.00  0.00    -0.275 OA
BRANCH  52  54
ATOM     54  N   UNL     1       1.413  -9.118  -3.092  1.00  0.00    -0.311 N 
ATOM     55  C   UNL     1       2.650  -8.528  -2.564  1.00  0.00     0.153 C 
BRANCH  54  56
ATOM     56  C   UNL     1       1.520  -9.964  -4.209  1.00  0.00     0.102 C 
ATOM     57  C   UNL     1       2.246  -9.698  -5.307  1.00  0.00     0.043 C 
BRANCH  56  58
ATOM     58  C   UNL     1       0.832 -11.308  -4.232  1.00  0.00     0.268 C 
ATOM     59  O   UNL     1      -0.181 -11.531  -4.882  1.00  0.00    -0.268 OA
ATOM     60  N   UNL     1       1.496 -12.267  -3.505  1.00  0.00    -0.339 N 
ATOM     61  H   UNL     1       2.323 -11.999  -2.986  1.00  0.00     0.164 HD
BRANCH  60  62
ATOM     62  C   UNL     1       1.037 -13.654  -3.443  1.00  0.00     0.168 CG0
ATOM     63  C   UNL     1       0.659 -14.042  -2.019  1.00  0.00     0.041 C 
ATOM     64  G   UNL     1       2.137 -14.588  -3.989  1.00  0.00     0.000 G0
ENDBRANCH  60  62
ENDBRANCH  56  58
ENDBRANCH  54  56
ENDBRANCH  52  54
ENDBRANCH  51  52
ENDBRANCH  50  51
ENDBRANCH  49  50
BRANCH  49  65
ATOM     65  C   UNL     1      -2.180  -7.169   0.743  1.00  0.00     0.326 C 
ATOM     66  O   UNL     1      -2.871  -7.299  -0.257  1.00  0.00    -0.250 OA
BRANCH  65  67
ATOM     67  O   UNL     1      -2.506  -6.238   1.666  1.00  0.00    -0.480 OA
ATOM     68  H   UNL     1      -1.651  -5.798   1.864  1.00  0.00     0.296 HD
ENDBRANCH  65  67
ENDBRANCH  49  65
ENDBRANCH  47  49
ENDBRANCH  43  45
ENDBRANCH   1  43
BRANCH   1  69
ATOM     69  C   UNL     1      -1.095  -8.403   5.324  1.00  0.00    -0.001 C 
ATOM     70  C   UNL     1      -2.323  -7.892   5.131  1.00  0.00     0.001 C 
BRANCH  70  71
ATOM     71  C   UNL     1      -3.571  -8.640   4.966  1.00  0.00    -0.055 C 
ATOM     72  C   UNL     1      -3.774  -9.707   5.767  1.00  0.00    -0.018 C 
ATOM     73  C   UNL     1      -4.544  -8.162   3.919  1.00  0.00     0.044 C 
BRANCH  72  74
ATOM     74  C   UNL     1      -4.962 -10.657   5.824  1.00  0.00     0.038 C 
ATOM     75  C   UNL     1      -5.540 -10.576   7.242  1.00  0.00     0.015 C 
BRANCH  74  76
ATOM     76  C   UNL     1      -4.489 -12.076   5.392  1.00  0.00     0.128 C 
BRANCH  76  77
ATOM     77  O   UNL     1      -5.351 -12.589   4.362  1.00  0.00    -0.381 OA
ATOM     78  C   UNL     1      -6.003 -11.577   3.607  1.00  0.00     0.195 C 
ENDBRANCH  76  77
BRANCH  76  79
ATOM     79  C   UNL     1      -2.989 -12.151   5.009  1.00  0.00     0.068 C 
BRANCH  79  80
ATOM     80  C   UNL     1      -2.639 -12.364   3.556  1.00  0.00    -0.045 A 
ATOM     81  C   UNL     1      -2.552 -13.654   3.017  1.00  0.00     0.004 A 
ATOM     82  C   UNL     1      -2.367 -11.266   2.726  1.00  0.00     0.004 A 
ATOM     83  C   UNL     1      -2.214 -13.843   1.675  1.00  0.00     0.000 A 
ATOM     84  C   UNL     1      -2.029 -11.456   1.385  1.00  0.00     0.000 A 
ATOM     85  C   UNL     1      -1.954 -12.744   0.859  1.00  0.00     0.000 A 
ENDBRANCH  79  80
ENDBRANCH  76  79
ENDBRANCH  74  76
ENDBRANCH  72  74
ENDBRANCH  70  71
ENDBRANCH   1  69
TORSDOF 17
ENDMDL
MODEL 47
REMARK VINA RESULT:    -6.193      4.918     10.581
REMARK INTER + INTRA:         -26.420
REMARK INTER:                 -20.171
REMARK INTRA:                  -6.248
REMARK UNBOUND:                -7.916
REMARK SMILES C=C1C(=O)N[C@H](C)C(=O)N[C@@H](CC(C)C)C(=O)N[C@@H](C(=O)O)[C@H](C)C(=O)N[C@@H](CCCN=C(N)N)C(=O)N[C@@H](/C=C/C(C)=C/[C@H](C)[C@H](Cc2ccccc2)OC)[C@H](C)C(=O)N[C@@H](C(=O)O)CCC(=O)N1C
REMARK SMILES IDX 39 1 38 2 37 3 36 4 28 6 27 7 25 8 26 9 23 11 24 12 19 13
REMARK SMILES IDX 18 14 16 15 17 16 11 18 10 19 8 20 9 21 12 24 13 25 14 26
REMARK SMILES IDX 15 27 20 28 21 29 22 30 29 32 30 33 31 34 32 35 33 36 34 37
REMARK SMILES IDX 35 38 57 43 58 44 59 45 60 46 61 47 62 49 66 50 67 51 68 52
REMARK SMILES IDX 69 53 70 54 71 55 2 56 1 57 3 58 4 59 5 60 6 62 7 63 63 65
REMARK SMILES IDX 64 66 65 67 40 69 41 70 42 71 44 72 43 73 45 74 46 75 47 76
REMARK SMILES IDX 55 77 56 78 48 79 49 80 50 81 54 82 51 83 53 84 52 85
REMARK H PARENT 38 5 27 10 18 17 10 22 22 31 34 39 34 40 35 41 35 42 61 48
REMARK H PARENT 5 61 65 68
REMARK Flexibility Score:  369.900
ROOT
ATOM      1  C   UNL     1       2.201  -2.632   1.629  1.00  0.00     0.117 C 
ENDROOT
BRANCH   1   2
ATOM      2  N   UNL     1       1.664  -3.993   1.670  1.00  0.00    -0.347 N 
ATOM      3  O   UNL     1       3.024  -4.816   3.326  1.00  0.00    -0.273 OA
ATOM      4  C   UNL     1       2.058  -4.953   2.582  1.00  0.00     0.243 C 
ATOM      5  H   UNL     1       0.925  -4.252   1.034  1.00  0.00     0.164 HD
BRANCH   4   6
ATOM      6  C   UNL     1       1.272  -6.283   2.465  1.00  0.00     0.171 C 
BRANCH   6   7
ATOM      7  N   UNL     1       1.695  -7.027   1.268  1.00  0.00    -0.344 N 
ATOM      8  C   UNL     1       0.806  -7.274   0.244  1.00  0.00     0.226 C 
ATOM      9  O   UNL     1      -0.364  -6.915   0.284  1.00  0.00    -0.275 OA
ATOM     10  H   UNL     1       2.636  -7.399   1.228  1.00  0.00     0.164 HD
BRANCH   8  11
ATOM     11  C   UNL     1       1.408  -8.005  -0.944  1.00  0.00     0.109 C 
ATOM     12  C   UNL     1       2.799  -8.530  -0.589  1.00  0.00     0.021 C 
BRANCH  11  13
ATOM     13  C   UNL     1       0.422  -9.074  -1.453  1.00  0.00     0.204 C 
BRANCH  13  14
ATOM     14  N   UNL     1      -0.743  -9.214  -0.573  1.00  0.00    -0.340 N 
ATOM     15  C   UNL     1      -1.176 -10.431  -0.093  1.00  0.00     0.243 C 
ATOM     16  O   UNL     1      -0.579 -11.482  -0.321  1.00  0.00    -0.273 OA
ATOM     17  H   UNL     1      -1.367  -8.409  -0.470  1.00  0.00     0.164 HD
BRANCH  15  18
ATOM     18  C   UNL     1      -2.538 -10.357   0.641  1.00  0.00     0.171 C 
BRANCH  18  19
ATOM     19  N   UNL     1      -2.884 -11.726   1.019  1.00  0.00    -0.343 N 
ATOM     20  C   UNL     1      -4.030 -12.343   0.555  1.00  0.00     0.242 CG0
ATOM     21  O   UNL     1      -4.876 -11.727  -0.089  1.00  0.00    -0.273 OA
ATOM     22  H   UNL     1      -2.273 -12.238   1.645  1.00  0.00     0.164 HD
ATOM     23  G   UNL     1      -4.186 -13.812   0.998  1.00  0.00     0.000 G0
ENDBRANCH  18  19
BRANCH  18  24
ATOM     24  C   UNL     1      -2.443  -9.442   1.867  1.00  0.00     0.038 C 
BRANCH  24  25
ATOM     25  C   UNL     1      -3.612  -8.445   2.020  1.00  0.00    -0.015 C 
ATOM     26  C   UNL     1      -3.275  -7.287   2.959  1.00  0.00     0.007 C 
ATOM     27  C   UNL     1      -4.852  -9.182   2.534  1.00  0.00     0.007 C 
ENDBRANCH  24  25
ENDBRANCH  18  24
ENDBRANCH  15  18
ENDBRANCH  13  14
BRANCH  13  28
ATOM     28  C   UNL     1      -0.106  -8.787  -2.862  1.00  0.00     0.327 C 
ATOM     29  O   UNL     1      -0.068  -7.713  -3.443  1.00  0.00    -0.250 OA
BRANCH  28  30
ATOM     30  O   UNL     1      -0.756  -9.836  -3.407  1.00  0.00    -0.480 OA
ATOM     31  H   UNL     1      -0.240 -10.616  -3.117  1.00  0.00     0.296 HD
ENDBRANCH  28  30
ENDBRANCH  13  28
ENDBRANCH  11  13
ENDBRANCH   8  11
ENDBRANCH   6   7
BRANCH   6  32
ATOM     32  C   UNL     1       1.497  -7.114   3.733  1.00  0.00     0.037 C 
BRANCH  32  33
ATOM     33  C   UNL     1       0.232  -7.870   4.163  1.00  0.00     0.026 C 
BRANCH  33  34
ATOM     34  C   UNL     1       0.202  -8.155   5.665  1.00  0.00     0.146 C 
BRANCH  34  35
ATOM     35  N   UNL     1       0.002  -6.901   6.377  1.00  0.00    -0.254 NA
ATOM     36  C   UNL     1       0.812  -6.594   7.321  1.00  0.00     0.185 C 
ATOM     37  N   UNL     1       0.639  -5.438   7.981  1.00  0.00    -0.370 N 
ATOM     38  N   UNL     1       1.869  -7.284   7.784  1.00  0.00    -0.370 N 
ATOM     39  H   UNL     1      -0.133  -4.856   7.683  1.00  0.00     0.159 HD
ATOM     40  H   UNL     1       1.323  -5.048   8.606  1.00  0.00     0.159 HD
ATOM     41  H   UNL     1       2.346  -7.003   8.626  1.00  0.00     0.159 HD
ATOM     42  H   UNL     1       2.108  -8.181   7.391  1.00  0.00     0.159 HD
ENDBRANCH  34  35
ENDBRANCH  33  34
ENDBRANCH  32  33
ENDBRANCH   6  32
ENDBRANCH   4   6
ENDBRANCH   1   2
BRANCH   1  43
ATOM     43  C   UNL     1       1.021  -1.640   1.415  1.00  0.00     0.102 C 
ATOM     44  C   UNL     1       1.453  -0.164   1.425  1.00  0.00     0.020 C 
BRANCH  43  45
ATOM     45  C   UNL     1      -0.140  -1.954   2.363  1.00  0.00     0.225 C 
ATOM     46  O   UNL     1      -1.182  -2.488   1.994  1.00  0.00    -0.275 OA
ATOM     47  N   UNL     1       0.015  -1.512   3.657  1.00  0.00    -0.342 N 
ATOM     48  H   UNL     1       0.926  -1.216   3.978  1.00  0.00     0.164 HD
BRANCH  47  49
ATOM     49  C   UNL     1      -0.999  -1.773   4.683  1.00  0.00     0.192 C 
BRANCH  49  50
ATOM     50  C   UNL     1      -1.191  -0.523   5.546  1.00  0.00     0.047 C 
BRANCH  50  51
ATOM     51  C   UNL     1       0.045   0.387   5.535  1.00  0.00     0.103 C 
BRANCH  51  52
ATOM     52  C   UNL     1      -0.257   1.758   4.932  1.00  0.00     0.226 C 
ATOM     53  O   UNL     1      -0.440   1.863   3.718  1.00  0.00    -0.275 OA
BRANCH  52  54
ATOM     54  N   UNL     1      -0.384   2.827   5.839  1.00  0.00    -0.311 N 
ATOM     55  C   UNL     1       0.117   2.715   7.215  1.00  0.00     0.153 C 
BRANCH  54  56
ATOM     56  C   UNL     1      -0.988   4.038   5.462  1.00  0.00     0.102 C 
ATOM     57  C   UNL     1      -2.309   4.276   5.479  1.00  0.00     0.043 C 
BRANCH  56  58
ATOM     58  C   UNL     1      -0.151   5.222   5.037  1.00  0.00     0.268 C 
ATOM     59  O   UNL     1       0.154   5.442   3.872  1.00  0.00    -0.268 OA
ATOM     60  N   UNL     1       0.175   6.056   6.079  1.00  0.00    -0.339 N 
ATOM     61  H   UNL     1      -0.107   5.796   7.017  1.00  0.00     0.164 HD
BRANCH  60  62
ATOM     62  C   UNL     1       0.927   7.294   5.881  1.00  0.00     0.168 CG0
ATOM     63  C   UNL     1       0.006   8.506   5.918  1.00  0.00     0.041 C 
ATOM     64  G   UNL     1       1.688   7.227   4.540  1.00  0.00     0.000 G0
ENDBRANCH  60  62
ENDBRANCH  56  58
ENDBRANCH  54  56
ENDBRANCH  52  54
ENDBRANCH  51  52
ENDBRANCH  50  51
ENDBRANCH  49  50
BRANCH  49  65
ATOM     65  C   UNL     1      -0.606  -2.956   5.581  1.00  0.00     0.326 C 
ATOM     66  O   UNL     1      -0.115  -4.007   5.196  1.00  0.00    -0.250 OA
BRANCH  65  67
ATOM     67  O   UNL     1      -0.899  -2.792   6.890  1.00  0.00    -0.480 OA
ATOM     68  H   UNL     1      -1.390  -1.942   6.912  1.00  0.00     0.296 HD
ENDBRANCH  65  67
ENDBRANCH  49  65
ENDBRANCH  47  49
ENDBRANCH  43  45
ENDBRANCH   1  43
BRANCH   1  69
ATOM     69  C   UNL     1       3.334  -2.653   0.619  1.00  0.00    -0.001 C 
ATOM     70  C   UNL     1       4.567  -2.139   0.764  1.00  0.00     0.001 C 
BRANCH  70  71
ATOM     71  C   UNL     1       5.660  -2.184  -0.210  1.00  0.00    -0.055 C 
ATOM     72  C   UNL     1       6.021  -1.027  -0.803  1.00  0.00    -0.018 C 
ATOM     73  C   UNL     1       6.308  -3.518  -0.476  1.00  0.00     0.044 C 
BRANCH  72  74
ATOM     74  C   UNL     1       7.108  -0.772  -1.837  1.00  0.00     0.038 C 
ATOM     75  C   UNL     1       8.122   0.186  -1.201  1.00  0.00     0.015 C 
BRANCH  74  76
ATOM     76  C   UNL     1       6.443  -0.247  -3.143  1.00  0.00     0.128 C 
BRANCH  76  77
ATOM     77  O   UNL     1       6.611  -1.207  -4.200  1.00  0.00    -0.381 OA
ATOM     78  C   UNL     1       7.427  -2.314  -3.842  1.00  0.00     0.195 C 
ENDBRANCH  76  77
BRANCH  76  79
ATOM     79  C   UNL     1       4.969   0.197  -2.965  1.00  0.00     0.068 C 
BRANCH  79  80
ATOM     80  C   UNL     1       4.677   1.677  -2.914  1.00  0.00    -0.045 A 
ATOM     81  C   UNL     1       3.373   2.150  -2.720  1.00  0.00     0.004 A 
ATOM     82  C   UNL     1       5.712   2.608  -3.091  1.00  0.00     0.004 A 
ATOM     83  C   UNL     1       3.109   3.521  -2.689  1.00  0.00     0.000 A 
ATOM     84  C   UNL     1       5.447   3.979  -3.060  1.00  0.00     0.000 A 
ATOM     85  C   UNL     1       4.147   4.435  -2.857  1.00  0.00     0.000 A 
ENDBRANCH  79  80
ENDBRANCH  76  79
ENDBRANCH  74  76
ENDBRANCH  72  74
ENDBRANCH  70  71
ENDBRANCH   1  69
TORSDOF 17
ENDMDL
MODEL 48
REMARK VINA RESULT:    -6.185      3.281     12.703
REMARK INTER + INTRA:         -26.394
REMARK INTER:                 -19.859
REMARK INTRA:                  -6.535
REMARK UNBOUND:                -7.916
REMARK SMILES C=C1C(=O)N[C@H](C)C(=O)N[C@@H](CC(C)C)C(=O)N[C@@H](C(=O)O)[C@H](C)C(=O)N[C@@H](CCCN=C(N)N)C(=O)N[C@@H](/C=C/C(C)=C/[C@H](C)[C@H](Cc2ccccc2)OC)[C@H](C)C(=O)N[C@@H](C(=O)O)CCC(=O)N1C
REMARK SMILES IDX 39 1 38 2 37 3 36 4 28 6 27 7 25 8 26 9 23 11 24 12 19 13
REMARK SMILES IDX 18 14 16 15 17 16 11 18 10 19 8 20 9 21 12 24 13 25 14 26
REMARK SMILES IDX 15 27 20 28 21 29 22 30 29 32 30 33 31 34 32 35 33 36 34 37
REMARK SMILES IDX 35 38 57 43 58 44 59 45 60 46 61 47 62 49 66 50 67 51 68 52
REMARK SMILES IDX 69 53 70 54 71 55 2 56 1 57 3 58 4 59 5 60 6 62 7 63 63 65
REMARK SMILES IDX 64 66 65 67 40 69 41 70 42 71 44 72 43 73 45 74 46 75 47 76
REMARK SMILES IDX 55 77 56 78 48 79 49 80 50 81 54 82 51 83 53 84 52 85
REMARK H PARENT 38 5 27 10 18 17 10 22 22 31 34 39 34 40 35 41 35 42 61 48
REMARK H PARENT 5 61 65 68
REMARK Flexibility Score:  369.900
ROOT
ATOM      1  C   UNL     1       0.618  -6.572   4.960  1.00  0.00     0.117 C 
ENDROOT
BRANCH   1   2
ATOM      2  N   UNL     1       1.229  -6.804   3.650  1.00  0.00    -0.347 N 
ATOM      3  O   UNL     1       0.853  -4.722   2.757  1.00  0.00    -0.273 OA
ATOM      4  C   UNL     1       1.379  -5.828   2.684  1.00  0.00     0.243 C 
ATOM      5  H   UNL     1       1.614  -7.711   3.438  1.00  0.00     0.164 HD
BRANCH   4   6
ATOM      6  C   UNL     1       2.136  -6.313   1.421  1.00  0.00     0.171 C 
BRANCH   6   7
ATOM      7  N   UNL     1       1.254  -7.135   0.577  1.00  0.00    -0.344 N 
ATOM      8  C   UNL     1       1.766  -8.173  -0.172  1.00  0.00     0.226 C 
ATOM      9  O   UNL     1       2.960  -8.446  -0.192  1.00  0.00    -0.275 OA
ATOM     10  H   UNL     1       0.272  -6.898   0.516  1.00  0.00     0.164 HD
BRANCH   8  11
ATOM     11  C   UNL     1       0.722  -8.960  -0.945  1.00  0.00     0.109 C 
ATOM     12  C   UNL     1      -0.563  -9.075  -0.127  1.00  0.00     0.021 C 
BRANCH  11  13
ATOM     13  C   UNL     1       0.544  -8.349  -2.350  1.00  0.00     0.204 C 
BRANCH  13  14
ATOM     14  N   UNL     1       1.634  -8.723  -3.256  1.00  0.00    -0.340 N 
ATOM     15  C   UNL     1       1.975  -7.977  -4.364  1.00  0.00     0.243 C 
ATOM     16  O   UNL     1       1.426  -6.911  -4.637  1.00  0.00    -0.273 OA
ATOM     17  H   UNL     1       2.026  -9.665  -3.174  1.00  0.00     0.164 HD
BRANCH  15  18
ATOM     18  C   UNL     1       3.011  -8.671  -5.282  1.00  0.00     0.171 C 
BRANCH  18  19
ATOM     19  N   UNL     1       2.274  -9.176  -6.439  1.00  0.00    -0.343 N 
ATOM     20  C   UNL     1       1.497 -10.316  -6.367  1.00  0.00     0.242 CG0
ATOM     21  O   UNL     1       1.495 -11.031  -5.368  1.00  0.00    -0.273 OA
ATOM     22  H   UNL     1       2.336  -8.683  -7.322  1.00  0.00     0.164 HD
ATOM     23  G   UNL     1       0.732 -10.649  -7.665  1.00  0.00     0.000 G0
ENDBRANCH  18  19
BRANCH  18  24
ATOM     24  C   UNL     1       4.109  -7.686  -5.701  1.00  0.00     0.038 C 
BRANCH  24  25
ATOM     25  C   UNL     1       4.044  -7.239  -7.177  1.00  0.00    -0.015 C 
ATOM     26  C   UNL     1       5.392  -7.367  -7.887  1.00  0.00     0.007 C 
ATOM     27  C   UNL     1       3.556  -5.790  -7.255  1.00  0.00     0.007 C 
ENDBRANCH  24  25
ENDBRANCH  18  24
ENDBRANCH  15  18
ENDBRANCH  13  14
BRANCH  13  28
ATOM     28  C   UNL     1      -0.768  -8.760  -3.025  1.00  0.00     0.327 C 
ATOM     29  O   UNL     1      -1.790  -8.093  -3.085  1.00  0.00    -0.250 OA
BRANCH  28  30
ATOM     30  O   UNL     1      -0.754 -10.030  -3.478  1.00  0.00    -0.480 OA
ATOM     31  H   UNL     1      -1.312 -10.005  -4.283  1.00  0.00     0.296 HD
ENDBRANCH  28  30
ENDBRANCH  13  28
ENDBRANCH  11  13
ENDBRANCH   8  11
ENDBRANCH   6   7
BRANCH   6  32
ATOM     32  C   UNL     1       2.655  -5.096   0.647  1.00  0.00     0.037 C 
BRANCH  32  33
ATOM     33  C   UNL     1       4.188  -5.015   0.655  1.00  0.00     0.026 C 
BRANCH  33  34
ATOM     34  C   UNL     1       4.699  -3.632   1.060  1.00  0.00     0.146 C 
BRANCH  34  35
ATOM     35  N   UNL     1       4.770  -3.564   2.513  1.00  0.00    -0.254 NA
ATOM     36  C   UNL     1       5.920  -3.607   3.075  1.00  0.00     0.185 C 
ATOM     37  N   UNL     1       5.997  -3.540   4.413  1.00  0.00    -0.370 N 
ATOM     38  N   UNL     1       7.134  -3.715   2.507  1.00  0.00    -0.370 N 
ATOM     39  H   UNL     1       5.123  -3.447   4.914  1.00  0.00     0.159 HD
ATOM     40  H   UNL     1       6.856  -3.394   4.914  1.00  0.00     0.159 HD
ATOM     41  H   UNL     1       7.957  -3.880   3.063  1.00  0.00     0.159 HD
ATOM     42  H   UNL     1       7.227  -3.791   1.506  1.00  0.00     0.159 HD
ENDBRANCH  34  35
ENDBRANCH  33  34
ENDBRANCH  32  33
ENDBRANCH   6  32
ENDBRANCH   4   6
ENDBRANCH   1   2
BRANCH   1  43
ATOM     43  C   UNL     1       1.749  -6.295   5.991  1.00  0.00     0.102 C 
ATOM     44  C   UNL     1       1.873  -7.384   7.071  1.00  0.00     0.020 C 
BRANCH  43  45
ATOM     45  C   UNL     1       1.647  -4.873   6.552  1.00  0.00     0.225 C 
ATOM     46  O   UNL     1       1.668  -4.623   7.753  1.00  0.00    -0.275 OA
ATOM     47  N   UNL     1       1.432  -3.884   5.620  1.00  0.00    -0.342 N 
ATOM     48  H   UNL     1       1.568  -4.082   4.639  1.00  0.00     0.164 HD
BRANCH  47  49
ATOM     49  C   UNL     1       1.349  -2.472   6.007  1.00  0.00     0.192 C 
BRANCH  49  50
ATOM     50  C   UNL     1       0.560  -1.695   4.951  1.00  0.00     0.047 C 
BRANCH  50  51
ATOM     51  C   UNL     1      -0.087  -0.427   5.524  1.00  0.00     0.103 C 
BRANCH  51  52
ATOM     52  C   UNL     1      -1.409  -0.726   6.229  1.00  0.00     0.226 C 
ATOM     53  O   UNL     1      -2.116  -1.653   5.831  1.00  0.00    -0.275 OA
BRANCH  52  54
ATOM     54  N   UNL     1      -1.704   0.052   7.364  1.00  0.00    -0.311 N 
ATOM     55  C   UNL     1      -2.398   1.341   7.238  1.00  0.00     0.153 C 
BRANCH  54  56
ATOM     56  C   UNL     1      -1.353  -0.375   8.655  1.00  0.00     0.102 C 
ATOM     57  C   UNL     1      -0.690  -1.509   8.936  1.00  0.00     0.043 C 
BRANCH  56  58
ATOM     58  C   UNL     1      -1.671   0.472   9.865  1.00  0.00     0.268 C 
ATOM     59  O   UNL     1      -0.919   1.336  10.294  1.00  0.00    -0.268 OA
ATOM     60  N   UNL     1      -2.916   0.217  10.390  1.00  0.00    -0.339 N 
ATOM     61  H   UNL     1      -3.475  -0.523   9.982  1.00  0.00     0.164 HD
BRANCH  60  62
ATOM     62  C   UNL     1      -3.451   0.968  11.525  1.00  0.00     0.168 CG0
ATOM     63  C   UNL     1      -4.307   2.136  11.054  1.00  0.00     0.041 C 
ATOM     64  G   UNL     1      -2.289   1.464  12.410  1.00  0.00     0.000 G0
ENDBRANCH  60  62
ENDBRANCH  56  58
ENDBRANCH  54  56
ENDBRANCH  52  54
ENDBRANCH  51  52
ENDBRANCH  50  51
ENDBRANCH  49  50
BRANCH  49  65
ATOM     65  C   UNL     1       2.743  -1.845   6.165  1.00  0.00     0.326 C 
ATOM     66  O   UNL     1       3.621  -1.842   5.315  1.00  0.00    -0.250 OA
BRANCH  65  67
ATOM     67  O   UNL     1       2.987  -1.313   7.383  1.00  0.00    -0.480 OA
ATOM     68  H   UNL     1       2.624  -0.404   7.316  1.00  0.00     0.296 HD
ENDBRANCH  65  67
ENDBRANCH  49  65
ENDBRANCH  47  49
ENDBRANCH  43  45
ENDBRANCH   1  43
BRANCH   1  69
ATOM     69  C   UNL     1      -0.325  -7.737   5.200  1.00  0.00    -0.001 C 
ATOM     70  C   UNL     1      -0.374  -8.901   4.527  1.00  0.00     0.001 C 
BRANCH  70  71
ATOM     71  C   UNL     1      -1.274 -10.027   4.782  1.00  0.00    -0.055 C 
ATOM     72  C   UNL     1      -2.000 -10.497   3.746  1.00  0.00    -0.018 C 
ATOM     73  C   UNL     1      -1.320 -10.587   6.180  1.00  0.00     0.044 C 
BRANCH  72  74
ATOM     74  C   UNL     1      -3.002 -11.642   3.713  1.00  0.00     0.038 C 
ATOM     75  C   UNL     1      -2.753 -12.424   2.417  1.00  0.00     0.015 C 
BRANCH  74  76
ATOM     76  C   UNL     1      -4.438 -11.057   3.856  1.00  0.00     0.128 C 
BRANCH  76  77
ATOM     77  O   UNL     1      -5.372 -11.862   3.119  1.00  0.00    -0.381 OA
ATOM     78  C   UNL     1      -6.005 -12.865   3.902  1.00  0.00     0.195 C 
ENDBRANCH  76  77
BRANCH  76  79
ATOM     79  C   UNL     1      -4.877 -10.820   5.323  1.00  0.00     0.068 C 
BRANCH  79  80
ATOM     80  C   UNL     1      -5.008  -9.394   5.801  1.00  0.00    -0.045 A 
ATOM     81  C   UNL     1      -4.498  -8.330   5.046  1.00  0.00     0.004 A 
ATOM     82  C   UNL     1      -5.621  -9.114   7.031  1.00  0.00     0.004 A 
ATOM     83  C   UNL     1      -4.610  -7.015   5.501  1.00  0.00     0.000 A 
ATOM     84  C   UNL     1      -5.733  -7.798   7.487  1.00  0.00     0.000 A 
ATOM     85  C   UNL     1      -5.229  -6.749   6.721  1.00  0.00     0.000 A 
ENDBRANCH  79  80
ENDBRANCH  76  79
ENDBRANCH  74  76
ENDBRANCH  72  74
ENDBRANCH  70  71
ENDBRANCH   1  69
TORSDOF 17
ENDMDL
MODEL 49
REMARK VINA RESULT:    -6.159      3.559      6.322
REMARK INTER + INTRA:         -26.318
REMARK INTER:                 -18.846
REMARK INTRA:                  -7.471
REMARK UNBOUND:                -7.916
REMARK SMILES C=C1C(=O)N[C@H](C)C(=O)N[C@@H](CC(C)C)C(=O)N[C@@H](C(=O)O)[C@H](C)C(=O)N[C@@H](CCCN=C(N)N)C(=O)N[C@@H](/C=C/C(C)=C/[C@H](C)[C@H](Cc2ccccc2)OC)[C@H](C)C(=O)N[C@@H](C(=O)O)CCC(=O)N1C
REMARK SMILES IDX 39 1 38 2 37 3 36 4 28 6 27 7 25 8 26 9 23 11 24 12 19 13
REMARK SMILES IDX 18 14 16 15 17 16 11 18 10 19 8 20 9 21 12 24 13 25 14 26
REMARK SMILES IDX 15 27 20 28 21 29 22 30 29 32 30 33 31 34 32 35 33 36 34 37
REMARK SMILES IDX 35 38 57 43 58 44 59 45 60 46 61 47 62 49 66 50 67 51 68 52
REMARK SMILES IDX 69 53 70 54 71 55 2 56 1 57 3 58 4 59 5 60 6 62 7 63 63 65
REMARK SMILES IDX 64 66 65 67 40 69 41 70 42 71 44 72 43 73 45 74 46 75 47 76
REMARK SMILES IDX 55 77 56 78 48 79 49 80 50 81 54 82 51 83 53 84 52 85
REMARK H PARENT 38 5 27 10 18 17 10 22 22 31 34 39 34 40 35 41 35 42 61 48
REMARK H PARENT 5 61 65 68
REMARK Flexibility Score:  369.900
ROOT
ATOM      1  C   UNL     1       3.290  -4.214   1.463  1.00  0.00     0.117 C 
ENDROOT
BRANCH   1   2
ATOM      2  N   UNL     1       2.687  -5.494   1.840  1.00  0.00    -0.347 N 
ATOM      3  O   UNL     1       1.496  -5.858  -0.088  1.00  0.00    -0.273 OA
ATOM      4  C   UNL     1       1.908  -6.260   0.994  1.00  0.00     0.243 C 
ATOM      5  H   UNL     1       2.880  -5.882   2.751  1.00  0.00     0.164 HD
BRANCH   4   6
ATOM      6  C   UNL     1       1.465  -7.612   1.610  1.00  0.00     0.171 C 
BRANCH   6   7
ATOM      7  N   UNL     1       0.032  -7.842   1.367  1.00  0.00    -0.344 N 
ATOM      8  C   UNL     1      -0.921  -7.128   2.060  1.00  0.00     0.226 C 
ATOM      9  O   UNL     1      -0.634  -6.296   2.913  1.00  0.00    -0.275 OA
ATOM     10  H   UNL     1      -0.245  -8.569   0.719  1.00  0.00     0.164 HD
BRANCH   8  11
ATOM     11  C   UNL     1      -2.352  -7.441   1.658  1.00  0.00     0.109 C 
ATOM     12  C   UNL     1      -2.449  -7.603   0.141  1.00  0.00     0.021 C 
BRANCH  11  13
ATOM     13  C   UNL     1      -2.871  -8.643   2.472  1.00  0.00     0.204 C 
BRANCH  13  14
ATOM     14  N   UNL     1      -2.366  -8.636   3.849  1.00  0.00    -0.340 N 
ATOM     15  C   UNL     1      -1.354  -9.467   4.279  1.00  0.00     0.243 C 
ATOM     16  O   UNL     1      -0.761 -10.232   3.520  1.00  0.00    -0.273 OA
ATOM     17  H   UNL     1      -2.911  -8.139   4.558  1.00  0.00     0.164 HD
BRANCH  15  18
ATOM     18  C   UNL     1      -1.133  -9.431   5.811  1.00  0.00     0.171 C 
BRANCH  18  19
ATOM     19  N   UNL     1      -1.652 -10.691   6.338  1.00  0.00    -0.343 N 
ATOM     20  C   UNL     1      -3.008 -10.943   6.421  1.00  0.00     0.242 CG0
ATOM     21  O   UNL     1      -3.840 -10.072   6.180  1.00  0.00    -0.273 OA
ATOM     22  H   UNL     1      -1.003 -11.401   6.660  1.00  0.00     0.164 HD
ATOM     23  G   UNL     1      -3.363 -12.356   6.929  1.00  0.00     0.000 G0
ENDBRANCH  18  19
BRANCH  18  24
ATOM     24  C   UNL     1       0.355  -9.255   6.139  1.00  0.00     0.038 C 
BRANCH  24  25
ATOM     25  C   UNL     1       0.862  -7.799   6.069  1.00  0.00    -0.015 C 
ATOM     26  C   UNL     1       1.870  -7.584   4.940  1.00  0.00     0.007 C 
ATOM     27  C   UNL     1       1.497  -7.410   7.407  1.00  0.00     0.007 C 
ENDBRANCH  24  25
ENDBRANCH  18  24
ENDBRANCH  15  18
ENDBRANCH  13  14
BRANCH  13  28
ATOM     28  C   UNL     1      -4.400  -8.704   2.551  1.00  0.00     0.327 C 
ATOM     29  O   UNL     1      -5.113  -8.038   3.285  1.00  0.00    -0.250 OA
BRANCH  28  30
ATOM     30  O   UNL     1      -4.930  -9.681   1.787  1.00  0.00    -0.480 OA
ATOM     31  H   UNL     1      -4.515  -9.552   0.909  1.00  0.00     0.296 HD
ENDBRANCH  28  30
ENDBRANCH  13  28
ENDBRANCH  11  13
ENDBRANCH   8  11
ENDBRANCH   6   7
BRANCH   6  32
ATOM     32  C   UNL     1       2.311  -8.740   1.008  1.00  0.00     0.037 C 
BRANCH  32  33
ATOM     33  C   UNL     1       2.385  -8.655  -0.523  1.00  0.00     0.026 C 
BRANCH  33  34
ATOM     34  C   UNL     1       1.889  -9.931  -1.204  1.00  0.00     0.146 C 
BRANCH  34  35
ATOM     35  N   UNL     1       0.725 -10.427  -0.483  1.00  0.00    -0.254 NA
ATOM     36  C   UNL     1      -0.381 -10.555  -1.116  1.00  0.00     0.185 C 
ATOM     37  N   UNL     1      -1.459 -11.017  -0.462  1.00  0.00    -0.370 N 
ATOM     38  N   UNL     1      -0.652 -10.287  -2.406  1.00  0.00    -0.370 N 
ATOM     39  H   UNL     1      -1.331 -11.252   0.514  1.00  0.00     0.159 HD
ATOM     40  H   UNL     1      -2.305 -11.307  -0.921  1.00  0.00     0.159 HD
ATOM     41  H   UNL     1      -1.598 -10.297  -2.752  1.00  0.00     0.159 HD
ATOM     42  H   UNL     1       0.062  -9.918  -3.014  1.00  0.00     0.159 HD
ENDBRANCH  34  35
ENDBRANCH  33  34
ENDBRANCH  32  33
ENDBRANCH   6  32
ENDBRANCH   4   6
ENDBRANCH   1   2
BRANCH   1  43
ATOM     43  C   UNL     1       4.779  -4.216   1.916  1.00  0.00     0.102 C 
ATOM     44  C   UNL     1       5.134  -3.052   2.856  1.00  0.00     0.020 C 
BRANCH  43  45
ATOM     45  C   UNL     1       5.719  -4.354   0.714  1.00  0.00     0.225 C 
ATOM     46  O   UNL     1       5.657  -5.286  -0.082  1.00  0.00    -0.275 OA
ATOM     47  N   UNL     1       6.713  -3.406   0.629  1.00  0.00    -0.342 N 
ATOM     48  H   UNL     1       6.659  -2.571   1.194  1.00  0.00     0.164 HD
BRANCH  47  49
ATOM     49  C   UNL     1       7.664  -3.392  -0.487  1.00  0.00     0.192 C 
BRANCH  49  50
ATOM     50  C   UNL     1       9.093  -3.479   0.053  1.00  0.00     0.047 C 
BRANCH  50  51
ATOM     51  C   UNL     1       9.833  -4.725  -0.452  1.00  0.00     0.103 C 
BRANCH  51  52
ATOM     52  C   UNL     1      10.167  -4.629  -1.940  1.00  0.00     0.226 C 
ATOM     53  O   UNL     1      10.692  -3.605  -2.382  1.00  0.00    -0.275 OA
BRANCH  52  54
ATOM     54  N   UNL     1       9.917  -5.777  -2.714  1.00  0.00    -0.311 N 
ATOM     55  C   UNL     1       8.547  -6.150  -3.091  1.00  0.00     0.153 C 
BRANCH  54  56
ATOM     56  C   UNL     1      10.962  -6.603  -3.158  1.00  0.00     0.102 C 
ATOM     57  C   UNL     1      11.433  -7.672  -2.494  1.00  0.00     0.043 C 
BRANCH  56  58
ATOM     58  C   UNL     1      11.627  -6.362  -4.493  1.00  0.00     0.268 C 
ATOM     59  O   UNL     1      12.309  -7.203  -5.063  1.00  0.00    -0.268 OA
ATOM     60  N   UNL     1      11.333  -5.130  -5.028  1.00  0.00    -0.339 N 
ATOM     61  H   UNL     1      10.768  -4.486  -4.487  1.00  0.00     0.164 HD
BRANCH  60  62
ATOM     62  C   UNL     1      11.822  -4.715  -6.342  1.00  0.00     0.168 CG0
ATOM     63  C   UNL     1      11.620  -3.220  -6.553  1.00  0.00     0.041 C 
ATOM     64  G   UNL     1      11.102  -5.524  -7.441  1.00  0.00     0.000 G0
ENDBRANCH  60  62
ENDBRANCH  56  58
ENDBRANCH  54  56
ENDBRANCH  52  54
ENDBRANCH  51  52
ENDBRANCH  50  51
ENDBRANCH  49  50
BRANCH  49  65
ATOM     65  C   UNL     1       7.518  -2.122  -1.340  1.00  0.00     0.326 C 
ATOM     66  O   UNL     1       8.311  -1.192  -1.370  1.00  0.00    -0.250 OA
BRANCH  65  67
ATOM     67  O   UNL     1       6.374  -2.051  -2.055  1.00  0.00    -0.480 OA
ATOM     68  H   UNL     1       5.909  -2.887  -1.832  1.00  0.00     0.296 HD
ENDBRANCH  65  67
ENDBRANCH  49  65
ENDBRANCH  47  49
ENDBRANCH  43  45
ENDBRANCH   1  43
BRANCH   1  69
ATOM     69  C   UNL     1       2.363  -3.136   1.994  1.00  0.00    -0.001 C 
ATOM     70  C   UNL     1       1.305  -2.589   1.371  1.00  0.00     0.001 C 
BRANCH  70  71
ATOM     71  C   UNL     1       0.404  -1.564   1.902  1.00  0.00    -0.055 C 
ATOM     72  C   UNL     1       0.961  -0.465   2.455  1.00  0.00    -0.018 C 
ATOM     73  C   UNL     1      -1.078  -1.803   1.787  1.00  0.00     0.044 C 
BRANCH  72  74
ATOM     74  C   UNL     1       0.284   0.748   3.077  1.00  0.00     0.038 C 
ATOM     75  C   UNL     1       0.613   1.954   2.189  1.00  0.00     0.015 C 
BRANCH  74  76
ATOM     76  C   UNL     1       0.752   0.879   4.556  1.00  0.00     0.128 C 
BRANCH  76  77
ATOM     77  O   UNL     1       0.476   2.204   5.042  1.00  0.00    -0.381 OA
ATOM     78  C   UNL     1      -0.817   2.345   5.615  1.00  0.00     0.195 C 
ENDBRANCH  76  77
BRANCH  76  79
ATOM     79  C   UNL     1       0.203  -0.228   5.491  1.00  0.00     0.068 C 
BRANCH  79  80
ATOM     80  C   UNL     1       0.934  -1.549   5.527  1.00  0.00    -0.045 A 
ATOM     81  C   UNL     1       0.252  -2.757   5.332  1.00  0.00     0.004 A 
ATOM     82  C   UNL     1       2.312  -1.587   5.787  1.00  0.00     0.004 A 
ATOM     83  C   UNL     1       0.933  -3.975   5.381  1.00  0.00     0.000 A 
ATOM     84  C   UNL     1       2.992  -2.806   5.837  1.00  0.00     0.000 A 
ATOM     85  C   UNL     1       2.303  -3.999   5.632  1.00  0.00     0.000 A 
ENDBRANCH  79  80
ENDBRANCH  76  79
ENDBRANCH  74  76
ENDBRANCH  72  74
ENDBRANCH  70  71
ENDBRANCH   1  69
TORSDOF 17
ENDMDL
MODEL 50
REMARK VINA RESULT:    -6.019      5.438     11.699
REMARK INTER + INTRA:         -25.899
REMARK INTER:                 -17.334
REMARK INTRA:                  -8.565
REMARK UNBOUND:                -7.916
REMARK SMILES C=C1C(=O)N[C@H](C)C(=O)N[C@@H](CC(C)C)C(=O)N[C@@H](C(=O)O)[C@H](C)C(=O)N[C@@H](CCCN=C(N)N)C(=O)N[C@@H](/C=C/C(C)=C/[C@H](C)[C@H](Cc2ccccc2)OC)[C@H](C)C(=O)N[C@@H](C(=O)O)CCC(=O)N1C
REMARK SMILES IDX 39 1 38 2 37 3 36 4 28 6 27 7 25 8 26 9 23 11 24 12 19 13
REMARK SMILES IDX 18 14 16 15 17 16 11 18 10 19 8 20 9 21 12 24 13 25 14 26
REMARK SMILES IDX 15 27 20 28 21 29 22 30 29 32 30 33 31 34 32 35 33 36 34 37
REMARK SMILES IDX 35 38 57 43 58 44 59 45 60 46 61 47 62 49 66 50 67 51 68 52
REMARK SMILES IDX 69 53 70 54 71 55 2 56 1 57 3 58 4 59 5 60 6 62 7 63 63 65
REMARK SMILES IDX 64 66 65 67 40 69 41 70 42 71 44 72 43 73 45 74 46 75 47 76
REMARK SMILES IDX 55 77 56 78 48 79 49 80 50 81 54 82 51 83 53 84 52 85
REMARK H PARENT 38 5 27 10 18 17 10 22 22 31 34 39 34 40 35 41 35 42 61 48
REMARK H PARENT 5 61 65 68
REMARK Flexibility Score:  369.900
ROOT
ATOM      1  C   UNL     1       3.377  -2.654   5.524  1.00  0.00     0.117 C 
ENDROOT
BRANCH   1   2
ATOM      2  N   UNL     1       3.367  -1.575   4.536  1.00  0.00    -0.347 N 
ATOM      3  O   UNL     1       4.496  -0.006   5.774  1.00  0.00    -0.273 OA
ATOM      4  C   UNL     1       4.010  -0.364   4.707  1.00  0.00     0.243 C 
ATOM      5  H   UNL     1       2.910  -1.721   3.649  1.00  0.00     0.164 HD
BRANCH   4   6
ATOM      6  C   UNL     1       3.916   0.571   3.474  1.00  0.00     0.171 C 
BRANCH   6   7
ATOM      7  N   UNL     1       3.587  -0.202   2.266  1.00  0.00    -0.344 N 
ATOM      8  C   UNL     1       4.585  -0.686   1.448  1.00  0.00     0.226 C 
ATOM      9  O   UNL     1       5.774  -0.482   1.665  1.00  0.00    -0.275 OA
ATOM     10  H   UNL     1       2.615  -0.334   2.017  1.00  0.00     0.164 HD
BRANCH   8  11
ATOM     11  C   UNL     1       4.087  -1.509   0.273  1.00  0.00     0.109 C 
ATOM     12  C   UNL     1       2.560  -1.571   0.284  1.00  0.00     0.021 C 
BRANCH  11  13
ATOM     13  C   UNL     1       4.705  -0.978  -1.036  1.00  0.00     0.204 C 
BRANCH  13  14
ATOM     14  N   UNL     1       5.085   0.434  -0.933  1.00  0.00    -0.340 N 
ATOM     15  C   UNL     1       4.591   1.406  -1.776  1.00  0.00     0.243 C 
ATOM     16  O   UNL     1       3.748   1.165  -2.638  1.00  0.00    -0.273 OA
ATOM     17  H   UNL     1       5.888   0.674  -0.345  1.00  0.00     0.164 HD
BRANCH  15  18
ATOM     18  C   UNL     1       5.289   2.778  -1.615  1.00  0.00     0.171 C 
BRANCH  18  19
ATOM     19  N   UNL     1       6.102   2.978  -2.813  1.00  0.00    -0.343 N 
ATOM     20  C   UNL     1       7.303   2.321  -2.998  1.00  0.00     0.242 CG0
ATOM     21  O   UNL     1       7.808   1.641  -2.107  1.00  0.00    -0.273 OA
ATOM     22  H   UNL     1       5.782   3.621  -3.529  1.00  0.00     0.164 HD
ATOM     23  G   UNL     1       7.978   2.598  -4.357  1.00  0.00     0.000 G0
ENDBRANCH  18  19
BRANCH  18  24
ATOM     24  C   UNL     1       4.253   3.896  -1.446  1.00  0.00     0.038 C 
BRANCH  24  25
ATOM     25  C   UNL     1       3.881   4.633  -2.750  1.00  0.00    -0.015 C 
ATOM     26  C   UNL     1       4.121   6.140  -2.660  1.00  0.00     0.007 C 
ATOM     27  C   UNL     1       2.413   4.365  -3.091  1.00  0.00     0.007 C 
ENDBRANCH  24  25
ENDBRANCH  18  24
ENDBRANCH  15  18
ENDBRANCH  13  14
BRANCH  13  28
ATOM     28  C   UNL     1       5.952  -1.753  -1.473  1.00  0.00     0.327 C 
ATOM     29  O   UNL     1       6.520  -1.661  -2.550  1.00  0.00    -0.250 OA
BRANCH  28  30
ATOM     30  O   UNL     1       6.338  -2.683  -0.575  1.00  0.00    -0.480 OA
ATOM     31  H   UNL     1       6.020  -2.335   0.284  1.00  0.00     0.296 HD
ENDBRANCH  28  30
ENDBRANCH  13  28
ENDBRANCH  11  13
ENDBRANCH   8  11
ENDBRANCH   6   7
BRANCH   6  32
ATOM     32  C   UNL     1       2.859   1.649   3.739  1.00  0.00     0.037 C 
BRANCH  32  33
ATOM     33  C   UNL     1       3.487   3.027   3.989  1.00  0.00     0.026 C 
BRANCH  33  34
ATOM     34  C   UNL     1       4.847   3.182   3.309  1.00  0.00     0.146 C 
BRANCH  34  35
ATOM     35  N   UNL     1       5.624   4.179   4.034  1.00  0.00    -0.254 NA
ATOM     36  C   UNL     1       5.745   5.350   3.529  1.00  0.00     0.185 C 
ATOM     37  N   UNL     1       6.454   6.277   4.191  1.00  0.00    -0.370 N 
ATOM     38  N   UNL     1       5.246   5.828   2.375  1.00  0.00    -0.370 N 
ATOM     39  H   UNL     1       6.854   5.996   5.077  1.00  0.00     0.159 HD
ATOM     40  H   UNL     1       6.451   7.254   3.953  1.00  0.00     0.159 HD
ATOM     41  H   UNL     1       5.528   6.727   2.019  1.00  0.00     0.159 HD
ATOM     42  H   UNL     1       4.704   5.235   1.766  1.00  0.00     0.159 HD
ENDBRANCH  34  35
ENDBRANCH  33  34
ENDBRANCH  32  33
ENDBRANCH   6  32
ENDBRANCH   4   6
ENDBRANCH   1   2
BRANCH   1  43
ATOM     43  C   UNL     1       3.769  -3.978   4.807  1.00  0.00     0.102 C 
ATOM     44  C   UNL     1       5.133  -3.911   4.100  1.00  0.00     0.020 C 
BRANCH  43  45
ATOM     45  C   UNL     1       2.629  -4.477   3.913  1.00  0.00     0.225 C 
ATOM     46  O   UNL     1       2.321  -3.937   2.854  1.00  0.00    -0.275 OA
ATOM     47  N   UNL     1       1.898  -5.528   4.417  1.00  0.00    -0.342 N 
ATOM     48  H   UNL     1       2.253  -6.053   5.204  1.00  0.00     0.164 HD
BRANCH  47  49
ATOM     49  C   UNL     1       0.800  -6.133   3.655  1.00  0.00     0.192 C 
BRANCH  49  50
ATOM     50  C   UNL     1      -0.364  -6.451   4.596  1.00  0.00     0.047 C 
BRANCH  50  51
ATOM     51  C   UNL     1      -1.648  -5.707   4.206  1.00  0.00     0.103 C 
BRANCH  51  52
ATOM     52  C   UNL     1      -2.554  -6.555   3.315  1.00  0.00     0.226 C 
ATOM     53  O   UNL     1      -2.398  -6.536   2.093  1.00  0.00    -0.275 OA
BRANCH  52  54
ATOM     54  N   UNL     1      -3.484  -7.382   3.973  1.00  0.00    -0.311 N 
ATOM     55  C   UNL     1      -4.159  -6.935   5.199  1.00  0.00     0.153 C 
BRANCH  54  56
ATOM     56  C   UNL     1      -3.806  -8.658   3.482  1.00  0.00     0.102 C 
ATOM     57  C   UNL     1      -4.843  -8.931   2.674  1.00  0.00     0.043 C 
BRANCH  56  58
ATOM     58  C   UNL     1      -2.942  -9.854   3.806  1.00  0.00     0.268 C 
ATOM     59  O   UNL     1      -1.788  -9.758   4.202  1.00  0.00    -0.268 OA
ATOM     60  N   UNL     1      -3.604 -11.050   3.675  1.00  0.00    -0.339 N 
ATOM     61  H   UNL     1      -4.557 -11.045   3.331  1.00  0.00     0.164 HD
BRANCH  60  62
ATOM     62  C   UNL     1      -2.974 -12.330   3.999  1.00  0.00     0.168 CG0
ATOM     63  C   UNL     1      -2.644 -13.113   2.735  1.00  0.00     0.041 C 
ATOM     64  G   UNL     1      -3.905 -13.146   4.919  1.00  0.00     0.000 G0
ENDBRANCH  60  62
ENDBRANCH  56  58
ENDBRANCH  54  56
ENDBRANCH  52  54
ENDBRANCH  51  52
ENDBRANCH  50  51
ENDBRANCH  49  50
BRANCH  49  65
ATOM     65  C   UNL     1       1.246  -7.419   2.943  1.00  0.00     0.326 C 
ATOM     66  O   UNL     1       2.015  -7.476   1.994  1.00  0.00    -0.250 OA
BRANCH  65  67
ATOM     67  O   UNL     1       0.670  -8.550   3.408  1.00  0.00    -0.480 OA
ATOM     68  H   UNL     1       1.408  -9.021   3.850  1.00  0.00     0.296 HD
ENDBRANCH  65  67
ENDBRANCH  49  65
ENDBRANCH  47  49
ENDBRANCH  43  45
ENDBRANCH   1  43
BRANCH   1  69
ATOM     69  C   UNL     1       2.046  -2.578   6.248  1.00  0.00    -0.001 C 
ATOM     70  C   UNL     1       1.710  -3.176   7.405  1.00  0.00     0.001 C 
BRANCH  70  71
ATOM     71  C   UNL     1       0.428  -3.078   8.106  1.00  0.00    -0.055 C 
ATOM     72  C   UNL     1      -0.698  -3.269   7.385  1.00  0.00    -0.018 C 
ATOM     73  C   UNL     1       0.455  -2.780   9.582  1.00  0.00     0.044 C 
BRANCH  72  74
ATOM     74  C   UNL     1      -2.150  -3.231   7.840  1.00  0.00     0.038 C 
ATOM     75  C   UNL     1      -2.695  -4.660   7.730  1.00  0.00     0.015 C 
BRANCH  74  76
ATOM     76  C   UNL     1      -2.914  -2.174   6.989  1.00  0.00     0.128 C 
BRANCH  76  77
ATOM     77  O   UNL     1      -4.018  -1.644   7.741  1.00  0.00    -0.381 OA
ATOM     78  C   UNL     1      -5.251  -1.661   7.034  1.00  0.00     0.195 C 
ENDBRANCH  76  77
BRANCH  76  79
ATOM     79  C   UNL     1      -2.005  -1.067   6.397  1.00  0.00     0.068 C 
BRANCH  79  80
ATOM     80  C   UNL     1      -1.558  -1.211   4.962  1.00  0.00    -0.045 A 
ATOM     81  C   UNL     1      -2.254  -2.036   4.069  1.00  0.00     0.004 A 
ATOM     82  C   UNL     1      -0.415  -0.537   4.507  1.00  0.00     0.004 A 
ATOM     83  C   UNL     1      -1.826  -2.175   2.747  1.00  0.00     0.000 A 
ATOM     84  C   UNL     1       0.012  -0.677   3.184  1.00  0.00     0.000 A 
ATOM     85  C   UNL     1      -0.694  -1.494   2.305  1.00  0.00     0.000 A 
ENDBRANCH  79  80
ENDBRANCH  76  79
ENDBRANCH  74  76
ENDBRANCH  72  74
ENDBRANCH  70  71
ENDBRANCH   1  69
TORSDOF 17
ENDMDL
