MODEL 1
REMARK VINA RESULT:    -6.461      0.000      0.000
REMARK INTER + INTRA:         -20.059
REMARK INTER:                 -16.092
REMARK INTRA:                  -3.967
REMARK UNBOUND:                -3.967
REMARK SMILES CCCCCCC[C@H](N)[C@H](O)C(=O)N[C@H](C)C(=O)N(C)[C@H](CC(C)C)C(=O)N[C@@H](Cc1ccc(O)cc1)C(=O)N[C@@H](Cc1ccc(O)cc1)C(=O)O
REMARK SMILES IDX 18 1 17 2 15 3 16 4 14 5 12 6 13 7 10 9 11 10 8 12 9 13 7 16
REMARK SMILES IDX 6 17 5 18 4 19 3 20 2 21 1 22 19 23 20 24 21 25 22 26 23 27
REMARK SMILES IDX 24 28 25 29 26 30 27 31 28 32 29 34 30 35 31 36 32 37 37 38
REMARK SMILES IDX 33 39 36 40 34 41 35 42 38 44 39 45 40 46 41 48 42 49 43 50
REMARK SMILES IDX 44 51 49 52 45 53 48 54 46 55 47 56 50 58 51 59 52 60
REMARK H PARENT 14 8 11 11 9 14 9 15 28 33 35 43 40 47 47 57 52 61
ROOT
ATOM      1  O   UNL     1       8.818   8.192   2.373  1.00  0.00    -0.272 OA
ATOM      2  C   UNL     1       9.402   9.264   2.156  1.00  0.00     0.245 C 
ENDROOT
BRANCH   2   3
ATOM      3  C   UNL     1       9.025  10.069   0.887  1.00  0.00     0.168 C 
ATOM      4  C   UNL     1       7.898  11.052   1.184  1.00  0.00     0.041 C 
BRANCH   3   5
ATOM      5  N   UNL     1      10.144  10.714   0.218  1.00  0.00    -0.342 N 
ATOM      6  C   UNL     1      10.305  10.656  -1.151  1.00  0.00     0.251 C 
ATOM      7  O   UNL     1       9.555  10.032  -1.894  1.00  0.00    -0.272 OA
ATOM      8  H   UNL     1      10.851  11.232   0.734  1.00  0.00     0.164 HD
BRANCH   6   9
ATOM      9  C   UNL     1      11.471  11.525  -1.649  1.00  0.00     0.219 C 
BRANCH   9  10
ATOM     10  O   UNL     1      12.055  12.316  -0.607  1.00  0.00    -0.382 OA
ATOM     11  H   UNL     1      13.021  12.228  -0.764  1.00  0.00     0.211 HD
ENDBRANCH   9  10
BRANCH   9  12
ATOM     12  C   UNL     1      12.559  10.712  -2.399  1.00  0.00     0.089 C 
BRANCH  12  13
ATOM     13  N   UNL     1      12.028  10.337  -3.730  1.00  0.00    -0.325 NA
ATOM     14  H   UNL     1      12.791  10.342  -4.409  1.00  0.00     0.119 HD
ATOM     15  H   UNL     1      11.384  11.066  -4.046  1.00  0.00     0.119 HD
ENDBRANCH  12  13
BRANCH  12  16
ATOM     16  C   UNL     1      13.936  11.402  -2.551  1.00  0.00     0.022 C 
BRANCH  16  17
ATOM     17  C   UNL     1      14.148  12.403  -3.695  1.00  0.00     0.002 C 
BRANCH  17  18
ATOM     18  C   UNL     1      13.920  13.866  -3.320  1.00  0.00     0.000 C 
BRANCH  18  19
ATOM     19  C   UNL     1      12.828  14.559  -4.145  1.00  0.00    -0.000 C 
BRANCH  19  20
ATOM     20  C   UNL     1      11.757  13.627  -4.720  1.00  0.00    -0.000 C 
BRANCH  20  21
ATOM     21  C   UNL     1      11.690  13.661  -6.249  1.00  0.00    -0.003 C 
ATOM     22  C   UNL     1      11.062  12.392  -6.805  1.00  0.00     0.004 C 
ENDBRANCH  20  21
ENDBRANCH  19  20
ENDBRANCH  18  19
ENDBRANCH  17  18
ENDBRANCH  16  17
ENDBRANCH  12  16
ENDBRANCH   9  12
ENDBRANCH   6   9
ENDBRANCH   3   5
ENDBRANCH   2   3
BRANCH   2  23
ATOM     23  N   UNL     1      10.282   9.781   3.100  1.00  0.00    -0.332 N 
ATOM     24  C   UNL     1      11.683   9.403   3.218  1.00  0.00     0.147 C 
BRANCH  23  25
ATOM     25  C   UNL     1       9.855  10.887   4.000  1.00  0.00     0.174 C 
BRANCH  25  26
ATOM     26  C   UNL     1      11.046  11.640   4.637  1.00  0.00     0.038 C 
BRANCH  26  27
ATOM     27  C   UNL     1      11.065  13.177   4.485  1.00  0.00    -0.015 C 
ATOM     28  C   UNL     1      11.033  13.621   3.022  1.00  0.00     0.007 C 
ATOM     29  C   UNL     1       9.970  13.880   5.283  1.00  0.00     0.007 C 
ENDBRANCH  26  27
ENDBRANCH  25  26
BRANCH  25  30
ATOM     30  C   UNL     1       8.825  10.368   5.030  1.00  0.00     0.243 C 
ATOM     31  O   UNL     1       9.136   9.574   5.916  1.00  0.00    -0.273 OA
ATOM     32  N   UNL     1       7.548  10.846   4.885  1.00  0.00    -0.342 N 
ATOM     33  H   UNL     1       7.401  11.608   4.217  1.00  0.00     0.164 HD
BRANCH  32  34
ATOM     34  C   UNL     1       6.438  10.443   5.752  1.00  0.00     0.175 C 
BRANCH  34  35
ATOM     35  C   UNL     1       5.697  11.666   6.316  1.00  0.00     0.070 C 
BRANCH  35  36
ATOM     36  C   UNL     1       5.125  11.418   7.694  1.00  0.00    -0.045 A 
ATOM     37  C   UNL     1       5.914  10.810   8.682  1.00  0.00     0.007 A 
ATOM     38  C   UNL     1       3.803  11.768   7.996  1.00  0.00     0.007 A 
ATOM     39  C   UNL     1       5.390  10.566   9.952  1.00  0.00     0.046 A 
ATOM     40  C   UNL     1       3.277  11.522   9.267  1.00  0.00     0.046 A 
ATOM     41  C   UNL     1       4.077  10.924  10.235  1.00  0.00     0.115 A 
BRANCH  41  42
ATOM     42  O   UNL     1       3.603  10.664  11.487  1.00  0.00    -0.508 OA
ATOM     43  H   UNL     1       3.942  11.348  12.088  1.00  0.00     0.293 HD
ENDBRANCH  41  42
ENDBRANCH  35  36
ENDBRANCH  34  35
BRANCH  34  44
ATOM     44  C   UNL     1       5.501   9.526   4.935  1.00  0.00     0.243 C 
ATOM     45  O   UNL     1       4.591   9.929   4.216  1.00  0.00    -0.273 OA
ATOM     46  N   UNL     1       5.691   8.184   5.185  1.00  0.00    -0.341 N 
ATOM     47  H   UNL     1       6.380   7.903   5.878  1.00  0.00     0.164 HD
BRANCH  46  48
ATOM     48  C   UNL     1       4.876   7.128   4.580  1.00  0.00     0.196 C 
BRANCH  48  49
ATOM     49  C   UNL     1       3.431   7.167   5.103  1.00  0.00     0.072 C 
BRANCH  49  50
ATOM     50  C   UNL     1       3.351   7.001   6.604  1.00  0.00    -0.045 A 
ATOM     51  C   UNL     1       3.018   8.099   7.411  1.00  0.00     0.007 A 
ATOM     52  C   UNL     1       3.625   5.768   7.209  1.00  0.00     0.007 A 
ATOM     53  C   UNL     1       2.955   7.962   8.798  1.00  0.00     0.046 A 
ATOM     54  C   UNL     1       3.563   5.631   8.598  1.00  0.00     0.046 A 
ATOM     55  C   UNL     1       3.226   6.730   9.381  1.00  0.00     0.115 A 
BRANCH  55  56
ATOM     56  O   UNL     1       3.155   6.639  10.739  1.00  0.00    -0.508 OA
ATOM     57  H   UNL     1       2.343   7.080  11.033  1.00  0.00     0.293 HD
ENDBRANCH  55  56
ENDBRANCH  49  50
ENDBRANCH  48  49
BRANCH  48  58
ATOM     58  C   UNL     1       4.877   7.309   3.055  1.00  0.00     0.326 C 
ATOM     59  O   UNL     1       5.788   7.063   2.282  1.00  0.00    -0.250 OA
BRANCH  58  60
ATOM     60  O   UNL     1       3.704   7.785   2.566  1.00  0.00    -0.480 OA
ATOM     61  H   UNL     1       3.583   8.629   3.053  1.00  0.00     0.296 HD
ENDBRANCH  58  60
ENDBRANCH  48  58
ENDBRANCH  46  48
ENDBRANCH  34  44
ENDBRANCH  32  34
ENDBRANCH  25  30
ENDBRANCH  23  25
ENDBRANCH   2  23
TORSDOF 28
ENDMDL
MODEL 2
REMARK VINA RESULT:    -6.459      2.955      5.776
REMARK INTER + INTRA:         -20.054
REMARK INTER:                 -14.863
REMARK INTRA:                  -5.190
REMARK UNBOUND:                -3.967
REMARK SMILES CCCCCCC[C@H](N)[C@H](O)C(=O)N[C@H](C)C(=O)N(C)[C@H](CC(C)C)C(=O)N[C@@H](Cc1ccc(O)cc1)C(=O)N[C@@H](Cc1ccc(O)cc1)C(=O)O
REMARK SMILES IDX 18 1 17 2 15 3 16 4 14 5 12 6 13 7 10 9 11 10 8 12 9 13 7 16
REMARK SMILES IDX 6 17 5 18 4 19 3 20 2 21 1 22 19 23 20 24 21 25 22 26 23 27
REMARK SMILES IDX 24 28 25 29 26 30 27 31 28 32 29 34 30 35 31 36 32 37 37 38
REMARK SMILES IDX 33 39 36 40 34 41 35 42 38 44 39 45 40 46 41 48 42 49 43 50
REMARK SMILES IDX 44 51 49 52 45 53 48 54 46 55 47 56 50 58 51 59 52 60
REMARK H PARENT 14 8 11 11 9 14 9 15 28 33 35 43 40 47 47 57 52 61
ROOT
ATOM      1  O   UNL     1       8.403   9.623  -2.046  1.00  0.00    -0.272 OA
ATOM      2  C   UNL     1       9.241  10.421  -1.599  1.00  0.00     0.245 C 
ENDROOT
BRANCH   2   3
ATOM      3  C   UNL     1       9.926  11.404  -2.582  1.00  0.00     0.168 C 
ATOM      4  C   UNL     1       9.994  12.806  -1.987  1.00  0.00     0.041 C 
BRANCH   3   5
ATOM      5  N   UNL     1      11.219  10.964  -3.083  1.00  0.00    -0.342 N 
ATOM      6  C   UNL     1      11.557  11.069  -4.416  1.00  0.00     0.251 C 
ATOM      7  O   UNL     1      10.793  11.494  -5.276  1.00  0.00    -0.272 OA
ATOM      8  H   UNL     1      11.923  10.562  -2.469  1.00  0.00     0.164 HD
BRANCH   6   9
ATOM      9  C   UNL     1      13.018  10.679  -4.691  1.00  0.00     0.219 C 
BRANCH   9  10
ATOM     10  O   UNL     1      13.379  10.825  -6.070  1.00  0.00    -0.382 OA
ATOM     11  H   UNL     1      13.437   9.899  -6.393  1.00  0.00     0.211 HD
ENDBRANCH   9  10
BRANCH   9  12
ATOM     12  C   UNL     1      14.029  11.418  -3.776  1.00  0.00     0.089 C 
BRANCH  12  13
ATOM     13  N   UNL     1      15.293  10.647  -3.758  1.00  0.00    -0.325 NA
ATOM     14  H   UNL     1      15.719  10.722  -2.832  1.00  0.00     0.119 HD
ATOM     15  H   UNL     1      15.960  11.090  -4.394  1.00  0.00     0.119 HD
ENDBRANCH  12  13
BRANCH  12  16
ATOM     16  C   UNL     1      14.312  12.896  -4.135  1.00  0.00     0.022 C 
BRANCH  16  17
ATOM     17  C   UNL     1      13.611  14.006  -3.339  1.00  0.00     0.002 C 
BRANCH  17  18
ATOM     18  C   UNL     1      14.217  14.297  -1.968  1.00  0.00     0.000 C 
BRANCH  18  19
ATOM     19  C   UNL     1      13.362  13.811  -0.791  1.00  0.00    -0.000 C 
BRANCH  19  20
ATOM     20  C   UNL     1      14.014  13.949   0.588  1.00  0.00    -0.000 C 
BRANCH  20  21
ATOM     21  C   UNL     1      13.023  14.350   1.683  1.00  0.00    -0.003 C 
ATOM     22  C   UNL     1      11.591  14.040   1.276  1.00  0.00     0.004 C 
ENDBRANCH  20  21
ENDBRANCH  19  20
ENDBRANCH  18  19
ENDBRANCH  17  18
ENDBRANCH  16  17
ENDBRANCH  12  16
ENDBRANCH   9  12
ENDBRANCH   6   9
ENDBRANCH   3   5
ENDBRANCH   2   3
BRANCH   2  23
ATOM     23  N   UNL     1       9.459  10.505  -0.228  1.00  0.00    -0.332 N 
ATOM     24  C   UNL     1      10.772  10.504   0.400  1.00  0.00     0.147 C 
BRANCH  23  25
ATOM     25  C   UNL     1       8.320  10.738   0.701  1.00  0.00     0.174 C 
BRANCH  25  26
ATOM     26  C   UNL     1       8.351  12.141   1.352  1.00  0.00     0.038 C 
BRANCH  26  27
ATOM     27  C   UNL     1       7.274  13.150   0.893  1.00  0.00    -0.015 C 
ATOM     28  C   UNL     1       7.779  14.592   0.914  1.00  0.00     0.007 C 
ATOM     29  C   UNL     1       6.666  12.813  -0.466  1.00  0.00     0.007 C 
ENDBRANCH  26  27
ENDBRANCH  25  26
BRANCH  25  30
ATOM     30  C   UNL     1       8.221   9.581   1.721  1.00  0.00     0.243 C 
ATOM     31  O   UNL     1       7.989   8.425   1.372  1.00  0.00    -0.273 OA
ATOM     32  N   UNL     1       8.401   9.932   3.035  1.00  0.00    -0.342 N 
ATOM     33  H   UNL     1       8.728  10.881   3.231  1.00  0.00     0.164 HD
BRANCH  32  34
ATOM     34  C   UNL     1       8.315   8.973   4.139  1.00  0.00     0.175 C 
BRANCH  34  35
ATOM     35  C   UNL     1       9.358   9.277   5.226  1.00  0.00     0.070 C 
BRANCH  35  36
ATOM     36  C   UNL     1      10.649   9.824   4.660  1.00  0.00    -0.045 A 
ATOM     37  C   UNL     1      10.975  11.177   4.837  1.00  0.00     0.007 A 
ATOM     38  C   UNL     1      11.523   9.001   3.937  1.00  0.00     0.007 A 
ATOM     39  C   UNL     1      12.157  11.694   4.307  1.00  0.00     0.046 A 
ATOM     40  C   UNL     1      12.706   9.518   3.404  1.00  0.00     0.046 A 
ATOM     41  C   UNL     1      13.013  10.861   3.596  1.00  0.00     0.115 A 
BRANCH  41  42
ATOM     42  O   UNL     1      14.157  11.407   3.092  1.00  0.00    -0.508 OA
ATOM     43  H   UNL     1      14.136  12.364   3.256  1.00  0.00     0.293 HD
ENDBRANCH  41  42
ENDBRANCH  35  36
ENDBRANCH  34  35
BRANCH  34  44
ATOM     44  C   UNL     1       6.874   9.011   4.696  1.00  0.00     0.243 C 
ATOM     45  O   UNL     1       6.532   9.639   5.694  1.00  0.00    -0.273 OA
ATOM     46  N   UNL     1       6.009   8.161   4.040  1.00  0.00    -0.341 N 
ATOM     47  H   UNL     1       6.368   7.573   3.291  1.00  0.00     0.164 HD
BRANCH  46  48
ATOM     48  C   UNL     1       4.610   7.976   4.430  1.00  0.00     0.196 C 
BRANCH  48  49
ATOM     49  C   UNL     1       3.653   8.370   3.292  1.00  0.00     0.072 C 
BRANCH  49  50
ATOM     50  C   UNL     1       3.735   9.840   2.947  1.00  0.00    -0.045 A 
ATOM     51  C   UNL     1       3.704  10.800   3.968  1.00  0.00     0.007 A 
ATOM     52  C   UNL     1       3.821  10.263   1.615  1.00  0.00     0.007 A 
ATOM     53  C   UNL     1       3.765  12.160   3.661  1.00  0.00     0.046 A 
ATOM     54  C   UNL     1       3.881  11.624   1.307  1.00  0.00     0.046 A 
ATOM     55  C   UNL     1       3.853  12.561   2.334  1.00  0.00     0.115 A 
BRANCH  55  56
ATOM     56  O   UNL     1       3.909  13.899   2.076  1.00  0.00    -0.508 OA
ATOM     57  H   UNL     1       3.599  14.049   1.168  1.00  0.00     0.293 HD
ENDBRANCH  55  56
ENDBRANCH  49  50
ENDBRANCH  48  49
BRANCH  48  58
ATOM     58  C   UNL     1       4.387   6.503   4.804  1.00  0.00     0.326 C 
ATOM     59  O   UNL     1       3.348   5.986   5.182  1.00  0.00    -0.250 OA
BRANCH  58  60
ATOM     60  O   UNL     1       5.497   5.736   4.666  1.00  0.00    -0.480 OA
ATOM     61  H   UNL     1       6.154   6.356   4.282  1.00  0.00     0.296 HD
ENDBRANCH  58  60
ENDBRANCH  48  58
ENDBRANCH  46  48
ENDBRANCH  34  44
ENDBRANCH  32  34
ENDBRANCH  25  30
ENDBRANCH  23  25
ENDBRANCH   2  23
TORSDOF 28
ENDMDL
MODEL 3
REMARK VINA RESULT:    -6.404      2.615      9.181
REMARK INTER + INTRA:         -19.919
REMARK INTER:                 -13.839
REMARK INTRA:                  -6.079
REMARK UNBOUND:                -3.967
REMARK SMILES CCCCCCC[C@H](N)[C@H](O)C(=O)N[C@H](C)C(=O)N(C)[C@H](CC(C)C)C(=O)N[C@@H](Cc1ccc(O)cc1)C(=O)N[C@@H](Cc1ccc(O)cc1)C(=O)O
REMARK SMILES IDX 18 1 17 2 15 3 16 4 14 5 12 6 13 7 10 9 11 10 8 12 9 13 7 16
REMARK SMILES IDX 6 17 5 18 4 19 3 20 2 21 1 22 19 23 20 24 21 25 22 26 23 27
REMARK SMILES IDX 24 28 25 29 26 30 27 31 28 32 29 34 30 35 31 36 32 37 37 38
REMARK SMILES IDX 33 39 36 40 34 41 35 42 38 44 39 45 40 46 41 48 42 49 43 50
REMARK SMILES IDX 44 51 49 52 45 53 48 54 46 55 47 56 50 58 51 59 52 60
REMARK H PARENT 14 8 11 11 9 14 9 15 28 33 35 43 40 47 47 57 52 61
ROOT
ATOM      1  O   UNL     1      10.015  10.869   5.014  1.00  0.00    -0.272 OA
ATOM      2  C   UNL     1      10.646  10.236   4.155  1.00  0.00     0.245 C 
ENDROOT
BRANCH   2   3
ATOM      3  C   UNL     1      10.237   8.770   3.866  1.00  0.00     0.168 C 
ATOM      4  C   UNL     1      10.962   7.811   4.804  1.00  0.00     0.041 C 
BRANCH   3   5
ATOM      5  N   UNL     1       8.803   8.528   3.845  1.00  0.00    -0.342 N 
ATOM      6  C   UNL     1       8.065   8.631   2.685  1.00  0.00     0.251 C 
ATOM      7  O   UNL     1       8.542   8.969   1.607  1.00  0.00    -0.272 OA
ATOM      8  H   UNL     1       8.290   8.274   4.685  1.00  0.00     0.164 HD
BRANCH   6   9
ATOM      9  C   UNL     1       6.603   8.193   2.870  1.00  0.00     0.219 C 
BRANCH   9  10
ATOM     10  O   UNL     1       6.342   6.893   2.327  1.00  0.00    -0.382 OA
ATOM     11  H   UNL     1       6.708   6.282   3.004  1.00  0.00     0.211 HD
ENDBRANCH   9  10
BRANCH   9  12
ATOM     12  C   UNL     1       6.122   8.282   4.342  1.00  0.00     0.089 C 
BRANCH  12  13
ATOM     13  N   UNL     1       6.447   9.631   4.859  1.00  0.00    -0.325 NA
ATOM     14  H   UNL     1       5.838   9.843   5.652  1.00  0.00     0.119 HD
ATOM     15  H   UNL     1       6.209  10.325   4.146  1.00  0.00     0.119 HD
ENDBRANCH  12  13
BRANCH  12  16
ATOM     16  C   UNL     1       4.628   7.964   4.588  1.00  0.00     0.022 C 
BRANCH  16  17
ATOM     17  C   UNL     1       4.230   6.555   5.047  1.00  0.00     0.002 C 
BRANCH  17  18
ATOM     18  C   UNL     1       3.171   6.510   6.146  1.00  0.00     0.000 C 
BRANCH  18  19
ATOM     19  C   UNL     1       2.942   7.856   6.848  1.00  0.00    -0.000 C 
BRANCH  19  20
ATOM     20  C   UNL     1       1.624   7.971   7.620  1.00  0.00    -0.000 C 
BRANCH  20  21
ATOM     21  C   UNL     1       1.308   6.727   8.455  1.00  0.00    -0.003 C 
ATOM     22  C   UNL     1       1.872   6.846   9.862  1.00  0.00     0.004 C 
ENDBRANCH  20  21
ENDBRANCH  19  20
ENDBRANCH  18  19
ENDBRANCH  17  18
ENDBRANCH  16  17
ENDBRANCH  12  16
ENDBRANCH   9  12
ENDBRANCH   6   9
ENDBRANCH   3   5
ENDBRANCH   2   3
BRANCH   2  23
ATOM     23  N   UNL     1      11.614  10.877   3.389  1.00  0.00    -0.332 N 
ATOM     24  C   UNL     1      12.941  11.234   3.867  1.00  0.00     0.147 C 
BRANCH  23  25
ATOM     25  C   UNL     1      11.379  11.132   1.942  1.00  0.00     0.174 C 
BRANCH  25  26
ATOM     26  C   UNL     1      12.671  11.508   1.179  1.00  0.00     0.038 C 
BRANCH  26  27
ATOM     27  C   UNL     1      12.514  11.927  -0.300  1.00  0.00    -0.015 C 
ATOM     28  C   UNL     1      12.924  13.379  -0.542  1.00  0.00     0.007 C 
ATOM     29  C   UNL     1      13.232  10.997  -1.274  1.00  0.00     0.007 C 
ENDBRANCH  26  27
ENDBRANCH  25  26
BRANCH  25  30
ATOM     30  C   UNL     1      10.231  12.152   1.760  1.00  0.00     0.243 C 
ATOM     31  O   UNL     1      10.326  13.314   2.152  1.00  0.00    -0.273 OA
ATOM     32  N   UNL     1       9.105  11.673   1.142  1.00  0.00    -0.342 N 
ATOM     33  H   UNL     1       9.155  10.742   0.720  1.00  0.00     0.164 HD
BRANCH  32  34
ATOM     34  C   UNL     1       7.910  12.489   0.910  1.00  0.00     0.175 C 
BRANCH  34  35
ATOM     35  C   UNL     1       7.390  12.323  -0.526  1.00  0.00     0.070 C 
BRANCH  35  36
ATOM     36  C   UNL     1       8.489  12.413  -1.561  1.00  0.00    -0.045 A 
ATOM     37  C   UNL     1       8.942  11.252  -2.206  1.00  0.00     0.007 A 
ATOM     38  C   UNL     1       9.085  13.642  -1.872  1.00  0.00     0.007 A 
ATOM     39  C   UNL     1       9.966  11.323  -3.151  1.00  0.00     0.046 A 
ATOM     40  C   UNL     1      10.110  13.714  -2.818  1.00  0.00     0.046 A 
ATOM     41  C   UNL     1      10.541  12.552  -3.450  1.00  0.00     0.115 A 
BRANCH  41  42
ATOM     42  O   UNL     1      11.540  12.578  -4.378  1.00  0.00    -0.508 OA
ATOM     43  H   UNL     1      11.433  13.378  -4.919  1.00  0.00     0.293 HD
ENDBRANCH  41  42
ENDBRANCH  35  36
ENDBRANCH  34  35
BRANCH  34  44
ATOM     44  C   UNL     1       6.847  12.090   1.958  1.00  0.00     0.243 C 
ATOM     45  O   UNL     1       7.067  11.977   3.161  1.00  0.00    -0.273 OA
ATOM     46  N   UNL     1       5.634  11.739   1.404  1.00  0.00    -0.341 N 
ATOM     47  H   UNL     1       5.536  11.737   0.392  1.00  0.00     0.164 HD
BRANCH  46  48
ATOM     48  C   UNL     1       4.496  11.261   2.193  1.00  0.00     0.196 C 
BRANCH  48  49
ATOM     49  C   UNL     1       3.544  12.413   2.556  1.00  0.00     0.072 C 
BRANCH  49  50
ATOM     50  C   UNL     1       3.219  12.457   4.032  1.00  0.00    -0.045 A 
ATOM     51  C   UNL     1       2.357  13.445   4.529  1.00  0.00     0.007 A 
ATOM     52  C   UNL     1       3.784  11.534   4.921  1.00  0.00     0.007 A 
ATOM     53  C   UNL     1       2.060  13.503   5.890  1.00  0.00     0.046 A 
ATOM     54  C   UNL     1       3.488  11.593   6.285  1.00  0.00     0.046 A 
ATOM     55  C   UNL     1       2.627  12.577   6.758  1.00  0.00     0.115 A 
BRANCH  55  56
ATOM     56  O   UNL     1       2.313  12.669   8.082  1.00  0.00    -0.508 OA
ATOM     57  H   UNL     1       3.058  12.324   8.598  1.00  0.00     0.293 HD
ENDBRANCH  55  56
ENDBRANCH  49  50
ENDBRANCH  48  49
BRANCH  48  58
ATOM     58  C   UNL     1       3.737  10.201   1.383  1.00  0.00     0.326 C 
ATOM     59  O   UNL     1       3.248   9.163   1.799  1.00  0.00    -0.250 OA
BRANCH  58  60
ATOM     60  O   UNL     1       3.614  10.511   0.067  1.00  0.00    -0.480 OA
ATOM     61  H   UNL     1       2.762  10.093  -0.185  1.00  0.00     0.296 HD
ENDBRANCH  58  60
ENDBRANCH  48  58
ENDBRANCH  46  48
ENDBRANCH  34  44
ENDBRANCH  32  34
ENDBRANCH  25  30
ENDBRANCH  23  25
ENDBRANCH   2  23
TORSDOF 28
ENDMDL
MODEL 4
REMARK VINA RESULT:    -6.384      2.783     11.322
REMARK INTER + INTRA:         -19.868
REMARK INTER:                 -15.223
REMARK INTRA:                  -4.644
REMARK UNBOUND:                -3.967
REMARK SMILES CCCCCCC[C@H](N)[C@H](O)C(=O)N[C@H](C)C(=O)N(C)[C@H](CC(C)C)C(=O)N[C@@H](Cc1ccc(O)cc1)C(=O)N[C@@H](Cc1ccc(O)cc1)C(=O)O
REMARK SMILES IDX 18 1 17 2 15 3 16 4 14 5 12 6 13 7 10 9 11 10 8 12 9 13 7 16
REMARK SMILES IDX 6 17 5 18 4 19 3 20 2 21 1 22 19 23 20 24 21 25 22 26 23 27
REMARK SMILES IDX 24 28 25 29 26 30 27 31 28 32 29 34 30 35 31 36 32 37 37 38
REMARK SMILES IDX 33 39 36 40 34 41 35 42 38 44 39 45 40 46 41 48 42 49 43 50
REMARK SMILES IDX 44 51 49 52 45 53 48 54 46 55 47 56 50 58 51 59 52 60
REMARK H PARENT 14 8 11 11 9 14 9 15 28 33 35 43 40 47 47 57 52 61
ROOT
ATOM      1  O   UNL     1       6.037  13.571   0.841  1.00  0.00    -0.272 OA
ATOM      2  C   UNL     1       6.515  12.461   1.119  1.00  0.00     0.245 C 
ENDROOT
BRANCH   2   3
ATOM      3  C   UNL     1       5.694  11.193   0.774  1.00  0.00     0.168 C 
ATOM      4  C   UNL     1       5.706  10.933  -0.728  1.00  0.00     0.041 C 
BRANCH   3   5
ATOM      5  N   UNL     1       6.056  10.006   1.533  1.00  0.00    -0.342 N 
ATOM      6  C   UNL     1       5.112   9.251   2.197  1.00  0.00     0.251 C 
ATOM      7  O   UNL     1       3.920   9.539   2.234  1.00  0.00    -0.272 OA
ATOM      8  H   UNL     1       7.019   9.688   1.603  1.00  0.00     0.164 HD
BRANCH   6   9
ATOM      9  C   UNL     1       5.699   7.969   2.809  1.00  0.00     0.219 C 
BRANCH   9  10
ATOM     10  O   UNL     1       6.883   7.526   2.133  1.00  0.00    -0.382 OA
ATOM     11  H   UNL     1       7.195   6.775   2.684  1.00  0.00     0.211 HD
ENDBRANCH   9  10
BRANCH   9  12
ATOM     12  C   UNL     1       5.946   8.081   4.336  1.00  0.00     0.089 C 
BRANCH  12  13
ATOM     13  N   UNL     1       6.772   9.283   4.589  1.00  0.00    -0.325 NA
ATOM     14  H   UNL     1       6.187  10.117   4.507  1.00  0.00     0.119 HD
ATOM     15  H   UNL     1       7.466   9.371   3.843  1.00  0.00     0.119 HD
ENDBRANCH  12  13
BRANCH  12  16
ATOM     16  C   UNL     1       4.681   8.108   5.227  1.00  0.00     0.022 C 
BRANCH  16  17
ATOM     17  C   UNL     1       3.675   6.953   5.131  1.00  0.00     0.002 C 
BRANCH  17  18
ATOM     18  C   UNL     1       3.588   6.070   6.374  1.00  0.00     0.000 C 
BRANCH  18  19
ATOM     19  C   UNL     1       2.704   6.646   7.489  1.00  0.00    -0.000 C 
BRANCH  19  20
ATOM     20  C   UNL     1       3.374   6.747   8.862  1.00  0.00    -0.000 C 
BRANCH  20  21
ATOM     21  C   UNL     1       3.197   8.120   9.516  1.00  0.00    -0.003 C 
ATOM     22  C   UNL     1       3.204   9.233   8.480  1.00  0.00     0.004 C 
ENDBRANCH  20  21
ENDBRANCH  19  20
ENDBRANCH  18  19
ENDBRANCH  17  18
ENDBRANCH  16  17
ENDBRANCH  12  16
ENDBRANCH   9  12
ENDBRANCH   6   9
ENDBRANCH   3   5
ENDBRANCH   2   3
BRANCH   2  23
ATOM     23  N   UNL     1       7.810  12.366   1.616  1.00  0.00    -0.332 N 
ATOM     24  C   UNL     1       8.147  12.245   3.027  1.00  0.00     0.147 C 
BRANCH  23  25
ATOM     25  C   UNL     1       8.965  12.254   0.684  1.00  0.00     0.174 C 
BRANCH  25  26
ATOM     26  C   UNL     1       9.317  10.788   0.335  1.00  0.00     0.038 C 
BRANCH  26  27
ATOM     27  C   UNL     1       9.803  10.508  -1.105  1.00  0.00    -0.015 C 
ATOM     28  C   UNL     1       9.192  11.469  -2.125  1.00  0.00     0.007 C 
ATOM     29  C   UNL     1      11.323  10.479  -1.238  1.00  0.00     0.007 C 
ENDBRANCH  26  27
ENDBRANCH  25  26
BRANCH  25  30
ATOM     30  C   UNL     1      10.164  13.069   1.221  1.00  0.00     0.243 C 
ATOM     31  O   UNL     1      10.165  14.299   1.221  1.00  0.00    -0.273 OA
ATOM     32  N   UNL     1      11.222  12.332   1.687  1.00  0.00    -0.342 N 
ATOM     33  H   UNL     1      11.089  11.322   1.784  1.00  0.00     0.164 HD
BRANCH  32  34
ATOM     34  C   UNL     1      12.452  12.936   2.207  1.00  0.00     0.175 C 
BRANCH  34  35
ATOM     35  C   UNL     1      12.994  12.150   3.411  1.00  0.00     0.070 C 
BRANCH  35  36
ATOM     36  C   UNL     1      12.096  11.001   3.811  1.00  0.00    -0.045 A 
ATOM     37  C   UNL     1      11.108  11.190   4.789  1.00  0.00     0.007 A 
ATOM     38  C   UNL     1      12.251   9.733   3.235  1.00  0.00     0.007 A 
ATOM     39  C   UNL     1      10.284  10.132   5.175  1.00  0.00     0.046 A 
ATOM     40  C   UNL     1      11.428   8.673   3.621  1.00  0.00     0.046 A 
ATOM     41  C   UNL     1      10.450   8.883   4.588  1.00  0.00     0.115 A 
BRANCH  41  42
ATOM     42  O   UNL     1       9.627   7.875   4.995  1.00  0.00    -0.508 OA
ATOM     43  H   UNL     1       9.299   7.412   4.206  1.00  0.00     0.293 HD
ENDBRANCH  41  42
ENDBRANCH  35  36
ENDBRANCH  34  35
BRANCH  34  44
ATOM     44  C   UNL     1      13.477  13.002   1.053  1.00  0.00     0.243 C 
ATOM     45  O   UNL     1      14.581  12.465   1.073  1.00  0.00    -0.273 OA
ATOM     46  N   UNL     1      13.095  13.841   0.027  1.00  0.00    -0.341 N 
ATOM     47  H   UNL     1      12.222  14.356   0.110  1.00  0.00     0.164 HD
BRANCH  46  48
ATOM     48  C   UNL     1      13.933  14.117  -1.142  1.00  0.00     0.196 C 
BRANCH  48  49
ATOM     49  C   UNL     1      13.089  14.220  -2.424  1.00  0.00     0.072 C 
BRANCH  49  50
ATOM     50  C   UNL     1      13.295  13.045  -3.352  1.00  0.00    -0.045 A 
ATOM     51  C   UNL     1      12.228  12.575  -4.132  1.00  0.00     0.007 A 
ATOM     52  C   UNL     1      14.534  12.398  -3.432  1.00  0.00     0.007 A 
ATOM     53  C   UNL     1      12.403  11.483  -4.983  1.00  0.00     0.046 A 
ATOM     54  C   UNL     1      14.709  11.304  -4.282  1.00  0.00     0.046 A 
ATOM     55  C   UNL     1      13.640  10.856  -5.052  1.00  0.00     0.115 A 
BRANCH  55  56
ATOM     56  O   UNL     1      13.769   9.791  -5.893  1.00  0.00    -0.508 OA
ATOM     57  H   UNL     1      13.856   8.987  -5.358  1.00  0.00     0.293 HD
ENDBRANCH  55  56
ENDBRANCH  49  50
ENDBRANCH  48  49
BRANCH  48  58
ATOM     58  C   UNL     1      14.688  15.435  -0.916  1.00  0.00     0.326 C 
ATOM     59  O   UNL     1      15.880  15.639  -1.071  1.00  0.00    -0.250 OA
BRANCH  58  60
ATOM     60  O   UNL     1      13.888  16.454  -0.510  1.00  0.00    -0.480 OA
ATOM     61  H   UNL     1      13.280  16.023   0.129  1.00  0.00     0.296 HD
ENDBRANCH  58  60
ENDBRANCH  48  58
ENDBRANCH  46  48
ENDBRANCH  34  44
ENDBRANCH  32  34
ENDBRANCH  25  30
ENDBRANCH  23  25
ENDBRANCH   2  23
TORSDOF 28
ENDMDL
MODEL 5
REMARK VINA RESULT:    -6.374      2.530      6.797
REMARK INTER + INTRA:         -19.842
REMARK INTER:                 -14.193
REMARK INTRA:                  -5.650
REMARK UNBOUND:                -3.967
REMARK SMILES CCCCCCC[C@H](N)[C@H](O)C(=O)N[C@H](C)C(=O)N(C)[C@H](CC(C)C)C(=O)N[C@@H](Cc1ccc(O)cc1)C(=O)N[C@@H](Cc1ccc(O)cc1)C(=O)O
REMARK SMILES IDX 18 1 17 2 15 3 16 4 14 5 12 6 13 7 10 9 11 10 8 12 9 13 7 16
REMARK SMILES IDX 6 17 5 18 4 19 3 20 2 21 1 22 19 23 20 24 21 25 22 26 23 27
REMARK SMILES IDX 24 28 25 29 26 30 27 31 28 32 29 34 30 35 31 36 32 37 37 38
REMARK SMILES IDX 33 39 36 40 34 41 35 42 38 44 39 45 40 46 41 48 42 49 43 50
REMARK SMILES IDX 44 51 49 52 45 53 48 54 46 55 47 56 50 58 51 59 52 60
REMARK H PARENT 14 8 11 11 9 14 9 15 28 33 35 43 40 47 47 57 52 61
ROOT
ATOM      1  O   UNL     1       9.181  11.895   5.464  1.00  0.00    -0.272 OA
ATOM      2  C   UNL     1       8.908  13.104   5.499  1.00  0.00     0.245 C 
ENDROOT
BRANCH   2   3
ATOM      3  C   UNL     1      10.071  14.126   5.524  1.00  0.00     0.168 C 
ATOM      4  C   UNL     1      10.087  14.897   6.839  1.00  0.00     0.041 C 
BRANCH   3   5
ATOM      5  N   UNL     1      11.378  13.573   5.204  1.00  0.00    -0.342 N 
ATOM      6  C   UNL     1      11.926  13.682   3.943  1.00  0.00     0.251 C 
ATOM      7  O   UNL     1      11.348  14.207   2.998  1.00  0.00    -0.272 OA
ATOM      8  H   UNL     1      11.937  13.083   5.898  1.00  0.00     0.164 HD
BRANCH   6   9
ATOM      9  C   UNL     1      13.367  13.153   3.874  1.00  0.00     0.219 C 
BRANCH   9  10
ATOM     10  O   UNL     1      14.111  13.419   5.069  1.00  0.00    -0.382 OA
ATOM     11  H   UNL     1      14.581  14.257   4.867  1.00  0.00     0.211 HD
ENDBRANCH   9  10
BRANCH   9  12
ATOM     12  C   UNL     1      13.447  11.650   3.499  1.00  0.00     0.089 C 
BRANCH  12  13
ATOM     13  N   UNL     1      12.537  10.896   4.391  1.00  0.00    -0.325 NA
ATOM     14  H   UNL     1      12.717  11.167   5.360  1.00  0.00     0.119 HD
ATOM     15  H   UNL     1      12.774   9.902   4.343  1.00  0.00     0.119 HD
ENDBRANCH  12  13
BRANCH  12  16
ATOM     16  C   UNL     1      13.149  11.303   2.020  1.00  0.00     0.022 C 
BRANCH  16  17
ATOM     17  C   UNL     1      13.799  12.142   0.911  1.00  0.00     0.002 C 
BRANCH  17  18
ATOM     18  C   UNL     1      13.015  12.196  -0.399  1.00  0.00     0.000 C 
BRANCH  18  19
ATOM     19  C   UNL     1      13.479  11.175  -1.446  1.00  0.00    -0.000 C 
BRANCH  19  20
ATOM     20  C   UNL     1      13.347  11.632  -2.902  1.00  0.00    -0.000 C 
BRANCH  20  21
ATOM     21  C   UNL     1      14.699  11.873  -3.579  1.00  0.00    -0.003 C 
ATOM     22  C   UNL     1      14.916  10.915  -4.740  1.00  0.00     0.004 C 
ENDBRANCH  20  21
ENDBRANCH  19  20
ENDBRANCH  18  19
ENDBRANCH  17  18
ENDBRANCH  16  17
ENDBRANCH  12  16
ENDBRANCH   9  12
ENDBRANCH   6   9
ENDBRANCH   3   5
ENDBRANCH   2   3
BRANCH   2  23
ATOM     23  N   UNL     1       7.585  13.521   5.395  1.00  0.00    -0.332 N 
ATOM     24  C   UNL     1       7.052  14.309   4.293  1.00  0.00     0.147 C 
BRANCH  23  25
ATOM     25  C   UNL     1       6.571  13.060   6.383  1.00  0.00     0.174 C 
BRANCH  25  26
ATOM     26  C   UNL     1       6.832  13.599   7.809  1.00  0.00     0.038 C 
BRANCH  26  27
ATOM     27  C   UNL     1       5.593  13.956   8.660  1.00  0.00    -0.015 C 
ATOM     28  C   UNL     1       4.336  14.142   7.812  1.00  0.00     0.007 C 
ATOM     29  C   UNL     1       5.333  12.971   9.797  1.00  0.00     0.007 C 
ENDBRANCH  26  27
ENDBRANCH  25  26
BRANCH  25  30
ATOM     30  C   UNL     1       6.425  11.523   6.317  1.00  0.00     0.243 C 
ATOM     31  O   UNL     1       6.583  10.811   7.307  1.00  0.00    -0.273 OA
ATOM     32  N   UNL     1       6.114  11.009   5.084  1.00  0.00    -0.342 N 
ATOM     33  H   UNL     1       5.859  11.671   4.346  1.00  0.00     0.164 HD
BRANCH  32  34
ATOM     34  C   UNL     1       5.963   9.574   4.828  1.00  0.00     0.175 C 
BRANCH  34  35
ATOM     35  C   UNL     1       4.492   9.202   4.582  1.00  0.00     0.070 C 
BRANCH  35  36
ATOM     36  C   UNL     1       3.915   8.340   5.681  1.00  0.00    -0.045 A 
ATOM     37  C   UNL     1       3.764   6.959   5.484  1.00  0.00     0.007 A 
ATOM     38  C   UNL     1       3.504   8.905   6.896  1.00  0.00     0.007 A 
ATOM     39  C   UNL     1       3.219   6.158   6.488  1.00  0.00     0.046 A 
ATOM     40  C   UNL     1       2.957   8.103   7.901  1.00  0.00     0.046 A 
ATOM     41  C   UNL     1       2.821   6.735   7.688  1.00  0.00     0.115 A 
BRANCH  41  42
ATOM     42  O   UNL     1       2.291   5.918   8.642  1.00  0.00    -0.508 OA
ATOM     43  H   UNL     1       2.996   5.681   9.267  1.00  0.00     0.293 HD
ENDBRANCH  41  42
ENDBRANCH  35  36
ENDBRANCH  34  35
BRANCH  34  44
ATOM     44  C   UNL     1       6.861   9.205   3.626  1.00  0.00     0.243 C 
ATOM     45  O   UNL     1       6.648   8.267   2.863  1.00  0.00    -0.273 OA
ATOM     46  N   UNL     1       8.017   9.953   3.555  1.00  0.00    -0.341 N 
ATOM     47  H   UNL     1       8.205  10.642   4.279  1.00  0.00     0.164 HD
BRANCH  46  48
ATOM     48  C   UNL     1       9.054   9.740   2.542  1.00  0.00     0.196 C 
BRANCH  48  49
ATOM     49  C   UNL     1       9.702  11.068   2.117  1.00  0.00     0.072 C 
BRANCH  49  50
ATOM     50  C   UNL     1       9.608  11.310   0.627  1.00  0.00    -0.045 A 
ATOM     51  C   UNL     1       9.818  10.252  -0.268  1.00  0.00     0.007 A 
ATOM     52  C   UNL     1       9.332  12.587   0.121  1.00  0.00     0.007 A 
ATOM     53  C   UNL     1       9.746  10.466  -1.645  1.00  0.00     0.046 A 
ATOM     54  C   UNL     1       9.261  12.802  -1.257  1.00  0.00     0.046 A 
ATOM     55  C   UNL     1       9.468  11.739  -2.129  1.00  0.00     0.115 A 
BRANCH  55  56
ATOM     56  O   UNL     1       9.409  11.907  -3.481  1.00  0.00    -0.508 OA
ATOM     57  H   UNL     1      10.313  11.887  -3.831  1.00  0.00     0.293 HD
ENDBRANCH  55  56
ENDBRANCH  49  50
ENDBRANCH  48  49
BRANCH  48  58
ATOM     58  C   UNL     1      10.126   8.803   3.116  1.00  0.00     0.326 C 
ATOM     59  O   UNL     1      10.523   8.752   4.269  1.00  0.00    -0.250 OA
BRANCH  58  60
ATOM     60  O   UNL     1      10.647   7.950   2.198  1.00  0.00    -0.480 OA
ATOM     61  H   UNL     1      11.341   8.488   1.759  1.00  0.00     0.296 HD
ENDBRANCH  58  60
ENDBRANCH  48  58
ENDBRANCH  46  48
ENDBRANCH  34  44
ENDBRANCH  32  34
ENDBRANCH  25  30
ENDBRANCH  23  25
ENDBRANCH   2  23
TORSDOF 28
ENDMDL
MODEL 6
REMARK VINA RESULT:    -6.373      2.738     11.682
REMARK INTER + INTRA:         -19.842
REMARK INTER:                 -15.480
REMARK INTRA:                  -4.362
REMARK UNBOUND:                -3.967
REMARK SMILES CCCCCCC[C@H](N)[C@H](O)C(=O)N[C@H](C)C(=O)N(C)[C@H](CC(C)C)C(=O)N[C@@H](Cc1ccc(O)cc1)C(=O)N[C@@H](Cc1ccc(O)cc1)C(=O)O
REMARK SMILES IDX 18 1 17 2 15 3 16 4 14 5 12 6 13 7 10 9 11 10 8 12 9 13 7 16
REMARK SMILES IDX 6 17 5 18 4 19 3 20 2 21 1 22 19 23 20 24 21 25 22 26 23 27
REMARK SMILES IDX 24 28 25 29 26 30 27 31 28 32 29 34 30 35 31 36 32 37 37 38
REMARK SMILES IDX 33 39 36 40 34 41 35 42 38 44 39 45 40 46 41 48 42 49 43 50
REMARK SMILES IDX 44 51 49 52 45 53 48 54 46 55 47 56 50 58 51 59 52 60
REMARK H PARENT 14 8 11 11 9 14 9 15 28 33 35 43 40 47 47 57 52 61
ROOT
ATOM      1  O   UNL     1      11.467   9.729   1.396  1.00  0.00    -0.272 OA
ATOM      2  C   UNL     1      11.003   9.852   2.539  1.00  0.00     0.245 C 
ENDROOT
BRANCH   2   3
ATOM      3  C   UNL     1      10.267   8.645   3.173  1.00  0.00     0.168 C 
ATOM      4  C   UNL     1      11.075   8.062   4.327  1.00  0.00     0.041 C 
BRANCH   3   5
ATOM      5  N   UNL     1       8.887   8.903   3.554  1.00  0.00    -0.342 N 
ATOM      6  C   UNL     1       7.837   8.665   2.691  1.00  0.00     0.251 C 
ATOM      7  O   UNL     1       7.984   8.265   1.541  1.00  0.00    -0.272 OA
ATOM      8  H   UNL     1       8.643   9.269   4.471  1.00  0.00     0.164 HD
BRANCH   6   9
ATOM      9  C   UNL     1       6.466   8.873   3.353  1.00  0.00     0.219 C 
BRANCH   9  10
ATOM     10  O   UNL     1       6.102  10.255   3.450  1.00  0.00    -0.382 OA
ATOM     11  H   UNL     1       6.317  10.614   2.561  1.00  0.00     0.211 HD
ENDBRANCH   9  10
BRANCH   9  12
ATOM     12  C   UNL     1       5.334   8.052   2.680  1.00  0.00     0.089 C 
BRANCH  12  13
ATOM     13  N   UNL     1       5.820   6.669   2.474  1.00  0.00    -0.325 NA
ATOM     14  H   UNL     1       5.080   6.114   2.039  1.00  0.00     0.119 HD
ATOM     15  H   UNL     1       5.978   6.234   3.386  1.00  0.00     0.119 HD
ENDBRANCH  12  13
BRANCH  12  16
ATOM     16  C   UNL     1       3.976   8.034   3.422  1.00  0.00     0.022 C 
BRANCH  16  17
ATOM     17  C   UNL     1       3.925   7.539   4.874  1.00  0.00     0.002 C 
BRANCH  17  18
ATOM     18  C   UNL     1       3.655   8.623   5.915  1.00  0.00     0.000 C 
BRANCH  18  19
ATOM     19  C   UNL     1       2.758   8.167   7.073  1.00  0.00    -0.000 C 
BRANCH  19  20
ATOM     20  C   UNL     1       3.444   7.280   8.117  1.00  0.00    -0.000 C 
BRANCH  20  21
ATOM     21  C   UNL     1       2.547   6.147   8.623  1.00  0.00    -0.003 C 
ATOM     22  C   UNL     1       1.436   6.676   9.516  1.00  0.00     0.004 C 
ENDBRANCH  20  21
ENDBRANCH  19  20
ENDBRANCH  18  19
ENDBRANCH  17  18
ENDBRANCH  16  17
ENDBRANCH  12  16
ENDBRANCH   9  12
ENDBRANCH   6   9
ENDBRANCH   3   5
ENDBRANCH   2   3
BRANCH   2  23
ATOM     23  N   UNL     1      11.253  11.007   3.272  1.00  0.00    -0.332 N 
ATOM     24  C   UNL     1      12.496  11.287   3.974  1.00  0.00     0.147 C 
BRANCH  23  25
ATOM     25  C   UNL     1      10.268  12.124   3.272  1.00  0.00     0.174 C 
BRANCH  25  26
ATOM     26  C   UNL     1       9.430  12.186   4.571  1.00  0.00     0.038 C 
BRANCH  26  27
ATOM     27  C   UNL     1       9.357  13.551   5.292  1.00  0.00    -0.015 C 
ATOM     28  C   UNL     1       8.244  13.600   6.338  1.00  0.00     0.007 C 
ATOM     29  C   UNL     1      10.687  13.988   5.901  1.00  0.00     0.007 C 
ENDBRANCH  26  27
ENDBRANCH  25  26
BRANCH  25  30
ATOM     30  C   UNL     1       9.415  12.081   1.984  1.00  0.00     0.243 C 
ATOM     31  O   UNL     1       8.211  11.833   2.009  1.00  0.00    -0.273 OA
ATOM     32  N   UNL     1      10.090  12.332   0.817  1.00  0.00    -0.342 N 
ATOM     33  H   UNL     1      11.054  12.669   0.890  1.00  0.00     0.164 HD
BRANCH  32  34
ATOM     34  C   UNL     1       9.450  12.308  -0.501  1.00  0.00     0.175 C 
BRANCH  34  35
ATOM     35  C   UNL     1       9.115  13.726  -0.986  1.00  0.00     0.070 C 
BRANCH  35  36
ATOM     36  C   UNL     1       8.297  13.732  -2.258  1.00  0.00    -0.045 A 
ATOM     37  C   UNL     1       8.799  14.349  -3.413  1.00  0.00     0.007 A 
ATOM     38  C   UNL     1       7.024  13.146  -2.296  1.00  0.00     0.007 A 
ATOM     39  C   UNL     1       8.046  14.371  -4.587  1.00  0.00     0.046 A 
ATOM     40  C   UNL     1       6.269  13.169  -3.471  1.00  0.00     0.046 A 
ATOM     41  C   UNL     1       6.788  13.781  -4.607  1.00  0.00     0.115 A 
BRANCH  41  42
ATOM     42  O   UNL     1       6.082  13.827  -5.773  1.00  0.00    -0.508 OA
ATOM     43  H   UNL     1       5.623  14.682  -5.818  1.00  0.00     0.293 HD
ENDBRANCH  41  42
ENDBRANCH  35  36
ENDBRANCH  34  35
BRANCH  34  44
ATOM     44  C   UNL     1      10.393  11.571  -1.478  1.00  0.00     0.243 C 
ATOM     45  O   UNL     1      10.201  10.436  -1.906  1.00  0.00    -0.273 OA
ATOM     46  N   UNL     1      11.562  12.257  -1.735  1.00  0.00    -0.341 N 
ATOM     47  H   UNL     1      11.728  13.143  -1.264  1.00  0.00     0.164 HD
BRANCH  46  48
ATOM     48  C   UNL     1      12.638  11.729  -2.577  1.00  0.00     0.196 C 
BRANCH  48  49
ATOM     49  C   UNL     1      13.222  12.821  -3.489  1.00  0.00     0.072 C 
BRANCH  49  50
ATOM     50  C   UNL     1      12.429  12.998  -4.765  1.00  0.00    -0.045 A 
ATOM     51  C   UNL     1      12.145  11.887  -5.571  1.00  0.00     0.007 A 
ATOM     52  C   UNL     1      11.988  14.265  -5.169  1.00  0.00     0.007 A 
ATOM     53  C   UNL     1      11.426  12.040  -6.757  1.00  0.00     0.046 A 
ATOM     54  C   UNL     1      11.269  14.419  -6.357  1.00  0.00     0.046 A 
ATOM     55  C   UNL     1      10.993  13.304  -7.140  1.00  0.00     0.115 A 
BRANCH  55  56
ATOM     56  O   UNL     1      10.295  13.411  -8.307  1.00  0.00    -0.508 OA
ATOM     57  H   UNL     1       9.355  13.514  -8.092  1.00  0.00     0.293 HD
ENDBRANCH  55  56
ENDBRANCH  49  50
ENDBRANCH  48  49
BRANCH  48  58
ATOM     58  C   UNL     1      13.745  11.165  -1.676  1.00  0.00     0.326 C 
ATOM     59  O   UNL     1      13.854  11.297  -0.468  1.00  0.00    -0.250 OA
BRANCH  58  60
ATOM     60  O   UNL     1      14.670  10.435  -2.348  1.00  0.00    -0.480 OA
ATOM     61  H   UNL     1      14.976   9.785  -1.679  1.00  0.00     0.296 HD
ENDBRANCH  58  60
ENDBRANCH  48  58
ENDBRANCH  46  48
ENDBRANCH  34  44
ENDBRANCH  32  34
ENDBRANCH  25  30
ENDBRANCH  23  25
ENDBRANCH   2  23
TORSDOF 28
ENDMDL
MODEL 7
REMARK VINA RESULT:    -6.361      1.489      2.928
REMARK INTER + INTRA:         -19.809
REMARK INTER:                 -15.653
REMARK INTRA:                  -4.156
REMARK UNBOUND:                -3.967
REMARK SMILES CCCCCCC[C@H](N)[C@H](O)C(=O)N[C@H](C)C(=O)N(C)[C@H](CC(C)C)C(=O)N[C@@H](Cc1ccc(O)cc1)C(=O)N[C@@H](Cc1ccc(O)cc1)C(=O)O
REMARK SMILES IDX 18 1 17 2 15 3 16 4 14 5 12 6 13 7 10 9 11 10 8 12 9 13 7 16
REMARK SMILES IDX 6 17 5 18 4 19 3 20 2 21 1 22 19 23 20 24 21 25 22 26 23 27
REMARK SMILES IDX 24 28 25 29 26 30 27 31 28 32 29 34 30 35 31 36 32 37 37 38
REMARK SMILES IDX 33 39 36 40 34 41 35 42 38 44 39 45 40 46 41 48 42 49 43 50
REMARK SMILES IDX 44 51 49 52 45 53 48 54 46 55 47 56 50 58 51 59 52 60
REMARK H PARENT 14 8 11 11 9 14 9 15 28 33 35 43 40 47 47 57 52 61
ROOT
ATOM      1  O   UNL     1      11.428  11.720   5.054  1.00  0.00    -0.272 OA
ATOM      2  C   UNL     1      10.974  11.521   3.918  1.00  0.00     0.245 C 
ENDROOT
BRANCH   2   3
ATOM      3  C   UNL     1      11.758  10.590   2.959  1.00  0.00     0.168 C 
ATOM      4  C   UNL     1      11.778   9.161   3.489  1.00  0.00     0.041 C 
BRANCH   3   5
ATOM      5  N   UNL     1      11.333  10.647   1.569  1.00  0.00    -0.342 N 
ATOM      6  C   UNL     1      11.857  11.565   0.684  1.00  0.00     0.251 C 
ATOM      7  O   UNL     1      12.677  12.419   1.003  1.00  0.00    -0.272 OA
ATOM      8  H   UNL     1      10.631  10.011   1.197  1.00  0.00     0.164 HD
BRANCH   6   9
ATOM      9  C   UNL     1      11.368  11.348  -0.757  1.00  0.00     0.219 C 
BRANCH   9  10
ATOM     10  O   UNL     1      11.199   9.962  -1.080  1.00  0.00    -0.382 OA
ATOM     11  H   UNL     1      10.304   9.927  -1.485  1.00  0.00     0.211 HD
ENDBRANCH   9  10
BRANCH   9  12
ATOM     12  C   UNL     1      10.086  12.153  -1.093  1.00  0.00     0.089 C 
BRANCH  12  13
ATOM     13  N   UNL     1       9.998  13.302  -0.164  1.00  0.00    -0.325 NA
ATOM     14  H   UNL     1       9.017  13.562  -0.043  1.00  0.00     0.119 HD
ATOM     15  H   UNL     1      10.438  14.115  -0.600  1.00  0.00     0.119 HD
ENDBRANCH  12  13
BRANCH  12  16
ATOM     16  C   UNL     1       9.956  12.641  -2.556  1.00  0.00     0.022 C 
BRANCH  16  17
ATOM     17  C   UNL     1      11.187  12.593  -3.472  1.00  0.00     0.002 C 
BRANCH  17  18
ATOM     18  C   UNL     1      11.199  11.443  -4.476  1.00  0.00     0.000 C 
BRANCH  18  19
ATOM     19  C   UNL     1      12.602  10.915  -4.805  1.00  0.00    -0.000 C 
BRANCH  19  20
ATOM     20  C   UNL     1      13.758  11.759  -4.262  1.00  0.00    -0.000 C 
BRANCH  20  21
ATOM     21  C   UNL     1      15.122  11.082  -4.423  1.00  0.00    -0.003 C 
ATOM     22  C   UNL     1      15.237  10.381  -5.767  1.00  0.00     0.004 C 
ENDBRANCH  20  21
ENDBRANCH  19  20
ENDBRANCH  18  19
ENDBRANCH  17  18
ENDBRANCH  16  17
ENDBRANCH  12  16
ENDBRANCH   9  12
ENDBRANCH   6   9
ENDBRANCH   3   5
ENDBRANCH   2   3
BRANCH   2  23
ATOM     23  N   UNL     1       9.727  12.029   3.568  1.00  0.00    -0.332 N 
ATOM     24  C   UNL     1       9.389  13.444   3.545  1.00  0.00     0.147 C 
BRANCH  23  25
ATOM     25  C   UNL     1       8.664  11.122   3.056  1.00  0.00     0.174 C 
BRANCH  25  26
ATOM     26  C   UNL     1       7.725  11.810   2.038  1.00  0.00     0.038 C 
BRANCH  26  27
ATOM     27  C   UNL     1       7.078  10.909   0.962  1.00  0.00    -0.015 C 
ATOM     28  C   UNL     1       7.952   9.708   0.603  1.00  0.00     0.007 C 
ATOM     29  C   UNL     1       5.664  10.458   1.317  1.00  0.00     0.007 C 
ENDBRANCH  26  27
ENDBRANCH  25  26
BRANCH  25  30
ATOM     30  C   UNL     1       7.920  10.455   4.235  1.00  0.00     0.243 C 
ATOM     31  O   UNL     1       8.306   9.399   4.734  1.00  0.00    -0.273 OA
ATOM     32  N   UNL     1       6.803  11.114   4.681  1.00  0.00    -0.342 N 
ATOM     33  H   UNL     1       6.628  12.052   4.312  1.00  0.00     0.164 HD
BRANCH  32  34
ATOM     34  C   UNL     1       5.959  10.616   5.771  1.00  0.00     0.175 C 
BRANCH  34  35
ATOM     35  C   UNL     1       5.210  11.762   6.466  1.00  0.00     0.070 C 
BRANCH  35  36
ATOM     36  C   UNL     1       4.874  11.452   7.908  1.00  0.00    -0.045 A 
ATOM     37  C   UNL     1       5.869  10.972   8.772  1.00  0.00     0.007 A 
ATOM     38  C   UNL     1       3.570  11.615   8.393  1.00  0.00     0.007 A 
ATOM     39  C   UNL     1       5.566  10.670  10.100  1.00  0.00     0.046 A 
ATOM     40  C   UNL     1       3.265  11.311   9.722  1.00  0.00     0.046 A 
ATOM     41  C   UNL     1       4.267  10.842  10.564  1.00  0.00     0.115 A 
BRANCH  41  42
ATOM     42  O   UNL     1       4.012  10.532  11.868  1.00  0.00    -0.508 OA
ATOM     43  H   UNL     1       3.167  10.943  12.118  1.00  0.00     0.293 HD
ENDBRANCH  41  42
ENDBRANCH  35  36
ENDBRANCH  34  35
BRANCH  34  44
ATOM     44  C   UNL     1       4.990   9.565   5.184  1.00  0.00     0.243 C 
ATOM     45  O   UNL     1       3.842   9.805   4.822  1.00  0.00    -0.273 OA
ATOM     46  N   UNL     1       5.488   8.279   5.219  1.00  0.00    -0.341 N 
ATOM     47  H   UNL     1       6.401   8.114   5.637  1.00  0.00     0.164 HD
BRANCH  46  48
ATOM     48  C   UNL     1       4.726   7.108   4.781  1.00  0.00     0.196 C 
BRANCH  48  49
ATOM     49  C   UNL     1       3.305   7.112   5.369  1.00  0.00     0.072 C 
BRANCH  49  50
ATOM     50  C   UNL     1       3.294   6.905   6.867  1.00  0.00    -0.045 A 
ATOM     51  C   UNL     1       3.604   5.646   7.400  1.00  0.00     0.007 A 
ATOM     52  C   UNL     1       2.957   7.950   7.737  1.00  0.00     0.007 A 
ATOM     53  C   UNL     1       3.584   5.439   8.780  1.00  0.00     0.046 A 
ATOM     54  C   UNL     1       2.936   7.743   9.118  1.00  0.00     0.046 A 
ATOM     55  C   UNL     1       3.251   6.488   9.628  1.00  0.00     0.115 A 
BRANCH  55  56
ATOM     56  O   UNL     1       3.242   6.244  10.969  1.00  0.00    -0.508 OA
ATOM     57  H   UNL     1       3.079   5.298  11.107  1.00  0.00     0.293 HD
ENDBRANCH  55  56
ENDBRANCH  49  50
ENDBRANCH  48  49
BRANCH  48  58
ATOM     58  C   UNL     1       4.649   7.107   3.248  1.00  0.00     0.326 C 
ATOM     59  O   UNL     1       5.437   6.596   2.469  1.00  0.00    -0.250 OA
BRANCH  58  60
ATOM     60  O   UNL     1       3.557   7.748   2.761  1.00  0.00    -0.480 OA
ATOM     61  H   UNL     1       3.934   8.554   2.346  1.00  0.00     0.296 HD
ENDBRANCH  58  60
ENDBRANCH  48  58
ENDBRANCH  46  48
ENDBRANCH  34  44
ENDBRANCH  32  34
ENDBRANCH  25  30
ENDBRANCH  23  25
ENDBRANCH   2  23
TORSDOF 28
ENDMDL
MODEL 8
REMARK VINA RESULT:    -6.354      2.739      6.740
REMARK INTER + INTRA:         -19.792
REMARK INTER:                 -14.924
REMARK INTRA:                  -4.868
REMARK UNBOUND:                -3.967
REMARK SMILES CCCCCCC[C@H](N)[C@H](O)C(=O)N[C@H](C)C(=O)N(C)[C@H](CC(C)C)C(=O)N[C@@H](Cc1ccc(O)cc1)C(=O)N[C@@H](Cc1ccc(O)cc1)C(=O)O
REMARK SMILES IDX 18 1 17 2 15 3 16 4 14 5 12 6 13 7 10 9 11 10 8 12 9 13 7 16
REMARK SMILES IDX 6 17 5 18 4 19 3 20 2 21 1 22 19 23 20 24 21 25 22 26 23 27
REMARK SMILES IDX 24 28 25 29 26 30 27 31 28 32 29 34 30 35 31 36 32 37 37 38
REMARK SMILES IDX 33 39 36 40 34 41 35 42 38 44 39 45 40 46 41 48 42 49 43 50
REMARK SMILES IDX 44 51 49 52 45 53 48 54 46 55 47 56 50 58 51 59 52 60
REMARK H PARENT 14 8 11 11 9 14 9 15 28 33 35 43 40 47 47 57 52 61
ROOT
ATOM      1  O   UNL     1       5.647   7.441   2.200  1.00  0.00    -0.272 OA
ATOM      2  C   UNL     1       5.930   8.476   2.821  1.00  0.00     0.245 C 
ENDROOT
BRANCH   2   3
ATOM      3  C   UNL     1       7.257   9.202   2.486  1.00  0.00     0.168 C 
ATOM      4  C   UNL     1       6.985  10.532   1.791  1.00  0.00     0.041 C 
BRANCH   3   5
ATOM      5  N   UNL     1       8.171   9.353   3.607  1.00  0.00    -0.342 N 
ATOM      6  C   UNL     1       9.422   8.773   3.610  1.00  0.00     0.251 C 
ATOM      7  O   UNL     1       9.839   8.062   2.702  1.00  0.00    -0.272 OA
ATOM      8  H   UNL     1       7.922   9.893   4.433  1.00  0.00     0.164 HD
BRANCH   6   9
ATOM      9  C   UNL     1      10.265   9.184   4.828  1.00  0.00     0.219 C 
BRANCH   9  10
ATOM     10  O   UNL     1      10.770   8.057   5.555  1.00  0.00    -0.382 OA
ATOM     11  H   UNL     1      10.670   7.311   4.924  1.00  0.00     0.211 HD
ENDBRANCH   9  10
BRANCH   9  12
ATOM     12  C   UNL     1      11.410  10.168   4.473  1.00  0.00     0.089 C 
BRANCH  12  13
ATOM     13  N   UNL     1      12.435   9.432   3.699  1.00  0.00    -0.325 NA
ATOM     14  H   UNL     1      13.327   9.927   3.767  1.00  0.00     0.119 HD
ATOM     15  H   UNL     1      12.188   9.464   2.707  1.00  0.00     0.119 HD
ENDBRANCH  12  13
BRANCH  12  16
ATOM     16  C   UNL     1      10.990  11.450   3.715  1.00  0.00     0.022 C 
BRANCH  16  17
ATOM     17  C   UNL     1      11.516  11.683   2.292  1.00  0.00     0.002 C 
BRANCH  17  18
ATOM     18  C   UNL     1      10.547  11.300   1.176  1.00  0.00     0.000 C 
BRANCH  18  19
ATOM     19  C   UNL     1      11.099  10.251   0.201  1.00  0.00    -0.000 C 
BRANCH  19  20
ATOM     20  C   UNL     1      11.304  10.742  -1.235  1.00  0.00    -0.000 C 
BRANCH  20  21
ATOM     21  C   UNL     1      12.756  10.624  -1.707  1.00  0.00    -0.003 C 
ATOM     22  C   UNL     1      13.601  11.781  -1.196  1.00  0.00     0.004 C 
ENDBRANCH  20  21
ENDBRANCH  19  20
ENDBRANCH  18  19
ENDBRANCH  17  18
ENDBRANCH  16  17
ENDBRANCH  12  16
ENDBRANCH   9  12
ENDBRANCH   6   9
ENDBRANCH   3   5
ENDBRANCH   2   3
BRANCH   2  23
ATOM     23  N   UNL     1       5.011   9.028   3.708  1.00  0.00    -0.332 N 
ATOM     24  C   UNL     1       4.033  10.046   3.355  1.00  0.00     0.147 C 
BRANCH  23  25
ATOM     25  C   UNL     1       4.890   8.496   5.093  1.00  0.00     0.174 C 
BRANCH  25  26
ATOM     26  C   UNL     1       3.454   8.036   5.438  1.00  0.00     0.038 C 
BRANCH  26  27
ATOM     27  C   UNL     1       3.269   6.554   5.832  1.00  0.00    -0.015 C 
ATOM     28  C   UNL     1       4.212   5.624   5.069  1.00  0.00     0.007 C 
ATOM     29  C   UNL     1       3.373   6.308   7.335  1.00  0.00     0.007 C 
ENDBRANCH  26  27
ENDBRANCH  25  26
BRANCH  25  30
ATOM     30  C   UNL     1       5.480   9.506   6.104  1.00  0.00     0.243 C 
ATOM     31  O   UNL     1       6.601   9.989   5.961  1.00  0.00    -0.273 OA
ATOM     32  N   UNL     1       4.673   9.818   7.168  1.00  0.00    -0.342 N 
ATOM     33  H   UNL     1       3.705   9.487   7.143  1.00  0.00     0.164 HD
BRANCH  32  34
ATOM     34  C   UNL     1       5.077  10.735   8.238  1.00  0.00     0.175 C 
BRANCH  34  35
ATOM     35  C   UNL     1       4.701  12.186   7.902  1.00  0.00     0.070 C 
BRANCH  35  36
ATOM     36  C   UNL     1       5.882  13.129   7.978  1.00  0.00    -0.045 A 
ATOM     37  C   UNL     1       6.106  13.880   9.141  1.00  0.00     0.007 A 
ATOM     38  C   UNL     1       6.749  13.283   6.889  1.00  0.00     0.007 A 
ATOM     39  C   UNL     1       7.184  14.762   9.216  1.00  0.00     0.046 A 
ATOM     40  C   UNL     1       7.829  14.167   6.962  1.00  0.00     0.046 A 
ATOM     41  C   UNL     1       8.037  14.898   8.127  1.00  0.00     0.115 A 
BRANCH  41  42
ATOM     42  O   UNL     1       9.077  15.773   8.239  1.00  0.00    -0.508 OA
ATOM     43  H   UNL     1       9.128  16.292   7.419  1.00  0.00     0.293 HD
ENDBRANCH  41  42
ENDBRANCH  35  36
ENDBRANCH  34  35
BRANCH  34  44
ATOM     44  C   UNL     1       4.418  10.258   9.552  1.00  0.00     0.243 C 
ATOM     45  O   UNL     1       4.393   9.090   9.931  1.00  0.00    -0.273 OA
ATOM     46  N   UNL     1       3.733  11.253  10.215  1.00  0.00    -0.341 N 
ATOM     47  H   UNL     1       3.685  12.181   9.801  1.00  0.00     0.164 HD
BRANCH  46  48
ATOM     48  C   UNL     1       2.973  11.026  11.446  1.00  0.00     0.196 C 
BRANCH  48  49
ATOM     49  C   UNL     1       3.027  12.252  12.373  1.00  0.00     0.072 C 
BRANCH  49  50
ATOM     50  C   UNL     1       4.437  12.751  12.596  1.00  0.00    -0.045 A 
ATOM     51  C   UNL     1       4.707  14.127  12.547  1.00  0.00     0.007 A 
ATOM     52  C   UNL     1       5.489  11.858  12.831  1.00  0.00     0.007 A 
ATOM     53  C   UNL     1       6.006  14.598  12.738  1.00  0.00     0.046 A 
ATOM     54  C   UNL     1       6.790  12.330  13.021  1.00  0.00     0.046 A 
ATOM     55  C   UNL     1       7.037  13.697  12.974  1.00  0.00     0.115 A 
BRANCH  55  56
ATOM     56  O   UNL     1       8.292  14.199  13.154  1.00  0.00    -0.508 OA
ATOM     57  H   UNL     1       8.502  14.775  12.402  1.00  0.00     0.293 HD
ENDBRANCH  55  56
ENDBRANCH  49  50
ENDBRANCH  48  49
BRANCH  48  58
ATOM     58  C   UNL     1       1.514  10.719  11.083  1.00  0.00     0.326 C 
ATOM     59  O   UNL     1       1.058   9.657  10.690  1.00  0.00    -0.250 OA
BRANCH  58  60
ATOM     60  O   UNL     1       0.681  11.777  11.247  1.00  0.00    -0.480 OA
ATOM     61  H   UNL     1       1.204  12.532  10.900  1.00  0.00     0.296 HD
ENDBRANCH  58  60
ENDBRANCH  48  58
ENDBRANCH  46  48
ENDBRANCH  34  44
ENDBRANCH  32  34
ENDBRANCH  25  30
ENDBRANCH  23  25
ENDBRANCH   2  23
TORSDOF 28
ENDMDL
MODEL 9
REMARK VINA RESULT:    -6.253      2.801     11.682
REMARK INTER + INTRA:         -19.542
REMARK INTER:                 -15.300
REMARK INTRA:                  -4.242
REMARK UNBOUND:                -3.967
REMARK SMILES CCCCCCC[C@H](N)[C@H](O)C(=O)N[C@H](C)C(=O)N(C)[C@H](CC(C)C)C(=O)N[C@@H](Cc1ccc(O)cc1)C(=O)N[C@@H](Cc1ccc(O)cc1)C(=O)O
REMARK SMILES IDX 18 1 17 2 15 3 16 4 14 5 12 6 13 7 10 9 11 10 8 12 9 13 7 16
REMARK SMILES IDX 6 17 5 18 4 19 3 20 2 21 1 22 19 23 20 24 21 25 22 26 23 27
REMARK SMILES IDX 24 28 25 29 26 30 27 31 28 32 29 34 30 35 31 36 32 37 37 38
REMARK SMILES IDX 33 39 36 40 34 41 35 42 38 44 39 45 40 46 41 48 42 49 43 50
REMARK SMILES IDX 44 51 49 52 45 53 48 54 46 55 47 56 50 58 51 59 52 60
REMARK H PARENT 14 8 11 11 9 14 9 15 28 33 35 43 40 47 47 57 52 61
ROOT
ATOM      1  O   UNL     1       7.963  11.696   2.303  1.00  0.00    -0.272 OA
ATOM      2  C   UNL     1       7.089  11.207   1.571  1.00  0.00     0.245 C 
ENDROOT
BRANCH   2   3
ATOM      3  C   UNL     1       6.739   9.707   1.735  1.00  0.00     0.168 C 
ATOM      4  C   UNL     1       7.883   8.828   1.241  1.00  0.00     0.041 C 
BRANCH   3   5
ATOM      5  N   UNL     1       6.297   9.325   3.067  1.00  0.00    -0.342 N 
ATOM      6  C   UNL     1       5.459   8.249   3.274  1.00  0.00     0.251 C 
ATOM      7  O   UNL     1       4.996   7.567   2.366  1.00  0.00    -0.272 OA
ATOM      8  H   UNL     1       6.588   9.837   3.896  1.00  0.00     0.164 HD
BRANCH   6   9
ATOM      9  C   UNL     1       5.241   7.945   4.765  1.00  0.00     0.219 C 
BRANCH   9  10
ATOM     10  O   UNL     1       5.628   9.033   5.613  1.00  0.00    -0.382 OA
ATOM     11  H   UNL     1       5.915   9.728   4.981  1.00  0.00     0.211 HD
ENDBRANCH   9  10
BRANCH   9  12
ATOM     12  C   UNL     1       3.795   7.484   5.087  1.00  0.00     0.089 C 
BRANCH  12  13
ATOM     13  N   UNL     1       3.616   6.110   4.563  1.00  0.00    -0.325 NA
ATOM     14  H   UNL     1       3.293   6.160   3.595  1.00  0.00     0.119 HD
ATOM     15  H   UNL     1       2.856   5.657   5.075  1.00  0.00     0.119 HD
ENDBRANCH  12  13
BRANCH  12  16
ATOM     16  C   UNL     1       3.381   7.542   6.577  1.00  0.00     0.022 C 
BRANCH  16  17
ATOM     17  C   UNL     1       3.378   6.249   7.403  1.00  0.00     0.002 C 
BRANCH  17  18
ATOM     18  C   UNL     1       2.690   6.353   8.762  1.00  0.00     0.000 C 
BRANCH  18  19
ATOM     19  C   UNL     1       3.317   5.471   9.850  1.00  0.00    -0.000 C 
BRANCH  19  20
ATOM     20  C   UNL     1       2.528   5.394  11.160  1.00  0.00    -0.000 C 
BRANCH  20  21
ATOM     21  C   UNL     1       1.124   5.995  11.050  1.00  0.00    -0.003 C 
ATOM     22  C   UNL     1       0.124   5.224  11.897  1.00  0.00     0.004 C 
ENDBRANCH  20  21
ENDBRANCH  19  20
ENDBRANCH  18  19
ENDBRANCH  17  18
ENDBRANCH  16  17
ENDBRANCH  12  16
ENDBRANCH   9  12
ENDBRANCH   6   9
ENDBRANCH   3   5
ENDBRANCH   2   3
BRANCH   2  23
ATOM     23  N   UNL     1       6.361  12.027   0.715  1.00  0.00    -0.332 N 
ATOM     24  C   UNL     1       5.337  12.968   1.144  1.00  0.00     0.147 C 
BRANCH  23  25
ATOM     25  C   UNL     1       6.692  12.078  -0.736  1.00  0.00     0.174 C 
BRANCH  25  26
ATOM     26  C   UNL     1       5.764  11.188  -1.597  1.00  0.00     0.038 C 
BRANCH  26  27
ATOM     27  C   UNL     1       4.977  11.886  -2.728  1.00  0.00    -0.015 C 
ATOM     28  C   UNL     1       3.624  12.418  -2.256  1.00  0.00     0.007 C 
ATOM     29  C   UNL     1       5.770  12.984  -3.432  1.00  0.00     0.007 C 
ENDBRANCH  26  27
ENDBRANCH  25  26
BRANCH  25  30
ATOM     30  C   UNL     1       8.197  11.797  -0.949  1.00  0.00     0.243 C 
ATOM     31  O   UNL     1       8.594  10.776  -1.510  1.00  0.00    -0.273 OA
ATOM     32  N   UNL     1       9.053  12.753  -0.468  1.00  0.00    -0.342 N 
ATOM     33  H   UNL     1       8.646  13.634  -0.144  1.00  0.00     0.164 HD
BRANCH  32  34
ATOM     34  C   UNL     1      10.512  12.642  -0.558  1.00  0.00     0.175 C 
BRANCH  34  35
ATOM     35  C   UNL     1      11.065  13.470  -1.727  1.00  0.00     0.070 C 
BRANCH  35  36
ATOM     36  C   UNL     1      11.977  12.670  -2.630  1.00  0.00    -0.045 A 
ATOM     37  C   UNL     1      11.452  11.635  -3.419  1.00  0.00     0.007 A 
ATOM     38  C   UNL     1      13.353  12.931  -2.676  1.00  0.00     0.007 A 
ATOM     39  C   UNL     1      12.287  10.883  -4.245  1.00  0.00     0.046 A 
ATOM     40  C   UNL     1      14.190  12.177  -3.502  1.00  0.00     0.046 A 
ATOM     41  C   UNL     1      13.649  11.160  -4.280  1.00  0.00     0.115 A 
BRANCH  41  42
ATOM     42  O   UNL     1      14.431  10.399  -5.098  1.00  0.00    -0.508 OA
ATOM     43  H   UNL     1      13.938  10.227  -5.918  1.00  0.00     0.293 HD
ENDBRANCH  41  42
ENDBRANCH  35  36
ENDBRANCH  34  35
BRANCH  34  44
ATOM     44  C   UNL     1      11.109  13.084   0.797  1.00  0.00     0.243 C 
ATOM     45  O   UNL     1      10.869  14.157   1.344  1.00  0.00    -0.273 OA
ATOM     46  N   UNL     1      12.056  12.212   1.290  1.00  0.00    -0.341 N 
ATOM     47  H   UNL     1      12.306  11.393   0.742  1.00  0.00     0.164 HD
BRANCH  46  48
ATOM     48  C   UNL     1      12.808  12.452   2.524  1.00  0.00     0.196 C 
BRANCH  48  49
ATOM     49  C   UNL     1      13.161  11.132   3.231  1.00  0.00     0.072 C 
BRANCH  49  50
ATOM     50  C   UNL     1      11.939  10.393   3.727  1.00  0.00    -0.045 A 
ATOM     51  C   UNL     1      11.743   9.051   3.372  1.00  0.00     0.007 A 
ATOM     52  C   UNL     1      10.982  11.035   4.523  1.00  0.00     0.007 A 
ATOM     53  C   UNL     1      10.612   8.362   3.813  1.00  0.00     0.046 A 
ATOM     54  C   UNL     1       9.849  10.346   4.963  1.00  0.00     0.046 A 
ATOM     55  C   UNL     1       9.675   9.014   4.605  1.00  0.00     0.115 A 
BRANCH  55  56
ATOM     56  O   UNL     1       8.583   8.306   5.013  1.00  0.00    -0.508 OA
ATOM     57  H   UNL     1       8.729   8.022   5.929  1.00  0.00     0.293 HD
ENDBRANCH  55  56
ENDBRANCH  49  50
ENDBRANCH  48  49
BRANCH  48  58
ATOM     58  C   UNL     1      14.096  13.214   2.183  1.00  0.00     0.326 C 
ATOM     59  O   UNL     1      14.616  13.333   1.085  1.00  0.00    -0.250 OA
BRANCH  58  60
ATOM     60  O   UNL     1      14.671  13.812   3.256  1.00  0.00    -0.480 OA
ATOM     61  H   UNL     1      14.943  14.689   2.907  1.00  0.00     0.296 HD
ENDBRANCH  58  60
ENDBRANCH  48  58
ENDBRANCH  46  48
ENDBRANCH  34  44
ENDBRANCH  32  34
ENDBRANCH  25  30
ENDBRANCH  23  25
ENDBRANCH   2  23
TORSDOF 28
ENDMDL
MODEL 10
REMARK VINA RESULT:    -6.247      1.663      2.790
REMARK INTER + INTRA:         -19.528
REMARK INTER:                 -15.427
REMARK INTRA:                  -4.101
REMARK UNBOUND:                -3.967
REMARK SMILES CCCCCCC[C@H](N)[C@H](O)C(=O)N[C@H](C)C(=O)N(C)[C@H](CC(C)C)C(=O)N[C@@H](Cc1ccc(O)cc1)C(=O)N[C@@H](Cc1ccc(O)cc1)C(=O)O
REMARK SMILES IDX 18 1 17 2 15 3 16 4 14 5 12 6 13 7 10 9 11 10 8 12 9 13 7 16
REMARK SMILES IDX 6 17 5 18 4 19 3 20 2 21 1 22 19 23 20 24 21 25 22 26 23 27
REMARK SMILES IDX 24 28 25 29 26 30 27 31 28 32 29 34 30 35 31 36 32 37 37 38
REMARK SMILES IDX 33 39 36 40 34 41 35 42 38 44 39 45 40 46 41 48 42 49 43 50
REMARK SMILES IDX 44 51 49 52 45 53 48 54 46 55 47 56 50 58 51 59 52 60
REMARK H PARENT 14 8 11 11 9 14 9 15 28 33 35 43 40 47 47 57 52 61
ROOT
ATOM      1  O   UNL     1       9.261   8.179   2.532  1.00  0.00    -0.272 OA
ATOM      2  C   UNL     1       9.764   9.281   2.265  1.00  0.00     0.245 C 
ENDROOT
BRANCH   2   3
ATOM      3  C   UNL     1       9.330   9.996   0.961  1.00  0.00     0.168 C 
ATOM      4  C   UNL     1       8.350  11.125   1.262  1.00  0.00     0.041 C 
BRANCH   3   5
ATOM      5  N   UNL     1      10.427  10.441   0.115  1.00  0.00    -0.342 N 
ATOM      6  C   UNL     1      10.332  10.440  -1.261  1.00  0.00     0.251 C 
ATOM      7  O   UNL     1       9.349  10.031  -1.870  1.00  0.00    -0.272 OA
ATOM      8  H   UNL     1      11.306  10.771   0.506  1.00  0.00     0.164 HD
BRANCH   6   9
ATOM      9  C   UNL     1      11.550  11.084  -1.941  1.00  0.00     0.219 C 
BRANCH   9  10
ATOM     10  O   UNL     1      11.326  12.454  -2.295  1.00  0.00    -0.382 OA
ATOM     11  H   UNL     1      11.391  12.928  -1.437  1.00  0.00     0.211 HD
ENDBRANCH   9  10
BRANCH   9  12
ATOM     12  C   UNL     1      12.857  10.934  -1.119  1.00  0.00     0.089 C 
BRANCH  12  13
ATOM     13  N   UNL     1      13.918  10.422  -2.017  1.00  0.00    -0.325 NA
ATOM     14  H   UNL     1      13.501   9.790  -2.703  1.00  0.00     0.119 HD
ATOM     15  H   UNL     1      14.559   9.840  -1.473  1.00  0.00     0.119 HD
ENDBRANCH  12  13
BRANCH  12  16
ATOM     16  C   UNL     1      13.347  12.207  -0.388  1.00  0.00     0.022 C 
BRANCH  16  17
ATOM     17  C   UNL     1      13.085  12.351   1.117  1.00  0.00     0.002 C 
BRANCH  17  18
ATOM     18  C   UNL     1      14.200  13.038   1.903  1.00  0.00     0.000 C 
BRANCH  18  19
ATOM     19  C   UNL     1      14.476  14.482   1.464  1.00  0.00    -0.000 C 
BRANCH  19  20
ATOM     20  C   UNL     1      13.258  15.410   1.481  1.00  0.00    -0.000 C 
BRANCH  20  21
ATOM     21  C   UNL     1      13.421  16.597   2.433  1.00  0.00    -0.003 C 
ATOM     22  C   UNL     1      13.422  16.146   3.886  1.00  0.00     0.004 C 
ENDBRANCH  20  21
ENDBRANCH  19  20
ENDBRANCH  18  19
ENDBRANCH  17  18
ENDBRANCH  16  17
ENDBRANCH  12  16
ENDBRANCH   9  12
ENDBRANCH   6   9
ENDBRANCH   3   5
ENDBRANCH   2   3
BRANCH   2  23
ATOM     23  N   UNL     1      10.601   9.905   3.183  1.00  0.00    -0.332 N 
ATOM     24  C   UNL     1      12.031   9.659   3.297  1.00  0.00     0.147 C 
BRANCH  23  25
ATOM     25  C   UNL     1      10.082  10.996   4.053  1.00  0.00     0.174 C 
BRANCH  25  26
ATOM     26  C   UNL     1      11.207  11.851   4.682  1.00  0.00     0.038 C 
BRANCH  26  27
ATOM     27  C   UNL     1      11.035  13.386   4.626  1.00  0.00    -0.015 C 
ATOM     28  C   UNL     1      10.416  13.856   3.310  1.00  0.00     0.007 C 
ATOM     29  C   UNL     1      10.266  13.955   5.815  1.00  0.00     0.007 C 
ENDBRANCH  26  27
ENDBRANCH  25  26
BRANCH  25  30
ATOM     30  C   UNL     1       9.084  10.424   5.086  1.00  0.00     0.243 C 
ATOM     31  O   UNL     1       9.432   9.622   5.950  1.00  0.00    -0.273 OA
ATOM     32  N   UNL     1       7.791  10.866   4.968  1.00  0.00    -0.342 N 
ATOM     33  H   UNL     1       7.610  11.635   4.319  1.00  0.00     0.164 HD
BRANCH  32  34
ATOM     34  C   UNL     1       6.706  10.410   5.842  1.00  0.00     0.175 C 
BRANCH  34  35
ATOM     35  C   UNL     1       5.986  11.596   6.503  1.00  0.00     0.070 C 
BRANCH  35  36
ATOM     36  C   UNL     1       5.494  11.278   7.897  1.00  0.00    -0.045 A 
ATOM     37  C   UNL     1       5.976  12.007   8.994  1.00  0.00     0.007 A 
ATOM     38  C   UNL     1       4.573  10.245   8.116  1.00  0.00     0.007 A 
ATOM     39  C   UNL     1       5.538  11.712  10.286  1.00  0.00     0.046 A 
ATOM     40  C   UNL     1       4.135   9.948   9.409  1.00  0.00     0.046 A 
ATOM     41  C   UNL     1       4.622  10.686  10.483  1.00  0.00     0.115 A 
BRANCH  41  42
ATOM     42  O   UNL     1       4.222  10.428  11.760  1.00  0.00    -0.508 OA
ATOM     43  H   UNL     1       4.857  10.841  12.368  1.00  0.00     0.293 HD
ENDBRANCH  41  42
ENDBRANCH  35  36
ENDBRANCH  34  35
BRANCH  34  44
ATOM     44  C   UNL     1       5.742   9.547   4.998  1.00  0.00     0.243 C 
ATOM     45  O   UNL     1       4.731   9.973   4.448  1.00  0.00    -0.273 OA
ATOM     46  N   UNL     1       6.047   8.202   5.020  1.00  0.00    -0.341 N 
ATOM     47  H   UNL     1       6.829   7.883   5.587  1.00  0.00     0.164 HD
BRANCH  46  48
ATOM     48  C   UNL     1       5.238   7.181   4.351  1.00  0.00     0.196 C 
BRANCH  48  49
ATOM     49  C   UNL     1       3.769   7.246   4.801  1.00  0.00     0.072 C 
BRANCH  49  50
ATOM     50  C   UNL     1       3.548   6.618   6.158  1.00  0.00    -0.045 A 
ATOM     51  C   UNL     1       2.842   7.318   7.147  1.00  0.00     0.007 A 
ATOM     52  C   UNL     1       4.058   5.347   6.456  1.00  0.00     0.007 A 
ATOM     53  C   UNL     1       2.643   6.754   8.407  1.00  0.00     0.046 A 
ATOM     54  C   UNL     1       3.860   4.782   7.718  1.00  0.00     0.046 A 
ATOM     55  C   UNL     1       3.152   5.491   8.683  1.00  0.00     0.115 A 
BRANCH  55  56
ATOM     56  O   UNL     1       2.938   4.976   9.927  1.00  0.00    -0.508 OA
ATOM     57  H   UNL     1       3.548   4.233  10.060  1.00  0.00     0.293 HD
ENDBRANCH  55  56
ENDBRANCH  49  50
ENDBRANCH  48  49
BRANCH  48  58
ATOM     58  C   UNL     1       5.322   7.394   2.833  1.00  0.00     0.326 C 
ATOM     59  O   UNL     1       4.421   7.738   2.085  1.00  0.00    -0.250 OA
BRANCH  58  60
ATOM     60  O   UNL     1       6.560   7.175   2.323  1.00  0.00    -0.480 OA
ATOM     61  H   UNL     1       7.049   7.992   2.558  1.00  0.00     0.296 HD
ENDBRANCH  58  60
ENDBRANCH  48  58
ENDBRANCH  46  48
ENDBRANCH  34  44
ENDBRANCH  32  34
ENDBRANCH  25  30
ENDBRANCH  23  25
ENDBRANCH   2  23
TORSDOF 28
ENDMDL
MODEL 11
REMARK VINA RESULT:    -6.224      3.330     11.859
REMARK INTER + INTRA:         -19.470
REMARK INTER:                 -13.347
REMARK INTRA:                  -6.123
REMARK UNBOUND:                -3.967
REMARK SMILES CCCCCCC[C@H](N)[C@H](O)C(=O)N[C@H](C)C(=O)N(C)[C@H](CC(C)C)C(=O)N[C@@H](Cc1ccc(O)cc1)C(=O)N[C@@H](Cc1ccc(O)cc1)C(=O)O
REMARK SMILES IDX 18 1 17 2 15 3 16 4 14 5 12 6 13 7 10 9 11 10 8 12 9 13 7 16
REMARK SMILES IDX 6 17 5 18 4 19 3 20 2 21 1 22 19 23 20 24 21 25 22 26 23 27
REMARK SMILES IDX 24 28 25 29 26 30 27 31 28 32 29 34 30 35 31 36 32 37 37 38
REMARK SMILES IDX 33 39 36 40 34 41 35 42 38 44 39 45 40 46 41 48 42 49 43 50
REMARK SMILES IDX 44 51 49 52 45 53 48 54 46 55 47 56 50 58 51 59 52 60
REMARK H PARENT 14 8 11 11 9 14 9 15 28 33 35 43 40 47 47 57 52 61
ROOT
ATOM      1  O   UNL     1       2.798  10.431  -0.256  1.00  0.00    -0.272 OA
ATOM      2  C   UNL     1       3.828  11.121  -0.239  1.00  0.00     0.245 C 
ENDROOT
BRANCH   2   3
ATOM      3  C   UNL     1       4.553  11.338   1.113  1.00  0.00     0.168 C 
ATOM      4  C   UNL     1       3.593  11.895   2.158  1.00  0.00     0.041 C 
BRANCH   3   5
ATOM      5  N   UNL     1       5.281  10.180   1.609  1.00  0.00    -0.342 N 
ATOM      6  C   UNL     1       6.648  10.065   1.470  1.00  0.00     0.251 C 
ATOM      7  O   UNL     1       7.341  10.895   0.891  1.00  0.00    -0.272 OA
ATOM      8  H   UNL     1       4.808   9.409   2.076  1.00  0.00     0.164 HD
BRANCH   6   9
ATOM      9  C   UNL     1       7.217   8.834   2.192  1.00  0.00     0.219 C 
BRANCH   9  10
ATOM     10  O   UNL     1       8.278   8.206   1.461  1.00  0.00    -0.382 OA
ATOM     11  H   UNL     1       8.692   7.609   2.122  1.00  0.00     0.211 HD
ENDBRANCH   9  10
BRANCH   9  12
ATOM     12  C   UNL     1       7.653   9.130   3.651  1.00  0.00     0.089 C 
BRANCH  12  13
ATOM     13  N   UNL     1       7.922  10.581   3.772  1.00  0.00    -0.325 NA
ATOM     14  H   UNL     1       7.993  10.989   2.838  1.00  0.00     0.119 HD
ATOM     15  H   UNL     1       8.845  10.713   4.192  1.00  0.00     0.119 HD
ENDBRANCH  12  13
BRANCH  12  16
ATOM     16  C   UNL     1       6.671   8.676   4.757  1.00  0.00     0.022 C 
BRANCH  16  17
ATOM     17  C   UNL     1       5.724   9.708   5.385  1.00  0.00     0.002 C 
BRANCH  17  18
ATOM     18  C   UNL     1       4.242   9.484   5.093  1.00  0.00     0.000 C 
BRANCH  18  19
ATOM     19  C   UNL     1       3.461   8.869   6.262  1.00  0.00    -0.000 C 
BRANCH  19  20
ATOM     20  C   UNL     1       3.284   7.350   6.198  1.00  0.00    -0.000 C 
BRANCH  20  21
ATOM     21  C   UNL     1       2.790   6.747   7.516  1.00  0.00    -0.003 C 
ATOM     22  C   UNL     1       1.326   7.075   7.761  1.00  0.00     0.004 C 
ENDBRANCH  20  21
ENDBRANCH  19  20
ENDBRANCH  18  19
ENDBRANCH  17  18
ENDBRANCH  16  17
ENDBRANCH  12  16
ENDBRANCH   9  12
ENDBRANCH   6   9
ENDBRANCH   3   5
ENDBRANCH   2   3
BRANCH   2  23
ATOM     23  N   UNL     1       4.378  11.580  -1.431  1.00  0.00    -0.332 N 
ATOM     24  C   UNL     1       4.222  10.922  -2.720  1.00  0.00     0.147 C 
BRANCH  23  25
ATOM     25  C   UNL     1       5.080  12.892  -1.479  1.00  0.00     0.174 C 
BRANCH  25  26
ATOM     26  C   UNL     1       4.147  14.060  -1.876  1.00  0.00     0.038 C 
BRANCH  26  27
ATOM     27  C   UNL     1       4.224  15.341  -1.015  1.00  0.00    -0.015 C 
ATOM     28  C   UNL     1       2.923  16.143  -1.044  1.00  0.00     0.007 C 
ATOM     29  C   UNL     1       4.662  15.080   0.424  1.00  0.00     0.007 C 
ENDBRANCH  26  27
ENDBRANCH  25  26
BRANCH  25  30
ATOM     30  C   UNL     1       6.350  12.785  -2.355  1.00  0.00     0.243 C 
ATOM     31  O   UNL     1       6.354  13.124  -3.537  1.00  0.00    -0.273 OA
ATOM     32  N   UNL     1       7.462  12.283  -1.729  1.00  0.00    -0.342 N 
ATOM     33  H   UNL     1       7.418  12.158  -0.714  1.00  0.00     0.164 HD
BRANCH  32  34
ATOM     34  C   UNL     1       8.744  12.086  -2.409  1.00  0.00     0.175 C 
BRANCH  34  35
ATOM     35  C   UNL     1       9.524  13.404  -2.526  1.00  0.00     0.070 C 
BRANCH  35  36
ATOM     36  C   UNL     1      10.142  13.599  -3.892  1.00  0.00    -0.045 A 
ATOM     37  C   UNL     1      10.126  14.866  -4.495  1.00  0.00     0.007 A 
ATOM     38  C   UNL     1      10.715  12.523  -4.582  1.00  0.00     0.007 A 
ATOM     39  C   UNL     1      10.681  15.053  -5.761  1.00  0.00     0.046 A 
ATOM     40  C   UNL     1      11.270  12.709  -5.851  1.00  0.00     0.046 A 
ATOM     41  C   UNL     1      11.249  13.975  -6.428  1.00  0.00     0.115 A 
BRANCH  41  42
ATOM     42  O   UNL     1      11.778  14.199  -7.665  1.00  0.00    -0.508 OA
ATOM     43  H   UNL     1      11.126  14.692  -8.190  1.00  0.00     0.293 HD
ENDBRANCH  41  42
ENDBRANCH  35  36
ENDBRANCH  34  35
BRANCH  34  44
ATOM     44  C   UNL     1       9.539  11.012  -1.632  1.00  0.00     0.243 C 
ATOM     45  O   UNL     1       9.280   9.812  -1.646  1.00  0.00    -0.273 OA
ATOM     46  N   UNL     1      10.504  11.539  -0.800  1.00  0.00    -0.341 N 
ATOM     47  H   UNL     1      10.602  12.549  -0.735  1.00  0.00     0.164 HD
BRANCH  46  48
ATOM     48  C   UNL     1      11.337  10.723   0.086  1.00  0.00     0.196 C 
BRANCH  48  49
ATOM     49  C   UNL     1      12.757  11.300   0.208  1.00  0.00     0.072 C 
BRANCH  49  50
ATOM     50  C   UNL     1      13.292  11.814  -1.110  1.00  0.00    -0.045 A 
ATOM     51  C   UNL     1      13.846  10.918  -2.036  1.00  0.00     0.007 A 
ATOM     52  C   UNL     1      13.262  13.180  -1.416  1.00  0.00     0.007 A 
ATOM     53  C   UNL     1      14.354  11.382  -3.249  1.00  0.00     0.046 A 
ATOM     54  C   UNL     1      13.772  13.645  -2.631  1.00  0.00     0.046 A 
ATOM     55  C   UNL     1      14.313  12.740  -3.538  1.00  0.00     0.115 A 
BRANCH  55  56
ATOM     56  O   UNL     1      14.822  13.153  -4.734  1.00  0.00    -0.508 OA
ATOM     57  H   UNL     1      15.144  12.374  -5.214  1.00  0.00     0.293 HD
ENDBRANCH  55  56
ENDBRANCH  49  50
ENDBRANCH  48  49
BRANCH  48  58
ATOM     58  C   UNL     1      10.683  10.666   1.474  1.00  0.00     0.326 C 
ATOM     59  O   UNL     1      10.754   9.760   2.288  1.00  0.00    -0.250 OA
BRANCH  58  60
ATOM     60  O   UNL     1       9.971  11.779   1.783  1.00  0.00    -0.480 OA
ATOM     61  H   UNL     1       9.774  11.664   2.737  1.00  0.00     0.296 HD
ENDBRANCH  58  60
ENDBRANCH  48  58
ENDBRANCH  46  48
ENDBRANCH  34  44
ENDBRANCH  32  34
ENDBRANCH  25  30
ENDBRANCH  23  25
ENDBRANCH   2  23
TORSDOF 28
ENDMDL
MODEL 12
REMARK VINA RESULT:    -6.203      4.740      9.984
REMARK INTER + INTRA:         -19.416
REMARK INTER:                 -11.717
REMARK INTRA:                  -7.700
REMARK UNBOUND:                -3.967
REMARK SMILES CCCCCCC[C@H](N)[C@H](O)C(=O)N[C@H](C)C(=O)N(C)[C@H](CC(C)C)C(=O)N[C@@H](Cc1ccc(O)cc1)C(=O)N[C@@H](Cc1ccc(O)cc1)C(=O)O
REMARK SMILES IDX 18 1 17 2 15 3 16 4 14 5 12 6 13 7 10 9 11 10 8 12 9 13 7 16
REMARK SMILES IDX 6 17 5 18 4 19 3 20 2 21 1 22 19 23 20 24 21 25 22 26 23 27
REMARK SMILES IDX 24 28 25 29 26 30 27 31 28 32 29 34 30 35 31 36 32 37 37 38
REMARK SMILES IDX 33 39 36 40 34 41 35 42 38 44 39 45 40 46 41 48 42 49 43 50
REMARK SMILES IDX 44 51 49 52 45 53 48 54 46 55 47 56 50 58 51 59 52 60
REMARK H PARENT 14 8 11 11 9 14 9 15 28 33 35 43 40 47 47 57 52 61
ROOT
ATOM      1  O   UNL     1       2.513  15.245  10.469  1.00  0.00    -0.272 OA
ATOM      2  C   UNL     1       1.608  14.410  10.323  1.00  0.00     0.245 C 
ENDROOT
BRANCH   2   3
ATOM      3  C   UNL     1       0.456  14.732   9.338  1.00  0.00     0.168 C 
ATOM      4  C   UNL     1      -0.382  15.899   9.847  1.00  0.00     0.041 C 
BRANCH   3   5
ATOM      5  N   UNL     1       0.869  14.923   7.956  1.00  0.00    -0.342 N 
ATOM      6  C   UNL     1       0.780  13.911   7.023  1.00  0.00     0.251 C 
ATOM      7  O   UNL     1       0.392  12.778   7.289  1.00  0.00    -0.272 OA
ATOM      8  H   UNL     1       1.240  15.810   7.625  1.00  0.00     0.164 HD
BRANCH   6   9
ATOM      9  C   UNL     1       1.135  14.379   5.603  1.00  0.00     0.219 C 
BRANCH   9  10
ATOM     10  O   UNL     1       0.819  15.759   5.381  1.00  0.00    -0.382 OA
ATOM     11  H   UNL     1       1.661  16.138   5.046  1.00  0.00     0.211 HD
ENDBRANCH   9  10
BRANCH   9  12
ATOM     12  C   UNL     1       2.607  14.082   5.214  1.00  0.00     0.089 C 
BRANCH  12  13
ATOM     13  N   UNL     1       3.329  13.631   6.426  1.00  0.00    -0.325 NA
ATOM     14  H   UNL     1       3.657  14.448   6.945  1.00  0.00     0.119 HD
ATOM     15  H   UNL     1       4.177  13.137   6.141  1.00  0.00     0.119 HD
ENDBRANCH  12  13
BRANCH  12  16
ATOM     16  C   UNL     1       2.813  13.067   4.064  1.00  0.00     0.022 C 
BRANCH  16  17
ATOM     17  C   UNL     1       4.230  12.569   3.753  1.00  0.00     0.002 C 
BRANCH  17  18
ATOM     18  C   UNL     1       4.310  11.137   3.228  1.00  0.00     0.000 C 
BRANCH  18  19
ATOM     19  C   UNL     1       5.143  10.985   1.949  1.00  0.00    -0.000 C 
BRANCH  19  20
ATOM     20  C   UNL     1       6.004   9.721   1.880  1.00  0.00    -0.000 C 
BRANCH  20  21
ATOM     21  C   UNL     1       7.455  10.004   1.480  1.00  0.00    -0.003 C 
ATOM     22  C   UNL     1       7.855  11.431   1.819  1.00  0.00     0.004 C 
ENDBRANCH  20  21
ENDBRANCH  19  20
ENDBRANCH  18  19
ENDBRANCH  17  18
ENDBRANCH  16  17
ENDBRANCH  12  16
ENDBRANCH   9  12
ENDBRANCH   6   9
ENDBRANCH   3   5
ENDBRANCH   2   3
BRANCH   2  23
ATOM     23  N   UNL     1       1.701  13.167  10.940  1.00  0.00    -0.332 N 
ATOM     24  C   UNL     1       2.432  12.909  12.171  1.00  0.00     0.147 C 
BRANCH  23  25
ATOM     25  C   UNL     1       0.922  12.010  10.420  1.00  0.00     0.174 C 
BRANCH  25  26
ATOM     26  C   UNL     1      -0.130  11.491  11.427  1.00  0.00     0.038 C 
BRANCH  26  27
ATOM     27  C   UNL     1      -1.599  11.904  11.181  1.00  0.00    -0.015 C 
ATOM     28  C   UNL     1      -1.951  13.235  11.844  1.00  0.00     0.007 C 
ATOM     29  C   UNL     1      -1.985  11.920   9.704  1.00  0.00     0.007 C 
ENDBRANCH  26  27
ENDBRANCH  25  26
BRANCH  25  30
ATOM     30  C   UNL     1       1.880  10.913   9.901  1.00  0.00     0.243 C 
ATOM     31  O   UNL     1       2.009   9.836  10.481  1.00  0.00    -0.273 OA
ATOM     32  N   UNL     1       2.576  11.224   8.762  1.00  0.00    -0.342 N 
ATOM     33  H   UNL     1       2.311  12.076   8.262  1.00  0.00     0.164 HD
BRANCH  32  34
ATOM     34  C   UNL     1       3.548  10.317   8.143  1.00  0.00     0.175 C 
BRANCH  34  35
ATOM     35  C   UNL     1       3.244  10.106   6.652  1.00  0.00     0.070 C 
BRANCH  35  36
ATOM     36  C   UNL     1       3.434   8.671   6.214  1.00  0.00    -0.045 A 
ATOM     37  C   UNL     1       3.009   7.622   7.044  1.00  0.00     0.007 A 
ATOM     38  C   UNL     1       4.052   8.367   4.994  1.00  0.00     0.007 A 
ATOM     39  C   UNL     1       3.193   6.295   6.655  1.00  0.00     0.046 A 
ATOM     40  C   UNL     1       4.237   7.038   4.605  1.00  0.00     0.046 A 
ATOM     41  C   UNL     1       3.804   6.014   5.439  1.00  0.00     0.115 A 
BRANCH  41  42
ATOM     42  O   UNL     1       3.967   4.704   5.098  1.00  0.00    -0.508 OA
ATOM     43  H   UNL     1       4.454   4.666   4.258  1.00  0.00     0.293 HD
ENDBRANCH  41  42
ENDBRANCH  35  36
ENDBRANCH  34  35
BRANCH  34  44
ATOM     44  C   UNL     1       4.960  10.903   8.367  1.00  0.00     0.243 C 
ATOM     45  O   UNL     1       5.612  10.767   9.399  1.00  0.00    -0.273 OA
ATOM     46  N   UNL     1       5.385  11.719   7.340  1.00  0.00    -0.341 N 
ATOM     47  H   UNL     1       4.759  11.896   6.558  1.00  0.00     0.164 HD
BRANCH  46  48
ATOM     48  C   UNL     1       6.659  12.440   7.359  1.00  0.00     0.196 C 
BRANCH  48  49
ATOM     49  C   UNL     1       7.255  12.561   5.946  1.00  0.00     0.072 C 
BRANCH  49  50
ATOM     50  C   UNL     1       7.997  11.314   5.519  1.00  0.00    -0.045 A 
ATOM     51  C   UNL     1       7.294  10.117   5.319  1.00  0.00     0.007 A 
ATOM     52  C   UNL     1       9.386  11.328   5.339  1.00  0.00     0.007 A 
ATOM     53  C   UNL     1       7.970   8.957   4.939  1.00  0.00     0.046 A 
ATOM     54  C   UNL     1      10.062  10.166   4.959  1.00  0.00     0.046 A 
ATOM     55  C   UNL     1       9.347   8.990   4.761  1.00  0.00     0.115 A 
BRANCH  55  56
ATOM     56  O   UNL     1       9.970   7.835   4.390  1.00  0.00    -0.508 OA
ATOM     57  H   UNL     1       9.528   7.490   3.598  1.00  0.00     0.293 HD
ENDBRANCH  55  56
ENDBRANCH  49  50
ENDBRANCH  48  49
BRANCH  48  58
ATOM     58  C   UNL     1       6.432  13.842   7.943  1.00  0.00     0.326 C 
ATOM     59  O   UNL     1       6.350  14.147   9.121  1.00  0.00    -0.250 OA
BRANCH  58  60
ATOM     60  O   UNL     1       6.332  14.812   6.999  1.00  0.00    -0.480 OA
ATOM     61  H   UNL     1       5.911  14.348   6.243  1.00  0.00     0.296 HD
ENDBRANCH  58  60
ENDBRANCH  48  58
ENDBRANCH  46  48
ENDBRANCH  34  44
ENDBRANCH  32  34
ENDBRANCH  25  30
ENDBRANCH  23  25
ENDBRANCH   2  23
TORSDOF 28
ENDMDL
MODEL 13
REMARK VINA RESULT:    -6.177      2.894     11.898
REMARK INTER + INTRA:         -19.353
REMARK INTER:                 -15.271
REMARK INTRA:                  -4.082
REMARK UNBOUND:                -3.967
REMARK SMILES CCCCCCC[C@H](N)[C@H](O)C(=O)N[C@H](C)C(=O)N(C)[C@H](CC(C)C)C(=O)N[C@@H](Cc1ccc(O)cc1)C(=O)N[C@@H](Cc1ccc(O)cc1)C(=O)O
REMARK SMILES IDX 18 1 17 2 15 3 16 4 14 5 12 6 13 7 10 9 11 10 8 12 9 13 7 16
REMARK SMILES IDX 6 17 5 18 4 19 3 20 2 21 1 22 19 23 20 24 21 25 22 26 23 27
REMARK SMILES IDX 24 28 25 29 26 30 27 31 28 32 29 34 30 35 31 36 32 37 37 38
REMARK SMILES IDX 33 39 36 40 34 41 35 42 38 44 39 45 40 46 41 48 42 49 43 50
REMARK SMILES IDX 44 51 49 52 45 53 48 54 46 55 47 56 50 58 51 59 52 60
REMARK H PARENT 14 8 11 11 9 14 9 15 28 33 35 43 40 47 47 57 52 61
ROOT
ATOM      1  O   UNL     1       8.127  12.141   2.945  1.00  0.00    -0.272 OA
ATOM      2  C   UNL     1       7.925  11.269   2.086  1.00  0.00     0.245 C 
ENDROOT
BRANCH   2   3
ATOM      3  C   UNL     1       7.660   9.816   2.554  1.00  0.00     0.168 C 
ATOM      4  C   UNL     1       8.655   9.404   3.633  1.00  0.00     0.041 C 
BRANCH   3   5
ATOM      5  N   UNL     1       6.287   9.543   2.950  1.00  0.00    -0.342 N 
ATOM      6  C   UNL     1       5.659   8.358   2.632  1.00  0.00     0.251 C 
ATOM      7  O   UNL     1       6.184   7.472   1.965  1.00  0.00    -0.272 OA
ATOM      8  H   UNL     1       5.737  10.217   3.478  1.00  0.00     0.164 HD
BRANCH   6   9
ATOM      9  C   UNL     1       4.268   8.230   3.273  1.00  0.00     0.219 C 
BRANCH   9  10
ATOM     10  O   UNL     1       3.210   8.258   2.308  1.00  0.00    -0.382 OA
ATOM     11  H   UNL     1       3.132   9.210   2.078  1.00  0.00     0.211 HD
ENDBRANCH   9  10
BRANCH   9  12
ATOM     12  C   UNL     1       4.136   6.994   4.200  1.00  0.00     0.089 C 
BRANCH  12  13
ATOM     13  N   UNL     1       5.484   6.417   4.405  1.00  0.00    -0.325 NA
ATOM     14  H   UNL     1       6.163   6.946   3.855  1.00  0.00     0.119 HD
ATOM     15  H   UNL     1       5.503   5.472   4.015  1.00  0.00     0.119 HD
ENDBRANCH  12  13
BRANCH  12  16
ATOM     16  C   UNL     1       3.451   7.241   5.566  1.00  0.00     0.022 C 
BRANCH  16  17
ATOM     17  C   UNL     1       3.617   8.605   6.249  1.00  0.00     0.002 C 
BRANCH  17  18
ATOM     18  C   UNL     1       2.840   8.771   7.554  1.00  0.00     0.000 C 
BRANCH  18  19
ATOM     19  C   UNL     1       3.439   8.004   8.740  1.00  0.00    -0.000 C 
BRANCH  19  20
ATOM     20  C   UNL     1       2.417   7.350   9.674  1.00  0.00    -0.000 C 
BRANCH  20  21
ATOM     21  C   UNL     1       2.698   5.867   9.927  1.00  0.00    -0.003 C 
ATOM     22  C   UNL     1       3.736   5.326   8.957  1.00  0.00     0.004 C 
ENDBRANCH  20  21
ENDBRANCH  19  20
ENDBRANCH  18  19
ENDBRANCH  17  18
ENDBRANCH  16  17
ENDBRANCH  12  16
ENDBRANCH   9  12
ENDBRANCH   6   9
ENDBRANCH   3   5
ENDBRANCH   2   3
BRANCH   2  23
ATOM     23  N   UNL     1       7.821  11.624   0.746  1.00  0.00    -0.332 N 
ATOM     24  C   UNL     1       6.564  11.853   0.048  1.00  0.00     0.147 C 
BRANCH  23  25
ATOM     25  C   UNL     1       9.043  11.923  -0.050  1.00  0.00     0.174 C 
BRANCH  25  26
ATOM     26  C   UNL     1      10.107  10.804   0.036  1.00  0.00     0.038 C 
BRANCH  26  27
ATOM     27  C   UNL     1      10.824  10.417  -1.277  1.00  0.00    -0.015 C 
ATOM     28  C   UNL     1      10.128  10.987  -2.512  1.00  0.00     0.007 C 
ATOM     29  C   UNL     1      12.309  10.771  -1.285  1.00  0.00     0.007 C 
ENDBRANCH  26  27
ENDBRANCH  25  26
BRANCH  25  30
ATOM     30  C   UNL     1       9.584  13.325   0.314  1.00  0.00     0.243 C 
ATOM     31  O   UNL     1       8.860  14.319   0.323  1.00  0.00    -0.273 OA
ATOM     32  N   UNL     1      10.920  13.384   0.619  1.00  0.00    -0.342 N 
ATOM     33  H   UNL     1      11.421  12.498   0.728  1.00  0.00     0.164 HD
BRANCH  32  34
ATOM     34  C   UNL     1      11.610  14.631   0.961  1.00  0.00     0.175 C 
BRANCH  34  35
ATOM     35  C   UNL     1      12.526  14.446   2.180  1.00  0.00     0.070 C 
BRANCH  35  36
ATOM     36  C   UNL     1      12.373  13.088   2.827  1.00  0.00    -0.045 A 
ATOM     37  C   UNL     1      13.097  11.991   2.336  1.00  0.00     0.007 A 
ATOM     38  C   UNL     1      11.495  12.900   3.902  1.00  0.00     0.007 A 
ATOM     39  C   UNL     1      12.951  10.731   2.918  1.00  0.00     0.046 A 
ATOM     40  C   UNL     1      11.348  11.638   4.484  1.00  0.00     0.046 A 
ATOM     41  C   UNL     1      12.079  10.565   3.987  1.00  0.00     0.115 A 
BRANCH  41  42
ATOM     42  O   UNL     1      11.964   9.317   4.524  1.00  0.00    -0.508 OA
ATOM     43  H   UNL     1      11.095   8.958   4.277  1.00  0.00     0.293 HD
ENDBRANCH  41  42
ENDBRANCH  35  36
ENDBRANCH  34  35
BRANCH  34  44
ATOM     44  C   UNL     1      12.394  15.101  -0.285  1.00  0.00     0.243 C 
ATOM     45  O   UNL     1      12.090  16.074  -0.970  1.00  0.00    -0.273 OA
ATOM     46  N   UNL     1      13.411  14.245  -0.649  1.00  0.00    -0.341 N 
ATOM     47  H   UNL     1      13.550  13.389  -0.117  1.00  0.00     0.164 HD
BRANCH  46  48
ATOM     48  C   UNL     1      14.248  14.445  -1.834  1.00  0.00     0.196 C 
BRANCH  48  49
ATOM     49  C   UNL     1      13.401  14.489  -3.117  1.00  0.00     0.072 C 
BRANCH  49  50
ATOM     50  C   UNL     1      13.451  13.192  -3.892  1.00  0.00    -0.045 A 
ATOM     51  C   UNL     1      14.575  12.359  -3.790  1.00  0.00     0.007 A 
ATOM     52  C   UNL     1      12.396  12.813  -4.732  1.00  0.00     0.007 A 
ATOM     53  C   UNL     1      14.638  11.166  -4.510  1.00  0.00     0.046 A 
ATOM     54  C   UNL     1      12.460  11.619  -5.454  1.00  0.00     0.046 A 
ATOM     55  C   UNL     1      13.581  10.805  -5.336  1.00  0.00     0.115 A 
BRANCH  55  56
ATOM     56  O   UNL     1      13.682   9.632  -6.024  1.00  0.00    -0.508 OA
ATOM     57  H   UNL     1      12.787   9.324  -6.237  1.00  0.00     0.293 HD
ENDBRANCH  55  56
ENDBRANCH  49  50
ENDBRANCH  48  49
BRANCH  48  58
ATOM     58  C   UNL     1      15.022  15.762  -1.682  1.00  0.00     0.326 C 
ATOM     59  O   UNL     1      15.858  16.035  -0.836  1.00  0.00    -0.250 OA
BRANCH  58  60
ATOM     60  O   UNL     1      14.712  16.683  -2.628  1.00  0.00    -0.480 OA
ATOM     61  H   UNL     1      14.316  16.145  -3.348  1.00  0.00     0.296 HD
ENDBRANCH  58  60
ENDBRANCH  48  58
ENDBRANCH  46  48
ENDBRANCH  34  44
ENDBRANCH  32  34
ENDBRANCH  25  30
ENDBRANCH  23  25
ENDBRANCH   2  23
TORSDOF 28
ENDMDL
MODEL 14
REMARK VINA RESULT:    -6.170      2.438      8.942
REMARK INTER + INTRA:         -19.336
REMARK INTER:                 -12.065
REMARK INTRA:                  -7.271
REMARK UNBOUND:                -3.967
REMARK SMILES CCCCCCC[C@H](N)[C@H](O)C(=O)N[C@H](C)C(=O)N(C)[C@H](CC(C)C)C(=O)N[C@@H](Cc1ccc(O)cc1)C(=O)N[C@@H](Cc1ccc(O)cc1)C(=O)O
REMARK SMILES IDX 18 1 17 2 15 3 16 4 14 5 12 6 13 7 10 9 11 10 8 12 9 13 7 16
REMARK SMILES IDX 6 17 5 18 4 19 3 20 2 21 1 22 19 23 20 24 21 25 22 26 23 27
REMARK SMILES IDX 24 28 25 29 26 30 27 31 28 32 29 34 30 35 31 36 32 37 37 38
REMARK SMILES IDX 33 39 36 40 34 41 35 42 38 44 39 45 40 46 41 48 42 49 43 50
REMARK SMILES IDX 44 51 49 52 45 53 48 54 46 55 47 56 50 58 51 59 52 60
REMARK H PARENT 14 8 11 11 9 14 9 15 28 33 35 43 40 47 47 57 52 61
ROOT
ATOM      1  O   UNL     1      11.560  11.317   4.670  1.00  0.00    -0.272 OA
ATOM      2  C   UNL     1      11.736  10.725   3.595  1.00  0.00     0.245 C 
ENDROOT
BRANCH   2   3
ATOM      3  C   UNL     1      10.795   9.550   3.233  1.00  0.00     0.168 C 
ATOM      4  C   UNL     1      11.051   8.351   4.141  1.00  0.00     0.041 C 
BRANCH   3   5
ATOM      5  N   UNL     1       9.383   9.893   3.175  1.00  0.00    -0.342 N 
ATOM      6  C   UNL     1       8.713  10.019   1.977  1.00  0.00     0.251 C 
ATOM      7  O   UNL     1       9.254   9.895   0.883  1.00  0.00    -0.272 OA
ATOM      8  H   UNL     1       8.835  10.055   4.017  1.00  0.00     0.164 HD
BRANCH   6   9
ATOM      9  C   UNL     1       7.203  10.245   2.160  1.00  0.00     0.219 C 
BRANCH   9  10
ATOM     10  O   UNL     1       6.605  10.913   1.043  1.00  0.00    -0.382 OA
ATOM     11  H   UNL     1       6.535  11.846   1.341  1.00  0.00     0.211 HD
ENDBRANCH   9  10
BRANCH   9  12
ATOM     12  C   UNL     1       6.430   8.945   2.504  1.00  0.00     0.089 C 
BRANCH  12  13
ATOM     13  N   UNL     1       7.354   7.798   2.352  1.00  0.00    -0.325 NA
ATOM     14  H   UNL     1       6.868   7.036   1.876  1.00  0.00     0.119 HD
ATOM     15  H   UNL     1       7.582   7.432   3.280  1.00  0.00     0.119 HD
ENDBRANCH  12  13
BRANCH  12  16
ATOM     16  C   UNL     1       5.757   8.905   3.897  1.00  0.00     0.022 C 
BRANCH  16  17
ATOM     17  C   UNL     1       4.519   9.776   4.153  1.00  0.00     0.002 C 
BRANCH  17  18
ATOM     18  C   UNL     1       3.636   9.316   5.311  1.00  0.00     0.000 C 
BRANCH  18  19
ATOM     19  C   UNL     1       4.153   8.063   6.031  1.00  0.00    -0.000 C 
BRANCH  19  20
ATOM     20  C   UNL     1       3.226   7.509   7.117  1.00  0.00    -0.000 C 
BRANCH  20  21
ATOM     21  C   UNL     1       3.290   5.984   7.238  1.00  0.00    -0.003 C 
ATOM     22  C   UNL     1       3.939   5.357   6.014  1.00  0.00     0.004 C 
ENDBRANCH  20  21
ENDBRANCH  19  20
ENDBRANCH  18  19
ENDBRANCH  17  18
ENDBRANCH  16  17
ENDBRANCH  12  16
ENDBRANCH   9  12
ENDBRANCH   6   9
ENDBRANCH   3   5
ENDBRANCH   2   3
BRANCH   2  23
ATOM     23  N   UNL     1      12.681  11.195   2.689  1.00  0.00    -0.332 N 
ATOM     24  C   UNL     1      14.122  11.106   2.877  1.00  0.00     0.147 C 
BRANCH  23  25
ATOM     25  C   UNL     1      12.254  11.724   1.364  1.00  0.00     0.174 C 
BRANCH  25  26
ATOM     26  C   UNL     1      13.435  11.926   0.387  1.00  0.00     0.038 C 
BRANCH  26  27
ATOM     27  C   UNL     1      13.352  11.196  -0.972  1.00  0.00    -0.015 C 
ATOM     28  C   UNL     1      12.018  10.478  -1.169  1.00  0.00     0.007 C 
ATOM     29  C   UNL     1      13.659  12.098  -2.166  1.00  0.00     0.007 C 
ENDBRANCH  26  27
ENDBRANCH  25  26
BRANCH  25  30
ATOM     30  C   UNL     1      11.379  12.985   1.552  1.00  0.00     0.243 C 
ATOM     31  O   UNL     1      11.818  14.009   2.074  1.00  0.00    -0.273 OA
ATOM     32  N   UNL     1      10.087  12.883   1.105  1.00  0.00    -0.342 N 
ATOM     33  H   UNL     1       9.839  12.054   0.558  1.00  0.00     0.164 HD
BRANCH  32  34
ATOM     34  C   UNL     1       9.109  13.967   1.225  1.00  0.00     0.175 C 
BRANCH  34  35
ATOM     35  C   UNL     1       8.207  14.046  -0.016  1.00  0.00     0.070 C 
BRANCH  35  36
ATOM     36  C   UNL     1       8.816  13.373  -1.225  1.00  0.00    -0.045 A 
ATOM     37  C   UNL     1       9.814  14.026  -1.965  1.00  0.00     0.007 A 
ATOM     38  C   UNL     1       8.382  12.106  -1.638  1.00  0.00     0.007 A 
ATOM     39  C   UNL     1      10.372  13.418  -3.090  1.00  0.00     0.046 A 
ATOM     40  C   UNL     1       8.939  11.497  -2.765  1.00  0.00     0.046 A 
ATOM     41  C   UNL     1       9.931  12.160  -3.480  1.00  0.00     0.115 A 
BRANCH  41  42
ATOM     42  O   UNL     1      10.500  11.602  -4.587  1.00  0.00    -0.508 OA
ATOM     43  H   UNL     1      11.441  11.842  -4.599  1.00  0.00     0.293 HD
ENDBRANCH  41  42
ENDBRANCH  35  36
ENDBRANCH  34  35
BRANCH  34  44
ATOM     44  C   UNL     1       8.294  13.736   2.517  1.00  0.00     0.243 C 
ATOM     45  O   UNL     1       7.068  13.692   2.565  1.00  0.00    -0.273 OA
ATOM     46  N   UNL     1       9.068  13.711   3.658  1.00  0.00    -0.341 N 
ATOM     47  H   UNL     1      10.070  13.870   3.578  1.00  0.00     0.164 HD
BRANCH  46  48
ATOM     48  C   UNL     1       8.513  13.573   5.006  1.00  0.00     0.196 C 
BRANCH  48  49
ATOM     49  C   UNL     1       8.159  12.109   5.318  1.00  0.00     0.072 C 
BRANCH  49  50
ATOM     50  C   UNL     1       6.902  11.980   6.148  1.00  0.00    -0.045 A 
ATOM     51  C   UNL     1       5.827  12.854   5.930  1.00  0.00     0.007 A 
ATOM     52  C   UNL     1       6.798  11.009   7.153  1.00  0.00     0.007 A 
ATOM     53  C   UNL     1       4.667  12.752   6.699  1.00  0.00     0.046 A 
ATOM     54  C   UNL     1       5.638  10.908   7.923  1.00  0.00     0.046 A 
ATOM     55  C   UNL     1       4.581  11.780   7.689  1.00  0.00     0.115 A 
BRANCH  55  56
ATOM     56  O   UNL     1       3.431  11.715   8.419  1.00  0.00    -0.508 OA
ATOM     57  H   UNL     1       3.286  10.792   8.680  1.00  0.00     0.293 HD
ENDBRANCH  55  56
ENDBRANCH  49  50
ENDBRANCH  48  49
BRANCH  48  58
ATOM     58  C   UNL     1       9.543  14.082   6.024  1.00  0.00     0.326 C 
ATOM     59  O   UNL     1       9.320  14.559   7.125  1.00  0.00    -0.250 OA
BRANCH  58  60
ATOM     60  O   UNL     1      10.827  13.951   5.607  1.00  0.00    -0.480 OA
ATOM     61  H   UNL     1      11.193  14.855   5.715  1.00  0.00     0.296 HD
ENDBRANCH  58  60
ENDBRANCH  48  58
ENDBRANCH  46  48
ENDBRANCH  34  44
ENDBRANCH  32  34
ENDBRANCH  25  30
ENDBRANCH  23  25
ENDBRANCH   2  23
TORSDOF 28
ENDMDL
MODEL 15
REMARK VINA RESULT:    -6.149      3.246      7.719
REMARK INTER + INTRA:         -19.283
REMARK INTER:                 -13.335
REMARK INTRA:                  -5.948
REMARK UNBOUND:                -3.967
REMARK SMILES CCCCCCC[C@H](N)[C@H](O)C(=O)N[C@H](C)C(=O)N(C)[C@H](CC(C)C)C(=O)N[C@@H](Cc1ccc(O)cc1)C(=O)N[C@@H](Cc1ccc(O)cc1)C(=O)O
REMARK SMILES IDX 18 1 17 2 15 3 16 4 14 5 12 6 13 7 10 9 11 10 8 12 9 13 7 16
REMARK SMILES IDX 6 17 5 18 4 19 3 20 2 21 1 22 19 23 20 24 21 25 22 26 23 27
REMARK SMILES IDX 24 28 25 29 26 30 27 31 28 32 29 34 30 35 31 36 32 37 37 38
REMARK SMILES IDX 33 39 36 40 34 41 35 42 38 44 39 45 40 46 41 48 42 49 43 50
REMARK SMILES IDX 44 51 49 52 45 53 48 54 46 55 47 56 50 58 51 59 52 60
REMARK H PARENT 14 8 11 11 9 14 9 15 28 33 35 43 40 47 47 57 52 61
ROOT
ATOM      1  O   UNL     1       3.530  14.415   7.656  1.00  0.00    -0.272 OA
ATOM      2  C   UNL     1       4.188  13.455   7.228  1.00  0.00     0.245 C 
ENDROOT
BRANCH   2   3
ATOM      3  C   UNL     1       5.679  13.339   7.633  1.00  0.00     0.168 C 
ATOM      4  C   UNL     1       5.820  13.204   9.146  1.00  0.00     0.041 C 
BRANCH   3   5
ATOM      5  N   UNL     1       6.426  12.311   6.926  1.00  0.00    -0.342 N 
ATOM      6  C   UNL     1       7.704  12.533   6.457  1.00  0.00     0.251 C 
ATOM      7  O   UNL     1       8.285  13.608   6.560  1.00  0.00    -0.272 OA
ATOM      8  H   UNL     1       6.035  11.389   6.749  1.00  0.00     0.164 HD
BRANCH   6   9
ATOM      9  C   UNL     1       8.350  11.267   5.871  1.00  0.00     0.219 C 
BRANCH   9  10
ATOM     10  O   UNL     1       7.400  10.222   5.632  1.00  0.00    -0.382 OA
ATOM     11  H   UNL     1       7.172   9.906   6.533  1.00  0.00     0.211 HD
ENDBRANCH   9  10
BRANCH   9  12
ATOM     12  C   UNL     1       9.193  11.547   4.600  1.00  0.00     0.089 C 
BRANCH  12  13
ATOM     13  N   UNL     1       8.537  12.630   3.833  1.00  0.00    -0.325 NA
ATOM     14  H   UNL     1       9.252  13.187   3.360  1.00  0.00     0.119 HD
ATOM     15  H   UNL     1       8.088  13.274   4.488  1.00  0.00     0.119 HD
ENDBRANCH  12  13
BRANCH  12  16
ATOM     16  C   UNL     1      10.684  11.890   4.837  1.00  0.00     0.022 C 
BRANCH  16  17
ATOM     17  C   UNL     1      11.760  10.893   4.387  1.00  0.00     0.002 C 
BRANCH  17  18
ATOM     18  C   UNL     1      11.235   9.522   3.968  1.00  0.00     0.000 C 
BRANCH  18  19
ATOM     19  C   UNL     1      11.388   9.224   2.471  1.00  0.00    -0.000 C 
BRANCH  19  20
ATOM     20  C   UNL     1      10.608  10.158   1.540  1.00  0.00    -0.000 C 
BRANCH  20  21
ATOM     21  C   UNL     1      11.479  10.773   0.442  1.00  0.00    -0.003 C 
ATOM     22  C   UNL     1      12.244  11.984   0.953  1.00  0.00     0.004 C 
ENDBRANCH  20  21
ENDBRANCH  19  20
ENDBRANCH  18  19
ENDBRANCH  17  18
ENDBRANCH  16  17
ENDBRANCH  12  16
ENDBRANCH   9  12
ENDBRANCH   6   9
ENDBRANCH   3   5
ENDBRANCH   2   3
BRANCH   2  23
ATOM     23  N   UNL     1       3.559  12.447   6.504  1.00  0.00    -0.332 N 
ATOM     24  C   UNL     1       3.549  12.357   5.052  1.00  0.00     0.147 C 
BRANCH  23  25
ATOM     25  C   UNL     1       2.942  11.290   7.209  1.00  0.00     0.174 C 
BRANCH  25  26
ATOM     26  C   UNL     1       2.637  11.583   8.696  1.00  0.00     0.038 C 
BRANCH  26  27
ATOM     27  C   UNL     1       2.213  10.384   9.574  1.00  0.00    -0.015 C 
ATOM     28  C   UNL     1       3.321   9.936  10.526  1.00  0.00     0.007 C 
ATOM     29  C   UNL     1       0.912  10.619  10.336  1.00  0.00     0.007 C 
ENDBRANCH  26  27
ENDBRANCH  25  26
BRANCH  25  30
ATOM     30  C   UNL     1       3.792  10.018   6.988  1.00  0.00     0.243 C 
ATOM     31  O   UNL     1       4.968   9.952   7.342  1.00  0.00    -0.273 OA
ATOM     32  N   UNL     1       3.152   8.976   6.367  1.00  0.00    -0.342 N 
ATOM     33  H   UNL     1       2.141   9.055   6.232  1.00  0.00     0.164 HD
BRANCH  32  34
ATOM     34  C   UNL     1       3.808   7.705   6.052  1.00  0.00     0.175 C 
BRANCH  34  35
ATOM     35  C   UNL     1       2.898   6.510   6.378  1.00  0.00     0.070 C 
BRANCH  35  36
ATOM     36  C   UNL     1       2.652   6.350   7.861  1.00  0.00    -0.045 A 
ATOM     37  C   UNL     1       3.576   5.654   8.655  1.00  0.00     0.007 A 
ATOM     38  C   UNL     1       1.495   6.870   8.457  1.00  0.00     0.007 A 
ATOM     39  C   UNL     1       3.350   5.489  10.021  1.00  0.00     0.046 A 
ATOM     40  C   UNL     1       1.268   6.704   9.826  1.00  0.00     0.046 A 
ATOM     41  C   UNL     1       2.199   6.015  10.596  1.00  0.00     0.115 A 
BRANCH  41  42
ATOM     42  O   UNL     1       2.015   5.830  11.934  1.00  0.00    -0.508 OA
ATOM     43  H   UNL     1       2.888   5.753  12.354  1.00  0.00     0.293 HD
ENDBRANCH  41  42
ENDBRANCH  35  36
ENDBRANCH  34  35
BRANCH  34  44
ATOM     44  C   UNL     1       4.214   7.732   4.561  1.00  0.00     0.243 C 
ATOM     45  O   UNL     1       4.045   6.801   3.779  1.00  0.00    -0.273 OA
ATOM     46  N   UNL     1       4.914   8.865   4.204  1.00  0.00    -0.341 N 
ATOM     47  H   UNL     1       5.131   9.557   4.917  1.00  0.00     0.164 HD
BRANCH  46  48
ATOM     48  C   UNL     1       5.461   9.085   2.863  1.00  0.00     0.196 C 
BRANCH  48  49
ATOM     49  C   UNL     1       5.677  10.582   2.585  1.00  0.00     0.072 C 
BRANCH  49  50
ATOM     50  C   UNL     1       5.641  10.910   1.109  1.00  0.00    -0.045 A 
ATOM     51  C   UNL     1       4.422  10.878   0.416  1.00  0.00     0.007 A 
ATOM     52  C   UNL     1       6.813  11.229   0.413  1.00  0.00     0.007 A 
ATOM     53  C   UNL     1       4.378  11.166  -0.948  1.00  0.00     0.046 A 
ATOM     54  C   UNL     1       6.770  11.517  -0.953  1.00  0.00     0.046 A 
ATOM     55  C   UNL     1       5.551  11.484  -1.622  1.00  0.00     0.115 A 
BRANCH  55  56
ATOM     56  O   UNL     1       5.465  11.757  -2.955  1.00  0.00    -0.508 OA
ATOM     57  H   UNL     1       5.745  12.676  -3.098  1.00  0.00     0.293 HD
ENDBRANCH  55  56
ENDBRANCH  49  50
ENDBRANCH  48  49
BRANCH  48  58
ATOM     58  C   UNL     1       6.798   8.340   2.741  1.00  0.00     0.326 C 
ATOM     59  O   UNL     1       7.905   8.755   3.040  1.00  0.00    -0.250 OA
BRANCH  58  60
ATOM     60  O   UNL     1       6.673   7.080   2.253  1.00  0.00    -0.480 OA
ATOM     61  H   UNL     1       7.536   6.667   2.470  1.00  0.00     0.296 HD
ENDBRANCH  58  60
ENDBRANCH  48  58
ENDBRANCH  46  48
ENDBRANCH  34  44
ENDBRANCH  32  34
ENDBRANCH  25  30
ENDBRANCH  23  25
ENDBRANCH   2  23
TORSDOF 28
ENDMDL
MODEL 16
REMARK VINA RESULT:    -6.133      2.660     11.057
REMARK INTER + INTRA:         -19.242
REMARK INTER:                 -15.352
REMARK INTRA:                  -3.889
REMARK UNBOUND:                -3.967
REMARK SMILES CCCCCCC[C@H](N)[C@H](O)C(=O)N[C@H](C)C(=O)N(C)[C@H](CC(C)C)C(=O)N[C@@H](Cc1ccc(O)cc1)C(=O)N[C@@H](Cc1ccc(O)cc1)C(=O)O
REMARK SMILES IDX 18 1 17 2 15 3 16 4 14 5 12 6 13 7 10 9 11 10 8 12 9 13 7 16
REMARK SMILES IDX 6 17 5 18 4 19 3 20 2 21 1 22 19 23 20 24 21 25 22 26 23 27
REMARK SMILES IDX 24 28 25 29 26 30 27 31 28 32 29 34 30 35 31 36 32 37 37 38
REMARK SMILES IDX 33 39 36 40 34 41 35 42 38 44 39 45 40 46 41 48 42 49 43 50
REMARK SMILES IDX 44 51 49 52 45 53 48 54 46 55 47 56 50 58 51 59 52 60
REMARK H PARENT 14 8 11 11 9 14 9 15 28 33 35 43 40 47 47 57 52 61
ROOT
ATOM      1  O   UNL     1       7.810  11.317   2.043  1.00  0.00    -0.272 OA
ATOM      2  C   UNL     1       7.194  10.563   1.275  1.00  0.00     0.245 C 
ENDROOT
BRANCH   2   3
ATOM      3  C   UNL     1       7.207   9.041   1.563  1.00  0.00     0.168 C 
ATOM      4  C   UNL     1       8.385   8.669   2.458  1.00  0.00     0.041 C 
BRANCH   3   5
ATOM      5  N   UNL     1       5.953   8.504   2.067  1.00  0.00    -0.342 N 
ATOM      6  C   UNL     1       5.471   8.831   3.317  1.00  0.00     0.251 C 
ATOM      7  O   UNL     1       6.070   9.554   4.105  1.00  0.00    -0.272 OA
ATOM      8  H   UNL     1       5.384   7.865   1.516  1.00  0.00     0.164 HD
BRANCH   6   9
ATOM      9  C   UNL     1       4.066   8.263   3.579  1.00  0.00     0.219 C 
BRANCH   9  10
ATOM     10  O   UNL     1       3.272   8.181   2.389  1.00  0.00    -0.382 OA
ATOM     11  H   UNL     1       2.639   7.456   2.584  1.00  0.00     0.211 HD
ENDBRANCH   9  10
BRANCH   9  12
ATOM     12  C   UNL     1       4.089   6.901   4.321  1.00  0.00     0.089 C 
BRANCH  12  13
ATOM     13  N   UNL     1       5.430   6.297   4.149  1.00  0.00    -0.325 NA
ATOM     14  H   UNL     1       6.103   6.805   4.726  1.00  0.00     0.119 HD
ATOM     15  H   UNL     1       5.739   6.446   3.185  1.00  0.00     0.119 HD
ENDBRANCH  12  13
BRANCH  12  16
ATOM     16  C   UNL     1       3.711   6.939   5.821  1.00  0.00     0.022 C 
BRANCH  16  17
ATOM     17  C   UNL     1       3.619   8.295   6.533  1.00  0.00     0.002 C 
BRANCH  17  18
ATOM     18  C   UNL     1       2.380   8.482   7.406  1.00  0.00     0.000 C 
BRANCH  18  19
ATOM     19  C   UNL     1       1.499   7.231   7.516  1.00  0.00    -0.000 C 
BRANCH  19  20
ATOM     20  C   UNL     1       1.413   6.618   8.917  1.00  0.00    -0.000 C 
BRANCH  20  21
ATOM     21  C   UNL     1       2.745   6.652   9.670  1.00  0.00    -0.003 C 
ATOM     22  C   UNL     1       3.620   5.463   9.304  1.00  0.00     0.004 C 
ENDBRANCH  20  21
ENDBRANCH  19  20
ENDBRANCH  18  19
ENDBRANCH  17  18
ENDBRANCH  16  17
ENDBRANCH  12  16
ENDBRANCH   9  12
ENDBRANCH   6   9
ENDBRANCH   3   5
ENDBRANCH   2   3
BRANCH   2  23
ATOM     23  N   UNL     1       6.413  11.095   0.255  1.00  0.00    -0.332 N 
ATOM     24  C   UNL     1       4.962  11.208   0.299  1.00  0.00     0.147 C 
BRANCH  23  25
ATOM     25  C   UNL     1       7.054  11.720  -0.934  1.00  0.00     0.174 C 
BRANCH  25  26
ATOM     26  C   UNL     1       6.300  11.422  -2.251  1.00  0.00     0.038 C 
BRANCH  26  27
ATOM     27  C   UNL     1       5.855  12.638  -3.094  1.00  0.00    -0.015 C 
ATOM     28  C   UNL     1       4.336  12.797  -3.134  1.00  0.00     0.007 C 
ATOM     29  C   UNL     1       6.521  13.945  -2.672  1.00  0.00     0.007 C 
ENDBRANCH  26  27
ENDBRANCH  25  26
BRANCH  25  30
ATOM     30  C   UNL     1       8.556  11.356  -0.982  1.00  0.00     0.243 C 
ATOM     31  O   UNL     1       8.943  10.237  -1.315  1.00  0.00    -0.273 OA
ATOM     32  N   UNL     1       9.421  12.357  -0.624  1.00  0.00    -0.342 N 
ATOM     33  H   UNL     1       9.033  13.296  -0.498  1.00  0.00     0.164 HD
BRANCH  32  34
ATOM     34  C   UNL     1      10.875  12.184  -0.584  1.00  0.00     0.175 C 
BRANCH  34  35
ATOM     35  C   UNL     1      11.569  13.040  -1.656  1.00  0.00     0.070 C 
BRANCH  35  36
ATOM     36  C   UNL     1      12.155  12.211  -2.777  1.00  0.00    -0.045 A 
ATOM     37  C   UNL     1      11.312  11.453  -3.604  1.00  0.00     0.007 A 
ATOM     38  C   UNL     1      13.539  12.168  -2.991  1.00  0.00     0.007 A 
ATOM     39  C   UNL     1      11.844  10.675  -4.632  1.00  0.00     0.046 A 
ATOM     40  C   UNL     1      14.073  11.387  -4.020  1.00  0.00     0.046 A 
ATOM     41  C   UNL     1      13.219  10.648  -4.832  1.00  0.00     0.115 A 
BRANCH  41  42
ATOM     42  O   UNL     1      13.699   9.873  -5.846  1.00  0.00    -0.508 OA
ATOM     43  H   UNL     1      14.579   9.549  -5.591  1.00  0.00     0.293 HD
ENDBRANCH  41  42
ENDBRANCH  35  36
ENDBRANCH  34  35
BRANCH  34  44
ATOM     44  C   UNL     1      11.361  12.537   0.840  1.00  0.00     0.243 C 
ATOM     45  O   UNL     1      11.663  13.668   1.209  1.00  0.00    -0.273 OA
ATOM     46  N   UNL     1      11.555  11.433   1.643  1.00  0.00    -0.341 N 
ATOM     47  H   UNL     1      11.402  10.506   1.253  1.00  0.00     0.164 HD
BRANCH  46  48
ATOM     48  C   UNL     1      12.075  11.512   3.009  1.00  0.00     0.196 C 
BRANCH  48  49
ATOM     49  C   UNL     1      11.359  10.517   3.939  1.00  0.00     0.072 C 
BRANCH  49  50
ATOM     50  C   UNL     1      10.205  11.146   4.685  1.00  0.00    -0.045 A 
ATOM     51  C   UNL     1      10.026  12.537   4.653  1.00  0.00     0.007 A 
ATOM     52  C   UNL     1       9.315  10.362   5.431  1.00  0.00     0.007 A 
ATOM     53  C   UNL     1       8.972  13.130   5.348  1.00  0.00     0.046 A 
ATOM     54  C   UNL     1       8.261  10.956   6.128  1.00  0.00     0.046 A 
ATOM     55  C   UNL     1       8.097  12.336   6.080  1.00  0.00     0.115 A 
BRANCH  55  56
ATOM     56  O   UNL     1       7.082  12.954   6.746  1.00  0.00    -0.508 OA
ATOM     57  H   UNL     1       6.811  12.388   7.486  1.00  0.00     0.293 HD
ENDBRANCH  55  56
ENDBRANCH  49  50
ENDBRANCH  48  49
BRANCH  48  58
ATOM     58  C   UNL     1      13.579  11.207   2.989  1.00  0.00     0.326 C 
ATOM     59  O   UNL     1      14.145  10.246   3.486  1.00  0.00    -0.250 OA
BRANCH  58  60
ATOM     60  O   UNL     1      14.311  12.134   2.321  1.00  0.00    -0.480 OA
ATOM     61  H   UNL     1      15.074  11.618   1.983  1.00  0.00     0.296 HD
ENDBRANCH  58  60
ENDBRANCH  48  58
ENDBRANCH  46  48
ENDBRANCH  34  44
ENDBRANCH  32  34
ENDBRANCH  25  30
ENDBRANCH  23  25
ENDBRANCH   2  23
TORSDOF 28
ENDMDL
MODEL 17
REMARK VINA RESULT:    -6.132      2.576      5.680
REMARK INTER + INTRA:         -19.241
REMARK INTER:                 -14.948
REMARK INTRA:                  -4.293
REMARK UNBOUND:                -3.967
REMARK SMILES CCCCCCC[C@H](N)[C@H](O)C(=O)N[C@H](C)C(=O)N(C)[C@H](CC(C)C)C(=O)N[C@@H](Cc1ccc(O)cc1)C(=O)N[C@@H](Cc1ccc(O)cc1)C(=O)O
REMARK SMILES IDX 18 1 17 2 15 3 16 4 14 5 12 6 13 7 10 9 11 10 8 12 9 13 7 16
REMARK SMILES IDX 6 17 5 18 4 19 3 20 2 21 1 22 19 23 20 24 21 25 22 26 23 27
REMARK SMILES IDX 24 28 25 29 26 30 27 31 28 32 29 34 30 35 31 36 32 37 37 38
REMARK SMILES IDX 33 39 36 40 34 41 35 42 38 44 39 45 40 46 41 48 42 49 43 50
REMARK SMILES IDX 44 51 49 52 45 53 48 54 46 55 47 56 50 58 51 59 52 60
REMARK H PARENT 14 8 11 11 9 14 9 15 28 33 35 43 40 47 47 57 52 61
ROOT
ATOM      1  O   UNL     1       6.805  11.806   2.371  1.00  0.00    -0.272 OA
ATOM      2  C   UNL     1       6.666  10.722   2.957  1.00  0.00     0.245 C 
ENDROOT
BRANCH   2   3
ATOM      3  C   UNL     1       7.740   9.625   2.748  1.00  0.00     0.168 C 
ATOM      4  C   UNL     1       7.700   9.092   1.320  1.00  0.00     0.041 C 
BRANCH   3   5
ATOM      5  N   UNL     1       9.086  10.004   3.149  1.00  0.00    -0.342 N 
ATOM      6  C   UNL     1       9.760   9.342   4.153  1.00  0.00     0.251 C 
ATOM      7  O   UNL     1       9.272   8.425   4.805  1.00  0.00    -0.272 OA
ATOM      8  H   UNL     1       9.581  10.773   2.703  1.00  0.00     0.164 HD
BRANCH   6   9
ATOM      9  C   UNL     1      11.214   9.818   4.306  1.00  0.00     0.219 C 
BRANCH   9  10
ATOM     10  O   UNL     1      12.166   8.815   3.933  1.00  0.00    -0.382 OA
ATOM     11  H   UNL     1      11.649   8.206   3.361  1.00  0.00     0.211 HD
ENDBRANCH   9  10
BRANCH   9  12
ATOM     12  C   UNL     1      11.499  11.151   3.567  1.00  0.00     0.089 C 
BRANCH  12  13
ATOM     13  N   UNL     1      12.179  12.071   4.508  1.00  0.00    -0.325 NA
ATOM     14  H   UNL     1      12.723  11.525   5.178  1.00  0.00     0.119 HD
ATOM     15  H   UNL     1      11.472  12.553   5.068  1.00  0.00     0.119 HD
ENDBRANCH  12  13
BRANCH  12  16
ATOM     16  C   UNL     1      12.312  11.038   2.254  1.00  0.00     0.022 C 
BRANCH  16  17
ATOM     17  C   UNL     1      11.568  10.787   0.935  1.00  0.00     0.002 C 
BRANCH  17  18
ATOM     18  C   UNL     1      11.917  11.754  -0.195  1.00  0.00     0.000 C 
BRANCH  18  19
ATOM     19  C   UNL     1      12.486  11.072  -1.446  1.00  0.00    -0.000 C 
BRANCH  19  20
ATOM     20  C   UNL     1      13.989  11.262  -1.664  1.00  0.00    -0.000 C 
BRANCH  20  21
ATOM     21  C   UNL     1      14.383  11.287  -3.143  1.00  0.00    -0.003 C 
ATOM     22  C   UNL     1      14.463  12.710  -3.672  1.00  0.00     0.004 C 
ENDBRANCH  20  21
ENDBRANCH  19  20
ENDBRANCH  18  19
ENDBRANCH  17  18
ENDBRANCH  16  17
ENDBRANCH  12  16
ENDBRANCH   9  12
ENDBRANCH   6   9
ENDBRANCH   3   5
ENDBRANCH   2   3
BRANCH   2  23
ATOM     23  N   UNL     1       5.632  10.552   3.871  1.00  0.00    -0.332 N 
ATOM     24  C   UNL     1       4.309  11.145   3.741  1.00  0.00     0.147 C 
BRANCH  23  25
ATOM     25  C   UNL     1       5.789   9.615   5.017  1.00  0.00     0.174 C 
BRANCH  25  26
ATOM     26  C   UNL     1       4.529   8.754   5.268  1.00  0.00     0.038 C 
BRANCH  26  27
ATOM     27  C   UNL     1       4.596   7.272   4.836  1.00  0.00    -0.015 C 
ATOM     28  C   UNL     1       3.421   6.454   5.370  1.00  0.00     0.007 C 
ATOM     29  C   UNL     1       4.739   7.085   3.328  1.00  0.00     0.007 C 
ENDBRANCH  26  27
ENDBRANCH  25  26
BRANCH  25  30
ATOM     30  C   UNL     1       6.278  10.381   6.268  1.00  0.00     0.243 C 
ATOM     31  O   UNL     1       7.401  10.880   6.328  1.00  0.00    -0.273 OA
ATOM     32  N   UNL     1       5.382  10.460   7.303  1.00  0.00    -0.342 N 
ATOM     33  H   UNL     1       4.424  10.146   7.125  1.00  0.00     0.164 HD
BRANCH  32  34
ATOM     34  C   UNL     1       5.682  11.123   8.575  1.00  0.00     0.175 C 
BRANCH  34  35
ATOM     35  C   UNL     1       5.456  12.640   8.481  1.00  0.00     0.070 C 
BRANCH  35  36
ATOM     36  C   UNL     1       3.992  13.010   8.398  1.00  0.00    -0.045 A 
ATOM     37  C   UNL     1       3.353  13.595   9.501  1.00  0.00     0.007 A 
ATOM     38  C   UNL     1       3.251  12.754   7.237  1.00  0.00     0.007 A 
ATOM     39  C   UNL     1       1.999  13.927   9.439  1.00  0.00     0.046 A 
ATOM     40  C   UNL     1       1.895  13.085   7.174  1.00  0.00     0.046 A 
ATOM     41  C   UNL     1       1.282  13.670   8.277  1.00  0.00     0.115 A 
BRANCH  41  42
ATOM     42  O   UNL     1      -0.039  14.007   8.258  1.00  0.00    -0.508 OA
ATOM     43  H   UNL     1      -0.137  14.829   7.749  1.00  0.00     0.293 HD
ENDBRANCH  41  42
ENDBRANCH  35  36
ENDBRANCH  34  35
BRANCH  34  44
ATOM     44  C   UNL     1       4.806  10.476   9.671  1.00  0.00     0.243 C 
ATOM     45  O   UNL     1       5.025  10.563  10.876  1.00  0.00    -0.273 OA
ATOM     46  N   UNL     1       3.808   9.667   9.169  1.00  0.00    -0.341 N 
ATOM     47  H   UNL     1       3.740   9.533   8.163  1.00  0.00     0.164 HD
BRANCH  46  48
ATOM     48  C   UNL     1       2.895   8.895  10.015  1.00  0.00     0.196 C 
BRANCH  48  49
ATOM     49  C   UNL     1       1.428   9.262   9.735  1.00  0.00     0.072 C 
BRANCH  49  50
ATOM     50  C   UNL     1       0.934  10.393  10.609  1.00  0.00    -0.045 A 
ATOM     51  C   UNL     1       1.671  10.775  11.739  1.00  0.00     0.007 A 
ATOM     52  C   UNL     1      -0.265  11.057  10.319  1.00  0.00     0.007 A 
ATOM     53  C   UNL     1       1.219  11.808  12.560  1.00  0.00     0.046 A 
ATOM     54  C   UNL     1      -0.718  12.090  11.142  1.00  0.00     0.046 A 
ATOM     55  C   UNL     1       0.029  12.458  12.256  1.00  0.00     0.115 A 
BRANCH  55  56
ATOM     56  O   UNL     1      -0.379  13.461  13.084  1.00  0.00    -0.508 OA
ATOM     57  H   UNL     1      -0.032  14.301  12.742  1.00  0.00     0.293 HD
ENDBRANCH  55  56
ENDBRANCH  49  50
ENDBRANCH  48  49
BRANCH  48  58
ATOM     58  C   UNL     1       3.111   7.399   9.748  1.00  0.00     0.326 C 
ATOM     59  O   UNL     1       3.266   6.856   8.666  1.00  0.00    -0.250 OA
BRANCH  58  60
ATOM     60  O   UNL     1       3.139   6.646  10.876  1.00  0.00    -0.480 OA
ATOM     61  H   UNL     1       2.341   6.943  11.366  1.00  0.00     0.296 HD
ENDBRANCH  58  60
ENDBRANCH  48  58
ENDBRANCH  46  48
ENDBRANCH  34  44
ENDBRANCH  32  34
ENDBRANCH  25  30
ENDBRANCH  23  25
ENDBRANCH   2  23
TORSDOF 28
ENDMDL
MODEL 18
REMARK VINA RESULT:    -6.128      2.985     12.457
REMARK INTER + INTRA:         -19.231
REMARK INTER:                 -15.901
REMARK INTRA:                  -3.330
REMARK UNBOUND:                -3.967
REMARK SMILES CCCCCCC[C@H](N)[C@H](O)C(=O)N[C@H](C)C(=O)N(C)[C@H](CC(C)C)C(=O)N[C@@H](Cc1ccc(O)cc1)C(=O)N[C@@H](Cc1ccc(O)cc1)C(=O)O
REMARK SMILES IDX 18 1 17 2 15 3 16 4 14 5 12 6 13 7 10 9 11 10 8 12 9 13 7 16
REMARK SMILES IDX 6 17 5 18 4 19 3 20 2 21 1 22 19 23 20 24 21 25 22 26 23 27
REMARK SMILES IDX 24 28 25 29 26 30 27 31 28 32 29 34 30 35 31 36 32 37 37 38
REMARK SMILES IDX 33 39 36 40 34 41 35 42 38 44 39 45 40 46 41 48 42 49 43 50
REMARK SMILES IDX 44 51 49 52 45 53 48 54 46 55 47 56 50 58 51 59 52 60
REMARK H PARENT 14 8 11 11 9 14 9 15 28 33 35 43 40 47 47 57 52 61
ROOT
ATOM      1  O   UNL     1       6.117   8.188   4.742  1.00  0.00    -0.272 OA
ATOM      2  C   UNL     1       5.174   8.801   5.264  1.00  0.00     0.245 C 
ENDROOT
BRANCH   2   3
ATOM      3  C   UNL     1       3.901   8.009   5.655  1.00  0.00     0.168 C 
ATOM      4  C   UNL     1       3.692   6.823   4.720  1.00  0.00     0.041 C 
BRANCH   3   5
ATOM      5  N   UNL     1       3.832   7.615   7.054  1.00  0.00    -0.342 N 
ATOM      6  C   UNL     1       3.138   8.357   7.986  1.00  0.00     0.251 C 
ATOM      7  O   UNL     1       2.569   9.412   7.723  1.00  0.00    -0.272 OA
ATOM      8  H   UNL     1       4.294   6.777   7.398  1.00  0.00     0.164 HD
BRANCH   6   9
ATOM      9  C   UNL     1       3.082   7.679   9.364  1.00  0.00     0.219 C 
BRANCH   9  10
ATOM     10  O   UNL     1       3.402   8.575  10.434  1.00  0.00    -0.382 OA
ATOM     11  H   UNL     1       3.063   9.442  10.119  1.00  0.00     0.211 HD
ENDBRANCH   9  10
BRANCH   9  12
ATOM     12  C   UNL     1       1.735   6.958   9.633  1.00  0.00     0.089 C 
BRANCH  12  13
ATOM     13  N   UNL     1       1.122   6.611   8.331  1.00  0.00    -0.325 NA
ATOM     14  H   UNL     1       1.057   5.595   8.250  1.00  0.00     0.119 HD
ATOM     15  H   UNL     1       1.754   6.899   7.580  1.00  0.00     0.119 HD
ENDBRANCH  12  13
BRANCH  12  16
ATOM     16  C   UNL     1       1.806   5.704  10.537  1.00  0.00     0.022 C 
BRANCH  16  17
ATOM     17  C   UNL     1       1.461   5.837  12.027  1.00  0.00     0.002 C 
BRANCH  17  18
ATOM     18  C   UNL     1       1.049   4.535  12.711  1.00  0.00     0.000 C 
BRANCH  18  19
ATOM     19  C   UNL     1      -0.408   4.518  13.195  1.00  0.00    -0.000 C 
BRANCH  19  20
ATOM     20  C   UNL     1      -1.254   3.357  12.666  1.00  0.00    -0.000 C 
BRANCH  20  21
ATOM     21  C   UNL     1      -2.687   3.365  13.204  1.00  0.00    -0.003 C 
ATOM     22  C   UNL     1      -3.689   3.698  12.109  1.00  0.00     0.004 C 
ENDBRANCH  20  21
ENDBRANCH  19  20
ENDBRANCH  18  19
ENDBRANCH  17  18
ENDBRANCH  16  17
ENDBRANCH  12  16
ENDBRANCH   9  12
ENDBRANCH   6   9
ENDBRANCH   3   5
ENDBRANCH   2   3
BRANCH   2  23
ATOM     23  N   UNL     1       5.317  10.143   5.598  1.00  0.00    -0.332 N 
ATOM     24  C   UNL     1       5.886  10.627   6.847  1.00  0.00     0.147 C 
BRANCH  23  25
ATOM     25  C   UNL     1       4.999  11.203   4.602  1.00  0.00     0.174 C 
BRANCH  25  26
ATOM     26  C   UNL     1       3.499  11.583   4.587  1.00  0.00     0.038 C 
BRANCH  26  27
ATOM     27  C   UNL     1       3.148  13.057   4.889  1.00  0.00    -0.015 C 
ATOM     28  C   UNL     1       4.243  14.023   4.438  1.00  0.00     0.007 C 
ATOM     29  C   UNL     1       1.792  13.485   4.332  1.00  0.00     0.007 C 
ENDBRANCH  26  27
ENDBRANCH  25  26
BRANCH  25  30
ATOM     30  C   UNL     1       5.555  10.813   3.214  1.00  0.00     0.243 C 
ATOM     31  O   UNL     1       4.827  10.397   2.315  1.00  0.00    -0.273 OA
ATOM     32  N   UNL     1       6.910  10.957   3.056  1.00  0.00    -0.342 N 
ATOM     33  H   UNL     1       7.424  11.440   3.797  1.00  0.00     0.164 HD
BRANCH  32  34
ATOM     34  C   UNL     1       7.614  10.611   1.819  1.00  0.00     0.175 C 
BRANCH  34  35
ATOM     35  C   UNL     1       8.501  11.769   1.338  1.00  0.00     0.070 C 
BRANCH  35  36
ATOM     36  C   UNL     1       9.258  11.440   0.071  1.00  0.00    -0.045 A 
ATOM     37  C   UNL     1       8.558  11.177  -1.116  1.00  0.00     0.007 A 
ATOM     38  C   UNL     1      10.657  11.370   0.067  1.00  0.00     0.007 A 
ATOM     39  C   UNL     1       9.247  10.858  -2.287  1.00  0.00     0.046 A 
ATOM     40  C   UNL     1      11.348  11.049  -1.104  1.00  0.00     0.046 A 
ATOM     41  C   UNL     1      10.635  10.798  -2.272  1.00  0.00     0.115 A 
BRANCH  41  42
ATOM     42  O   UNL     1      11.270  10.480  -3.436  1.00  0.00    -0.508 OA
ATOM     43  H   UNL     1      11.929  11.169  -3.622  1.00  0.00     0.293 HD
ENDBRANCH  41  42
ENDBRANCH  35  36
ENDBRANCH  34  35
BRANCH  34  44
ATOM     44  C   UNL     1       8.433   9.326   2.077  1.00  0.00     0.243 C 
ATOM     45  O   UNL     1       8.091   8.202   1.721  1.00  0.00    -0.273 OA
ATOM     46  N   UNL     1       9.541   9.532   2.871  1.00  0.00    -0.341 N 
ATOM     47  H   UNL     1       9.719  10.463   3.240  1.00  0.00     0.164 HD
BRANCH  46  48
ATOM     48  C   UNL     1      10.432   8.454   3.307  1.00  0.00     0.196 C 
BRANCH  48  49
ATOM     49  C   UNL     1      11.908   8.873   3.210  1.00  0.00     0.072 C 
BRANCH  49  50
ATOM     50  C   UNL     1      12.111  10.350   3.459  1.00  0.00    -0.045 A 
ATOM     51  C   UNL     1      11.370  10.999   4.458  1.00  0.00     0.007 A 
ATOM     52  C   UNL     1      13.018  11.093   2.692  1.00  0.00     0.007 A 
ATOM     53  C   UNL     1      11.539  12.364   4.689  1.00  0.00     0.046 A 
ATOM     54  C   UNL     1      13.186  12.461   2.923  1.00  0.00     0.046 A 
ATOM     55  C   UNL     1      12.445  13.084   3.920  1.00  0.00     0.115 A 
BRANCH  55  56
ATOM     56  O   UNL     1      12.579  14.417   4.176  1.00  0.00    -0.508 OA
ATOM     57  H   UNL     1      12.192  14.602   5.047  1.00  0.00     0.293 HD
ENDBRANCH  55  56
ENDBRANCH  49  50
ENDBRANCH  48  49
BRANCH  48  58
ATOM     58  C   UNL     1      10.096   8.085   4.759  1.00  0.00     0.326 C 
ATOM     59  O   UNL     1      10.859   7.648   5.606  1.00  0.00    -0.250 OA
BRANCH  58  60
ATOM     60  O   UNL     1       8.797   8.302   5.086  1.00  0.00    -0.480 OA
ATOM     61  H   UNL     1       8.773   9.261   5.292  1.00  0.00     0.296 HD
ENDBRANCH  58  60
ENDBRANCH  48  58
ENDBRANCH  46  48
ENDBRANCH  34  44
ENDBRANCH  32  34
ENDBRANCH  25  30
ENDBRANCH  23  25
ENDBRANCH   2  23
TORSDOF 28
ENDMDL
MODEL 19
REMARK VINA RESULT:    -6.127      2.309      5.319
REMARK INTER + INTRA:         -19.227
REMARK INTER:                 -15.784
REMARK INTRA:                  -3.443
REMARK UNBOUND:                -3.967
REMARK SMILES CCCCCCC[C@H](N)[C@H](O)C(=O)N[C@H](C)C(=O)N(C)[C@H](CC(C)C)C(=O)N[C@@H](Cc1ccc(O)cc1)C(=O)N[C@@H](Cc1ccc(O)cc1)C(=O)O
REMARK SMILES IDX 18 1 17 2 15 3 16 4 14 5 12 6 13 7 10 9 11 10 8 12 9 13 7 16
REMARK SMILES IDX 6 17 5 18 4 19 3 20 2 21 1 22 19 23 20 24 21 25 22 26 23 27
REMARK SMILES IDX 24 28 25 29 26 30 27 31 28 32 29 34 30 35 31 36 32 37 37 38
REMARK SMILES IDX 33 39 36 40 34 41 35 42 38 44 39 45 40 46 41 48 42 49 43 50
REMARK SMILES IDX 44 51 49 52 45 53 48 54 46 55 47 56 50 58 51 59 52 60
REMARK H PARENT 14 8 11 11 9 14 9 15 28 33 35 43 40 47 47 57 52 61
ROOT
ATOM      1  O   UNL     1      11.334  13.752  -0.170  1.00  0.00    -0.272 OA
ATOM      2  C   UNL     1      11.856  12.628  -0.152  1.00  0.00     0.245 C 
ENDROOT
BRANCH   2   3
ATOM      3  C   UNL     1      13.389  12.518  -0.345  1.00  0.00     0.168 C 
ATOM      4  C   UNL     1      14.053  11.950   0.904  1.00  0.00     0.041 C 
BRANCH   3   5
ATOM      5  N   UNL     1      13.804  11.813  -1.548  1.00  0.00    -0.342 N 
ATOM      6  C   UNL     1      13.977  12.466  -2.751  1.00  0.00     0.251 C 
ATOM      7  O   UNL     1      13.758  13.662  -2.909  1.00  0.00    -0.272 OA
ATOM      8  H   UNL     1      13.982  10.812  -1.548  1.00  0.00     0.164 HD
BRANCH   6   9
ATOM      9  C   UNL     1      14.554  11.553  -3.844  1.00  0.00     0.219 C 
BRANCH   9  10
ATOM     10  O   UNL     1      15.200  10.390  -3.310  1.00  0.00    -0.382 OA
ATOM     11  H   UNL     1      16.137  10.501  -3.582  1.00  0.00     0.211 HD
ENDBRANCH   9  10
BRANCH   9  12
ATOM     12  C   UNL     1      13.511  11.157  -4.921  1.00  0.00     0.089 C 
BRANCH  12  13
ATOM     13  N   UNL     1      13.976   9.921  -5.591  1.00  0.00    -0.325 NA
ATOM     14  H   UNL     1      14.152   9.203  -4.887  1.00  0.00     0.119 HD
ATOM     15  H   UNL     1      14.886  10.101  -6.023  1.00  0.00     0.119 HD
ENDBRANCH  12  13
BRANCH  12  16
ATOM     16  C   UNL     1      12.057  10.976  -4.422  1.00  0.00     0.022 C 
BRANCH  16  17
ATOM     17  C   UNL     1      10.991  11.998  -4.840  1.00  0.00     0.002 C 
BRANCH  17  18
ATOM     18  C   UNL     1      11.478  13.081  -5.802  1.00  0.00     0.000 C 
BRANCH  18  19
ATOM     19  C   UNL     1      11.033  12.871  -7.255  1.00  0.00    -0.000 C 
BRANCH  19  20
ATOM     20  C   UNL     1       9.698  13.523  -7.627  1.00  0.00    -0.000 C 
BRANCH  20  21
ATOM     21  C   UNL     1       9.409  14.796  -6.827  1.00  0.00    -0.003 C 
ATOM     22  C   UNL     1       8.100  14.684  -6.060  1.00  0.00     0.004 C 
ENDBRANCH  20  21
ENDBRANCH  19  20
ENDBRANCH  18  19
ENDBRANCH  17  18
ENDBRANCH  16  17
ENDBRANCH  12  16
ENDBRANCH   9  12
ENDBRANCH   6   9
ENDBRANCH   3   5
ENDBRANCH   2   3
BRANCH   2  23
ATOM     23  N   UNL     1      11.088  11.510   0.160  1.00  0.00    -0.332 N 
ATOM     24  C   UNL     1      10.666  10.504  -0.803  1.00  0.00     0.147 C 
BRANCH  23  25
ATOM     25  C   UNL     1      10.748  11.204   1.576  1.00  0.00     0.174 C 
BRANCH  25  26
ATOM     26  C   UNL     1      11.126   9.762   1.988  1.00  0.00     0.038 C 
BRANCH  26  27
ATOM     27  C   UNL     1      11.847   9.587   3.343  1.00  0.00    -0.015 C 
ATOM     28  C   UNL     1      11.512  10.703   4.332  1.00  0.00     0.007 C 
ATOM     29  C   UNL     1      11.617   8.219   3.981  1.00  0.00     0.007 C 
ENDBRANCH  26  27
ENDBRANCH  25  26
BRANCH  25  30
ATOM     30  C   UNL     1       9.271  11.564   1.859  1.00  0.00     0.243 C 
ATOM     31  O   UNL     1       8.874  12.728   1.854  1.00  0.00    -0.273 OA
ATOM     32  N   UNL     1       8.442  10.504   2.120  1.00  0.00    -0.342 N 
ATOM     33  H   UNL     1       8.813   9.563   1.966  1.00  0.00     0.164 HD
BRANCH  32  34
ATOM     34  C   UNL     1       7.019  10.658   2.435  1.00  0.00     0.175 C 
BRANCH  34  35
ATOM     35  C   UNL     1       6.137  10.299   1.230  1.00  0.00     0.070 C 
BRANCH  35  36
ATOM     36  C   UNL     1       6.215  11.326   0.122  1.00  0.00    -0.045 A 
ATOM     37  C   UNL     1       5.586  12.571   0.273  1.00  0.00     0.007 A 
ATOM     38  C   UNL     1       6.891  11.044  -1.073  1.00  0.00     0.007 A 
ATOM     39  C   UNL     1       5.640  13.519  -0.749  1.00  0.00     0.046 A 
ATOM     40  C   UNL     1       6.945  11.992  -2.097  1.00  0.00     0.046 A 
ATOM     41  C   UNL     1       6.320  13.223  -1.925  1.00  0.00     0.115 A 
BRANCH  41  42
ATOM     42  O   UNL     1       6.347  14.175  -2.900  1.00  0.00    -0.508 OA
ATOM     43  H   UNL     1       6.526  13.737  -3.749  1.00  0.00     0.293 HD
ENDBRANCH  41  42
ENDBRANCH  35  36
ENDBRANCH  34  35
BRANCH  34  44
ATOM     44  C   UNL     1       6.703   9.777   3.665  1.00  0.00     0.243 C 
ATOM     45  O   UNL     1       7.480   9.578   4.594  1.00  0.00    -0.273 OA
ATOM     46  N   UNL     1       5.498   9.113   3.569  1.00  0.00    -0.341 N 
ATOM     47  H   UNL     1       4.942   9.219   2.724  1.00  0.00     0.164 HD
BRANCH  46  48
ATOM     48  C   UNL     1       5.016   8.169   4.579  1.00  0.00     0.196 C 
BRANCH  48  49
ATOM     49  C   UNL     1       3.654   8.604   5.146  1.00  0.00     0.072 C 
BRANCH  49  50
ATOM     50  C   UNL     1       3.564   8.428   6.645  1.00  0.00    -0.045 A 
ATOM     51  C   UNL     1       3.113   7.212   7.181  1.00  0.00     0.007 A 
ATOM     52  C   UNL     1       3.906   9.471   7.515  1.00  0.00     0.007 A 
ATOM     53  C   UNL     1       3.014   7.043   8.562  1.00  0.00     0.046 A 
ATOM     54  C   UNL     1       3.806   9.301   8.898  1.00  0.00     0.046 A 
ATOM     55  C   UNL     1       3.361   8.087   9.409  1.00  0.00     0.115 A 
BRANCH  55  56
ATOM     56  O   UNL     1       3.248   7.882  10.753  1.00  0.00    -0.508 OA
ATOM     57  H   UNL     1       3.346   8.736  11.202  1.00  0.00     0.293 HD
ENDBRANCH  55  56
ENDBRANCH  49  50
ENDBRANCH  48  49
BRANCH  48  58
ATOM     58  C   UNL     1       4.889   6.778   3.943  1.00  0.00     0.326 C 
ATOM     59  O   UNL     1       4.229   5.836   4.352  1.00  0.00    -0.250 OA
BRANCH  58  60
ATOM     60  O   UNL     1       5.598   6.641   2.795  1.00  0.00    -0.480 OA
ATOM     61  H   UNL     1       5.944   7.546   2.634  1.00  0.00     0.296 HD
ENDBRANCH  58  60
ENDBRANCH  48  58
ENDBRANCH  46  48
ENDBRANCH  34  44
ENDBRANCH  32  34
ENDBRANCH  25  30
ENDBRANCH  23  25
ENDBRANCH   2  23
TORSDOF 28
ENDMDL
MODEL 20
REMARK VINA RESULT:    -6.118      3.437      6.575
REMARK INTER + INTRA:         -19.206
REMARK INTER:                 -13.940
REMARK INTRA:                  -5.265
REMARK UNBOUND:                -3.967
REMARK SMILES CCCCCCC[C@H](N)[C@H](O)C(=O)N[C@H](C)C(=O)N(C)[C@H](CC(C)C)C(=O)N[C@@H](Cc1ccc(O)cc1)C(=O)N[C@@H](Cc1ccc(O)cc1)C(=O)O
REMARK SMILES IDX 18 1 17 2 15 3 16 4 14 5 12 6 13 7 10 9 11 10 8 12 9 13 7 16
REMARK SMILES IDX 6 17 5 18 4 19 3 20 2 21 1 22 19 23 20 24 21 25 22 26 23 27
REMARK SMILES IDX 24 28 25 29 26 30 27 31 28 32 29 34 30 35 31 36 32 37 37 38
REMARK SMILES IDX 33 39 36 40 34 41 35 42 38 44 39 45 40 46 41 48 42 49 43 50
REMARK SMILES IDX 44 51 49 52 45 53 48 54 46 55 47 56 50 58 51 59 52 60
REMARK H PARENT 14 8 11 11 9 14 9 15 28 33 35 43 40 47 47 57 52 61
ROOT
ATOM      1  O   UNL     1       5.938   6.799   2.070  1.00  0.00    -0.272 OA
ATOM      2  C   UNL     1       6.226   7.901   2.559  1.00  0.00     0.245 C 
ENDROOT
BRANCH   2   3
ATOM      3  C   UNL     1       7.589   8.540   2.195  1.00  0.00     0.168 C 
ATOM      4  C   UNL     1       7.404   9.686   1.206  1.00  0.00     0.041 C 
BRANCH   3   5
ATOM      5  N   UNL     1       8.403   8.934   3.334  1.00  0.00    -0.342 N 
ATOM      6  C   UNL     1       9.731   8.578   3.438  1.00  0.00     0.251 C 
ATOM      7  O   UNL     1      10.310   7.878   2.614  1.00  0.00    -0.272 OA
ATOM      8  H   UNL     1       8.023   9.487   4.099  1.00  0.00     0.164 HD
BRANCH   6   9
ATOM      9  C   UNL     1      10.426   9.222   4.649  1.00  0.00     0.219 C 
BRANCH   9  10
ATOM     10  O   UNL     1      10.918   8.254   5.583  1.00  0.00    -0.382 OA
ATOM     11  H   UNL     1      10.101   7.852   5.951  1.00  0.00     0.211 HD
ENDBRANCH   9  10
BRANCH   9  12
ATOM     12  C   UNL     1      11.545  10.220   4.249  1.00  0.00     0.089 C 
BRANCH  12  13
ATOM     13  N   UNL     1      12.672   9.451   3.673  1.00  0.00    -0.325 NA
ATOM     14  H   UNL     1      12.572   8.467   3.927  1.00  0.00     0.119 HD
ATOM     15  H   UNL     1      13.541   9.755   4.119  1.00  0.00     0.119 HD
ENDBRANCH  12  13
BRANCH  12  16
ATOM     16  C   UNL     1      11.127  11.355   3.283  1.00  0.00     0.022 C 
BRANCH  16  17
ATOM     17  C   UNL     1      11.292  12.814   3.731  1.00  0.00     0.002 C 
BRANCH  17  18
ATOM     18  C   UNL     1      10.022  13.472   4.265  1.00  0.00     0.000 C 
BRANCH  18  19
ATOM     19  C   UNL     1       8.725  12.880   3.696  1.00  0.00    -0.000 C 
BRANCH  19  20
ATOM     20  C   UNL     1       8.040  13.729   2.621  1.00  0.00    -0.000 C 
BRANCH  20  21
ATOM     21  C   UNL     1       8.380  13.281   1.196  1.00  0.00    -0.003 C 
ATOM     22  C   UNL     1       8.599  14.474   0.278  1.00  0.00     0.004 C 
ENDBRANCH  20  21
ENDBRANCH  19  20
ENDBRANCH  18  19
ENDBRANCH  17  18
ENDBRANCH  16  17
ENDBRANCH  12  16
ENDBRANCH   9  12
ENDBRANCH   6   9
ENDBRANCH   3   5
ENDBRANCH   2   3
BRANCH   2  23
ATOM     23  N   UNL     1       5.286   8.594   3.316  1.00  0.00    -0.332 N 
ATOM     24  C   UNL     1       4.374   9.595   2.784  1.00  0.00     0.147 C 
BRANCH  23  25
ATOM     25  C   UNL     1       5.067   8.243   4.746  1.00  0.00     0.174 C 
BRANCH  25  26
ATOM     26  C   UNL     1       3.618   7.789   5.039  1.00  0.00     0.038 C 
BRANCH  26  27
ATOM     27  C   UNL     1       3.419   6.319   5.472  1.00  0.00    -0.015 C 
ATOM     28  C   UNL     1       4.549   5.410   4.990  1.00  0.00     0.007 C 
ATOM     29  C   UNL     1       3.198   6.152   6.973  1.00  0.00     0.007 C 
ENDBRANCH  26  27
ENDBRANCH  25  26
BRANCH  25  30
ATOM     30  C   UNL     1       5.555   9.393   5.656  1.00  0.00     0.243 C 
ATOM     31  O   UNL     1       6.680   9.877   5.546  1.00  0.00    -0.273 OA
ATOM     32  N   UNL     1       4.655   9.829   6.594  1.00  0.00    -0.342 N 
ATOM     33  H   UNL     1       3.696   9.477   6.531  1.00  0.00     0.164 HD
BRANCH  32  34
ATOM     34  C   UNL     1       4.953  10.891   7.559  1.00  0.00     0.175 C 
BRANCH  34  35
ATOM     35  C   UNL     1       4.393  12.244   7.093  1.00  0.00     0.070 C 
BRANCH  35  36
ATOM     36  C   UNL     1       5.477  13.258   6.807  1.00  0.00    -0.045 A 
ATOM     37  C   UNL     1       6.753  13.099   7.370  1.00  0.00     0.007 A 
ATOM     38  C   UNL     1       5.222  14.377   6.003  1.00  0.00     0.007 A 
ATOM     39  C   UNL     1       7.756  14.038   7.123  1.00  0.00     0.046 A 
ATOM     40  C   UNL     1       6.225  15.317   5.757  1.00  0.00     0.046 A 
ATOM     41  C   UNL     1       7.484  15.138   6.319  1.00  0.00     0.115 A 
BRANCH  41  42
ATOM     42  O   UNL     1       8.491  16.033   6.106  1.00  0.00    -0.508 OA
ATOM     43  H   UNL     1       9.043  16.066   6.904  1.00  0.00     0.293 HD
ENDBRANCH  41  42
ENDBRANCH  35  36
ENDBRANCH  34  35
BRANCH  34  44
ATOM     44  C   UNL     1       4.377  10.469   8.929  1.00  0.00     0.243 C 
ATOM     45  O   UNL     1       5.017  10.454   9.977  1.00  0.00    -0.273 OA
ATOM     46  N   UNL     1       3.091   9.976   8.855  1.00  0.00    -0.341 N 
ATOM     47  H   UNL     1       2.643   9.900   7.946  1.00  0.00     0.164 HD
BRANCH  46  48
ATOM     48  C   UNL     1       2.361   9.453  10.012  1.00  0.00     0.196 C 
BRANCH  48  49
ATOM     49  C   UNL     1       0.874   9.839   9.958  1.00  0.00     0.072 C 
BRANCH  49  50
ATOM     50  C   UNL     1       0.522  10.940  10.933  1.00  0.00    -0.045 A 
ATOM     51  C   UNL     1       1.346  11.180  12.042  1.00  0.00     0.007 A 
ATOM     52  C   UNL     1      -0.630  11.717  10.759  1.00  0.00     0.007 A 
ATOM     53  C   UNL     1       1.025  12.184  12.956  1.00  0.00     0.046 A 
ATOM     54  C   UNL     1      -0.952  12.721  11.674  1.00  0.00     0.046 A 
ATOM     55  C   UNL     1      -0.120  12.947  12.765  1.00  0.00     0.115 A 
BRANCH  55  56
ATOM     56  O   UNL     1      -0.399  13.917  13.682  1.00  0.00    -0.508 OA
ATOM     57  H   UNL     1      -1.344  13.871  13.898  1.00  0.00     0.293 HD
ENDBRANCH  55  56
ENDBRANCH  49  50
ENDBRANCH  48  49
BRANCH  48  58
ATOM     58  C   UNL     1       2.495   7.924  10.037  1.00  0.00     0.326 C 
ATOM     59  O   UNL     1       3.508   7.274  10.239  1.00  0.00    -0.250 OA
BRANCH  58  60
ATOM     60  O   UNL     1       1.324   7.274   9.816  1.00  0.00    -0.480 OA
ATOM     61  H   UNL     1       0.656   7.992   9.862  1.00  0.00     0.296 HD
ENDBRANCH  58  60
ENDBRANCH  48  58
ENDBRANCH  46  48
ENDBRANCH  34  44
ENDBRANCH  32  34
ENDBRANCH  25  30
ENDBRANCH  23  25
ENDBRANCH   2  23
TORSDOF 28
ENDMDL
MODEL 21
REMARK VINA RESULT:    -6.115      2.812      6.661
REMARK INTER + INTRA:         -19.197
REMARK INTER:                 -14.637
REMARK INTRA:                  -4.560
REMARK UNBOUND:                -3.967
REMARK SMILES CCCCCCC[C@H](N)[C@H](O)C(=O)N[C@H](C)C(=O)N(C)[C@H](CC(C)C)C(=O)N[C@@H](Cc1ccc(O)cc1)C(=O)N[C@@H](Cc1ccc(O)cc1)C(=O)O
REMARK SMILES IDX 18 1 17 2 15 3 16 4 14 5 12 6 13 7 10 9 11 10 8 12 9 13 7 16
REMARK SMILES IDX 6 17 5 18 4 19 3 20 2 21 1 22 19 23 20 24 21 25 22 26 23 27
REMARK SMILES IDX 24 28 25 29 26 30 27 31 28 32 29 34 30 35 31 36 32 37 37 38
REMARK SMILES IDX 33 39 36 40 34 41 35 42 38 44 39 45 40 46 41 48 42 49 43 50
REMARK SMILES IDX 44 51 49 52 45 53 48 54 46 55 47 56 50 58 51 59 52 60
REMARK H PARENT 14 8 11 11 9 14 9 15 28 33 35 43 40 47 47 57 52 61
ROOT
ATOM      1  O   UNL     1       6.523  10.878  -1.501  1.00  0.00    -0.272 OA
ATOM      2  C   UNL     1       6.406  11.802  -0.683  1.00  0.00     0.245 C 
ENDROOT
BRANCH   2   3
ATOM      3  C   UNL     1       7.687  12.391  -0.042  1.00  0.00     0.168 C 
ATOM      4  C   UNL     1       7.399  12.918   1.359  1.00  0.00     0.041 C 
BRANCH   3   5
ATOM      5  N   UNL     1       8.842  11.508  -0.062  1.00  0.00    -0.342 N 
ATOM      6  C   UNL     1      10.121  11.986  -0.260  1.00  0.00     0.251 C 
ATOM      7  O   UNL     1      10.376  13.166  -0.473  1.00  0.00    -0.272 OA
ATOM      8  H   UNL     1       8.751  10.503   0.069  1.00  0.00     0.164 HD
BRANCH   6   9
ATOM      9  C   UNL     1      11.194  10.897  -0.099  1.00  0.00     0.219 C 
BRANCH   9  10
ATOM     10  O   UNL     1      10.802   9.866   0.815  1.00  0.00    -0.382 OA
ATOM     11  H   UNL     1      11.258  10.111   1.650  1.00  0.00     0.211 HD
ENDBRANCH   9  10
BRANCH   9  12
ATOM     12  C   UNL     1      11.652  10.289  -1.451  1.00  0.00     0.089 C 
BRANCH  12  13
ATOM     13  N   UNL     1      10.536  10.404  -2.417  1.00  0.00    -0.325 NA
ATOM     14  H   UNL     1      10.212   9.468  -2.669  1.00  0.00     0.119 HD
ATOM     15  H   UNL     1      10.892  10.806  -3.287  1.00  0.00     0.119 HD
ENDBRANCH  12  13
BRANCH  12  16
ATOM     16  C   UNL     1      12.945  10.885  -2.058  1.00  0.00     0.022 C 
BRANCH  16  17
ATOM     17  C   UNL     1      12.879  12.245  -2.766  1.00  0.00     0.002 C 
BRANCH  17  18
ATOM     18  C   UNL     1      12.972  12.185  -4.289  1.00  0.00     0.000 C 
BRANCH  18  19
ATOM     19  C   UNL     1      11.718  12.693  -5.012  1.00  0.00    -0.000 C 
BRANCH  19  20
ATOM     20  C   UNL     1      11.481  12.095  -6.402  1.00  0.00    -0.000 C 
BRANCH  20  21
ATOM     21  C   UNL     1      11.000  13.127  -7.425  1.00  0.00    -0.003 C 
ATOM     22  C   UNL     1      11.159  14.545  -6.899  1.00  0.00     0.004 C 
ENDBRANCH  20  21
ENDBRANCH  19  20
ENDBRANCH  18  19
ENDBRANCH  17  18
ENDBRANCH  16  17
ENDBRANCH  12  16
ENDBRANCH   9  12
ENDBRANCH   6   9
ENDBRANCH   3   5
ENDBRANCH   2   3
BRANCH   2  23
ATOM     23  N   UNL     1       5.158  12.368  -0.448  1.00  0.00    -0.332 N 
ATOM     24  C   UNL     1       4.744  13.681  -0.921  1.00  0.00     0.147 C 
BRANCH  23  25
ATOM     25  C   UNL     1       4.088  11.578   0.221  1.00  0.00     0.174 C 
BRANCH  25  26
ATOM     26  C   UNL     1       2.758  12.357   0.354  1.00  0.00     0.038 C 
BRANCH  26  27
ATOM     27  C   UNL     1       1.605  11.939  -0.585  1.00  0.00    -0.015 C 
ATOM     28  C   UNL     1       1.494  10.422  -0.735  1.00  0.00     0.007 C 
ATOM     29  C   UNL     1       0.256  12.540  -0.196  1.00  0.00     0.007 C 
ENDBRANCH  26  27
ENDBRANCH  25  26
BRANCH  25  30
ATOM     30  C   UNL     1       4.608  11.003   1.558  1.00  0.00     0.243 C 
ATOM     31  O   UNL     1       4.371  11.547   2.636  1.00  0.00    -0.273 OA
ATOM     32  N   UNL     1       5.352   9.855   1.461  1.00  0.00    -0.342 N 
ATOM     33  H   UNL     1       5.385   9.388   0.552  1.00  0.00     0.164 HD
BRANCH  32  34
ATOM     34  C   UNL     1       5.948   9.186   2.620  1.00  0.00     0.175 C 
BRANCH  34  35
ATOM     35  C   UNL     1       5.498   7.720   2.712  1.00  0.00     0.070 C 
BRANCH  35  36
ATOM     36  C   UNL     1       4.727   7.422   3.978  1.00  0.00    -0.045 A 
ATOM     37  C   UNL     1       4.362   8.468   4.839  1.00  0.00     0.007 A 
ATOM     38  C   UNL     1       4.389   6.107   4.322  1.00  0.00     0.007 A 
ATOM     39  C   UNL     1       3.663   8.202   6.017  1.00  0.00     0.046 A 
ATOM     40  C   UNL     1       3.690   5.840   5.502  1.00  0.00     0.046 A 
ATOM     41  C   UNL     1       3.332   6.891   6.338  1.00  0.00     0.115 A 
BRANCH  41  42
ATOM     42  O   UNL     1       2.651   6.674   7.500  1.00  0.00    -0.508 OA
ATOM     43  H   UNL     1       1.870   6.133   7.298  1.00  0.00     0.293 HD
ENDBRANCH  41  42
ENDBRANCH  35  36
ENDBRANCH  34  35
BRANCH  34  44
ATOM     44  C   UNL     1       7.484   9.312   2.509  1.00  0.00     0.243 C 
ATOM     45  O   UNL     1       8.128   9.072   1.491  1.00  0.00    -0.273 OA
ATOM     46  N   UNL     1       8.100   9.598   3.709  1.00  0.00    -0.341 N 
ATOM     47  H   UNL     1       7.533   9.673   4.550  1.00  0.00     0.164 HD
BRANCH  46  48
ATOM     48  C   UNL     1       9.553   9.699   3.865  1.00  0.00     0.196 C 
BRANCH  48  49
ATOM     49  C   UNL     1       9.926  10.533   5.103  1.00  0.00     0.072 C 
BRANCH  49  50
ATOM     50  C   UNL     1      10.964  11.590   4.800  1.00  0.00    -0.045 A 
ATOM     51  C   UNL     1      12.191  11.222   4.229  1.00  0.00     0.007 A 
ATOM     52  C   UNL     1      10.729  12.937   5.102  1.00  0.00     0.007 A 
ATOM     53  C   UNL     1      13.161  12.187   3.958  1.00  0.00     0.046 A 
ATOM     54  C   UNL     1      11.701  13.904   4.832  1.00  0.00     0.046 A 
ATOM     55  C   UNL     1      12.909  13.520   4.261  1.00  0.00     0.115 A 
BRANCH  55  56
ATOM     56  O   UNL     1      13.884  14.432   3.982  1.00  0.00    -0.508 OA
ATOM     57  H   UNL     1      13.876  15.110   4.676  1.00  0.00     0.293 HD
ENDBRANCH  55  56
ENDBRANCH  49  50
ENDBRANCH  48  49
BRANCH  48  58
ATOM     58  C   UNL     1      10.140   8.287   3.999  1.00  0.00     0.326 C 
ATOM     59  O   UNL     1      10.415   7.696   5.030  1.00  0.00    -0.250 OA
BRANCH  58  60
ATOM     60  O   UNL     1      10.342   7.670   2.807  1.00  0.00    -0.480 OA
ATOM     61  H   UNL     1       9.778   6.870   2.869  1.00  0.00     0.296 HD
ENDBRANCH  58  60
ENDBRANCH  48  58
ENDBRANCH  46  48
ENDBRANCH  34  44
ENDBRANCH  32  34
ENDBRANCH  25  30
ENDBRANCH  23  25
ENDBRANCH   2  23
TORSDOF 28
ENDMDL
MODEL 22
REMARK VINA RESULT:    -6.103      2.850      5.825
REMARK INTER + INTRA:         -19.168
REMARK INTER:                 -14.137
REMARK INTRA:                  -5.030
REMARK UNBOUND:                -3.967
REMARK SMILES CCCCCCC[C@H](N)[C@H](O)C(=O)N[C@H](C)C(=O)N(C)[C@H](CC(C)C)C(=O)N[C@@H](Cc1ccc(O)cc1)C(=O)N[C@@H](Cc1ccc(O)cc1)C(=O)O
REMARK SMILES IDX 18 1 17 2 15 3 16 4 14 5 12 6 13 7 10 9 11 10 8 12 9 13 7 16
REMARK SMILES IDX 6 17 5 18 4 19 3 20 2 21 1 22 19 23 20 24 21 25 22 26 23 27
REMARK SMILES IDX 24 28 25 29 26 30 27 31 28 32 29 34 30 35 31 36 32 37 37 38
REMARK SMILES IDX 33 39 36 40 34 41 35 42 38 44 39 45 40 46 41 48 42 49 43 50
REMARK SMILES IDX 44 51 49 52 45 53 48 54 46 55 47 56 50 58 51 59 52 60
REMARK H PARENT 14 8 11 11 9 14 9 15 28 33 35 43 40 47 47 57 52 61
ROOT
ATOM      1  O   UNL     1       6.450  11.051  -2.060  1.00  0.00    -0.272 OA
ATOM      2  C   UNL     1       6.159  11.866  -1.172  1.00  0.00     0.245 C 
ENDROOT
BRANCH   2   3
ATOM      3  C   UNL     1       7.302  12.659  -0.490  1.00  0.00     0.168 C 
ATOM      4  C   UNL     1       6.795  13.376   0.756  1.00  0.00     0.041 C 
BRANCH   3   5
ATOM      5  N   UNL     1       8.505  11.886  -0.220  1.00  0.00    -0.342 N 
ATOM      6  C   UNL     1       9.747  12.297  -0.654  1.00  0.00     0.251 C 
ATOM      7  O   UNL     1       9.928  13.306  -1.328  1.00  0.00    -0.272 OA
ATOM      8  H   UNL     1       8.475  11.013   0.301  1.00  0.00     0.164 HD
BRANCH   6   9
ATOM      9  C   UNL     1      10.884  11.405  -0.133  1.00  0.00     0.219 C 
BRANCH   9  10
ATOM     10  O   UNL     1      10.539  10.720   1.077  1.00  0.00    -0.382 OA
ATOM     11  H   UNL     1       9.967  11.363   1.551  1.00  0.00     0.211 HD
ENDBRANCH   9  10
BRANCH   9  12
ATOM     12  C   UNL     1      11.413  10.408  -1.197  1.00  0.00     0.089 C 
BRANCH  12  13
ATOM     13  N   UNL     1      10.432  10.343  -2.305  1.00  0.00    -0.325 NA
ATOM     14  H   UNL     1       9.506  10.586  -1.948  1.00  0.00     0.119 HD
ATOM     15  H   UNL     1      10.352   9.373  -2.619  1.00  0.00     0.119 HD
ENDBRANCH  12  13
BRANCH  12  16
ATOM     16  C   UNL     1      12.827  10.699  -1.756  1.00  0.00     0.022 C 
BRANCH  16  17
ATOM     17  C   UNL     1      13.188  12.134  -2.163  1.00  0.00     0.002 C 
BRANCH  17  18
ATOM     18  C   UNL     1      13.954  12.258  -3.478  1.00  0.00     0.000 C 
BRANCH  18  19
ATOM     19  C   UNL     1      13.223  13.074  -4.552  1.00  0.00    -0.000 C 
BRANCH  19  20
ATOM     20  C   UNL     1      11.698  12.936  -4.548  1.00  0.00    -0.000 C 
BRANCH  20  21
ATOM     21  C   UNL     1      11.195  11.817  -5.465  1.00  0.00    -0.003 C 
ATOM     22  C   UNL     1      11.412  12.161  -6.930  1.00  0.00     0.004 C 
ENDBRANCH  20  21
ENDBRANCH  19  20
ENDBRANCH  18  19
ENDBRANCH  17  18
ENDBRANCH  16  17
ENDBRANCH  12  16
ENDBRANCH   9  12
ENDBRANCH   6   9
ENDBRANCH   3   5
ENDBRANCH   2   3
BRANCH   2  23
ATOM     23  N   UNL     1       4.825  12.142  -0.891  1.00  0.00    -0.332 N 
ATOM     24  C   UNL     1       4.138  13.368  -1.271  1.00  0.00     0.147 C 
BRANCH  23  25
ATOM     25  C   UNL     1       3.957  11.103  -0.272  1.00  0.00     0.174 C 
BRANCH  25  26
ATOM     26  C   UNL     1       2.452  11.449  -0.354  1.00  0.00     0.038 C 
BRANCH  26  27
ATOM     27  C   UNL     1       1.590  10.600  -1.314  1.00  0.00    -0.015 C 
ATOM     28  C   UNL     1       2.367  10.143  -2.548  1.00  0.00     0.007 C 
ATOM     29  C   UNL     1       0.915   9.411  -0.634  1.00  0.00     0.007 C 
ENDBRANCH  26  27
ENDBRANCH  25  26
BRANCH  25  30
ATOM     30  C   UNL     1       4.445  10.788   1.161  1.00  0.00     0.243 C 
ATOM     31  O   UNL     1       4.164  11.508   2.117  1.00  0.00    -0.273 OA
ATOM     32  N   UNL     1       5.213   9.659   1.291  1.00  0.00    -0.342 N 
ATOM     33  H   UNL     1       5.284   9.039   0.480  1.00  0.00     0.164 HD
BRANCH  32  34
ATOM     34  C   UNL     1       5.784   9.221   2.567  1.00  0.00     0.175 C 
BRANCH  34  35
ATOM     35  C   UNL     1       5.527   7.726   2.810  1.00  0.00     0.070 C 
BRANCH  35  36
ATOM     36  C   UNL     1       4.750   7.465   4.081  1.00  0.00    -0.045 A 
ATOM     37  C   UNL     1       4.282   6.173   4.365  1.00  0.00     0.007 A 
ATOM     38  C   UNL     1       4.467   8.504   4.977  1.00  0.00     0.007 A 
ATOM     39  C   UNL     1       3.553   5.925   5.528  1.00  0.00     0.046 A 
ATOM     40  C   UNL     1       3.736   8.258   6.141  1.00  0.00     0.046 A 
ATOM     41  C   UNL     1       3.286   6.969   6.407  1.00  0.00     0.115 A 
BRANCH  41  42
ATOM     42  O   UNL     1       2.568   6.685   7.530  1.00  0.00    -0.508 OA
ATOM     43  H   UNL     1       3.159   6.255   8.170  1.00  0.00     0.293 HD
ENDBRANCH  41  42
ENDBRANCH  35  36
ENDBRANCH  34  35
BRANCH  34  44
ATOM     44  C   UNL     1       7.294   9.552   2.555  1.00  0.00     0.243 C 
ATOM     45  O   UNL     1       7.963   9.702   1.537  1.00  0.00    -0.273 OA
ATOM     46  N   UNL     1       7.868   9.538   3.809  1.00  0.00    -0.341 N 
ATOM     47  H   UNL     1       7.295   9.293   4.612  1.00  0.00     0.164 HD
BRANCH  46  48
ATOM     48  C   UNL     1       9.297   9.756   4.042  1.00  0.00     0.196 C 
BRANCH  48  49
ATOM     49  C   UNL     1       9.553  10.340   5.442  1.00  0.00     0.072 C 
BRANCH  49  50
ATOM     50  C   UNL     1       8.457  11.280   5.890  1.00  0.00    -0.045 A 
ATOM     51  C   UNL     1       7.342  10.777   6.576  1.00  0.00     0.007 A 
ATOM     52  C   UNL     1       8.524  12.651   5.611  1.00  0.00     0.007 A 
ATOM     53  C   UNL     1       6.318  11.633   6.983  1.00  0.00     0.046 A 
ATOM     54  C   UNL     1       7.498  13.508   6.017  1.00  0.00     0.046 A 
ATOM     55  C   UNL     1       6.404  12.990   6.701  1.00  0.00     0.115 A 
BRANCH  55  56
ATOM     56  O   UNL     1       5.381  13.792   7.113  1.00  0.00    -0.508 OA
ATOM     57  H   UNL     1       5.348  13.771   8.083  1.00  0.00     0.293 HD
ENDBRANCH  55  56
ENDBRANCH  49  50
ENDBRANCH  48  49
BRANCH  48  58
ATOM     58  C   UNL     1      10.036   8.419   3.899  1.00  0.00     0.326 C 
ATOM     59  O   UNL     1      10.391   7.671   4.796  1.00  0.00    -0.250 OA
BRANCH  58  60
ATOM     60  O   UNL     1      10.286   8.073   2.611  1.00  0.00    -0.480 OA
ATOM     61  H   UNL     1       9.418   7.742   2.294  1.00  0.00     0.296 HD
ENDBRANCH  58  60
ENDBRANCH  48  58
ENDBRANCH  46  48
ENDBRANCH  34  44
ENDBRANCH  32  34
ENDBRANCH  25  30
ENDBRANCH  23  25
ENDBRANCH   2  23
TORSDOF 28
ENDMDL
MODEL 23
REMARK VINA RESULT:    -6.100      2.249      9.242
REMARK INTER + INTRA:         -19.160
REMARK INTER:                 -13.106
REMARK INTRA:                  -6.054
REMARK UNBOUND:                -3.967
REMARK SMILES CCCCCCC[C@H](N)[C@H](O)C(=O)N[C@H](C)C(=O)N(C)[C@H](CC(C)C)C(=O)N[C@@H](Cc1ccc(O)cc1)C(=O)N[C@@H](Cc1ccc(O)cc1)C(=O)O
REMARK SMILES IDX 18 1 17 2 15 3 16 4 14 5 12 6 13 7 10 9 11 10 8 12 9 13 7 16
REMARK SMILES IDX 6 17 5 18 4 19 3 20 2 21 1 22 19 23 20 24 21 25 22 26 23 27
REMARK SMILES IDX 24 28 25 29 26 30 27 31 28 32 29 34 30 35 31 36 32 37 37 38
REMARK SMILES IDX 33 39 36 40 34 41 35 42 38 44 39 45 40 46 41 48 42 49 43 50
REMARK SMILES IDX 44 51 49 52 45 53 48 54 46 55 47 56 50 58 51 59 52 60
REMARK H PARENT 14 8 11 11 9 14 9 15 28 33 35 43 40 47 47 57 52 61
ROOT
ATOM      1  O   UNL     1       9.489  10.867   4.930  1.00  0.00    -0.272 OA
ATOM      2  C   UNL     1      10.249  10.254   4.166  1.00  0.00     0.245 C 
ENDROOT
BRANCH   2   3
ATOM      3  C   UNL     1       9.926   8.777   3.827  1.00  0.00     0.168 C 
ATOM      4  C   UNL     1      10.597   7.834   4.820  1.00  0.00     0.041 C 
BRANCH   3   5
ATOM      5  N   UNL     1       8.510   8.482   3.671  1.00  0.00    -0.342 N 
ATOM      6  C   UNL     1       7.879   8.569   2.448  1.00  0.00     0.251 C 
ATOM      7  O   UNL     1       8.441   8.936   1.421  1.00  0.00    -0.272 OA
ATOM      8  H   UNL     1       7.931   8.201   4.458  1.00  0.00     0.164 HD
BRANCH   6   9
ATOM      9  C   UNL     1       6.424   8.075   2.493  1.00  0.00     0.219 C 
BRANCH   9  10
ATOM     10  O   UNL     1       6.317   6.656   2.328  1.00  0.00    -0.382 OA
ATOM     11  H   UNL     1       6.529   6.303   3.220  1.00  0.00     0.211 HD
ENDBRANCH   9  10
BRANCH   9  12
ATOM     12  C   UNL     1       5.662   8.541   3.761  1.00  0.00     0.089 C 
BRANCH  12  13
ATOM     13  N   UNL     1       4.531   9.398   3.338  1.00  0.00    -0.325 NA
ATOM     14  H   UNL     1       4.876  10.120   2.703  1.00  0.00     0.119 HD
ATOM     15  H   UNL     1       4.178   9.906   4.153  1.00  0.00     0.119 HD
ENDBRANCH  12  13
BRANCH  12  16
ATOM     16  C   UNL     1       5.157   7.419   4.700  1.00  0.00     0.022 C 
BRANCH  16  17
ATOM     17  C   UNL     1       3.679   7.401   5.115  1.00  0.00     0.002 C 
BRANCH  17  18
ATOM     18  C   UNL     1       3.343   6.447   6.258  1.00  0.00     0.000 C 
BRANCH  18  19
ATOM     19  C   UNL     1       2.356   7.024   7.283  1.00  0.00    -0.000 C 
BRANCH  19  20
ATOM     20  C   UNL     1       2.894   7.135   8.712  1.00  0.00    -0.000 C 
BRANCH  20  21
ATOM     21  C   UNL     1       3.555   5.845   9.206  1.00  0.00    -0.003 C 
ATOM     22  C   UNL     1       2.988   5.410  10.548  1.00  0.00     0.004 C 
ENDBRANCH  20  21
ENDBRANCH  19  20
ENDBRANCH  18  19
ENDBRANCH  17  18
ENDBRANCH  16  17
ENDBRANCH  12  16
ENDBRANCH   9  12
ENDBRANCH   6   9
ENDBRANCH   3   5
ENDBRANCH   2   3
BRANCH   2  23
ATOM     23  N   UNL     1      11.293  10.924   3.538  1.00  0.00    -0.332 N 
ATOM     24  C   UNL     1      12.568  11.239   4.165  1.00  0.00     0.147 C 
BRANCH  23  25
ATOM     25  C   UNL     1      11.208  11.259   2.090  1.00  0.00     0.174 C 
BRANCH  25  26
ATOM     26  C   UNL     1      12.552  11.751   1.505  1.00  0.00     0.038 C 
BRANCH  26  27
ATOM     27  C   UNL     1      12.750  11.600  -0.020  1.00  0.00    -0.015 C 
ATOM     28  C   UNL     1      11.933  10.447  -0.603  1.00  0.00     0.007 C 
ATOM     29  C   UNL     1      12.491  12.889  -0.796  1.00  0.00     0.007 C 
ENDBRANCH  26  27
ENDBRANCH  25  26
BRANCH  25  30
ATOM     30  C   UNL     1      10.029  12.226   1.836  1.00  0.00     0.243 C 
ATOM     31  O   UNL     1      10.044  13.389   2.238  1.00  0.00    -0.273 OA
ATOM     32  N   UNL     1       8.969  11.701   1.143  1.00  0.00    -0.342 N 
ATOM     33  H   UNL     1       9.090  10.776   0.722  1.00  0.00     0.164 HD
BRANCH  32  34
ATOM     34  C   UNL     1       7.755  12.462   0.835  1.00  0.00     0.175 C 
BRANCH  34  35
ATOM     35  C   UNL     1       7.248  12.157  -0.582  1.00  0.00     0.070 C 
BRANCH  35  36
ATOM     36  C   UNL     1       8.280  12.448  -1.648  1.00  0.00    -0.045 A 
ATOM     37  C   UNL     1       8.840  11.397  -2.389  1.00  0.00     0.007 A 
ATOM     38  C   UNL     1       8.708  13.759  -1.895  1.00  0.00     0.007 A 
ATOM     39  C   UNL     1       9.803  11.654  -3.365  1.00  0.00     0.046 A 
ATOM     40  C   UNL     1       9.673  14.018  -2.871  1.00  0.00     0.046 A 
ATOM     41  C   UNL     1      10.211  12.962  -3.599  1.00  0.00     0.115 A 
BRANCH  41  42
ATOM     42  O   UNL     1      11.157  13.171  -4.559  1.00  0.00    -0.508 OA
ATOM     43  H   UNL     1      11.407  12.309  -4.933  1.00  0.00     0.293 HD
ENDBRANCH  41  42
ENDBRANCH  35  36
ENDBRANCH  34  35
BRANCH  34  44
ATOM     44  C   UNL     1       6.696  12.131   1.911  1.00  0.00     0.243 C 
ATOM     45  O   UNL     1       5.666  11.498   1.699  1.00  0.00    -0.273 OA
ATOM     46  N   UNL     1       6.946  12.727   3.129  1.00  0.00    -0.341 N 
ATOM     47  H   UNL     1       7.754  13.338   3.223  1.00  0.00     0.164 HD
BRANCH  46  48
ATOM     48  C   UNL     1       6.049  12.614   4.281  1.00  0.00     0.196 C 
BRANCH  48  49
ATOM     49  C   UNL     1       6.801  12.846   5.602  1.00  0.00     0.072 C 
BRANCH  49  50
ATOM     50  C   UNL     1       6.199  12.078   6.757  1.00  0.00    -0.045 A 
ATOM     51  C   UNL     1       6.243  12.615   8.052  1.00  0.00     0.007 A 
ATOM     52  C   UNL     1       5.613  10.821   6.559  1.00  0.00     0.007 A 
ATOM     53  C   UNL     1       5.703  11.909   9.127  1.00  0.00     0.046 A 
ATOM     54  C   UNL     1       5.073  10.114   7.636  1.00  0.00     0.046 A 
ATOM     55  C   UNL     1       5.122  10.666   8.912  1.00  0.00     0.115 A 
BRANCH  55  56
ATOM     56  O   UNL     1       4.607  10.008   9.990  1.00  0.00    -0.508 OA
ATOM     57  H   UNL     1       3.709   9.714   9.768  1.00  0.00     0.293 HD
ENDBRANCH  55  56
ENDBRANCH  49  50
ENDBRANCH  48  49
BRANCH  48  58
ATOM     58  C   UNL     1       4.924  13.649   4.141  1.00  0.00     0.326 C 
ATOM     59  O   UNL     1       5.036  14.864   4.118  1.00  0.00    -0.250 OA
BRANCH  58  60
ATOM     60  O   UNL     1       3.691  13.095   4.020  1.00  0.00    -0.480 OA
ATOM     61  H   UNL     1       3.486  13.207   3.066  1.00  0.00     0.296 HD
ENDBRANCH  58  60
ENDBRANCH  48  58
ENDBRANCH  46  48
ENDBRANCH  34  44
ENDBRANCH  32  34
ENDBRANCH  25  30
ENDBRANCH  23  25
ENDBRANCH   2  23
TORSDOF 28
ENDMDL
MODEL 24
REMARK VINA RESULT:    -6.088      3.064     10.654
REMARK INTER + INTRA:         -19.130
REMARK INTER:                 -14.215
REMARK INTRA:                  -4.915
REMARK UNBOUND:                -3.967
REMARK SMILES CCCCCCC[C@H](N)[C@H](O)C(=O)N[C@H](C)C(=O)N(C)[C@H](CC(C)C)C(=O)N[C@@H](Cc1ccc(O)cc1)C(=O)N[C@@H](Cc1ccc(O)cc1)C(=O)O
REMARK SMILES IDX 18 1 17 2 15 3 16 4 14 5 12 6 13 7 10 9 11 10 8 12 9 13 7 16
REMARK SMILES IDX 6 17 5 18 4 19 3 20 2 21 1 22 19 23 20 24 21 25 22 26 23 27
REMARK SMILES IDX 24 28 25 29 26 30 27 31 28 32 29 34 30 35 31 36 32 37 37 38
REMARK SMILES IDX 33 39 36 40 34 41 35 42 38 44 39 45 40 46 41 48 42 49 43 50
REMARK SMILES IDX 44 51 49 52 45 53 48 54 46 55 47 56 50 58 51 59 52 60
REMARK H PARENT 14 8 11 11 9 14 9 15 28 33 35 43 40 47 47 57 52 61
ROOT
ATOM      1  O   UNL     1       6.273  14.568   0.096  1.00  0.00    -0.272 OA
ATOM      2  C   UNL     1       6.527  13.388  -0.184  1.00  0.00     0.245 C 
ENDROOT
BRANCH   2   3
ATOM      3  C   UNL     1       5.586  12.280   0.353  1.00  0.00     0.168 C 
ATOM      4  C   UNL     1       4.261  12.281  -0.401  1.00  0.00     0.041 C 
BRANCH   3   5
ATOM      5  N   UNL     1       6.177  10.952   0.409  1.00  0.00    -0.342 N 
ATOM      6  C   UNL     1       6.697  10.434   1.577  1.00  0.00     0.251 C 
ATOM      7  O   UNL     1       6.740  11.058   2.632  1.00  0.00    -0.272 OA
ATOM      8  H   UNL     1       6.229  10.353  -0.412  1.00  0.00     0.164 HD
BRANCH   6   9
ATOM      9  C   UNL     1       7.134   8.968   1.434  1.00  0.00     0.219 C 
BRANCH   9  10
ATOM     10  O   UNL     1       8.518   8.835   1.088  1.00  0.00    -0.382 OA
ATOM     11  H   UNL     1       8.842   9.763   1.070  1.00  0.00     0.211 HD
ENDBRANCH   9  10
BRANCH   9  12
ATOM     12  C   UNL     1       6.793   8.107   2.679  1.00  0.00     0.089 C 
BRANCH  12  13
ATOM     13  N   UNL     1       7.775   8.415   3.743  1.00  0.00    -0.325 NA
ATOM     14  H   UNL     1       8.639   7.900   3.563  1.00  0.00     0.119 HD
ATOM     15  H   UNL     1       7.426   8.048   4.632  1.00  0.00     0.119 HD
ENDBRANCH  12  13
BRANCH  12  16
ATOM     16  C   UNL     1       5.353   8.248   3.227  1.00  0.00     0.022 C 
BRANCH  16  17
ATOM     17  C   UNL     1       5.148   8.591   4.708  1.00  0.00     0.002 C 
BRANCH  17  18
ATOM     18  C   UNL     1       3.690   8.703   5.148  1.00  0.00     0.000 C 
BRANCH  18  19
ATOM     19  C   UNL     1       3.432   8.227   6.584  1.00  0.00    -0.000 C 
BRANCH  19  20
ATOM     20  C   UNL     1       2.625   6.931   6.704  1.00  0.00    -0.000 C 
BRANCH  20  21
ATOM     21  C   UNL     1       1.363   7.088   7.556  1.00  0.00    -0.003 C 
ATOM     22  C   UNL     1       1.241   8.497   8.113  1.00  0.00     0.004 C 
ENDBRANCH  20  21
ENDBRANCH  19  20
ENDBRANCH  18  19
ENDBRANCH  17  18
ENDBRANCH  16  17
ENDBRANCH  12  16
ENDBRANCH   9  12
ENDBRANCH   6   9
ENDBRANCH   3   5
ENDBRANCH   2   3
BRANCH   2  23
ATOM     23  N   UNL     1       7.562  13.088  -1.064  1.00  0.00    -0.332 N 
ATOM     24  C   UNL     1       7.378  12.541  -2.400  1.00  0.00     0.147 C 
BRANCH  23  25
ATOM     25  C   UNL     1       8.966  13.444  -0.720  1.00  0.00     0.174 C 
BRANCH  25  26
ATOM     26  C   UNL     1       9.588  14.462  -1.705  1.00  0.00     0.038 C 
BRANCH  26  27
ATOM     27  C   UNL     1      10.648  13.924  -2.691  1.00  0.00    -0.015 C 
ATOM     28  C   UNL     1      10.096  13.755  -4.107  1.00  0.00     0.007 C 
ATOM     29  C   UNL     1      11.933  14.747  -2.710  1.00  0.00     0.007 C 
ENDBRANCH  26  27
ENDBRANCH  25  26
BRANCH  25  30
ATOM     30  C   UNL     1       9.810  12.162  -0.536  1.00  0.00     0.243 C 
ATOM     31  O   UNL     1       9.309  11.040  -0.594  1.00  0.00    -0.273 OA
ATOM     32  N   UNL     1      11.146  12.360  -0.299  1.00  0.00    -0.342 N 
ATOM     33  H   UNL     1      11.510  13.310  -0.406  1.00  0.00     0.164 HD
BRANCH  32  34
ATOM     34  C   UNL     1      12.091  11.263  -0.074  1.00  0.00     0.175 C 
BRANCH  34  35
ATOM     35  C   UNL     1      13.431  11.528  -0.777  1.00  0.00     0.070 C 
BRANCH  35  36
ATOM     36  C   UNL     1      13.344  11.375  -2.279  1.00  0.00    -0.045 A 
ATOM     37  C   UNL     1      12.221  10.767  -2.858  1.00  0.00     0.007 A 
ATOM     38  C   UNL     1      14.385  11.815  -3.107  1.00  0.00     0.007 A 
ATOM     39  C   UNL     1      12.138  10.609  -4.242  1.00  0.00     0.046 A 
ATOM     40  C   UNL     1      14.303  11.657  -4.493  1.00  0.00     0.046 A 
ATOM     41  C   UNL     1      13.178  11.056  -5.048  1.00  0.00     0.115 A 
BRANCH  41  42
ATOM     42  O   UNL     1      13.059  10.880  -6.395  1.00  0.00    -0.508 OA
ATOM     43  H   UNL     1      12.596  10.041  -6.553  1.00  0.00     0.293 HD
ENDBRANCH  41  42
ENDBRANCH  35  36
ENDBRANCH  34  35
BRANCH  34  44
ATOM     44  C   UNL     1      12.264  11.085   1.451  1.00  0.00     0.243 C 
ATOM     45  O   UNL     1      13.247  11.458   2.086  1.00  0.00    -0.273 OA
ATOM     46  N   UNL     1      11.260  10.342   2.035  1.00  0.00    -0.341 N 
ATOM     47  H   UNL     1      10.526   9.955   1.446  1.00  0.00     0.164 HD
BRANCH  46  48
ATOM     48  C   UNL     1      11.243   9.985   3.455  1.00  0.00     0.196 C 
BRANCH  48  49
ATOM     49  C   UNL     1      10.193  10.803   4.226  1.00  0.00     0.072 C 
BRANCH  49  50
ATOM     50  C   UNL     1      10.394  12.295   4.077  1.00  0.00    -0.045 A 
ATOM     51  C   UNL     1      11.426  12.934   4.779  1.00  0.00     0.007 A 
ATOM     52  C   UNL     1       9.549  13.058   3.262  1.00  0.00     0.007 A 
ATOM     53  C   UNL     1      11.613  14.311   4.660  1.00  0.00     0.046 A 
ATOM     54  C   UNL     1       9.735  14.437   3.144  1.00  0.00     0.046 A 
ATOM     55  C   UNL     1      10.767  15.052   3.844  1.00  0.00     0.115 A 
BRANCH  55  56
ATOM     56  O   UNL     1      10.982  16.396   3.757  1.00  0.00    -0.508 OA
ATOM     57  H   UNL     1      10.369  16.844   4.362  1.00  0.00     0.293 HD
ENDBRANCH  55  56
ENDBRANCH  49  50
ENDBRANCH  48  49
BRANCH  48  58
ATOM     58  C   UNL     1      10.929   8.489   3.590  1.00  0.00     0.326 C 
ATOM     59  O   UNL     1      10.878   7.834   4.618  1.00  0.00    -0.250 OA
BRANCH  58  60
ATOM     60  O   UNL     1      10.676   7.880   2.404  1.00  0.00    -0.480 OA
ATOM     61  H   UNL     1       9.742   8.121   2.221  1.00  0.00     0.296 HD
ENDBRANCH  58  60
ENDBRANCH  48  58
ENDBRANCH  46  48
ENDBRANCH  34  44
ENDBRANCH  32  34
ENDBRANCH  25  30
ENDBRANCH  23  25
ENDBRANCH   2  23
TORSDOF 28
ENDMDL
MODEL 25
REMARK VINA RESULT:    -6.087      2.545      6.213
REMARK INTER + INTRA:         -19.127
REMARK INTER:                 -14.703
REMARK INTRA:                  -4.424
REMARK UNBOUND:                -3.967
REMARK SMILES CCCCCCC[C@H](N)[C@H](O)C(=O)N[C@H](C)C(=O)N(C)[C@H](CC(C)C)C(=O)N[C@@H](Cc1ccc(O)cc1)C(=O)N[C@@H](Cc1ccc(O)cc1)C(=O)O
REMARK SMILES IDX 18 1 17 2 15 3 16 4 14 5 12 6 13 7 10 9 11 10 8 12 9 13 7 16
REMARK SMILES IDX 6 17 5 18 4 19 3 20 2 21 1 22 19 23 20 24 21 25 22 26 23 27
REMARK SMILES IDX 24 28 25 29 26 30 27 31 28 32 29 34 30 35 31 36 32 37 37 38
REMARK SMILES IDX 33 39 36 40 34 41 35 42 38 44 39 45 40 46 41 48 42 49 43 50
REMARK SMILES IDX 44 51 49 52 45 53 48 54 46 55 47 56 50 58 51 59 52 60
REMARK H PARENT 14 8 11 11 9 14 9 15 28 33 35 43 40 47 47 57 52 61
ROOT
ATOM      1  O   UNL     1       5.931   6.727   2.114  1.00  0.00    -0.272 OA
ATOM      2  C   UNL     1       6.223   7.872   2.490  1.00  0.00     0.245 C 
ENDROOT
BRANCH   2   3
ATOM      3  C   UNL     1       7.515   8.526   1.939  1.00  0.00     0.168 C 
ATOM      4  C   UNL     1       7.298   9.045   0.522  1.00  0.00     0.041 C 
BRANCH   3   5
ATOM      5  N   UNL     1       8.104   9.538   2.802  1.00  0.00    -0.342 N 
ATOM      6  C   UNL     1       9.302   9.333   3.453  1.00  0.00     0.251 C 
ATOM      7  O   UNL     1       9.935   8.284   3.390  1.00  0.00    -0.272 OA
ATOM      8  H   UNL     1       7.653  10.437   2.960  1.00  0.00     0.164 HD
BRANCH   6   9
ATOM      9  C   UNL     1       9.800  10.585   4.191  1.00  0.00     0.219 C 
BRANCH   9  10
ATOM     10  O   UNL     1       9.814  10.419   5.614  1.00  0.00    -0.382 OA
ATOM     11  H   UNL     1       9.074   9.794   5.781  1.00  0.00     0.211 HD
ENDBRANCH   9  10
BRANCH   9  12
ATOM     12  C   UNL     1      11.177  11.086   3.682  1.00  0.00     0.089 C 
BRANCH  12  13
ATOM     13  N   UNL     1      12.239  10.368   4.424  1.00  0.00    -0.325 NA
ATOM     14  H   UNL     1      12.318   9.417   4.059  1.00  0.00     0.119 HD
ATOM     15  H   UNL     1      11.945  10.257   5.397  1.00  0.00     0.119 HD
ENDBRANCH  12  13
BRANCH  12  16
ATOM     16  C   UNL     1      11.420  10.968   2.158  1.00  0.00     0.022 C 
BRANCH  16  17
ATOM     17  C   UNL     1      12.095  12.131   1.417  1.00  0.00     0.002 C 
BRANCH  17  18
ATOM     18  C   UNL     1      11.459  12.496   0.078  1.00  0.00     0.000 C 
BRANCH  18  19
ATOM     19  C   UNL     1      10.357  11.530  -0.375  1.00  0.00    -0.000 C 
BRANCH  19  20
ATOM     20  C   UNL     1      10.785  10.500  -1.424  1.00  0.00    -0.000 C 
BRANCH  20  21
ATOM     21  C   UNL     1      12.208  10.727  -1.941  1.00  0.00    -0.003 C 
ATOM     22  C   UNL     1      12.234  10.855  -3.456  1.00  0.00     0.004 C 
ENDBRANCH  20  21
ENDBRANCH  19  20
ENDBRANCH  18  19
ENDBRANCH  17  18
ENDBRANCH  16  17
ENDBRANCH  12  16
ENDBRANCH   9  12
ENDBRANCH   6   9
ENDBRANCH   3   5
ENDBRANCH   2   3
BRANCH   2  23
ATOM     23  N   UNL     1       5.340   8.588   3.291  1.00  0.00    -0.332 N 
ATOM     24  C   UNL     1       4.509   9.688   2.825  1.00  0.00     0.147 C 
BRANCH  23  25
ATOM     25  C   UNL     1       5.093   8.169   4.698  1.00  0.00     0.174 C 
BRANCH  25  26
ATOM     26  C   UNL     1       3.634   7.716   4.944  1.00  0.00     0.038 C 
BRANCH  26  27
ATOM     27  C   UNL     1       3.432   6.329   5.593  1.00  0.00    -0.015 C 
ATOM     28  C   UNL     1       4.344   5.262   4.987  1.00  0.00     0.007 C 
ATOM     29  C   UNL     1       3.560   6.344   7.114  1.00  0.00     0.007 C 
ENDBRANCH  26  27
ENDBRANCH  25  26
BRANCH  25  30
ATOM     30  C   UNL     1       5.576   9.267   5.673  1.00  0.00     0.243 C 
ATOM     31  O   UNL     1       6.698   9.764   5.588  1.00  0.00    -0.273 OA
ATOM     32  N   UNL     1       4.676   9.642   6.637  1.00  0.00    -0.342 N 
ATOM     33  H   UNL     1       3.720   9.287   6.556  1.00  0.00     0.164 HD
BRANCH  32  34
ATOM     34  C   UNL     1       4.972  10.647   7.662  1.00  0.00     0.175 C 
BRANCH  34  35
ATOM     35  C   UNL     1       4.449  12.032   7.252  1.00  0.00     0.070 C 
BRANCH  35  36
ATOM     36  C   UNL     1       5.521  12.905   6.640  1.00  0.00    -0.045 A 
ATOM     37  C   UNL     1       5.206  13.759   5.572  1.00  0.00     0.007 A 
ATOM     38  C   UNL     1       6.841  12.858   7.109  1.00  0.00     0.007 A 
ATOM     39  C   UNL     1       6.192  14.557   4.992  1.00  0.00     0.046 A 
ATOM     40  C   UNL     1       7.829  13.656   6.528  1.00  0.00     0.046 A 
ATOM     41  C   UNL     1       7.494  14.501   5.474  1.00  0.00     0.115 A 
BRANCH  41  42
ATOM     42  O   UNL     1       8.428  15.295   4.877  1.00  0.00    -0.508 OA
ATOM     43  H   UNL     1       8.165  15.433   3.952  1.00  0.00     0.293 HD
ENDBRANCH  41  42
ENDBRANCH  35  36
ENDBRANCH  34  35
BRANCH  34  44
ATOM     44  C   UNL     1       4.354  10.168   8.995  1.00  0.00     0.243 C 
ATOM     45  O   UNL     1       5.005   9.840   9.983  1.00  0.00    -0.273 OA
ATOM     46  N   UNL     1       2.985  10.011   8.941  1.00  0.00    -0.341 N 
ATOM     47  H   UNL     1       2.503  10.184   8.062  1.00  0.00     0.164 HD
BRANCH  46  48
ATOM     48  C   UNL     1       2.187   9.504  10.059  1.00  0.00     0.196 C 
BRANCH  48  49
ATOM     49  C   UNL     1       0.749  10.047  10.013  1.00  0.00     0.072 C 
BRANCH  49  50
ATOM     50  C   UNL     1       0.510  11.147  11.022  1.00  0.00    -0.045 A 
ATOM     51  C   UNL     1      -0.463  12.126  10.772  1.00  0.00     0.007 A 
ATOM     52  C   UNL     1       1.262  11.219  12.201  1.00  0.00     0.007 A 
ATOM     53  C   UNL     1      -0.683  13.153  11.689  1.00  0.00     0.046 A 
ATOM     54  C   UNL     1       1.043  12.249  13.119  1.00  0.00     0.046 A 
ATOM     55  C   UNL     1       0.070  13.207  12.855  1.00  0.00     0.115 A 
BRANCH  55  56
ATOM     56  O   UNL     1      -0.175  14.228  13.725  1.00  0.00    -0.508 OA
ATOM     57  H   UNL     1      -0.376  13.848  14.595  1.00  0.00     0.293 HD
ENDBRANCH  55  56
ENDBRANCH  49  50
ENDBRANCH  48  49
BRANCH  48  58
ATOM     58  C   UNL     1       2.161   7.970   9.998  1.00  0.00     0.326 C 
ATOM     59  O   UNL     1       1.338   7.267   9.433  1.00  0.00    -0.250 OA
BRANCH  58  60
ATOM     60  O   UNL     1       3.197   7.384  10.649  1.00  0.00    -0.480 OA
ATOM     61  H   UNL     1       2.861   6.482  10.843  1.00  0.00     0.296 HD
ENDBRANCH  58  60
ENDBRANCH  48  58
ENDBRANCH  46  48
ENDBRANCH  34  44
ENDBRANCH  32  34
ENDBRANCH  25  30
ENDBRANCH  23  25
ENDBRANCH   2  23
TORSDOF 28
ENDMDL
MODEL 26
REMARK VINA RESULT:    -6.071      2.538     11.844
REMARK INTER + INTRA:         -19.087
REMARK INTER:                 -15.431
REMARK INTRA:                  -3.656
REMARK UNBOUND:                -3.967
REMARK SMILES CCCCCCC[C@H](N)[C@H](O)C(=O)N[C@H](C)C(=O)N(C)[C@H](CC(C)C)C(=O)N[C@@H](Cc1ccc(O)cc1)C(=O)N[C@@H](Cc1ccc(O)cc1)C(=O)O
REMARK SMILES IDX 18 1 17 2 15 3 16 4 14 5 12 6 13 7 10 9 11 10 8 12 9 13 7 16
REMARK SMILES IDX 6 17 5 18 4 19 3 20 2 21 1 22 19 23 20 24 21 25 22 26 23 27
REMARK SMILES IDX 24 28 25 29 26 30 27 31 28 32 29 34 30 35 31 36 32 37 37 38
REMARK SMILES IDX 33 39 36 40 34 41 35 42 38 44 39 45 40 46 41 48 42 49 43 50
REMARK SMILES IDX 44 51 49 52 45 53 48 54 46 55 47 56 50 58 51 59 52 60
REMARK H PARENT 14 8 11 11 9 14 9 15 28 33 35 43 40 47 47 57 52 61
ROOT
ATOM      1  O   UNL     1       9.700   8.550   3.499  1.00  0.00    -0.272 OA
ATOM      2  C   UNL     1       9.154   9.515   4.053  1.00  0.00     0.245 C 
ENDROOT
BRANCH   2   3
ATOM      3  C   UNL     1       7.876   9.262   4.892  1.00  0.00     0.168 C 
ATOM      4  C   UNL     1       7.185  10.576   5.237  1.00  0.00     0.041 C 
BRANCH   3   5
ATOM      5  N   UNL     1       6.951   8.296   4.320  1.00  0.00    -0.342 N 
ATOM      6  C   UNL     1       5.977   8.668   3.418  1.00  0.00     0.251 C 
ATOM      7  O   UNL     1       5.789   9.827   3.065  1.00  0.00    -0.272 OA
ATOM      8  H   UNL     1       6.987   7.309   4.564  1.00  0.00     0.164 HD
BRANCH   6   9
ATOM      9  C   UNL     1       5.212   7.466   2.840  1.00  0.00     0.219 C 
BRANCH   9  10
ATOM     10  O   UNL     1       6.068   6.546   2.152  1.00  0.00    -0.382 OA
ATOM     11  H   UNL     1       5.643   5.674   2.309  1.00  0.00     0.211 HD
ENDBRANCH   9  10
BRANCH   9  12
ATOM     12  C   UNL     1       4.347   6.730   3.896  1.00  0.00     0.089 C 
BRANCH  12  13
ATOM     13  N   UNL     1       5.227   5.828   4.674  1.00  0.00    -0.325 NA
ATOM     14  H   UNL     1       5.040   4.860   4.403  1.00  0.00     0.119 HD
ATOM     15  H   UNL     1       4.967   5.883   5.662  1.00  0.00     0.119 HD
ENDBRANCH  12  13
BRANCH  12  16
ATOM     16  C   UNL     1       3.531   7.632   4.853  1.00  0.00     0.022 C 
BRANCH  16  17
ATOM     17  C   UNL     1       3.916   7.686   6.338  1.00  0.00     0.002 C 
BRANCH  17  18
ATOM     18  C   UNL     1       2.959   6.957   7.278  1.00  0.00     0.000 C 
BRANCH  18  19
ATOM     19  C   UNL     1       1.628   7.686   7.504  1.00  0.00    -0.000 C 
BRANCH  19  20
ATOM     20  C   UNL     1       1.462   8.324   8.886  1.00  0.00    -0.000 C 
BRANCH  20  21
ATOM     21  C   UNL     1       2.694   8.150   9.778  1.00  0.00    -0.003 C 
ATOM     22  C   UNL     1       3.441   9.463   9.953  1.00  0.00     0.004 C 
ENDBRANCH  20  21
ENDBRANCH  19  20
ENDBRANCH  18  19
ENDBRANCH  17  18
ENDBRANCH  16  17
ENDBRANCH  12  16
ENDBRANCH   9  12
ENDBRANCH   6   9
ENDBRANCH   3   5
ENDBRANCH   2   3
BRANCH   2  23
ATOM     23  N   UNL     1       9.753  10.770   4.017  1.00  0.00    -0.332 N 
ATOM     24  C   UNL     1      10.436  11.392   5.142  1.00  0.00     0.147 C 
BRANCH  23  25
ATOM     25  C   UNL     1       9.842  11.523   2.736  1.00  0.00     0.174 C 
BRANCH  25  26
ATOM     26  C   UNL     1       8.513  11.526   1.946  1.00  0.00     0.038 C 
BRANCH  26  27
ATOM     27  C   UNL     1       7.810  12.889   1.763  1.00  0.00    -0.015 C 
ATOM     28  C   UNL     1       7.663  13.652   3.080  1.00  0.00     0.007 C 
ATOM     29  C   UNL     1       8.461  13.771   0.701  1.00  0.00     0.007 C 
ENDBRANCH  26  27
ENDBRANCH  25  26
BRANCH  25  30
ATOM     30  C   UNL     1      11.054  11.030   1.912  1.00  0.00     0.243 C 
ATOM     31  O   UNL     1      12.037  10.517   2.445  1.00  0.00    -0.273 OA
ATOM     32  N   UNL     1      10.961  11.208   0.556  1.00  0.00    -0.342 N 
ATOM     33  H   UNL     1      10.059  11.509   0.178  1.00  0.00     0.164 HD
BRANCH  32  34
ATOM     34  C   UNL     1      12.024  10.826  -0.378  1.00  0.00     0.175 C 
BRANCH  34  35
ATOM     35  C   UNL     1      11.455  10.479  -1.762  1.00  0.00     0.070 C 
BRANCH  35  36
ATOM     36  C   UNL     1      10.015  10.911  -1.927  1.00  0.00    -0.045 A 
ATOM     37  C   UNL     1       8.980  10.112  -1.420  1.00  0.00     0.007 A 
ATOM     38  C   UNL     1       9.693  12.095  -2.604  1.00  0.00     0.007 A 
ATOM     39  C   UNL     1       7.648  10.495  -1.580  1.00  0.00     0.046 A 
ATOM     40  C   UNL     1       8.360  12.479  -2.765  1.00  0.00     0.046 A 
ATOM     41  C   UNL     1       7.349  11.675  -2.250  1.00  0.00     0.115 A 
BRANCH  41  42
ATOM     42  O   UNL     1       6.035  12.012  -2.387  1.00  0.00    -0.508 OA
ATOM     43  H   UNL     1       5.563  11.731  -1.585  1.00  0.00     0.293 HD
ENDBRANCH  41  42
ENDBRANCH  35  36
ENDBRANCH  34  35
BRANCH  34  44
ATOM     44  C   UNL     1      13.041  11.988  -0.447  1.00  0.00     0.243 C 
ATOM     45  O   UNL     1      14.008  12.109   0.300  1.00  0.00    -0.273 OA
ATOM     46  N   UNL     1      12.693  12.969  -1.352  1.00  0.00    -0.341 N 
ATOM     47  H   UNL     1      11.819  12.880  -1.864  1.00  0.00     0.164 HD
BRANCH  46  48
ATOM     48  C   UNL     1      13.465  14.198  -1.544  1.00  0.00     0.196 C 
BRANCH  48  49
ATOM     49  C   UNL     1      13.777  14.436  -3.031  1.00  0.00     0.072 C 
BRANCH  49  50
ATOM     50  C   UNL     1      13.727  13.164  -3.847  1.00  0.00    -0.045 A 
ATOM     51  C   UNL     1      14.821  12.287  -3.840  1.00  0.00     0.007 A 
ATOM     52  C   UNL     1      12.609  12.854  -4.632  1.00  0.00     0.007 A 
ATOM     53  C   UNL     1      14.792  11.117  -4.599  1.00  0.00     0.046 A 
ATOM     54  C   UNL     1      12.581  11.684  -5.393  1.00  0.00     0.046 A 
ATOM     55  C   UNL     1      13.673  10.824  -5.369  1.00  0.00     0.115 A 
BRANCH  55  56
ATOM     56  O   UNL     1      13.686   9.671  -6.098  1.00  0.00    -0.508 OA
ATOM     57  H   UNL     1      12.908   9.145  -5.852  1.00  0.00     0.293 HD
ENDBRANCH  55  56
ENDBRANCH  49  50
ENDBRANCH  48  49
BRANCH  48  58
ATOM     58  C   UNL     1      12.663  15.384  -0.990  1.00  0.00     0.326 C 
ATOM     59  O   UNL     1      11.819  16.043  -1.575  1.00  0.00    -0.250 OA
BRANCH  58  60
ATOM     60  O   UNL     1      12.957  15.679   0.301  1.00  0.00    -0.480 OA
ATOM     61  H   UNL     1      12.465  16.514   0.460  1.00  0.00     0.296 HD
ENDBRANCH  58  60
ENDBRANCH  48  58
ENDBRANCH  46  48
ENDBRANCH  34  44
ENDBRANCH  32  34
ENDBRANCH  25  30
ENDBRANCH  23  25
ENDBRANCH   2  23
TORSDOF 28
ENDMDL
MODEL 27
REMARK VINA RESULT:    -6.046      2.789     12.229
REMARK INTER + INTRA:         -19.027
REMARK INTER:                 -15.272
REMARK INTRA:                  -3.755
REMARK UNBOUND:                -3.967
REMARK SMILES CCCCCCC[C@H](N)[C@H](O)C(=O)N[C@H](C)C(=O)N(C)[C@H](CC(C)C)C(=O)N[C@@H](Cc1ccc(O)cc1)C(=O)N[C@@H](Cc1ccc(O)cc1)C(=O)O
REMARK SMILES IDX 18 1 17 2 15 3 16 4 14 5 12 6 13 7 10 9 11 10 8 12 9 13 7 16
REMARK SMILES IDX 6 17 5 18 4 19 3 20 2 21 1 22 19 23 20 24 21 25 22 26 23 27
REMARK SMILES IDX 24 28 25 29 26 30 27 31 28 32 29 34 30 35 31 36 32 37 37 38
REMARK SMILES IDX 33 39 36 40 34 41 35 42 38 44 39 45 40 46 41 48 42 49 43 50
REMARK SMILES IDX 44 51 49 52 45 53 48 54 46 55 47 56 50 58 51 59 52 60
REMARK H PARENT 14 8 11 11 9 14 9 15 28 33 35 43 40 47 47 57 52 61
ROOT
ATOM      1  O   UNL     1      10.169   7.832   2.391  1.00  0.00    -0.272 OA
ATOM      2  C   UNL     1       9.586   8.681   3.080  1.00  0.00     0.245 C 
ENDROOT
BRANCH   2   3
ATOM      3  C   UNL     1       8.140   9.083   2.693  1.00  0.00     0.168 C 
ATOM      4  C   UNL     1       8.010   9.247   1.183  1.00  0.00     0.041 C 
BRANCH   3   5
ATOM      5  N   UNL     1       7.101   8.224   3.237  1.00  0.00    -0.342 N 
ATOM      6  C   UNL     1       5.888   8.726   3.659  1.00  0.00     0.251 C 
ATOM      7  O   UNL     1       5.610   9.920   3.649  1.00  0.00    -0.272 OA
ATOM      8  H   UNL     1       7.229   7.219   3.328  1.00  0.00     0.164 HD
BRANCH   6   9
ATOM      9  C   UNL     1       4.895   7.623   4.061  1.00  0.00     0.219 C 
BRANCH   9  10
ATOM     10  O   UNL     1       5.443   6.307   3.916  1.00  0.00    -0.382 OA
ATOM     11  H   UNL     1       6.401   6.435   4.091  1.00  0.00     0.211 HD
ENDBRANCH   9  10
BRANCH   9  12
ATOM     12  C   UNL     1       4.307   7.821   5.482  1.00  0.00     0.089 C 
BRANCH  12  13
ATOM     13  N   UNL     1       3.612   9.129   5.522  1.00  0.00    -0.325 NA
ATOM     14  H   UNL     1       3.912   9.643   6.352  1.00  0.00     0.119 HD
ATOM     15  H   UNL     1       2.611   8.967   5.655  1.00  0.00     0.119 HD
ENDBRANCH  12  13
BRANCH  12  16
ATOM     16  C   UNL     1       3.365   6.703   5.988  1.00  0.00     0.022 C 
BRANCH  16  17
ATOM     17  C   UNL     1       2.867   6.745   7.440  1.00  0.00     0.002 C 
BRANCH  17  18
ATOM     18  C   UNL     1       1.372   7.006   7.601  1.00  0.00     0.000 C 
BRANCH  18  19
ATOM     19  C   UNL     1       1.038   8.385   8.186  1.00  0.00    -0.000 C 
BRANCH  19  20
ATOM     20  C   UNL     1       2.204   9.098   8.876  1.00  0.00    -0.000 C 
BRANCH  20  21
ATOM     21  C   UNL     1       1.750  10.215   9.820  1.00  0.00    -0.003 C 
ATOM     22  C   UNL     1       0.650  11.058   9.194  1.00  0.00     0.004 C 
ENDBRANCH  20  21
ENDBRANCH  19  20
ENDBRANCH  18  19
ENDBRANCH  17  18
ENDBRANCH  16  17
ENDBRANCH  12  16
ENDBRANCH   9  12
ENDBRANCH   6   9
ENDBRANCH   3   5
ENDBRANCH   2   3
BRANCH   2  23
ATOM     23  N   UNL     1      10.180   9.162   4.242  1.00  0.00    -0.332 N 
ATOM     24  C   UNL     1      10.357   8.387   5.461  1.00  0.00     0.147 C 
BRANCH  23  25
ATOM     25  C   UNL     1      10.805  10.513   4.262  1.00  0.00     0.174 C 
BRANCH  25  26
ATOM     26  C   UNL     1       9.767  11.658   4.225  1.00  0.00     0.038 C 
BRANCH  26  27
ATOM     27  C   UNL     1       9.145  12.083   5.575  1.00  0.00    -0.015 C 
ATOM     28  C   UNL     1       8.819  13.576   5.624  1.00  0.00     0.007 C 
ATOM     29  C   UNL     1       7.925  11.254   5.969  1.00  0.00     0.007 C 
ENDBRANCH  26  27
ENDBRANCH  25  26
BRANCH  25  30
ATOM     30  C   UNL     1      11.884  10.616   3.159  1.00  0.00     0.243 C 
ATOM     31  O   UNL     1      12.926   9.965   3.207  1.00  0.00    -0.273 OA
ATOM     32  N   UNL     1      11.603  11.482   2.134  1.00  0.00    -0.342 N 
ATOM     33  H   UNL     1      10.660  11.877   2.093  1.00  0.00     0.164 HD
BRANCH  32  34
ATOM     34  C   UNL     1      12.520  11.728   1.018  1.00  0.00     0.175 C 
BRANCH  34  35
ATOM     35  C   UNL     1      11.816  12.466  -0.131  1.00  0.00     0.070 C 
BRANCH  35  36
ATOM     36  C   UNL     1      12.153  11.891  -1.489  1.00  0.00    -0.045 A 
ATOM     37  C   UNL     1      13.457  12.004  -1.995  1.00  0.00     0.007 A 
ATOM     38  C   UNL     1      11.172  11.263  -2.267  1.00  0.00     0.007 A 
ATOM     39  C   UNL     1      13.774  11.489  -3.252  1.00  0.00     0.046 A 
ATOM     40  C   UNL     1      11.488  10.748  -3.526  1.00  0.00     0.046 A 
ATOM     41  C   UNL     1      12.788  10.865  -4.007  1.00  0.00     0.115 A 
BRANCH  41  42
ATOM     42  O   UNL     1      13.138  10.378  -5.231  1.00  0.00    -0.508 OA
ATOM     43  H   UNL     1      14.005  10.747  -5.469  1.00  0.00     0.293 HD
ENDBRANCH  41  42
ENDBRANCH  35  36
ENDBRANCH  34  35
BRANCH  34  44
ATOM     44  C   UNL     1      13.730  12.522   1.559  1.00  0.00     0.243 C 
ATOM     45  O   UNL     1      14.881  12.095   1.592  1.00  0.00    -0.273 OA
ATOM     46  N   UNL     1      13.384  13.727   2.132  1.00  0.00    -0.341 N 
ATOM     47  H   UNL     1      12.402  13.985   2.185  1.00  0.00     0.164 HD
BRANCH  46  48
ATOM     48  C   UNL     1      14.351  14.622   2.772  1.00  0.00     0.196 C 
BRANCH  48  49
ATOM     49  C   UNL     1      14.396  15.990   2.072  1.00  0.00     0.072 C 
BRANCH  49  50
ATOM     50  C   UNL     1      14.219  15.883   0.574  1.00  0.00    -0.045 A 
ATOM     51  C   UNL     1      12.959  16.110   0.002  1.00  0.00     0.007 A 
ATOM     52  C   UNL     1      15.293  15.539  -0.256  1.00  0.00     0.007 A 
ATOM     53  C   UNL     1      12.780  16.002  -1.377  1.00  0.00     0.046 A 
ATOM     54  C   UNL     1      15.113  15.429  -1.637  1.00  0.00     0.046 A 
ATOM     55  C   UNL     1      13.857  15.663  -2.186  1.00  0.00     0.115 A 
BRANCH  55  56
ATOM     56  O   UNL     1      13.640  15.565  -3.529  1.00  0.00    -0.508 OA
ATOM     57  H   UNL     1      12.986  14.865  -3.683  1.00  0.00     0.293 HD
ENDBRANCH  55  56
ENDBRANCH  49  50
ENDBRANCH  48  49
BRANCH  48  58
ATOM     58  C   UNL     1      13.959  14.810   4.244  1.00  0.00     0.326 C 
ATOM     59  O   UNL     1      13.455  15.797   4.755  1.00  0.00    -0.250 OA
BRANCH  58  60
ATOM     60  O   UNL     1      14.212  13.722   5.015  1.00  0.00    -0.480 OA
ATOM     61  H   UNL     1      15.189  13.637   4.973  1.00  0.00     0.296 HD
ENDBRANCH  58  60
ENDBRANCH  48  58
ENDBRANCH  46  48
ENDBRANCH  34  44
ENDBRANCH  32  34
ENDBRANCH  25  30
ENDBRANCH  23  25
ENDBRANCH   2  23
TORSDOF 28
ENDMDL
MODEL 28
REMARK VINA RESULT:    -6.045      2.403      5.722
REMARK INTER + INTRA:         -19.023
REMARK INTER:                 -14.959
REMARK INTRA:                  -4.064
REMARK UNBOUND:                -3.967
REMARK SMILES CCCCCCC[C@H](N)[C@H](O)C(=O)N[C@H](C)C(=O)N(C)[C@H](CC(C)C)C(=O)N[C@@H](Cc1ccc(O)cc1)C(=O)N[C@@H](Cc1ccc(O)cc1)C(=O)O
REMARK SMILES IDX 18 1 17 2 15 3 16 4 14 5 12 6 13 7 10 9 11 10 8 12 9 13 7 16
REMARK SMILES IDX 6 17 5 18 4 19 3 20 2 21 1 22 19 23 20 24 21 25 22 26 23 27
REMARK SMILES IDX 24 28 25 29 26 30 27 31 28 32 29 34 30 35 31 36 32 37 37 38
REMARK SMILES IDX 33 39 36 40 34 41 35 42 38 44 39 45 40 46 41 48 42 49 43 50
REMARK SMILES IDX 44 51 49 52 45 53 48 54 46 55 47 56 50 58 51 59 52 60
REMARK H PARENT 14 8 11 11 9 14 9 15 28 33 35 43 40 47 47 57 52 61
ROOT
ATOM      1  O   UNL     1       8.996  13.995  -1.075  1.00  0.00    -0.272 OA
ATOM      2  C   UNL     1       8.043  13.207  -1.161  1.00  0.00     0.245 C 
ENDROOT
BRANCH   2   3
ATOM      3  C   UNL     1       7.877  12.385  -2.464  1.00  0.00     0.168 C 
ATOM      4  C   UNL     1       6.542  12.692  -3.132  1.00  0.00     0.041 C 
BRANCH   3   5
ATOM      5  N   UNL     1       8.987  12.490  -3.398  1.00  0.00    -0.342 N 
ATOM      6  C   UNL     1      10.040  11.600  -3.380  1.00  0.00     0.251 C 
ATOM      7  O   UNL     1      10.144  10.691  -2.563  1.00  0.00    -0.272 OA
ATOM      8  H   UNL     1       9.030  13.225  -4.100  1.00  0.00     0.164 HD
BRANCH   6   9
ATOM      9  C   UNL     1      11.022  11.816  -4.543  1.00  0.00     0.219 C 
BRANCH   9  10
ATOM     10  O   UNL     1      10.499  11.364  -5.798  1.00  0.00    -0.382 OA
ATOM     11  H   UNL     1       9.765  11.991  -5.983  1.00  0.00     0.211 HD
ENDBRANCH   9  10
BRANCH   9  12
ATOM     12  C   UNL     1      11.525  13.279  -4.651  1.00  0.00     0.089 C 
BRANCH  12  13
ATOM     13  N   UNL     1      10.499  14.075  -5.363  1.00  0.00    -0.325 NA
ATOM     14  H   UNL     1      10.844  14.313  -6.295  1.00  0.00     0.119 HD
ATOM     15  H   UNL     1      10.384  14.972  -4.884  1.00  0.00     0.119 HD
ENDBRANCH  12  13
BRANCH  12  16
ATOM     16  C   UNL     1      11.901  13.967  -3.317  1.00  0.00     0.022 C 
BRANCH  16  17
ATOM     17  C   UNL     1      13.269  14.651  -3.188  1.00  0.00     0.002 C 
BRANCH  17  18
ATOM     18  C   UNL     1      14.424  13.719  -2.828  1.00  0.00     0.000 C 
BRANCH  18  19
ATOM     19  C   UNL     1      13.981  12.391  -2.197  1.00  0.00    -0.000 C 
BRANCH  19  20
ATOM     20  C   UNL     1      14.380  11.136  -2.978  1.00  0.00    -0.000 C 
BRANCH  20  21
ATOM     21  C   UNL     1      14.959  11.448  -4.361  1.00  0.00    -0.003 C 
ATOM     22  C   UNL     1      14.386  10.524  -5.424  1.00  0.00     0.004 C 
ENDBRANCH  20  21
ENDBRANCH  19  20
ENDBRANCH  18  19
ENDBRANCH  17  18
ENDBRANCH  16  17
ENDBRANCH  12  16
ENDBRANCH   9  12
ENDBRANCH   6   9
ENDBRANCH   3   5
ENDBRANCH   2   3
BRANCH   2  23
ATOM     23  N   UNL     1       7.222  12.985  -0.061  1.00  0.00    -0.332 N 
ATOM     24  C   UNL     1       6.692  14.033   0.799  1.00  0.00     0.147 C 
BRANCH  23  25
ATOM     25  C   UNL     1       6.717  11.616   0.235  1.00  0.00     0.174 C 
BRANCH  25  26
ATOM     26  C   UNL     1       5.340  11.622   0.940  1.00  0.00     0.038 C 
BRANCH  26  27
ATOM     27  C   UNL     1       4.275  10.640   0.403  1.00  0.00    -0.015 C 
ATOM     28  C   UNL     1       3.552   9.892   1.523  1.00  0.00     0.007 C 
ATOM     29  C   UNL     1       3.270  11.292  -0.543  1.00  0.00     0.007 C 
ENDBRANCH  26  27
ENDBRANCH  25  26
BRANCH  25  30
ATOM     30  C   UNL     1       7.796  10.802   0.986  1.00  0.00     0.243 C 
ATOM     31  O   UNL     1       8.545  10.021   0.400  1.00  0.00    -0.273 OA
ATOM     32  N   UNL     1       7.856  11.004   2.341  1.00  0.00    -0.342 N 
ATOM     33  H   UNL     1       7.299  11.769   2.731  1.00  0.00     0.164 HD
BRANCH  32  34
ATOM     34  C   UNL     1       8.796  10.298   3.215  1.00  0.00     0.175 C 
BRANCH  34  35
ATOM     35  C   UNL     1       9.668  11.284   4.009  1.00  0.00     0.070 C 
BRANCH  35  36
ATOM     36  C   UNL     1      11.048  11.453   3.414  1.00  0.00    -0.045 A 
ATOM     37  C   UNL     1      11.200  12.037   2.148  1.00  0.00     0.007 A 
ATOM     38  C   UNL     1      12.186  11.013   4.103  1.00  0.00     0.007 A 
ATOM     39  C   UNL     1      12.468  12.185   1.585  1.00  0.00     0.046 A 
ATOM     40  C   UNL     1      13.456  11.159   3.540  1.00  0.00     0.046 A 
ATOM     41  C   UNL     1      13.586  11.746   2.285  1.00  0.00     0.115 A 
BRANCH  41  42
ATOM     42  O   UNL     1      14.806  11.906   1.699  1.00  0.00    -0.508 OA
ATOM     43  H   UNL     1      15.246  12.668   2.113  1.00  0.00     0.293 HD
ENDBRANCH  41  42
ENDBRANCH  35  36
ENDBRANCH  34  35
BRANCH  34  44
ATOM     44  C   UNL     1       7.982   9.370   4.145  1.00  0.00     0.243 C 
ATOM     45  O   UNL     1       8.469   8.682   5.037  1.00  0.00    -0.273 OA
ATOM     46  N   UNL     1       6.651   9.278   3.798  1.00  0.00    -0.341 N 
ATOM     47  H   UNL     1       6.318   9.778   2.978  1.00  0.00     0.164 HD
BRANCH  46  48
ATOM     48  C   UNL     1       5.697   8.408   4.490  1.00  0.00     0.196 C 
BRANCH  48  49
ATOM     49  C   UNL     1       4.453   9.191   4.945  1.00  0.00     0.072 C 
BRANCH  49  50
ATOM     50  C   UNL     1       4.158   9.010   6.417  1.00  0.00    -0.045 A 
ATOM     51  C   UNL     1       3.520   7.843   6.864  1.00  0.00     0.007 A 
ATOM     52  C   UNL     1       4.494  10.002   7.347  1.00  0.00     0.007 A 
ATOM     53  C   UNL     1       3.231   7.671   8.217  1.00  0.00     0.046 A 
ATOM     54  C   UNL     1       4.204   9.830   8.702  1.00  0.00     0.046 A 
ATOM     55  C   UNL     1       3.575   8.664   9.126  1.00  0.00     0.115 A 
BRANCH  55  56
ATOM     56  O   UNL     1       3.273   8.458  10.440  1.00  0.00    -0.508 OA
ATOM     57  H   UNL     1       3.392   9.295  10.916  1.00  0.00     0.293 HD
ENDBRANCH  55  56
ENDBRANCH  49  50
ENDBRANCH  48  49
BRANCH  48  58
ATOM     58  C   UNL     1       5.274   7.277   3.543  1.00  0.00     0.326 C 
ATOM     59  O   UNL     1       4.293   6.558   3.641  1.00  0.00    -0.250 OA
BRANCH  58  60
ATOM     60  O   UNL     1       6.114   7.111   2.490  1.00  0.00    -0.480 OA
ATOM     61  H   UNL     1       5.890   7.864   1.901  1.00  0.00     0.296 HD
ENDBRANCH  58  60
ENDBRANCH  48  58
ENDBRANCH  46  48
ENDBRANCH  34  44
ENDBRANCH  32  34
ENDBRANCH  25  30
ENDBRANCH  23  25
ENDBRANCH   2  23
TORSDOF 28
ENDMDL
MODEL 29
REMARK VINA RESULT:    -6.041      2.925     11.221
REMARK INTER + INTRA:         -19.013
REMARK INTER:                 -13.453
REMARK INTRA:                  -5.560
REMARK UNBOUND:                -3.967
REMARK SMILES CCCCCCC[C@H](N)[C@H](O)C(=O)N[C@H](C)C(=O)N(C)[C@H](CC(C)C)C(=O)N[C@@H](Cc1ccc(O)cc1)C(=O)N[C@@H](Cc1ccc(O)cc1)C(=O)O
REMARK SMILES IDX 18 1 17 2 15 3 16 4 14 5 12 6 13 7 10 9 11 10 8 12 9 13 7 16
REMARK SMILES IDX 6 17 5 18 4 19 3 20 2 21 1 22 19 23 20 24 21 25 22 26 23 27
REMARK SMILES IDX 24 28 25 29 26 30 27 31 28 32 29 34 30 35 31 36 32 37 37 38
REMARK SMILES IDX 33 39 36 40 34 41 35 42 38 44 39 45 40 46 41 48 42 49 43 50
REMARK SMILES IDX 44 51 49 52 45 53 48 54 46 55 47 56 50 58 51 59 52 60
REMARK H PARENT 14 8 11 11 9 14 9 15 28 33 35 43 40 47 47 57 52 61
ROOT
ATOM      1  O   UNL     1      10.058  10.180   5.381  1.00  0.00    -0.272 OA
ATOM      2  C   UNL     1      10.746  10.284   4.355  1.00  0.00     0.245 C 
ENDROOT
BRANCH   2   3
ATOM      3  C   UNL     1      10.592   9.211   3.248  1.00  0.00     0.168 C 
ATOM      4  C   UNL     1      11.499   8.017   3.521  1.00  0.00     0.041 C 
BRANCH   3   5
ATOM      5  N   UNL     1       9.222   8.802   2.980  1.00  0.00    -0.342 N 
ATOM      6  C   UNL     1       8.487   9.348   1.950  1.00  0.00     0.251 C 
ATOM      7  O   UNL     1       8.907  10.236   1.216  1.00  0.00    -0.272 OA
ATOM      8  H   UNL     1       8.754   8.097   3.545  1.00  0.00     0.164 HD
BRANCH   6   9
ATOM      9  C   UNL     1       7.122   8.665   1.766  1.00  0.00     0.219 C 
BRANCH   9  10
ATOM     10  O   UNL     1       7.048   7.393   2.422  1.00  0.00    -0.382 OA
ATOM     11  H   UNL     1       7.672   6.833   1.911  1.00  0.00     0.211 HD
ENDBRANCH   9  10
BRANCH   9  12
ATOM     12  C   UNL     1       5.929   9.567   2.177  1.00  0.00     0.089 C 
BRANCH  12  13
ATOM     13  N   UNL     1       5.770  10.626   1.154  1.00  0.00    -0.325 NA
ATOM     14  H   UNL     1       5.728  11.536   1.617  1.00  0.00     0.119 HD
ATOM     15  H   UNL     1       4.860  10.514   0.701  1.00  0.00     0.119 HD
ENDBRANCH  12  13
BRANCH  12  16
ATOM     16  C   UNL     1       4.581   8.844   2.409  1.00  0.00     0.022 C 
BRANCH  16  17
ATOM     17  C   UNL     1       3.785   9.140   3.687  1.00  0.00     0.002 C 
BRANCH  17  18
ATOM     18  C   UNL     1       4.586   9.799   4.808  1.00  0.00     0.000 C 
BRANCH  18  19
ATOM     19  C   UNL     1       4.415   9.128   6.177  1.00  0.00    -0.000 C 
BRANCH  19  20
ATOM     20  C   UNL     1       3.226   8.169   6.286  1.00  0.00    -0.000 C 
BRANCH  20  21
ATOM     21  C   UNL     1       3.643   6.731   6.605  1.00  0.00    -0.003 C 
ATOM     22  C   UNL     1       3.653   5.866   5.354  1.00  0.00     0.004 C 
ENDBRANCH  20  21
ENDBRANCH  19  20
ENDBRANCH  18  19
ENDBRANCH  17  18
ENDBRANCH  16  17
ENDBRANCH  12  16
ENDBRANCH   9  12
ENDBRANCH   6   9
ENDBRANCH   3   5
ENDBRANCH   2   3
BRANCH   2  23
ATOM     23  N   UNL     1      11.542  11.408   4.162  1.00  0.00    -0.332 N 
ATOM     24  C   UNL     1      12.987  11.436   4.335  1.00  0.00     0.147 C 
BRANCH  23  25
ATOM     25  C   UNL     1      10.951  12.663   3.624  1.00  0.00     0.174 C 
BRANCH  25  26
ATOM     26  C   UNL     1       9.404  12.655   3.637  1.00  0.00     0.038 C 
BRANCH  26  27
ATOM     27  C   UNL     1       8.706  13.716   4.516  1.00  0.00    -0.015 C 
ATOM     28  C   UNL     1       8.483  13.234   5.949  1.00  0.00     0.007 C 
ATOM     29  C   UNL     1       9.411  15.070   4.509  1.00  0.00     0.007 C 
ENDBRANCH  26  27
ENDBRANCH  25  26
BRANCH  25  30
ATOM     30  C   UNL     1      11.558  12.987   2.239  1.00  0.00     0.243 C 
ATOM     31  O   UNL     1      12.197  14.018   2.034  1.00  0.00    -0.273 OA
ATOM     32  N   UNL     1      11.333  12.054   1.260  1.00  0.00    -0.342 N 
ATOM     33  H   UNL     1      10.918  11.162   1.542  1.00  0.00     0.164 HD
BRANCH  32  34
ATOM     34  C   UNL     1      11.809  12.206  -0.117  1.00  0.00     0.175 C 
BRANCH  34  35
ATOM     35  C   UNL     1      11.983  10.842  -0.803  1.00  0.00     0.070 C 
BRANCH  35  36
ATOM     36  C   UNL     1      12.718  10.939  -2.121  1.00  0.00    -0.045 A 
ATOM     37  C   UNL     1      12.022  10.764  -3.327  1.00  0.00     0.007 A 
ATOM     38  C   UNL     1      14.097  11.180  -2.159  1.00  0.00     0.007 A 
ATOM     39  C   UNL     1      12.693  10.838  -4.547  1.00  0.00     0.046 A 
ATOM     40  C   UNL     1      14.771  11.253  -3.381  1.00  0.00     0.046 A 
ATOM     41  C   UNL     1      14.061  11.083  -4.565  1.00  0.00     0.115 A 
BRANCH  41  42
ATOM     42  O   UNL     1      14.680  11.144  -5.778  1.00  0.00    -0.508 OA
ATOM     43  H   UNL     1      15.204  10.335  -5.895  1.00  0.00     0.293 HD
ENDBRANCH  41  42
ENDBRANCH  35  36
ENDBRANCH  34  35
BRANCH  34  44
ATOM     44  C   UNL     1      10.808  13.109  -0.873  1.00  0.00     0.243 C 
ATOM     45  O   UNL     1      11.067  14.234  -1.291  1.00  0.00    -0.273 OA
ATOM     46  N   UNL     1       9.533  12.587  -0.929  1.00  0.00    -0.341 N 
ATOM     47  H   UNL     1       9.341  11.703  -0.465  1.00  0.00     0.164 HD
BRANCH  46  48
ATOM     48  C   UNL     1       8.400  13.291  -1.534  1.00  0.00     0.196 C 
BRANCH  48  49
ATOM     49  C   UNL     1       8.186  12.856  -2.994  1.00  0.00     0.072 C 
BRANCH  49  50
ATOM     50  C   UNL     1       8.825  13.803  -3.983  1.00  0.00    -0.045 A 
ATOM     51  C   UNL     1      10.031  13.452  -4.609  1.00  0.00     0.007 A 
ATOM     52  C   UNL     1       8.242  15.043  -4.274  1.00  0.00     0.007 A 
ATOM     53  C   UNL     1      10.637  14.324  -5.513  1.00  0.00     0.046 A 
ATOM     54  C   UNL     1       8.850  15.917  -5.179  1.00  0.00     0.046 A 
ATOM     55  C   UNL     1      10.042  15.548  -5.792  1.00  0.00     0.115 A 
BRANCH  55  56
ATOM     56  O   UNL     1      10.668  16.372  -6.681  1.00  0.00    -0.508 OA
ATOM     57  H   UNL     1      10.715  15.919  -7.537  1.00  0.00     0.293 HD
ENDBRANCH  55  56
ENDBRANCH  49  50
ENDBRANCH  48  49
BRANCH  48  58
ATOM     58  C   UNL     1       7.135  12.996  -0.718  1.00  0.00     0.326 C 
ATOM     59  O   UNL     1       5.999  12.851  -1.141  1.00  0.00    -0.250 OA
BRANCH  58  60
ATOM     60  O   UNL     1       7.365  12.881   0.615  1.00  0.00    -0.480 OA
ATOM     61  H   UNL     1       8.344  12.832   0.671  1.00  0.00     0.296 HD
ENDBRANCH  58  60
ENDBRANCH  48  58
ENDBRANCH  46  48
ENDBRANCH  34  44
ENDBRANCH  32  34
ENDBRANCH  25  30
ENDBRANCH  23  25
ENDBRANCH   2  23
TORSDOF 28
ENDMDL
MODEL 30
REMARK VINA RESULT:    -6.033      3.839      8.960
REMARK INTER + INTRA:         -18.994
REMARK INTER:                 -12.885
REMARK INTRA:                  -6.109
REMARK UNBOUND:                -3.967
REMARK SMILES CCCCCCC[C@H](N)[C@H](O)C(=O)N[C@H](C)C(=O)N(C)[C@H](CC(C)C)C(=O)N[C@@H](Cc1ccc(O)cc1)C(=O)N[C@@H](Cc1ccc(O)cc1)C(=O)O
REMARK SMILES IDX 18 1 17 2 15 3 16 4 14 5 12 6 13 7 10 9 11 10 8 12 9 13 7 16
REMARK SMILES IDX 6 17 5 18 4 19 3 20 2 21 1 22 19 23 20 24 21 25 22 26 23 27
REMARK SMILES IDX 24 28 25 29 26 30 27 31 28 32 29 34 30 35 31 36 32 37 37 38
REMARK SMILES IDX 33 39 36 40 34 41 35 42 38 44 39 45 40 46 41 48 42 49 43 50
REMARK SMILES IDX 44 51 49 52 45 53 48 54 46 55 47 56 50 58 51 59 52 60
REMARK H PARENT 14 8 11 11 9 14 9 15 28 33 35 43 40 47 47 57 52 61
ROOT
ATOM      1  O   UNL     1       8.994   9.712   1.898  1.00  0.00    -0.272 OA
ATOM      2  C   UNL     1       8.576   9.993   3.031  1.00  0.00     0.245 C 
ENDROOT
BRANCH   2   3
ATOM      3  C   UNL     1       8.444   8.857   4.075  1.00  0.00     0.168 C 
ATOM      4  C   UNL     1       9.545   8.955   5.125  1.00  0.00     0.041 C 
BRANCH   3   5
ATOM      5  N   UNL     1       7.127   8.733   4.680  1.00  0.00    -0.342 N 
ATOM      6  C   UNL     1       6.011   8.411   3.936  1.00  0.00     0.251 C 
ATOM      7  O   UNL     1       6.033   8.248   2.720  1.00  0.00    -0.272 OA
ATOM      8  H   UNL     1       6.978   8.880   5.675  1.00  0.00     0.164 HD
BRANCH   6   9
ATOM      9  C   UNL     1       4.761   8.195   4.803  1.00  0.00     0.219 C 
BRANCH   9  10
ATOM     10  O   UNL     1       3.769   9.210   4.605  1.00  0.00    -0.382 OA
ATOM     11  H   UNL     1       3.013   8.905   5.153  1.00  0.00     0.211 HD
ENDBRANCH   9  10
BRANCH   9  12
ATOM     12  C   UNL     1       4.143   6.782   4.639  1.00  0.00     0.089 C 
BRANCH  12  13
ATOM     13  N   UNL     1       5.238   5.821   4.373  1.00  0.00    -0.325 NA
ATOM     14  H   UNL     1       6.074   6.335   4.090  1.00  0.00     0.119 HD
ATOM     15  H   UNL     1       4.988   5.251   3.561  1.00  0.00     0.119 HD
ENDBRANCH  12  13
BRANCH  12  16
ATOM     16  C   UNL     1       3.272   6.282   5.817  1.00  0.00     0.022 C 
BRANCH  16  17
ATOM     17  C   UNL     1       3.066   7.195   7.033  1.00  0.00     0.002 C 
BRANCH  17  18
ATOM     18  C   UNL     1       1.618   7.330   7.500  1.00  0.00     0.000 C 
BRANCH  18  19
ATOM     19  C   UNL     1       1.315   6.604   8.817  1.00  0.00    -0.000 C 
BRANCH  19  20
ATOM     20  C   UNL     1       2.537   6.023   9.534  1.00  0.00    -0.000 C 
BRANCH  20  21
ATOM     21  C   UNL     1       2.233   5.568  10.964  1.00  0.00    -0.003 C 
ATOM     22  C   UNL     1       0.799   5.889  11.355  1.00  0.00     0.004 C 
ENDBRANCH  20  21
ENDBRANCH  19  20
ENDBRANCH  18  19
ENDBRANCH  17  18
ENDBRANCH  16  17
ENDBRANCH  12  16
ENDBRANCH   9  12
ENDBRANCH   6   9
ENDBRANCH   3   5
ENDBRANCH   2   3
BRANCH   2  23
ATOM     23  N   UNL     1       8.354  11.321   3.381  1.00  0.00    -0.332 N 
ATOM     24  C   UNL     1       9.402  12.316   3.553  1.00  0.00     0.147 C 
BRANCH  23  25
ATOM     25  C   UNL     1       6.966  11.849   3.479  1.00  0.00     0.174 C 
BRANCH  25  26
ATOM     26  C   UNL     1       6.778  13.192   2.735  1.00  0.00     0.038 C 
BRANCH  26  27
ATOM     27  C   UNL     1       6.036  13.144   1.380  1.00  0.00    -0.015 C 
ATOM     28  C   UNL     1       6.837  12.415   0.301  1.00  0.00     0.007 C 
ATOM     29  C   UNL     1       4.625  12.571   1.481  1.00  0.00     0.007 C 
ENDBRANCH  26  27
ENDBRANCH  25  26
BRANCH  25  30
ATOM     30  C   UNL     1       6.515  11.890   4.957  1.00  0.00     0.243 C 
ATOM     31  O   UNL     1       7.306  11.710   5.883  1.00  0.00    -0.273 OA
ATOM     32  N   UNL     1       5.182  12.132   5.165  1.00  0.00    -0.342 N 
ATOM     33  H   UNL     1       4.619  12.410   4.357  1.00  0.00     0.164 HD
BRANCH  32  34
ATOM     34  C   UNL     1       4.573  12.178   6.497  1.00  0.00     0.175 C 
BRANCH  34  35
ATOM     35  C   UNL     1       4.989  10.966   7.344  1.00  0.00     0.070 C 
BRANCH  35  36
ATOM     36  C   UNL     1       3.945  10.584   8.370  1.00  0.00    -0.045 A 
ATOM     37  C   UNL     1       4.268   9.683   9.397  1.00  0.00     0.007 A 
ATOM     38  C   UNL     1       2.645  11.100   8.299  1.00  0.00     0.007 A 
ATOM     39  C   UNL     1       3.308   9.315  10.340  1.00  0.00     0.046 A 
ATOM     40  C   UNL     1       1.683  10.730   9.243  1.00  0.00     0.046 A 
ATOM     41  C   UNL     1       2.024   9.841  10.256  1.00  0.00     0.115 A 
BRANCH  41  42
ATOM     42  O   UNL     1       1.115   9.452  11.195  1.00  0.00    -0.508 OA
ATOM     43  H   UNL     1       0.373  10.079  11.179  1.00  0.00     0.293 HD
ENDBRANCH  41  42
ENDBRANCH  35  36
ENDBRANCH  34  35
BRANCH  34  44
ATOM     44  C   UNL     1       4.979  13.513   7.162  1.00  0.00     0.243 C 
ATOM     45  O   UNL     1       4.571  14.616   6.810  1.00  0.00    -0.273 OA
ATOM     46  N   UNL     1       5.959  13.372   8.123  1.00  0.00    -0.341 N 
ATOM     47  H   UNL     1       6.350  12.450   8.298  1.00  0.00     0.164 HD
BRANCH  46  48
ATOM     48  C   UNL     1       6.551  14.503   8.841  1.00  0.00     0.196 C 
BRANCH  48  49
ATOM     49  C   UNL     1       6.927  14.116  10.281  1.00  0.00     0.072 C 
BRANCH  49  50
ATOM     50  C   UNL     1       5.796  13.429  11.013  1.00  0.00    -0.045 A 
ATOM     51  C   UNL     1       4.505  13.977  10.976  1.00  0.00     0.007 A 
ATOM     52  C   UNL     1       6.019  12.259  11.750  1.00  0.00     0.007 A 
ATOM     53  C   UNL     1       3.456  13.360  11.658  1.00  0.00     0.046 A 
ATOM     54  C   UNL     1       4.969  11.642  12.434  1.00  0.00     0.046 A 
ATOM     55  C   UNL     1       3.696  12.197  12.381  1.00  0.00     0.115 A 
BRANCH  55  56
ATOM     56  O   UNL     1       2.645  11.626  13.035  1.00  0.00    -0.508 OA
ATOM     57  H   UNL     1       2.290  10.913  12.481  1.00  0.00     0.293 HD
ENDBRANCH  55  56
ENDBRANCH  49  50
ENDBRANCH  48  49
BRANCH  48  58
ATOM     58  C   UNL     1       7.806  14.970   8.090  1.00  0.00     0.326 C 
ATOM     59  O   UNL     1       8.149  14.660   6.960  1.00  0.00    -0.250 OA
BRANCH  58  60
ATOM     60  O   UNL     1       8.574  15.831   8.803  1.00  0.00    -0.480 OA
ATOM     61  H   UNL     1       9.283  16.079   8.170  1.00  0.00     0.296 HD
ENDBRANCH  58  60
ENDBRANCH  48  58
ENDBRANCH  46  48
ENDBRANCH  34  44
ENDBRANCH  32  34
ENDBRANCH  25  30
ENDBRANCH  23  25
ENDBRANCH   2  23
TORSDOF 28
ENDMDL
MODEL 31
REMARK VINA RESULT:    -6.004      2.771      6.556
REMARK INTER + INTRA:         -18.920
REMARK INTER:                 -13.544
REMARK INTRA:                  -5.376
REMARK UNBOUND:                -3.967
REMARK SMILES CCCCCCC[C@H](N)[C@H](O)C(=O)N[C@H](C)C(=O)N(C)[C@H](CC(C)C)C(=O)N[C@@H](Cc1ccc(O)cc1)C(=O)N[C@@H](Cc1ccc(O)cc1)C(=O)O
REMARK SMILES IDX 18 1 17 2 15 3 16 4 14 5 12 6 13 7 10 9 11 10 8 12 9 13 7 16
REMARK SMILES IDX 6 17 5 18 4 19 3 20 2 21 1 22 19 23 20 24 21 25 22 26 23 27
REMARK SMILES IDX 24 28 25 29 26 30 27 31 28 32 29 34 30 35 31 36 32 37 37 38
REMARK SMILES IDX 33 39 36 40 34 41 35 42 38 44 39 45 40 46 41 48 42 49 43 50
REMARK SMILES IDX 44 51 49 52 45 53 48 54 46 55 47 56 50 58 51 59 52 60
REMARK H PARENT 14 8 11 11 9 14 9 15 28 33 35 43 40 47 47 57 52 61
ROOT
ATOM      1  O   UNL     1      11.455   9.825   2.569  1.00  0.00    -0.272 OA
ATOM      2  C   UNL     1      10.893  10.467   3.470  1.00  0.00     0.245 C 
ENDROOT
BRANCH   2   3
ATOM      3  C   UNL     1      11.232  11.969   3.631  1.00  0.00     0.168 C 
ATOM      4  C   UNL     1      11.134  12.393   5.093  1.00  0.00     0.041 C 
BRANCH   3   5
ATOM      5  N   UNL     1      12.493  12.379   3.032  1.00  0.00    -0.342 N 
ATOM      6  C   UNL     1      12.723  13.680   2.637  1.00  0.00     0.251 C 
ATOM      7  O   UNL     1      11.883  14.570   2.720  1.00  0.00    -0.272 OA
ATOM      8  H   UNL     1      13.253  11.720   2.879  1.00  0.00     0.164 HD
BRANCH   6   9
ATOM      9  C   UNL     1      14.167  13.912   2.165  1.00  0.00     0.219 C 
BRANCH   9  10
ATOM     10  O   UNL     1      14.786  12.717   1.674  1.00  0.00    -0.382 OA
ATOM     11  H   UNL     1      15.485  13.050   1.069  1.00  0.00     0.211 HD
ENDBRANCH   9  10
BRANCH   9  12
ATOM     12  C   UNL     1      14.293  15.062   1.132  1.00  0.00     0.089 C 
BRANCH  12  13
ATOM     13  N   UNL     1      15.731  15.304   0.876  1.00  0.00    -0.325 NA
ATOM     14  H   UNL     1      16.242  15.259   1.760  1.00  0.00     0.119 HD
ATOM     15  H   UNL     1      15.852  16.265   0.547  1.00  0.00     0.119 HD
ENDBRANCH  12  13
BRANCH  12  16
ATOM     16  C   UNL     1      13.542  14.857  -0.205  1.00  0.00     0.022 C 
BRANCH  16  17
ATOM     17  C   UNL     1      14.351  14.591  -1.483  1.00  0.00     0.002 C 
BRANCH  17  18
ATOM     18  C   UNL     1      13.969  13.317  -2.233  1.00  0.00     0.000 C 
BRANCH  18  19
ATOM     19  C   UNL     1      14.698  13.138  -3.571  1.00  0.00    -0.000 C 
BRANCH  19  20
ATOM     20  C   UNL     1      14.127  12.047  -4.482  1.00  0.00    -0.000 C 
BRANCH  20  21
ATOM     21  C   UNL     1      12.608  12.139  -4.649  1.00  0.00    -0.003 C 
ATOM     22  C   UNL     1      11.925  10.848  -4.227  1.00  0.00     0.004 C 
ENDBRANCH  20  21
ENDBRANCH  19  20
ENDBRANCH  18  19
ENDBRANCH  17  18
ENDBRANCH  16  17
ENDBRANCH  12  16
ENDBRANCH   9  12
ENDBRANCH   6   9
ENDBRANCH   3   5
ENDBRANCH   2   3
BRANCH   2  23
ATOM     23  N   UNL     1       9.892   9.869   4.229  1.00  0.00    -0.332 N 
ATOM     24  C   UNL     1      10.086   8.706   5.082  1.00  0.00     0.147 C 
BRANCH  23  25
ATOM     25  C   UNL     1       8.541  10.489   4.311  1.00  0.00     0.174 C 
BRANCH  25  26
ATOM     26  C   UNL     1       7.858  10.264   5.681  1.00  0.00     0.038 C 
BRANCH  26  27
ATOM     27  C   UNL     1       6.980  11.414   6.223  1.00  0.00    -0.015 C 
ATOM     28  C   UNL     1       6.301  11.057   7.545  1.00  0.00     0.007 C 
ATOM     29  C   UNL     1       7.724  12.741   6.342  1.00  0.00     0.007 C 
ENDBRANCH  26  27
ENDBRANCH  25  26
BRANCH  25  30
ATOM     30  C   UNL     1       7.679  10.048   3.107  1.00  0.00     0.243 C 
ATOM     31  O   UNL     1       8.059   9.185   2.316  1.00  0.00    -0.273 OA
ATOM     32  N   UNL     1       6.471  10.684   2.976  1.00  0.00    -0.342 N 
ATOM     33  H   UNL     1       6.166  11.283   3.748  1.00  0.00     0.164 HD
BRANCH  32  34
ATOM     34  C   UNL     1       5.537  10.414   1.881  1.00  0.00     0.175 C 
BRANCH  34  35
ATOM     35  C   UNL     1       4.106  10.212   2.403  1.00  0.00     0.070 C 
BRANCH  35  36
ATOM     36  C   UNL     1       4.033   9.215   3.538  1.00  0.00    -0.045 A 
ATOM     37  C   UNL     1       4.192   7.845   3.279  1.00  0.00     0.007 A 
ATOM     38  C   UNL     1       3.786   9.637   4.851  1.00  0.00     0.007 A 
ATOM     39  C   UNL     1       4.113   6.916   4.317  1.00  0.00     0.046 A 
ATOM     40  C   UNL     1       3.705   8.707   5.891  1.00  0.00     0.046 A 
ATOM     41  C   UNL     1       3.871   7.354   5.614  1.00  0.00     0.115 A 
BRANCH  41  42
ATOM     42  O   UNL     1       3.797   6.414   6.599  1.00  0.00    -0.508 OA
ATOM     43  H   UNL     1       2.863   6.294   6.837  1.00  0.00     0.293 HD
ENDBRANCH  41  42
ENDBRANCH  35  36
ENDBRANCH  34  35
BRANCH  34  44
ATOM     44  C   UNL     1       5.625  11.586   0.877  1.00  0.00     0.243 C 
ATOM     45  O   UNL     1       5.149  12.701   1.069  1.00  0.00    -0.273 OA
ATOM     46  N   UNL     1       6.181  11.230  -0.334  1.00  0.00    -0.341 N 
ATOM     47  H   UNL     1       6.454  10.263  -0.487  1.00  0.00     0.164 HD
BRANCH  46  48
ATOM     48  C   UNL     1       6.308  12.153  -1.464  1.00  0.00     0.196 C 
BRANCH  48  49
ATOM     49  C   UNL     1       7.446  11.730  -2.408  1.00  0.00     0.072 C 
BRANCH  49  50
ATOM     50  C   UNL     1       8.777  11.616  -1.700  1.00  0.00    -0.045 A 
ATOM     51  C   UNL     1       9.431  12.773  -1.252  1.00  0.00     0.007 A 
ATOM     52  C   UNL     1       9.383  10.369  -1.500  1.00  0.00     0.007 A 
ATOM     53  C   UNL     1      10.666  12.682  -0.609  1.00  0.00     0.046 A 
ATOM     54  C   UNL     1      10.620  10.278  -0.857  1.00  0.00     0.046 A 
ATOM     55  C   UNL     1      11.250  11.437  -0.416  1.00  0.00     0.115 A 
BRANCH  55  56
ATOM     56  O   UNL     1      12.458  11.391   0.215  1.00  0.00    -0.508 OA
ATOM     57  H   UNL     1      12.608  12.245   0.651  1.00  0.00     0.293 HD
ENDBRANCH  55  56
ENDBRANCH  49  50
ENDBRANCH  48  49
BRANCH  48  58
ATOM     58  C   UNL     1       4.982  12.180  -2.237  1.00  0.00     0.326 C 
ATOM     59  O   UNL     1       4.602  11.385  -3.081  1.00  0.00    -0.250 OA
BRANCH  58  60
ATOM     60  O   UNL     1       4.177  13.217  -1.894  1.00  0.00    -0.480 OA
ATOM     61  H   UNL     1       3.536  13.262  -2.637  1.00  0.00     0.296 HD
ENDBRANCH  58  60
ENDBRANCH  48  58
ENDBRANCH  46  48
ENDBRANCH  34  44
ENDBRANCH  32  34
ENDBRANCH  25  30
ENDBRANCH  23  25
ENDBRANCH   2  23
TORSDOF 28
ENDMDL
MODEL 32
REMARK VINA RESULT:    -6.001      3.264      5.291
REMARK INTER + INTRA:         -18.913
REMARK INTER:                 -13.349
REMARK INTRA:                  -5.564
REMARK UNBOUND:                -3.967
REMARK SMILES CCCCCCC[C@H](N)[C@H](O)C(=O)N[C@H](C)C(=O)N(C)[C@H](CC(C)C)C(=O)N[C@@H](Cc1ccc(O)cc1)C(=O)N[C@@H](Cc1ccc(O)cc1)C(=O)O
REMARK SMILES IDX 18 1 17 2 15 3 16 4 14 5 12 6 13 7 10 9 11 10 8 12 9 13 7 16
REMARK SMILES IDX 6 17 5 18 4 19 3 20 2 21 1 22 19 23 20 24 21 25 22 26 23 27
REMARK SMILES IDX 24 28 25 29 26 30 27 31 28 32 29 34 30 35 31 36 32 37 37 38
REMARK SMILES IDX 33 39 36 40 34 41 35 42 38 44 39 45 40 46 41 48 42 49 43 50
REMARK SMILES IDX 44 51 49 52 45 53 48 54 46 55 47 56 50 58 51 59 52 60
REMARK H PARENT 14 8 11 11 9 14 9 15 28 33 35 43 40 47 47 57 52 61
ROOT
ATOM      1  O   UNL     1       7.959  14.506   1.491  1.00  0.00    -0.272 OA
ATOM      2  C   UNL     1       6.985  13.818   1.829  1.00  0.00     0.245 C 
ENDROOT
BRANCH   2   3
ATOM      3  C   UNL     1       6.786  12.435   1.161  1.00  0.00     0.168 C 
ATOM      4  C   UNL     1       7.013  12.523  -0.344  1.00  0.00     0.041 C 
BRANCH   3   5
ATOM      5  N   UNL     1       7.549  11.351   1.761  1.00  0.00    -0.342 N 
ATOM      6  C   UNL     1       6.957  10.161   2.129  1.00  0.00     0.251 C 
ATOM      7  O   UNL     1       5.755   9.941   2.020  1.00  0.00    -0.272 OA
ATOM      8  H   UNL     1       8.548  11.430   1.934  1.00  0.00     0.164 HD
BRANCH   6   9
ATOM      9  C   UNL     1       7.975   9.114   2.607  1.00  0.00     0.219 C 
BRANCH   9  10
ATOM     10  O   UNL     1       8.317   8.169   1.586  1.00  0.00    -0.382 OA
ATOM     11  H   UNL     1       9.135   8.541   1.191  1.00  0.00     0.211 HD
ENDBRANCH   9  10
BRANCH   9  12
ATOM     12  C   UNL     1       9.252   9.743   3.225  1.00  0.00     0.089 C 
BRANCH  12  13
ATOM     13  N   UNL     1       9.325   9.348   4.650  1.00  0.00    -0.325 NA
ATOM     14  H   UNL     1       8.858   8.448   4.773  1.00  0.00     0.119 HD
ATOM     15  H   UNL     1       8.779  10.010   5.206  1.00  0.00     0.119 HD
ENDBRANCH  12  13
BRANCH  12  16
ATOM     16  C   UNL     1      10.584   9.411   2.512  1.00  0.00     0.022 C 
BRANCH  16  17
ATOM     17  C   UNL     1      11.463  10.559   1.998  1.00  0.00     0.002 C 
BRANCH  17  18
ATOM     18  C   UNL     1      12.753  10.785   2.783  1.00  0.00     0.000 C 
BRANCH  18  19
ATOM     19  C   UNL     1      12.531  11.249   4.229  1.00  0.00    -0.000 C 
BRANCH  19  20
ATOM     20  C   UNL     1      12.064  12.700   4.382  1.00  0.00    -0.000 C 
BRANCH  20  21
ATOM     21  C   UNL     1      10.792  12.835   5.223  1.00  0.00    -0.003 C 
ATOM     22  C   UNL     1       9.607  13.262   4.371  1.00  0.00     0.004 C 
ENDBRANCH  20  21
ENDBRANCH  19  20
ENDBRANCH  18  19
ENDBRANCH  17  18
ENDBRANCH  16  17
ENDBRANCH  12  16
ENDBRANCH   9  12
ENDBRANCH   6   9
ENDBRANCH   3   5
ENDBRANCH   2   3
BRANCH   2  23
ATOM     23  N   UNL     1       6.167  14.237   2.874  1.00  0.00    -0.332 N 
ATOM     24  C   UNL     1       6.284  15.520   3.550  1.00  0.00     0.147 C 
BRANCH  23  25
ATOM     25  C   UNL     1       5.000  13.413   3.290  1.00  0.00     0.174 C 
BRANCH  25  26
ATOM     26  C   UNL     1       3.689  14.229   3.384  1.00  0.00     0.038 C 
BRANCH  26  27
ATOM     27  C   UNL     1       2.616  13.957   2.306  1.00  0.00    -0.015 C 
ATOM     28  C   UNL     1       2.969  12.764   1.419  1.00  0.00     0.007 C 
ATOM     29  C   UNL     1       1.208  13.805   2.876  1.00  0.00     0.007 C 
ENDBRANCH  26  27
ENDBRANCH  25  26
BRANCH  25  30
ATOM     30  C   UNL     1       5.336  12.626   4.578  1.00  0.00     0.243 C 
ATOM     31  O   UNL     1       6.385  12.807   5.195  1.00  0.00    -0.273 OA
ATOM     32  N   UNL     1       4.394  11.715   4.980  1.00  0.00    -0.342 N 
ATOM     33  H   UNL     1       3.491  11.723   4.498  1.00  0.00     0.164 HD
BRANCH  32  34
ATOM     34  C   UNL     1       4.556  10.862   6.161  1.00  0.00     0.175 C 
BRANCH  34  35
ATOM     35  C   UNL     1       3.222  10.670   6.898  1.00  0.00     0.070 C 
BRANCH  35  36
ATOM     36  C   UNL     1       3.368  10.745   8.401  1.00  0.00    -0.045 A 
ATOM     37  C   UNL     1       2.235  10.919   9.210  1.00  0.00     0.007 A 
ATOM     38  C   UNL     1       4.630  10.665   9.005  1.00  0.00     0.007 A 
ATOM     39  C   UNL     1       2.362  11.003  10.596  1.00  0.00     0.046 A 
ATOM     40  C   UNL     1       4.758  10.750  10.394  1.00  0.00     0.046 A 
ATOM     41  C   UNL     1       3.621  10.917  11.177  1.00  0.00     0.115 A 
BRANCH  41  42
ATOM     42  O   UNL     1       3.702  11.007  12.536  1.00  0.00    -0.508 OA
ATOM     43  H   UNL     1       2.867  11.376  12.867  1.00  0.00     0.293 HD
ENDBRANCH  41  42
ENDBRANCH  35  36
ENDBRANCH  34  35
BRANCH  34  44
ATOM     44  C   UNL     1       5.159   9.516   5.700  1.00  0.00     0.243 C 
ATOM     45  O   UNL     1       6.351   9.334   5.466  1.00  0.00    -0.273 OA
ATOM     46  N   UNL     1       4.211   8.549   5.444  1.00  0.00    -0.341 N 
ATOM     47  H   UNL     1       3.226   8.784   5.541  1.00  0.00     0.164 HD
BRANCH  46  48
ATOM     48  C   UNL     1       4.538   7.216   4.932  1.00  0.00     0.196 C 
BRANCH  48  49
ATOM     49  C   UNL     1       3.513   6.169   5.402  1.00  0.00     0.072 C 
BRANCH  49  50
ATOM     50  C   UNL     1       2.938   6.488   6.763  1.00  0.00    -0.045 A 
ATOM     51  C   UNL     1       3.568   6.006   7.919  1.00  0.00     0.007 A 
ATOM     52  C   UNL     1       1.766   7.245   6.891  1.00  0.00     0.007 A 
ATOM     53  C   UNL     1       3.039   6.282   9.180  1.00  0.00     0.046 A 
ATOM     54  C   UNL     1       1.235   7.521   8.153  1.00  0.00     0.046 A 
ATOM     55  C   UNL     1       1.878   7.038   9.287  1.00  0.00     0.115 A 
BRANCH  55  56
ATOM     56  O   UNL     1       1.392   7.284  10.537  1.00  0.00    -0.508 OA
ATOM     57  H   UNL     1       0.525   6.855  10.619  1.00  0.00     0.293 HD
ENDBRANCH  55  56
ENDBRANCH  49  50
ENDBRANCH  48  49
BRANCH  48  58
ATOM     58  C   UNL     1       4.561   7.261   3.398  1.00  0.00     0.326 C 
ATOM     59  O   UNL     1       5.323   6.667   2.653  1.00  0.00    -0.250 OA
BRANCH  58  60
ATOM     60  O   UNL     1       3.598   8.055   2.866  1.00  0.00    -0.480 OA
ATOM     61  H   UNL     1       2.787   7.777   3.344  1.00  0.00     0.296 HD
ENDBRANCH  58  60
ENDBRANCH  48  58
ENDBRANCH  46  48
ENDBRANCH  34  44
ENDBRANCH  32  34
ENDBRANCH  25  30
ENDBRANCH  23  25
ENDBRANCH   2  23
TORSDOF 28
ENDMDL
MODEL 33
REMARK VINA RESULT:    -5.980      2.166      4.962
REMARK INTER + INTRA:         -18.861
REMARK INTER:                 -15.237
REMARK INTRA:                  -3.625
REMARK UNBOUND:                -3.967
REMARK SMILES CCCCCCC[C@H](N)[C@H](O)C(=O)N[C@H](C)C(=O)N(C)[C@H](CC(C)C)C(=O)N[C@@H](Cc1ccc(O)cc1)C(=O)N[C@@H](Cc1ccc(O)cc1)C(=O)O
REMARK SMILES IDX 18 1 17 2 15 3 16 4 14 5 12 6 13 7 10 9 11 10 8 12 9 13 7 16
REMARK SMILES IDX 6 17 5 18 4 19 3 20 2 21 1 22 19 23 20 24 21 25 22 26 23 27
REMARK SMILES IDX 24 28 25 29 26 30 27 31 28 32 29 34 30 35 31 36 32 37 37 38
REMARK SMILES IDX 33 39 36 40 34 41 35 42 38 44 39 45 40 46 41 48 42 49 43 50
REMARK SMILES IDX 44 51 49 52 45 53 48 54 46 55 47 56 50 58 51 59 52 60
REMARK H PARENT 14 8 11 11 9 14 9 15 28 33 35 43 40 47 47 57 52 61
ROOT
ATOM      1  O   UNL     1      10.419  13.044  -1.961  1.00  0.00    -0.272 OA
ATOM      2  C   UNL     1      10.814  12.894  -0.796  1.00  0.00     0.245 C 
ENDROOT
BRANCH   2   3
ATOM      3  C   UNL     1      12.337  12.953  -0.516  1.00  0.00     0.168 C 
ATOM      4  C   UNL     1      12.708  12.045   0.651  1.00  0.00     0.041 C 
BRANCH   3   5
ATOM      5  N   UNL     1      13.181  12.716  -1.677  1.00  0.00    -0.342 N 
ATOM      6  C   UNL     1      13.316  11.462  -2.235  1.00  0.00     0.251 C 
ATOM      7  O   UNL     1      12.779  10.458  -1.780  1.00  0.00    -0.272 OA
ATOM      8  H   UNL     1      13.704  13.466  -2.122  1.00  0.00     0.164 HD
BRANCH   6   9
ATOM      9  C   UNL     1      14.139  11.475  -3.533  1.00  0.00     0.219 C 
BRANCH   9  10
ATOM     10  O   UNL     1      15.219  10.534  -3.512  1.00  0.00    -0.382 OA
ATOM     11  H   UNL     1      15.817  10.852  -4.224  1.00  0.00     0.211 HD
ENDBRANCH   9  10
BRANCH   9  12
ATOM     12  C   UNL     1      13.272  11.290  -4.806  1.00  0.00     0.089 C 
BRANCH  12  13
ATOM     13  N   UNL     1      12.417  10.095  -4.619  1.00  0.00    -0.325 NA
ATOM     14  H   UNL     1      13.006   9.293  -4.389  1.00  0.00     0.119 HD
ATOM     15  H   UNL     1      11.979   9.858  -5.512  1.00  0.00     0.119 HD
ENDBRANCH  12  13
BRANCH  12  16
ATOM     16  C   UNL     1      12.407  12.504  -5.220  1.00  0.00     0.022 C 
BRANCH  16  17
ATOM     17  C   UNL     1      11.255  12.296  -6.213  1.00  0.00     0.002 C 
BRANCH  17  18
ATOM     18  C   UNL     1      11.119  13.383  -7.278  1.00  0.00     0.000 C 
BRANCH  18  19
ATOM     19  C   UNL     1       9.669  13.680  -7.684  1.00  0.00    -0.000 C 
BRANCH  19  20
ATOM     20  C   UNL     1       9.068  14.946  -7.068  1.00  0.00    -0.000 C 
BRANCH  20  21
ATOM     21  C   UNL     1       8.022  14.650  -5.990  1.00  0.00    -0.003 C 
ATOM     22  C   UNL     1       8.659  14.541  -4.614  1.00  0.00     0.004 C 
ENDBRANCH  20  21
ENDBRANCH  19  20
ENDBRANCH  18  19
ENDBRANCH  17  18
ENDBRANCH  16  17
ENDBRANCH  12  16
ENDBRANCH   9  12
ENDBRANCH   6   9
ENDBRANCH   3   5
ENDBRANCH   2   3
BRANCH   2  23
ATOM     23  N   UNL     1       9.895  12.801   0.244  1.00  0.00    -0.332 N 
ATOM     24  C   UNL     1       9.820  13.724   1.366  1.00  0.00     0.147 C 
BRANCH  23  25
ATOM     25  C   UNL     1       8.811  11.781   0.198  1.00  0.00     0.174 C 
BRANCH  25  26
ATOM     26  C   UNL     1       7.398  12.398   0.323  1.00  0.00     0.038 C 
BRANCH  26  27
ATOM     27  C   UNL     1       6.708  12.838  -0.988  1.00  0.00    -0.015 C 
ATOM     28  C   UNL     1       6.945  14.314  -1.307  1.00  0.00     0.007 C 
ATOM     29  C   UNL     1       7.070  11.965  -2.187  1.00  0.00     0.007 C 
ENDBRANCH  26  27
ENDBRANCH  25  26
BRANCH  25  30
ATOM     30  C   UNL     1       9.092  10.660   1.224  1.00  0.00     0.243 C 
ATOM     31  O   UNL     1      10.033   9.879   1.093  1.00  0.00    -0.273 OA
ATOM     32  N   UNL     1       8.221  10.591   2.281  1.00  0.00    -0.342 N 
ATOM     33  H   UNL     1       7.553  11.358   2.396  1.00  0.00     0.164 HD
BRANCH  32  34
ATOM     34  C   UNL     1       8.317   9.577   3.335  1.00  0.00     0.175 C 
BRANCH  34  35
ATOM     35  C   UNL     1       8.728  10.202   4.677  1.00  0.00     0.070 C 
BRANCH  35  36
ATOM     36  C   UNL     1      10.039  10.951   4.596  1.00  0.00    -0.045 A 
ATOM     37  C   UNL     1      11.220  10.266   4.276  1.00  0.00     0.007 A 
ATOM     38  C   UNL     1      10.098  12.326   4.859  1.00  0.00     0.007 A 
ATOM     39  C   UNL     1      12.437  10.947   4.212  1.00  0.00     0.046 A 
ATOM     40  C   UNL     1      11.315  13.008   4.797  1.00  0.00     0.046 A 
ATOM     41  C   UNL     1      12.475  12.311   4.472  1.00  0.00     0.115 A 
BRANCH  41  42
ATOM     42  O   UNL     1      13.683  12.938   4.402  1.00  0.00    -0.508 OA
ATOM     43  H   UNL     1      14.379  12.260   4.413  1.00  0.00     0.293 HD
ENDBRANCH  41  42
ENDBRANCH  35  36
ENDBRANCH  34  35
BRANCH  34  44
ATOM     44  C   UNL     1       6.955   8.853   3.428  1.00  0.00     0.243 C 
ATOM     45  O   UNL     1       6.657   7.849   2.787  1.00  0.00    -0.273 OA
ATOM     46  N   UNL     1       6.034   9.516   4.212  1.00  0.00    -0.341 N 
ATOM     47  H   UNL     1       6.291  10.407   4.629  1.00  0.00     0.164 HD
BRANCH  46  48
ATOM     48  C   UNL     1       4.655   9.058   4.395  1.00  0.00     0.196 C 
BRANCH  48  49
ATOM     49  C   UNL     1       3.890   9.964   5.375  1.00  0.00     0.072 C 
BRANCH  49  50
ATOM     50  C   UNL     1       3.741   9.343   6.746  1.00  0.00    -0.045 A 
ATOM     51  C   UNL     1       3.355   8.001   6.867  1.00  0.00     0.007 A 
ATOM     52  C   UNL     1       3.964  10.096   7.906  1.00  0.00     0.007 A 
ATOM     53  C   UNL     1       3.201   7.421   8.126  1.00  0.00     0.046 A 
ATOM     54  C   UNL     1       3.809   9.515   9.167  1.00  0.00     0.046 A 
ATOM     55  C   UNL     1       3.430   8.181   9.266  1.00  0.00     0.115 A 
BRANCH  55  56
ATOM     56  O   UNL     1       3.267   7.578  10.478  1.00  0.00    -0.508 OA
ATOM     57  H   UNL     1       2.455   7.047  10.449  1.00  0.00     0.293 HD
ENDBRANCH  55  56
ENDBRANCH  49  50
ENDBRANCH  48  49
BRANCH  48  58
ATOM     58  C   UNL     1       3.944   9.057   3.035  1.00  0.00     0.326 C 
ATOM     59  O   UNL     1       3.662  10.025   2.347  1.00  0.00    -0.250 OA
BRANCH  58  60
ATOM     60  O   UNL     1       3.629   7.814   2.590  1.00  0.00    -0.480 OA
ATOM     61  H   UNL     1       3.954   7.228   3.308  1.00  0.00     0.296 HD
ENDBRANCH  58  60
ENDBRANCH  48  58
ENDBRANCH  46  48
ENDBRANCH  34  44
ENDBRANCH  32  34
ENDBRANCH  25  30
ENDBRANCH  23  25
ENDBRANCH   2  23
TORSDOF 28
ENDMDL
MODEL 34
REMARK VINA RESULT:    -5.962      4.160     11.347
REMARK INTER + INTRA:         -18.818
REMARK INTER:                 -12.879
REMARK INTRA:                  -5.939
REMARK UNBOUND:                -3.967
REMARK SMILES CCCCCCC[C@H](N)[C@H](O)C(=O)N[C@H](C)C(=O)N(C)[C@H](CC(C)C)C(=O)N[C@@H](Cc1ccc(O)cc1)C(=O)N[C@@H](Cc1ccc(O)cc1)C(=O)O
REMARK SMILES IDX 18 1 17 2 15 3 16 4 14 5 12 6 13 7 10 9 11 10 8 12 9 13 7 16
REMARK SMILES IDX 6 17 5 18 4 19 3 20 2 21 1 22 19 23 20 24 21 25 22 26 23 27
REMARK SMILES IDX 24 28 25 29 26 30 27 31 28 32 29 34 30 35 31 36 32 37 37 38
REMARK SMILES IDX 33 39 36 40 34 41 35 42 38 44 39 45 40 46 41 48 42 49 43 50
REMARK SMILES IDX 44 51 49 52 45 53 48 54 46 55 47 56 50 58 51 59 52 60
REMARK H PARENT 14 8 11 11 9 14 9 15 28 33 35 43 40 47 47 57 52 61
ROOT
ATOM      1  O   UNL     1       3.590  13.427  10.940  1.00  0.00    -0.272 OA
ATOM      2  C   UNL     1       4.567  13.035  10.285  1.00  0.00     0.245 C 
ENDROOT
BRANCH   2   3
ATOM      3  C   UNL     1       5.116  11.611  10.553  1.00  0.00     0.168 C 
ATOM      4  C   UNL     1       5.946  11.582  11.831  1.00  0.00     0.041 C 
BRANCH   3   5
ATOM      5  N   UNL     1       4.115  10.557  10.532  1.00  0.00    -0.342 N 
ATOM      6  C   UNL     1       3.891   9.787   9.410  1.00  0.00     0.251 C 
ATOM      7  O   UNL     1       4.478   9.955   8.346  1.00  0.00    -0.272 OA
ATOM      8  H   UNL     1       3.540  10.346  11.345  1.00  0.00     0.164 HD
BRANCH   6   9
ATOM      9  C   UNL     1       2.893   8.645   9.661  1.00  0.00     0.219 C 
BRANCH   9  10
ATOM     10  O   UNL     1       3.290   7.792  10.742  1.00  0.00    -0.382 OA
ATOM     11  H   UNL     1       4.271   7.789  10.684  1.00  0.00     0.211 HD
ENDBRANCH   9  10
BRANCH   9  12
ATOM     12  C   UNL     1       1.437   9.142   9.859  1.00  0.00     0.089 C 
BRANCH  12  13
ATOM     13  N   UNL     1       1.301   9.653  11.242  1.00  0.00    -0.325 NA
ATOM     14  H   UNL     1       1.158  10.665  11.213  1.00  0.00     0.119 HD
ATOM     15  H   UNL     1       2.189   9.523  11.732  1.00  0.00     0.119 HD
ENDBRANCH  12  13
BRANCH  12  16
ATOM     16  C   UNL     1       0.939  10.202   8.848  1.00  0.00     0.022 C 
BRANCH  16  17
ATOM     17  C   UNL     1       0.007  11.320   9.336  1.00  0.00     0.002 C 
BRANCH  17  18
ATOM     18  C   UNL     1      -1.296  11.461   8.553  1.00  0.00     0.000 C 
BRANCH  18  19
ATOM     19  C   UNL     1      -2.206  12.591   9.053  1.00  0.00    -0.000 C 
BRANCH  19  20
ATOM     20  C   UNL     1      -2.384  12.658  10.572  1.00  0.00    -0.000 C 
BRANCH  20  21
ATOM     21  C   UNL     1      -3.214  11.500  11.131  1.00  0.00    -0.003 C 
ATOM     22  C   UNL     1      -4.166  11.973  12.218  1.00  0.00     0.004 C 
ENDBRANCH  20  21
ENDBRANCH  19  20
ENDBRANCH  18  19
ENDBRANCH  17  18
ENDBRANCH  16  17
ENDBRANCH  12  16
ENDBRANCH   9  12
ENDBRANCH   6   9
ENDBRANCH   3   5
ENDBRANCH   2   3
BRANCH   2  23
ATOM     23  N   UNL     1       5.071  13.818   9.252  1.00  0.00    -0.332 N 
ATOM     24  C   UNL     1       6.408  14.390   9.226  1.00  0.00     0.147 C 
BRANCH  23  25
ATOM     25  C   UNL     1       4.279  14.017   8.006  1.00  0.00     0.174 C 
BRANCH  25  26
ATOM     26  C   UNL     1       2.847  13.441   8.104  1.00  0.00     0.038 C 
BRANCH  26  27
ATOM     27  C   UNL     1       1.686  14.381   7.707  1.00  0.00    -0.015 C 
ATOM     28  C   UNL     1       0.804  13.787   6.610  1.00  0.00     0.007 C 
ATOM     29  C   UNL     1       0.838  14.832   8.893  1.00  0.00     0.007 C 
ENDBRANCH  26  27
ENDBRANCH  25  26
BRANCH  25  30
ATOM     30  C   UNL     1       5.074  13.504   6.783  1.00  0.00     0.243 C 
ATOM     31  O   UNL     1       5.518  14.269   5.929  1.00  0.00    -0.273 OA
ATOM     32  N   UNL     1       5.243  12.145   6.714  1.00  0.00    -0.342 N 
ATOM     33  H   UNL     1       4.970  11.591   7.530  1.00  0.00     0.164 HD
BRANCH  32  34
ATOM     34  C   UNL     1       5.945  11.480   5.613  1.00  0.00     0.175 C 
BRANCH  34  35
ATOM     35  C   UNL     1       7.087  10.594   6.133  1.00  0.00     0.070 C 
BRANCH  35  36
ATOM     36  C   UNL     1       8.374  10.787   5.363  1.00  0.00    -0.045 A 
ATOM     37  C   UNL     1       8.538  11.912   4.541  1.00  0.00     0.007 A 
ATOM     38  C   UNL     1       9.406   9.842   5.439  1.00  0.00     0.007 A 
ATOM     39  C   UNL     1       9.717  12.092   3.816  1.00  0.00     0.046 A 
ATOM     40  C   UNL     1      10.586  10.021   4.713  1.00  0.00     0.046 A 
ATOM     41  C   UNL     1      10.731  11.146   3.908  1.00  0.00     0.115 A 
BRANCH  41  42
ATOM     42  O   UNL     1      11.865  11.358   3.182  1.00  0.00    -0.508 OA
ATOM     43  H   UNL     1      12.397  10.545   3.204  1.00  0.00     0.293 HD
ENDBRANCH  41  42
ENDBRANCH  35  36
ENDBRANCH  34  35
BRANCH  34  44
ATOM     44  C   UNL     1       4.908  10.669   4.804  1.00  0.00     0.243 C 
ATOM     45  O   UNL     1       3.868  11.134   4.346  1.00  0.00    -0.273 OA
ATOM     46  N   UNL     1       5.188   9.320   4.748  1.00  0.00    -0.341 N 
ATOM     47  H   UNL     1       6.002   8.964   5.244  1.00  0.00     0.164 HD
BRANCH  46  48
ATOM     48  C   UNL     1       4.315   8.342   4.096  1.00  0.00     0.196 C 
BRANCH  48  49
ATOM     49  C   UNL     1       5.023   7.662   2.911  1.00  0.00     0.072 C 
BRANCH  49  50
ATOM     50  C   UNL     1       6.059   8.552   2.264  1.00  0.00    -0.045 A 
ATOM     51  C   UNL     1       7.423   8.254   2.406  1.00  0.00     0.007 A 
ATOM     52  C   UNL     1       5.682   9.688   1.538  1.00  0.00     0.007 A 
ATOM     53  C   UNL     1       8.389   9.076   1.825  1.00  0.00     0.046 A 
ATOM     54  C   UNL     1       6.649  10.511   0.957  1.00  0.00     0.046 A 
ATOM     55  C   UNL     1       7.996  10.197   1.104  1.00  0.00     0.115 A 
BRANCH  55  56
ATOM     56  O   UNL     1       8.971  10.974   0.554  1.00  0.00    -0.508 OA
ATOM     57  H   UNL     1       9.095  11.755   1.117  1.00  0.00     0.293 HD
ENDBRANCH  55  56
ENDBRANCH  49  50
ENDBRANCH  48  49
BRANCH  48  58
ATOM     58  C   UNL     1       3.897   7.281   5.124  1.00  0.00     0.326 C 
ATOM     59  O   UNL     1       3.585   6.122   4.904  1.00  0.00    -0.250 OA
BRANCH  58  60
ATOM     60  O   UNL     1       3.907   7.734   6.403  1.00  0.00    -0.480 OA
ATOM     61  H   UNL     1       3.727   8.694   6.304  1.00  0.00     0.296 HD
ENDBRANCH  58  60
ENDBRANCH  48  58
ENDBRANCH  46  48
ENDBRANCH  34  44
ENDBRANCH  32  34
ENDBRANCH  25  30
ENDBRANCH  23  25
ENDBRANCH   2  23
TORSDOF 28
ENDMDL
MODEL 35
REMARK VINA RESULT:    -5.956      2.544      4.308
REMARK INTER + INTRA:         -18.802
REMARK INTER:                 -14.423
REMARK INTRA:                  -4.379
REMARK UNBOUND:                -3.967
REMARK SMILES CCCCCCC[C@H](N)[C@H](O)C(=O)N[C@H](C)C(=O)N(C)[C@H](CC(C)C)C(=O)N[C@@H](Cc1ccc(O)cc1)C(=O)N[C@@H](Cc1ccc(O)cc1)C(=O)O
REMARK SMILES IDX 18 1 17 2 15 3 16 4 14 5 12 6 13 7 10 9 11 10 8 12 9 13 7 16
REMARK SMILES IDX 6 17 5 18 4 19 3 20 2 21 1 22 19 23 20 24 21 25 22 26 23 27
REMARK SMILES IDX 24 28 25 29 26 30 27 31 28 32 29 34 30 35 31 36 32 37 37 38
REMARK SMILES IDX 33 39 36 40 34 41 35 42 38 44 39 45 40 46 41 48 42 49 43 50
REMARK SMILES IDX 44 51 49 52 45 53 48 54 46 55 47 56 50 58 51 59 52 60
REMARK H PARENT 14 8 11 11 9 14 9 15 28 33 35 43 40 47 47 57 52 61
ROOT
ATOM      1  O   UNL     1       6.307  10.453   3.023  1.00  0.00    -0.272 OA
ATOM      2  C   UNL     1       6.645  11.457   3.668  1.00  0.00     0.245 C 
ENDROOT
BRANCH   2   3
ATOM      3  C   UNL     1       7.907  11.373   4.563  1.00  0.00     0.168 C 
ATOM      4  C   UNL     1       7.584  10.701   5.893  1.00  0.00     0.041 C 
BRANCH   3   5
ATOM      5  N   UNL     1       9.071  10.779   3.924  1.00  0.00    -0.342 N 
ATOM      6  C   UNL     1       9.958  11.531   3.182  1.00  0.00     0.251 C 
ATOM      7  O   UNL     1       9.815  12.731   2.972  1.00  0.00    -0.272 OA
ATOM      8  H   UNL     1       9.275   9.785   3.999  1.00  0.00     0.164 HD
BRANCH   6   9
ATOM      9  C   UNL     1      11.183  10.725   2.724  1.00  0.00     0.219 C 
BRANCH   9  10
ATOM     10  O   UNL     1      11.562   9.712   3.664  1.00  0.00    -0.382 OA
ATOM     11  H   UNL     1      10.838   9.732   4.328  1.00  0.00     0.211 HD
ENDBRANCH   9  10
BRANCH   9  12
ATOM     12  C   UNL     1      11.019  10.123   1.304  1.00  0.00     0.089 C 
BRANCH  12  13
ATOM     13  N   UNL     1       9.579  10.119   0.961  1.00  0.00    -0.325 NA
ATOM     14  H   UNL     1       9.302   9.175   0.683  1.00  0.00     0.119 HD
ATOM     15  H   UNL     1       9.435  10.695   0.128  1.00  0.00     0.119 HD
ENDBRANCH  12  13
BRANCH  12  16
ATOM     16  C   UNL     1      11.831  10.809   0.179  1.00  0.00     0.022 C 
BRANCH  16  17
ATOM     17  C   UNL     1      11.527  10.456  -1.284  1.00  0.00     0.002 C 
BRANCH  17  18
ATOM     18  C   UNL     1      11.407  11.654  -2.224  1.00  0.00     0.000 C 
BRANCH  18  19
ATOM     19  C   UNL     1      11.173  11.274  -3.692  1.00  0.00    -0.000 C 
BRANCH  19  20
ATOM     20  C   UNL     1      12.427  10.850  -4.462  1.00  0.00    -0.000 C 
BRANCH  20  21
ATOM     21  C   UNL     1      13.545  11.894  -4.407  1.00  0.00    -0.003 C 
ATOM     22  C   UNL     1      14.903  11.242  -4.198  1.00  0.00     0.004 C 
ENDBRANCH  20  21
ENDBRANCH  19  20
ENDBRANCH  18  19
ENDBRANCH  17  18
ENDBRANCH  16  17
ENDBRANCH  12  16
ENDBRANCH   9  12
ENDBRANCH   6   9
ENDBRANCH   3   5
ENDBRANCH   2   3
BRANCH   2  23
ATOM     23  N   UNL     1       5.971  12.660   3.487  1.00  0.00    -0.332 N 
ATOM     24  C   UNL     1       6.473  13.779   2.703  1.00  0.00     0.147 C 
BRANCH  23  25
ATOM     25  C   UNL     1       4.584  12.828   4.002  1.00  0.00     0.174 C 
BRANCH  25  26
ATOM     26  C   UNL     1       3.920  14.141   3.526  1.00  0.00     0.038 C 
BRANCH  26  27
ATOM     27  C   UNL     1       2.669  14.008   2.629  1.00  0.00    -0.015 C 
ATOM     28  C   UNL     1       2.817  12.906   1.580  1.00  0.00     0.007 C 
ATOM     29  C   UNL     1       1.373  13.830   3.416  1.00  0.00     0.007 C 
ENDBRANCH  26  27
ENDBRANCH  25  26
BRANCH  25  30
ATOM     30  C   UNL     1       4.560  12.640   5.537  1.00  0.00     0.243 C 
ATOM     31  O   UNL     1       5.279  13.303   6.284  1.00  0.00    -0.273 OA
ATOM     32  N   UNL     1       3.694  11.686   6.004  1.00  0.00    -0.342 N 
ATOM     33  H   UNL     1       3.032  11.280   5.338  1.00  0.00     0.164 HD
BRANCH  32  34
ATOM     34  C   UNL     1       3.557  11.354   7.425  1.00  0.00     0.175 C 
BRANCH  34  35
ATOM     35  C   UNL     1       2.161  11.717   7.952  1.00  0.00     0.070 C 
BRANCH  35  36
ATOM     36  C   UNL     1       2.080  11.689   9.462  1.00  0.00    -0.045 A 
ATOM     37  C   UNL     1       2.974  12.454  10.227  1.00  0.00     0.007 A 
ATOM     38  C   UNL     1       1.136  10.887  10.116  1.00  0.00     0.007 A 
ATOM     39  C   UNL     1       2.916  12.423  11.621  1.00  0.00     0.046 A 
ATOM     40  C   UNL     1       1.078  10.855  11.512  1.00  0.00     0.046 A 
ATOM     41  C   UNL     1       1.969  11.625  12.252  1.00  0.00     0.115 A 
BRANCH  41  42
ATOM     42  O   UNL     1       1.948  11.621  13.615  1.00  0.00    -0.508 OA
ATOM     43  H   UNL     1       1.982  12.542  13.923  1.00  0.00     0.293 HD
ENDBRANCH  41  42
ENDBRANCH  35  36
ENDBRANCH  34  35
BRANCH  34  44
ATOM     44  C   UNL     1       3.866   9.849   7.596  1.00  0.00     0.243 C 
ATOM     45  O   UNL     1       4.337   9.349   8.614  1.00  0.00    -0.273 OA
ATOM     46  N   UNL     1       3.685   9.117   6.442  1.00  0.00    -0.341 N 
ATOM     47  H   UNL     1       3.404   9.598   5.591  1.00  0.00     0.164 HD
BRANCH  46  48
ATOM     48  C   UNL     1       3.978   7.686   6.342  1.00  0.00     0.196 C 
BRANCH  48  49
ATOM     49  C   UNL     1       2.718   6.838   6.586  1.00  0.00     0.072 C 
BRANCH  49  50
ATOM     50  C   UNL     1       2.528   6.485   8.044  1.00  0.00    -0.045 A 
ATOM     51  C   UNL     1       1.489   7.078   8.777  1.00  0.00     0.007 A 
ATOM     52  C   UNL     1       3.389   5.587   8.687  1.00  0.00     0.007 A 
ATOM     53  C   UNL     1       1.312   6.771  10.126  1.00  0.00     0.046 A 
ATOM     54  C   UNL     1       3.213   5.280  10.038  1.00  0.00     0.046 A 
ATOM     55  C   UNL     1       2.174   5.875  10.746  1.00  0.00     0.115 A 
BRANCH  55  56
ATOM     56  O   UNL     1       1.968   5.603  12.066  1.00  0.00    -0.508 OA
ATOM     57  H   UNL     1       1.916   6.444  12.547  1.00  0.00     0.293 HD
ENDBRANCH  55  56
ENDBRANCH  49  50
ENDBRANCH  48  49
BRANCH  48  58
ATOM     58  C   UNL     1       4.536   7.387   4.943  1.00  0.00     0.326 C 
ATOM     59  O   UNL     1       4.061   6.641   4.102  1.00  0.00    -0.250 OA
BRANCH  58  60
ATOM     60  O   UNL     1       5.677   8.065   4.660  1.00  0.00    -0.480 OA
ATOM     61  H   UNL     1       6.372   7.532   5.104  1.00  0.00     0.296 HD
ENDBRANCH  58  60
ENDBRANCH  48  58
ENDBRANCH  46  48
ENDBRANCH  34  44
ENDBRANCH  32  34
ENDBRANCH  25  30
ENDBRANCH  23  25
ENDBRANCH   2  23
TORSDOF 28
ENDMDL
MODEL 36
REMARK VINA RESULT:    -5.944      3.294     11.892
REMARK INTER + INTRA:         -18.772
REMARK INTER:                 -14.315
REMARK INTRA:                  -4.457
REMARK UNBOUND:                -3.967
REMARK SMILES CCCCCCC[C@H](N)[C@H](O)C(=O)N[C@H](C)C(=O)N(C)[C@H](CC(C)C)C(=O)N[C@@H](Cc1ccc(O)cc1)C(=O)N[C@@H](Cc1ccc(O)cc1)C(=O)O
REMARK SMILES IDX 18 1 17 2 15 3 16 4 14 5 12 6 13 7 10 9 11 10 8 12 9 13 7 16
REMARK SMILES IDX 6 17 5 18 4 19 3 20 2 21 1 22 19 23 20 24 21 25 22 26 23 27
REMARK SMILES IDX 24 28 25 29 26 30 27 31 28 32 29 34 30 35 31 36 32 37 37 38
REMARK SMILES IDX 33 39 36 40 34 41 35 42 38 44 39 45 40 46 41 48 42 49 43 50
REMARK SMILES IDX 44 51 49 52 45 53 48 54 46 55 47 56 50 58 51 59 52 60
REMARK H PARENT 14 8 11 11 9 14 9 15 28 33 35 43 40 47 47 57 52 61
ROOT
ATOM      1  O   UNL     1      13.542  11.186   3.769  1.00  0.00    -0.272 OA
ATOM      2  C   UNL     1      12.671  12.061   3.887  1.00  0.00     0.245 C 
ENDROOT
BRANCH   2   3
ATOM      3  C   UNL     1      11.359  11.704   4.630  1.00  0.00     0.168 C 
ATOM      4  C   UNL     1      10.739  12.947   5.260  1.00  0.00     0.041 C 
BRANCH   3   5
ATOM      5  N   UNL     1      10.393  10.957   3.840  1.00  0.00    -0.342 N 
ATOM      6  C   UNL     1      10.259   9.590   3.956  1.00  0.00     0.251 C 
ATOM      7  O   UNL     1      10.961   8.902   4.689  1.00  0.00    -0.272 OA
ATOM      8  H   UNL     1       9.778  11.416   3.171  1.00  0.00     0.164 HD
BRANCH   6   9
ATOM      9  C   UNL     1       9.084   9.036   3.134  1.00  0.00     0.219 C 
BRANCH   9  10
ATOM     10  O   UNL     1       9.413   7.822   2.448  1.00  0.00    -0.382 OA
ATOM     11  H   UNL     1      10.313   7.993   2.094  1.00  0.00     0.211 HD
ENDBRANCH   9  10
BRANCH   9  12
ATOM     12  C   UNL     1       7.787   8.864   3.967  1.00  0.00     0.089 C 
BRANCH  12  13
ATOM     13  N   UNL     1       7.821   9.828   5.090  1.00  0.00    -0.325 NA
ATOM     14  H   UNL     1       8.442   9.472   5.819  1.00  0.00     0.119 HD
ATOM     15  H   UNL     1       6.896   9.865   5.523  1.00  0.00     0.119 HD
ENDBRANCH  12  13
BRANCH  12  16
ATOM     16  C   UNL     1       6.457   9.004   3.187  1.00  0.00     0.022 C 
BRANCH  16  17
ATOM     17  C   UNL     1       5.858   7.766   2.504  1.00  0.00     0.002 C 
BRANCH  17  18
ATOM     18  C   UNL     1       4.414   7.453   2.891  1.00  0.00     0.000 C 
BRANCH  18  19
ATOM     19  C   UNL     1       3.995   8.023   4.253  1.00  0.00    -0.000 C 
BRANCH  19  20
ATOM     20  C   UNL     1       3.684   6.978   5.328  1.00  0.00    -0.000 C 
BRANCH  20  21
ATOM     21  C   UNL     1       3.356   7.597   6.689  1.00  0.00    -0.003 C 
ATOM     22  C   UNL     1       2.082   7.007   7.274  1.00  0.00     0.004 C 
ENDBRANCH  20  21
ENDBRANCH  19  20
ENDBRANCH  18  19
ENDBRANCH  17  18
ENDBRANCH  16  17
ENDBRANCH  12  16
ENDBRANCH   9  12
ENDBRANCH   6   9
ENDBRANCH   3   5
ENDBRANCH   2   3
BRANCH   2  23
ATOM     23  N   UNL     1      12.928  13.361   3.465  1.00  0.00    -0.332 N 
ATOM     24  C   UNL     1      13.633  14.360   4.254  1.00  0.00     0.147 C 
BRANCH  23  25
ATOM     25  C   UNL     1      12.595  13.780   2.076  1.00  0.00     0.174 C 
BRANCH  25  26
ATOM     26  C   UNL     1      11.125  13.484   1.695  1.00  0.00     0.038 C 
BRANCH  26  27
ATOM     27  C   UNL     1      10.361  14.594   0.939  1.00  0.00    -0.015 C 
ATOM     28  C   UNL     1      11.110  15.927   0.944  1.00  0.00     0.007 C 
ATOM     29  C   UNL     1       9.971  14.203  -0.484  1.00  0.00     0.007 C 
ENDBRANCH  26  27
ENDBRANCH  25  26
BRANCH  25  30
ATOM     30  C   UNL     1      13.624  13.196   1.082  1.00  0.00     0.243 C 
ATOM     31  O   UNL     1      14.833  13.216   1.311  1.00  0.00    -0.273 OA
ATOM     32  N   UNL     1      13.102  12.662  -0.068  1.00  0.00    -0.342 N 
ATOM     33  H   UNL     1      12.086  12.555  -0.121  1.00  0.00     0.164 HD
BRANCH  32  34
ATOM     34  C   UNL     1      13.928  12.090  -1.134  1.00  0.00     0.175 C 
BRANCH  34  35
ATOM     35  C   UNL     1      13.341  10.766  -1.646  1.00  0.00     0.070 C 
BRANCH  35  36
ATOM     36  C   UNL     1      11.831  10.785  -1.720  1.00  0.00    -0.045 A 
ATOM     37  C   UNL     1      11.069  10.386  -0.611  1.00  0.00     0.007 A 
ATOM     38  C   UNL     1      11.174  11.177  -2.893  1.00  0.00     0.007 A 
ATOM     39  C   UNL     1       9.675  10.388  -0.675  1.00  0.00     0.046 A 
ATOM     40  C   UNL     1       9.778  11.178  -2.958  1.00  0.00     0.046 A 
ATOM     41  C   UNL     1       9.041  10.784  -1.846  1.00  0.00     0.115 A 
BRANCH  41  42
ATOM     42  O   UNL     1       7.678  10.768  -1.867  1.00  0.00    -0.508 OA
ATOM     43  H   UNL     1       7.390  10.554  -2.770  1.00  0.00     0.293 HD
ENDBRANCH  41  42
ENDBRANCH  35  36
ENDBRANCH  34  35
BRANCH  34  44
ATOM     44  C   UNL     1      14.053  13.140  -2.260  1.00  0.00     0.243 C 
ATOM     45  O   UNL     1      14.850  13.068  -3.192  1.00  0.00    -0.273 OA
ATOM     46  N   UNL     1      13.267  14.255  -2.060  1.00  0.00    -0.341 N 
ATOM     47  H   UNL     1      12.710  14.321  -1.211  1.00  0.00     0.164 HD
BRANCH  46  48
ATOM     48  C   UNL     1      13.267  15.413  -2.957  1.00  0.00     0.196 C 
BRANCH  48  49
ATOM     49  C   UNL     1      11.839  15.788  -3.387  1.00  0.00     0.072 C 
BRANCH  49  50
ATOM     50  C   UNL     1      11.465  15.207  -4.733  1.00  0.00    -0.045 A 
ATOM     51  C   UNL     1      11.815  13.886  -5.045  1.00  0.00     0.007 A 
ATOM     52  C   UNL     1      10.789  15.978  -5.687  1.00  0.00     0.007 A 
ATOM     53  C   UNL     1      11.488  13.344  -6.288  1.00  0.00     0.046 A 
ATOM     54  C   UNL     1      10.462  15.435  -6.932  1.00  0.00     0.046 A 
ATOM     55  C   UNL     1      10.814  14.122  -7.222  1.00  0.00     0.115 A 
BRANCH  55  56
ATOM     56  O   UNL     1      10.514  13.555  -8.425  1.00  0.00    -0.508 OA
ATOM     57  H   UNL     1       9.641  13.875  -8.705  1.00  0.00     0.293 HD
ENDBRANCH  55  56
ENDBRANCH  49  50
ENDBRANCH  48  49
BRANCH  48  58
ATOM     58  C   UNL     1      13.917  16.603  -2.237  1.00  0.00     0.326 C 
ATOM     59  O   UNL     1      13.499  17.188  -1.251  1.00  0.00    -0.250 OA
BRANCH  58  60
ATOM     60  O   UNL     1      15.090  16.997  -2.794  1.00  0.00    -0.480 OA
ATOM     61  H   UNL     1      15.065  16.589  -3.686  1.00  0.00     0.296 HD
ENDBRANCH  58  60
ENDBRANCH  48  58
ENDBRANCH  46  48
ENDBRANCH  34  44
ENDBRANCH  32  34
ENDBRANCH  25  30
ENDBRANCH  23  25
ENDBRANCH   2  23
TORSDOF 28
ENDMDL
MODEL 37
REMARK VINA RESULT:    -5.940      2.674     11.329
REMARK INTER + INTRA:         -18.761
REMARK INTER:                 -13.997
REMARK INTRA:                  -4.764
REMARK UNBOUND:                -3.967
REMARK SMILES CCCCCCC[C@H](N)[C@H](O)C(=O)N[C@H](C)C(=O)N(C)[C@H](CC(C)C)C(=O)N[C@@H](Cc1ccc(O)cc1)C(=O)N[C@@H](Cc1ccc(O)cc1)C(=O)O
REMARK SMILES IDX 18 1 17 2 15 3 16 4 14 5 12 6 13 7 10 9 11 10 8 12 9 13 7 16
REMARK SMILES IDX 6 17 5 18 4 19 3 20 2 21 1 22 19 23 20 24 21 25 22 26 23 27
REMARK SMILES IDX 24 28 25 29 26 30 27 31 28 32 29 34 30 35 31 36 32 37 37 38
REMARK SMILES IDX 33 39 36 40 34 41 35 42 38 44 39 45 40 46 41 48 42 49 43 50
REMARK SMILES IDX 44 51 49 52 45 53 48 54 46 55 47 56 50 58 51 59 52 60
REMARK H PARENT 14 8 11 11 9 14 9 15 28 33 35 43 40 47 47 57 52 61
ROOT
ATOM      1  O   UNL     1       5.346  11.144  -0.231  1.00  0.00    -0.272 OA
ATOM      2  C   UNL     1       6.206  11.749   0.424  1.00  0.00     0.245 C 
ENDROOT
BRANCH   2   3
ATOM      3  C   UNL     1       6.497  11.284   1.873  1.00  0.00     0.168 C 
ATOM      4  C   UNL     1       6.536  12.474   2.826  1.00  0.00     0.041 C 
BRANCH   3   5
ATOM      5  N   UNL     1       5.625  10.227   2.362  1.00  0.00    -0.342 N 
ATOM      6  C   UNL     1       6.034   8.911   2.411  1.00  0.00     0.251 C 
ATOM      7  O   UNL     1       7.130   8.528   2.014  1.00  0.00    -0.272 OA
ATOM      8  H   UNL     1       4.680  10.418   2.686  1.00  0.00     0.164 HD
BRANCH   6   9
ATOM      9  C   UNL     1       5.006   7.994   3.093  1.00  0.00     0.219 C 
BRANCH   9  10
ATOM     10  O   UNL     1       5.364   6.609   3.016  1.00  0.00    -0.382 OA
ATOM     11  H   UNL     1       4.606   6.151   3.441  1.00  0.00     0.211 HD
ENDBRANCH   9  10
BRANCH   9  12
ATOM     12  C   UNL     1       4.703   8.404   4.558  1.00  0.00     0.089 C 
BRANCH  12  13
ATOM     13  N   UNL     1       3.831   9.600   4.538  1.00  0.00    -0.325 NA
ATOM     14  H   UNL     1       2.854   9.303   4.486  1.00  0.00     0.119 HD
ATOM     15  H   UNL     1       3.999  10.118   3.672  1.00  0.00     0.119 HD
ENDBRANCH  12  13
BRANCH  12  16
ATOM     16  C   UNL     1       4.079   7.306   5.453  1.00  0.00     0.022 C 
BRANCH  16  17
ATOM     17  C   UNL     1       3.324   7.719   6.724  1.00  0.00     0.002 C 
BRANCH  17  18
ATOM     18  C   UNL     1       2.786   6.559   7.559  1.00  0.00     0.000 C 
BRANCH  18  19
ATOM     19  C   UNL     1       1.466   6.867   8.279  1.00  0.00    -0.000 C 
BRANCH  19  20
ATOM     20  C   UNL     1       1.478   6.623   9.791  1.00  0.00    -0.000 C 
BRANCH  20  21
ATOM     21  C   UNL     1       2.829   6.121  10.307  1.00  0.00    -0.003 C 
ATOM     22  C   UNL     1       2.658   5.188  11.495  1.00  0.00     0.004 C 
ENDBRANCH  20  21
ENDBRANCH  19  20
ENDBRANCH  18  19
ENDBRANCH  17  18
ENDBRANCH  16  17
ENDBRANCH  12  16
ENDBRANCH   9  12
ENDBRANCH   6   9
ENDBRANCH   3   5
ENDBRANCH   2   3
BRANCH   2  23
ATOM     23  N   UNL     1       6.972  12.741  -0.180  1.00  0.00    -0.332 N 
ATOM     24  C   UNL     1       6.538  14.116  -0.374  1.00  0.00     0.147 C 
BRANCH  23  25
ATOM     25  C   UNL     1       8.384  12.469  -0.565  1.00  0.00     0.174 C 
BRANCH  25  26
ATOM     26  C   UNL     1       8.595  11.034  -1.105  1.00  0.00     0.038 C 
BRANCH  26  27
ATOM     27  C   UNL     1       9.597  10.865  -2.269  1.00  0.00    -0.015 C 
ATOM     28  C   UNL     1       9.628  12.080  -3.195  1.00  0.00     0.007 C 
ATOM     29  C   UNL     1      11.008  10.505  -1.808  1.00  0.00     0.007 C 
ENDBRANCH  26  27
ENDBRANCH  25  26
BRANCH  25  30
ATOM     30  C   UNL     1       9.334  12.842   0.596  1.00  0.00     0.243 C 
ATOM     31  O   UNL     1       9.474  14.005   0.972  1.00  0.00    -0.273 OA
ATOM     32  N   UNL     1      10.010  11.796   1.169  1.00  0.00    -0.342 N 
ATOM     33  H   UNL     1       9.735  10.849   0.898  1.00  0.00     0.164 HD
BRANCH  32  34
ATOM     34  C   UNL     1      10.971  11.966   2.263  1.00  0.00     0.175 C 
BRANCH  34  35
ATOM     35  C   UNL     1      10.905  10.792   3.251  1.00  0.00     0.070 C 
BRANCH  35  36
ATOM     36  C   UNL     1       9.809  10.954   4.280  1.00  0.00    -0.045 A 
ATOM     37  C   UNL     1       8.953   9.881   4.570  1.00  0.00     0.007 A 
ATOM     38  C   UNL     1       9.617  12.176   4.939  1.00  0.00     0.007 A 
ATOM     39  C   UNL     1       7.931  10.025   5.508  1.00  0.00     0.046 A 
ATOM     40  C   UNL     1       8.592  12.322   5.877  1.00  0.00     0.046 A 
ATOM     41  C   UNL     1       7.759  11.244   6.154  1.00  0.00     0.115 A 
BRANCH  41  42
ATOM     42  O   UNL     1       6.746  11.344   7.061  1.00  0.00    -0.508 OA
ATOM     43  H   UNL     1       7.137  11.451   7.944  1.00  0.00     0.293 HD
ENDBRANCH  41  42
ENDBRANCH  35  36
ENDBRANCH  34  35
BRANCH  34  44
ATOM     44  C   UNL     1      12.378  12.121   1.643  1.00  0.00     0.243 C 
ATOM     45  O   UNL     1      13.336  11.401   1.909  1.00  0.00    -0.273 OA
ATOM     46  N   UNL     1      12.507  13.239   0.847  1.00  0.00    -0.341 N 
ATOM     47  H   UNL     1      11.715  13.870   0.750  1.00  0.00     0.164 HD
BRANCH  46  48
ATOM     48  C   UNL     1      13.764  13.632   0.206  1.00  0.00     0.196 C 
BRANCH  48  49
ATOM     49  C   UNL     1      13.510  14.422  -1.088  1.00  0.00     0.072 C 
BRANCH  49  50
ATOM     50  C   UNL     1      13.502  13.541  -2.316  1.00  0.00    -0.045 A 
ATOM     51  C   UNL     1      14.140  12.292  -2.284  1.00  0.00     0.007 A 
ATOM     52  C   UNL     1      12.884  13.960  -3.501  1.00  0.00     0.007 A 
ATOM     53  C   UNL     1      14.150  11.475  -3.415  1.00  0.00     0.046 A 
ATOM     54  C   UNL     1      12.896  13.143  -4.634  1.00  0.00     0.046 A 
ATOM     55  C   UNL     1      13.528  11.906  -4.580  1.00  0.00     0.115 A 
BRANCH  55  56
ATOM     56  O   UNL     1      13.563  11.079  -5.664  1.00  0.00    -0.508 OA
ATOM     57  H   UNL     1      13.739  10.177  -5.355  1.00  0.00     0.293 HD
ENDBRANCH  55  56
ENDBRANCH  49  50
ENDBRANCH  48  49
BRANCH  48  58
ATOM     58  C   UNL     1      14.575  14.493   1.185  1.00  0.00     0.326 C 
ATOM     59  O   UNL     1      14.647  15.710   1.213  1.00  0.00    -0.250 OA
BRANCH  58  60
ATOM     60  O   UNL     1      15.255  13.768   2.108  1.00  0.00    -0.480 OA
ATOM     61  H   UNL     1      14.757  12.922   2.144  1.00  0.00     0.296 HD
ENDBRANCH  58  60
ENDBRANCH  48  58
ENDBRANCH  46  48
ENDBRANCH  34  44
ENDBRANCH  32  34
ENDBRANCH  25  30
ENDBRANCH  23  25
ENDBRANCH   2  23
TORSDOF 28
ENDMDL
MODEL 38
REMARK VINA RESULT:    -5.911      3.266     10.150
REMARK INTER + INTRA:         -18.689
REMARK INTER:                 -12.890
REMARK INTRA:                  -5.799
REMARK UNBOUND:                -3.967
REMARK SMILES CCCCCCC[C@H](N)[C@H](O)C(=O)N[C@H](C)C(=O)N(C)[C@H](CC(C)C)C(=O)N[C@@H](Cc1ccc(O)cc1)C(=O)N[C@@H](Cc1ccc(O)cc1)C(=O)O
REMARK SMILES IDX 18 1 17 2 15 3 16 4 14 5 12 6 13 7 10 9 11 10 8 12 9 13 7 16
REMARK SMILES IDX 6 17 5 18 4 19 3 20 2 21 1 22 19 23 20 24 21 25 22 26 23 27
REMARK SMILES IDX 24 28 25 29 26 30 27 31 28 32 29 34 30 35 31 36 32 37 37 38
REMARK SMILES IDX 33 39 36 40 34 41 35 42 38 44 39 45 40 46 41 48 42 49 43 50
REMARK SMILES IDX 44 51 49 52 45 53 48 54 46 55 47 56 50 58 51 59 52 60
REMARK H PARENT 14 8 11 11 9 14 9 15 28 33 35 43 40 47 47 57 52 61
ROOT
ATOM      1  O   UNL     1       5.736  14.491  -0.841  1.00  0.00    -0.272 OA
ATOM      2  C   UNL     1       6.396  13.464  -1.061  1.00  0.00     0.245 C 
ENDROOT
BRANCH   2   3
ATOM      3  C   UNL     1       5.657  12.103  -1.102  1.00  0.00     0.168 C 
ATOM      4  C   UNL     1       5.202  11.777  -2.520  1.00  0.00     0.041 C 
BRANCH   3   5
ATOM      5  N   UNL     1       6.381  10.996  -0.497  1.00  0.00    -0.342 N 
ATOM      6  C   UNL     1       6.207  10.649   0.826  1.00  0.00     0.251 C 
ATOM      7  O   UNL     1       5.474  11.261   1.595  1.00  0.00    -0.272 OA
ATOM      8  H   UNL     1       7.045  10.436  -1.027  1.00  0.00     0.164 HD
BRANCH   6   9
ATOM      9  C   UNL     1       6.963   9.366   1.208  1.00  0.00     0.219 C 
BRANCH   9  10
ATOM     10  O   UNL     1       8.367   9.586   1.393  1.00  0.00    -0.382 OA
ATOM     11  H   UNL     1       8.408  10.146   2.199  1.00  0.00     0.211 HD
ENDBRANCH   9  10
BRANCH   9  12
ATOM     12  C   UNL     1       6.352   8.642   2.436  1.00  0.00     0.089 C 
BRANCH  12  13
ATOM     13  N   UNL     1       6.391   7.183   2.185  1.00  0.00    -0.325 NA
ATOM     14  H   UNL     1       7.280   6.808   2.520  1.00  0.00     0.119 HD
ATOM     15  H   UNL     1       6.396   7.021   1.175  1.00  0.00     0.119 HD
ENDBRANCH  12  13
BRANCH  12  16
ATOM     16  C   UNL     1       6.999   8.964   3.804  1.00  0.00     0.022 C 
BRANCH  16  17
ATOM     17  C   UNL     1       6.419  10.101   4.656  1.00  0.00     0.002 C 
BRANCH  17  18
ATOM     18  C   UNL     1       5.720   9.655   5.937  1.00  0.00     0.000 C 
BRANCH  18  19
ATOM     19  C   UNL     1       5.218  10.812   6.811  1.00  0.00    -0.000 C 
BRANCH  19  20
ATOM     20  C   UNL     1       6.246  11.375   7.797  1.00  0.00    -0.000 C 
BRANCH  20  21
ATOM     21  C   UNL     1       5.659  11.651   9.183  1.00  0.00    -0.003 C 
ATOM     22  C   UNL     1       4.881  10.452   9.704  1.00  0.00     0.004 C 
ENDBRANCH  20  21
ENDBRANCH  19  20
ENDBRANCH  18  19
ENDBRANCH  17  18
ENDBRANCH  16  17
ENDBRANCH  12  16
ENDBRANCH   9  12
ENDBRANCH   6   9
ENDBRANCH   3   5
ENDBRANCH   2   3
BRANCH   2  23
ATOM     23  N   UNL     1       7.746  13.560  -1.384  1.00  0.00    -0.332 N 
ATOM     24  C   UNL     1       8.262  13.722  -2.735  1.00  0.00     0.147 C 
BRANCH  23  25
ATOM     25  C   UNL     1       8.772  13.632  -0.308  1.00  0.00     0.174 C 
BRANCH  25  26
ATOM     26  C   UNL     1       9.521  14.985  -0.279  1.00  0.00     0.038 C 
BRANCH  26  27
ATOM     27  C   UNL     1       9.352  15.852   0.989  1.00  0.00    -0.015 C 
ATOM     28  C   UNL     1       8.041  16.639   0.988  1.00  0.00     0.007 C 
ATOM     29  C   UNL     1       9.504  15.065   2.288  1.00  0.00     0.007 C 
ENDBRANCH  26  27
ENDBRANCH  25  26
BRANCH  25  30
ATOM     30  C   UNL     1       9.709  12.404  -0.384  1.00  0.00     0.243 C 
ATOM     31  O   UNL     1       9.290  11.284  -0.670  1.00  0.00    -0.273 OA
ATOM     32  N   UNL     1      11.029  12.648  -0.105  1.00  0.00    -0.342 N 
ATOM     33  H   UNL     1      11.322  13.624  -0.016  1.00  0.00     0.164 HD
BRANCH  32  34
ATOM     34  C   UNL     1      12.054  11.601  -0.102  1.00  0.00     0.175 C 
BRANCH  34  35
ATOM     35  C   UNL     1      13.335  12.071  -0.809  1.00  0.00     0.070 C 
BRANCH  35  36
ATOM     36  C   UNL     1      13.357  11.715  -2.278  1.00  0.00    -0.045 A 
ATOM     37  C   UNL     1      12.244  11.095  -2.867  1.00  0.00     0.007 A 
ATOM     38  C   UNL     1      14.487  11.975  -3.064  1.00  0.00     0.007 A 
ATOM     39  C   UNL     1      12.261  10.751  -4.219  1.00  0.00     0.046 A 
ATOM     40  C   UNL     1      14.505  11.629  -4.417  1.00  0.00     0.046 A 
ATOM     41  C   UNL     1      13.389  11.021  -4.983  1.00  0.00     0.115 A 
BRANCH  41  42
ATOM     42  O   UNL     1      13.366  10.666  -6.299  1.00  0.00    -0.508 OA
ATOM     43  H   UNL     1      12.963  11.392  -6.803  1.00  0.00     0.293 HD
ENDBRANCH  41  42
ENDBRANCH  35  36
ENDBRANCH  34  35
BRANCH  34  44
ATOM     44  C   UNL     1      12.319  11.194   1.365  1.00  0.00     0.243 C 
ATOM     45  O   UNL     1      13.412  11.272   1.920  1.00  0.00    -0.273 OA
ATOM     46  N   UNL     1      11.234  10.603   1.975  1.00  0.00    -0.341 N 
ATOM     47  H   UNL     1      10.384  10.454   1.436  1.00  0.00     0.164 HD
BRANCH  46  48
ATOM     48  C   UNL     1      11.266  10.074   3.341  1.00  0.00     0.196 C 
BRANCH  48  49
ATOM     49  C   UNL     1      10.032  10.520   4.143  1.00  0.00     0.072 C 
BRANCH  49  50
ATOM     50  C   UNL     1      10.202  11.890   4.759  1.00  0.00    -0.045 A 
ATOM     51  C   UNL     1       9.106  12.529   5.358  1.00  0.00     0.007 A 
ATOM     52  C   UNL     1      11.439  12.548   4.725  1.00  0.00     0.007 A 
ATOM     53  C   UNL     1       9.248  13.799   5.918  1.00  0.00     0.046 A 
ATOM     54  C   UNL     1      11.581  13.819   5.284  1.00  0.00     0.046 A 
ATOM     55  C   UNL     1      10.483  14.434   5.877  1.00  0.00     0.115 A 
BRANCH  55  56
ATOM     56  O   UNL     1      10.580  15.675   6.434  1.00  0.00    -0.508 OA
ATOM     57  H   UNL     1      10.344  16.332   5.760  1.00  0.00     0.293 HD
ENDBRANCH  55  56
ENDBRANCH  49  50
ENDBRANCH  48  49
BRANCH  48  58
ATOM     58  C   UNL     1      11.315   8.541   3.282  1.00  0.00     0.326 C 
ATOM     59  O   UNL     1      12.034   7.800   3.933  1.00  0.00    -0.250 OA
BRANCH  58  60
ATOM     60  O   UNL     1      10.433   8.005   2.403  1.00  0.00    -0.480 OA
ATOM     61  H   UNL     1       9.569   8.365   2.701  1.00  0.00     0.296 HD
ENDBRANCH  58  60
ENDBRANCH  48  58
ENDBRANCH  46  48
ENDBRANCH  34  44
ENDBRANCH  32  34
ENDBRANCH  25  30
ENDBRANCH  23  25
ENDBRANCH   2  23
TORSDOF 28
ENDMDL
MODEL 39
REMARK VINA RESULT:    -5.902      2.738     12.026
REMARK INTER + INTRA:         -18.668
REMARK INTER:                 -15.587
REMARK INTRA:                  -3.080
REMARK UNBOUND:                -3.967
REMARK SMILES CCCCCCC[C@H](N)[C@H](O)C(=O)N[C@H](C)C(=O)N(C)[C@H](CC(C)C)C(=O)N[C@@H](Cc1ccc(O)cc1)C(=O)N[C@@H](Cc1ccc(O)cc1)C(=O)O
REMARK SMILES IDX 18 1 17 2 15 3 16 4 14 5 12 6 13 7 10 9 11 10 8 12 9 13 7 16
REMARK SMILES IDX 6 17 5 18 4 19 3 20 2 21 1 22 19 23 20 24 21 25 22 26 23 27
REMARK SMILES IDX 24 28 25 29 26 30 27 31 28 32 29 34 30 35 31 36 32 37 37 38
REMARK SMILES IDX 33 39 36 40 34 41 35 42 38 44 39 45 40 46 41 48 42 49 43 50
REMARK SMILES IDX 44 51 49 52 45 53 48 54 46 55 47 56 50 58 51 59 52 60
REMARK H PARENT 14 8 11 11 9 14 9 15 28 33 35 43 40 47 47 57 52 61
ROOT
ATOM      1  O   UNL     1       6.203   7.841   3.509  1.00  0.00    -0.272 OA
ATOM      2  C   UNL     1       5.884   8.935   3.999  1.00  0.00     0.245 C 
ENDROOT
BRANCH   2   3
ATOM      3  C   UNL     1       4.379   9.262   4.165  1.00  0.00     0.168 C 
ATOM      4  C   UNL     1       3.551   8.564   3.091  1.00  0.00     0.041 C 
BRANCH   3   5
ATOM      5  N   UNL     1       3.845   9.027   5.498  1.00  0.00    -0.342 N 
ATOM      6  C   UNL     1       3.518   7.762   5.938  1.00  0.00     0.251 C 
ATOM      7  O   UNL     1       3.609   6.758   5.239  1.00  0.00    -0.272 OA
ATOM      8  H   UNL     1       3.693   9.787   6.156  1.00  0.00     0.164 HD
BRANCH   6   9
ATOM      9  C   UNL     1       3.111   7.735   7.420  1.00  0.00     0.219 C 
BRANCH   9  10
ATOM     10  O   UNL     1       2.086   8.688   7.728  1.00  0.00    -0.382 OA
ATOM     11  H   UNL     1       2.159   8.798   8.702  1.00  0.00     0.211 HD
ENDBRANCH   9  10
BRANCH   9  12
ATOM     12  C   UNL     1       2.716   6.321   7.918  1.00  0.00     0.089 C 
BRANCH  12  13
ATOM     13  N   UNL     1       3.812   5.384   7.582  1.00  0.00    -0.325 NA
ATOM     14  H   UNL     1       3.771   5.163   6.585  1.00  0.00     0.119 HD
ATOM     15  H   UNL     1       3.646   4.495   8.059  1.00  0.00     0.119 HD
ENDBRANCH  12  13
BRANCH  12  16
ATOM     16  C   UNL     1       2.359   6.205   9.419  1.00  0.00     0.022 C 
BRANCH  16  17
ATOM     17  C   UNL     1       3.038   5.120  10.266  1.00  0.00     0.002 C 
BRANCH  17  18
ATOM     18  C   UNL     1       2.719   5.174  11.759  1.00  0.00     0.000 C 
BRANCH  18  19
ATOM     19  C   UNL     1       1.228   5.358  12.073  1.00  0.00    -0.000 C 
BRANCH  19  20
ATOM     20  C   UNL     1       0.778   4.813  13.431  1.00  0.00    -0.000 C 
BRANCH  20  21
ATOM     21  C   UNL     1      -0.741   4.645  13.536  1.00  0.00    -0.003 C 
ATOM     22  C   UNL     1      -1.249   3.586  12.570  1.00  0.00     0.004 C 
ENDBRANCH  20  21
ENDBRANCH  19  20
ENDBRANCH  18  19
ENDBRANCH  17  18
ENDBRANCH  16  17
ENDBRANCH  12  16
ENDBRANCH   9  12
ENDBRANCH   6   9
ENDBRANCH   3   5
ENDBRANCH   2   3
BRANCH   2  23
ATOM     23  N   UNL     1       6.864   9.786   4.497  1.00  0.00    -0.332 N 
ATOM     24  C   UNL     1       6.883  10.322   5.850  1.00  0.00     0.147 C 
BRANCH  23  25
ATOM     25  C   UNL     1       8.065  10.109   3.679  1.00  0.00     0.174 C 
BRANCH  25  26
ATOM     26  C   UNL     1       9.381   9.604   4.316  1.00  0.00     0.038 C 
BRANCH  26  27
ATOM     27  C   UNL     1      10.195   8.567   3.510  1.00  0.00    -0.015 C 
ATOM     28  C   UNL     1      10.644   9.104   2.151  1.00  0.00     0.007 C 
ATOM     29  C   UNL     1      11.383   7.997   4.281  1.00  0.00     0.007 C 
ENDBRANCH  26  27
ENDBRANCH  25  26
BRANCH  25  30
ATOM     30  C   UNL     1       8.081  11.615   3.329  1.00  0.00     0.243 C 
ATOM     31  O   UNL     1       7.365  12.426   3.914  1.00  0.00    -0.273 OA
ATOM     32  N   UNL     1       8.939  11.982   2.325  1.00  0.00    -0.342 N 
ATOM     33  H   UNL     1       9.601  11.278   1.986  1.00  0.00     0.164 HD
BRANCH  32  34
ATOM     34  C   UNL     1       9.068  13.359   1.842  1.00  0.00     0.175 C 
BRANCH  34  35
ATOM     35  C   UNL     1      10.344  14.024   2.382  1.00  0.00     0.070 C 
BRANCH  35  36
ATOM     36  C   UNL     1      11.437  13.025   2.690  1.00  0.00    -0.045 A 
ATOM     37  C   UNL     1      11.598  12.542   3.998  1.00  0.00     0.007 A 
ATOM     38  C   UNL     1      12.314  12.588   1.689  1.00  0.00     0.007 A 
ATOM     39  C   UNL     1      12.612  11.632   4.295  1.00  0.00     0.046 A 
ATOM     40  C   UNL     1      13.331  11.677   1.987  1.00  0.00     0.046 A 
ATOM     41  C   UNL     1      13.470  11.206   3.288  1.00  0.00     0.115 A 
BRANCH  41  42
ATOM     42  O   UNL     1      14.449  10.318   3.621  1.00  0.00    -0.508 OA
ATOM     43  H   UNL     1      14.143   9.797   4.382  1.00  0.00     0.293 HD
ENDBRANCH  41  42
ENDBRANCH  35  36
ENDBRANCH  34  35
BRANCH  34  44
ATOM     44  C   UNL     1       9.040  13.331   0.298  1.00  0.00     0.243 C 
ATOM     45  O   UNL     1       9.533  14.195  -0.421  1.00  0.00    -0.273 OA
ATOM     46  N   UNL     1       8.288  12.297  -0.219  1.00  0.00    -0.341 N 
ATOM     47  H   UNL     1       7.801  11.673   0.420  1.00  0.00     0.164 HD
BRANCH  46  48
ATOM     48  C   UNL     1       8.059  12.105  -1.652  1.00  0.00     0.196 C 
BRANCH  48  49
ATOM     49  C   UNL     1       8.656  10.774  -2.141  1.00  0.00     0.072 C 
BRANCH  49  50
ATOM     50  C   UNL     1      10.157  10.837  -2.312  1.00  0.00    -0.045 A 
ATOM     51  C   UNL     1      10.704  11.255  -3.534  1.00  0.00     0.007 A 
ATOM     52  C   UNL     1      11.018  10.465  -1.271  1.00  0.00     0.007 A 
ATOM     53  C   UNL     1      12.087  11.305  -3.708  1.00  0.00     0.046 A 
ATOM     54  C   UNL     1      12.402  10.513  -1.446  1.00  0.00     0.046 A 
ATOM     55  C   UNL     1      12.926  10.934  -2.663  1.00  0.00     0.115 A 
BRANCH  55  56
ATOM     56  O   UNL     1      14.271  10.996  -2.875  1.00  0.00    -0.508 OA
ATOM     57  H   UNL     1      14.504  11.910  -3.101  1.00  0.00     0.293 HD
ENDBRANCH  55  56
ENDBRANCH  49  50
ENDBRANCH  48  49
BRANCH  48  58
ATOM     58  C   UNL     1       6.549  12.122  -1.924  1.00  0.00     0.326 C 
ATOM     59  O   UNL     1       5.833  11.167  -2.180  1.00  0.00    -0.250 OA
BRANCH  58  60
ATOM     60  O   UNL     1       5.999  13.360  -1.846  1.00  0.00    -0.480 OA
ATOM     61  H   UNL     1       5.051  13.199  -2.047  1.00  0.00     0.296 HD
ENDBRANCH  58  60
ENDBRANCH  48  58
ENDBRANCH  46  48
ENDBRANCH  34  44
ENDBRANCH  32  34
ENDBRANCH  25  30
ENDBRANCH  23  25
ENDBRANCH   2  23
TORSDOF 28
ENDMDL
MODEL 40
REMARK VINA RESULT:    -5.898      4.401     10.926
REMARK INTER + INTRA:         -18.656
REMARK INTER:                 -14.348
REMARK INTRA:                  -4.308
REMARK UNBOUND:                -3.967
REMARK SMILES CCCCCCC[C@H](N)[C@H](O)C(=O)N[C@H](C)C(=O)N(C)[C@H](CC(C)C)C(=O)N[C@@H](Cc1ccc(O)cc1)C(=O)N[C@@H](Cc1ccc(O)cc1)C(=O)O
REMARK SMILES IDX 18 1 17 2 15 3 16 4 14 5 12 6 13 7 10 9 11 10 8 12 9 13 7 16
REMARK SMILES IDX 6 17 5 18 4 19 3 20 2 21 1 22 19 23 20 24 21 25 22 26 23 27
REMARK SMILES IDX 24 28 25 29 26 30 27 31 28 32 29 34 30 35 31 36 32 37 37 38
REMARK SMILES IDX 33 39 36 40 34 41 35 42 38 44 39 45 40 46 41 48 42 49 43 50
REMARK SMILES IDX 44 51 49 52 45 53 48 54 46 55 47 56 50 58 51 59 52 60
REMARK H PARENT 14 8 11 11 9 14 9 15 28 33 35 43 40 47 47 57 52 61
ROOT
ATOM      1  O   UNL     1       4.187  15.051   8.029  1.00  0.00    -0.272 OA
ATOM      2  C   UNL     1       4.650  14.105   7.374  1.00  0.00     0.245 C 
ENDROOT
BRANCH   2   3
ATOM      3  C   UNL     1       5.760  13.234   8.014  1.00  0.00     0.168 C 
ATOM      4  C   UNL     1       7.141  13.793   7.690  1.00  0.00     0.041 C 
BRANCH   3   5
ATOM      5  N   UNL     1       5.596  12.985   9.438  1.00  0.00    -0.342 N 
ATOM      6  C   UNL     1       5.681  11.716   9.969  1.00  0.00     0.251 C 
ATOM      7  O   UNL     1       5.855  10.709   9.291  1.00  0.00    -0.272 OA
ATOM      8  H   UNL     1       5.412  13.739  10.096  1.00  0.00     0.164 HD
BRANCH   6   9
ATOM      9  C   UNL     1       5.619  11.709  11.505  1.00  0.00     0.219 C 
BRANCH   9  10
ATOM     10  O   UNL     1       6.602  12.564  12.102  1.00  0.00    -0.382 OA
ATOM     11  H   UNL     1       6.104  13.030  12.809  1.00  0.00     0.211 HD
ENDBRANCH   9  10
BRANCH   9  12
ATOM     12  C   UNL     1       4.205  12.025  12.059  1.00  0.00     0.089 C 
BRANCH  12  13
ATOM     13  N   UNL     1       4.069  13.495  12.181  1.00  0.00    -0.325 NA
ATOM     14  H   UNL     1       3.306  13.812  11.579  1.00  0.00     0.119 HD
ATOM     15  H   UNL     1       4.909  13.938  11.802  1.00  0.00     0.119 HD
ENDBRANCH  12  13
BRANCH  12  16
ATOM     16  C   UNL     1       3.016  11.446  11.255  1.00  0.00     0.022 C 
BRANCH  16  17
ATOM     17  C   UNL     1       1.662  11.262  11.953  1.00  0.00     0.002 C 
BRANCH  17  18
ATOM     18  C   UNL     1       0.690  10.326  11.238  1.00  0.00     0.000 C 
BRANCH  18  19
ATOM     19  C   UNL     1       0.474  10.662   9.757  1.00  0.00    -0.000 C 
BRANCH  19  20
ATOM     20  C   UNL     1      -0.767  11.508   9.457  1.00  0.00    -0.000 C 
BRANCH  20  21
ATOM     21  C   UNL     1      -1.656  11.725  10.684  1.00  0.00    -0.003 C 
ATOM     22  C   UNL     1      -1.663  13.184  11.112  1.00  0.00     0.004 C 
ENDBRANCH  20  21
ENDBRANCH  19  20
ENDBRANCH  18  19
ENDBRANCH  17  18
ENDBRANCH  16  17
ENDBRANCH  12  16
ENDBRANCH   9  12
ENDBRANCH   6   9
ENDBRANCH   3   5
ENDBRANCH   2   3
BRANCH   2  23
ATOM     23  N   UNL     1       4.092  13.770   6.145  1.00  0.00    -0.332 N 
ATOM     24  C   UNL     1       4.650  14.145   4.854  1.00  0.00     0.147 C 
BRANCH  23  25
ATOM     25  C   UNL     1       2.912  12.864   6.078  1.00  0.00     0.174 C 
BRANCH  25  26
ATOM     26  C   UNL     1       1.652  13.467   6.742  1.00  0.00     0.038 C 
BRANCH  26  27
ATOM     27  C   UNL     1       0.561  14.022   5.799  1.00  0.00    -0.015 C 
ATOM     28  C   UNL     1       0.154  15.451   6.155  1.00  0.00     0.007 C 
ATOM     29  C   UNL     1       0.928  13.920   4.321  1.00  0.00     0.007 C 
ENDBRANCH  26  27
ENDBRANCH  25  26
BRANCH  25  30
ATOM     30  C   UNL     1       3.287  11.463   6.613  1.00  0.00     0.243 C 
ATOM     31  O   UNL     1       3.021  11.113   7.762  1.00  0.00    -0.273 OA
ATOM     32  N   UNL     1       3.937  10.644   5.726  1.00  0.00    -0.342 N 
ATOM     33  H   UNL     1       3.995  10.951   4.752  1.00  0.00     0.164 HD
BRANCH  32  34
ATOM     34  C   UNL     1       4.391   9.293   6.067  1.00  0.00     0.175 C 
BRANCH  34  35
ATOM     35  C   UNL     1       3.239   8.279   5.989  1.00  0.00     0.070 C 
BRANCH  35  36
ATOM     36  C   UNL     1       2.760   7.831   7.351  1.00  0.00    -0.045 A 
ATOM     37  C   UNL     1       1.503   7.224   7.489  1.00  0.00     0.007 A 
ATOM     38  C   UNL     1       3.548   8.034   8.492  1.00  0.00     0.007 A 
ATOM     39  C   UNL     1       1.047   6.820   8.744  1.00  0.00     0.046 A 
ATOM     40  C   UNL     1       3.092   7.631   9.750  1.00  0.00     0.046 A 
ATOM     41  C   UNL     1       1.845   7.025   9.864  1.00  0.00     0.115 A 
BRANCH  41  42
ATOM     42  O   UNL     1       1.361   6.619  11.072  1.00  0.00    -0.508 OA
ATOM     43  H   UNL     1       2.090   6.216  11.572  1.00  0.00     0.293 HD
ENDBRANCH  41  42
ENDBRANCH  35  36
ENDBRANCH  34  35
BRANCH  34  44
ATOM     44  C   UNL     1       5.551   8.923   5.115  1.00  0.00     0.243 C 
ATOM     45  O   UNL     1       5.834   7.777   4.779  1.00  0.00    -0.273 OA
ATOM     46  N   UNL     1       6.340   9.999   4.768  1.00  0.00    -0.341 N 
ATOM     47  H   UNL     1       6.134  10.912   5.166  1.00  0.00     0.164 HD
BRANCH  46  48
ATOM     48  C   UNL     1       7.536   9.884   3.931  1.00  0.00     0.196 C 
BRANCH  48  49
ATOM     49  C   UNL     1       8.688   9.204   4.690  1.00  0.00     0.072 C 
BRANCH  49  50
ATOM     50  C   UNL     1      10.013   9.900   4.483  1.00  0.00    -0.045 A 
ATOM     51  C   UNL     1      10.193  11.213   4.943  1.00  0.00     0.007 A 
ATOM     52  C   UNL     1      11.067   9.262   3.816  1.00  0.00     0.007 A 
ATOM     53  C   UNL     1      11.407  11.871   4.746  1.00  0.00     0.046 A 
ATOM     54  C   UNL     1      12.282   9.921   3.617  1.00  0.00     0.046 A 
ATOM     55  C   UNL     1      12.442  11.220   4.085  1.00  0.00     0.115 A 
BRANCH  55  56
ATOM     56  O   UNL     1      13.612  11.899   3.911  1.00  0.00    -0.508 OA
ATOM     57  H   UNL     1      13.734  12.060   2.962  1.00  0.00     0.293 HD
ENDBRANCH  55  56
ENDBRANCH  49  50
ENDBRANCH  48  49
BRANCH  48  58
ATOM     58  C   UNL     1       7.192   9.067   2.678  1.00  0.00     0.326 C 
ATOM     59  O   UNL     1       6.435   9.384   1.774  1.00  0.00    -0.250 OA
BRANCH  58  60
ATOM     60  O   UNL     1       7.839   7.877   2.613  1.00  0.00    -0.480 OA
ATOM     61  H   UNL     1       8.095   7.809   1.667  1.00  0.00     0.296 HD
ENDBRANCH  58  60
ENDBRANCH  48  58
ENDBRANCH  46  48
ENDBRANCH  34  44
ENDBRANCH  32  34
ENDBRANCH  25  30
ENDBRANCH  23  25
ENDBRANCH   2  23
TORSDOF 28
ENDMDL
MODEL 41
REMARK VINA RESULT:    -5.892      2.387      4.276
REMARK INTER + INTRA:         -18.643
REMARK INTER:                 -14.362
REMARK INTRA:                  -4.281
REMARK UNBOUND:                -3.967
REMARK SMILES CCCCCCC[C@H](N)[C@H](O)C(=O)N[C@H](C)C(=O)N(C)[C@H](CC(C)C)C(=O)N[C@@H](Cc1ccc(O)cc1)C(=O)N[C@@H](Cc1ccc(O)cc1)C(=O)O
REMARK SMILES IDX 18 1 17 2 15 3 16 4 14 5 12 6 13 7 10 9 11 10 8 12 9 13 7 16
REMARK SMILES IDX 6 17 5 18 4 19 3 20 2 21 1 22 19 23 20 24 21 25 22 26 23 27
REMARK SMILES IDX 24 28 25 29 26 30 27 31 28 32 29 34 30 35 31 36 32 37 37 38
REMARK SMILES IDX 33 39 36 40 34 41 35 42 38 44 39 45 40 46 41 48 42 49 43 50
REMARK SMILES IDX 44 51 49 52 45 53 48 54 46 55 47 56 50 58 51 59 52 60
REMARK H PARENT 14 8 11 11 9 14 9 15 28 33 35 43 40 47 47 57 52 61
ROOT
ATOM      1  O   UNL     1       7.503  14.603   0.970  1.00  0.00    -0.272 OA
ATOM      2  C   UNL     1       6.935  13.694   1.593  1.00  0.00     0.245 C 
ENDROOT
BRANCH   2   3
ATOM      3  C   UNL     1       7.119  12.235   1.106  1.00  0.00     0.168 C 
ATOM      4  C   UNL     1       7.451  12.198  -0.382  1.00  0.00     0.041 C 
BRANCH   3   5
ATOM      5  N   UNL     1       8.053  11.442   1.890  1.00  0.00    -0.342 N 
ATOM      6  C   UNL     1       7.901  10.081   2.046  1.00  0.00     0.251 C 
ATOM      7  O   UNL     1       6.960   9.447   1.580  1.00  0.00    -0.272 OA
ATOM      8  H   UNL     1       8.855  11.862   2.354  1.00  0.00     0.164 HD
BRANCH   6   9
ATOM      9  C   UNL     1       9.079   9.432   2.791  1.00  0.00     0.219 C 
BRANCH   9  10
ATOM     10  O   UNL     1       9.243   8.046   2.465  1.00  0.00    -0.382 OA
ATOM     11  H   UNL     1      10.158   7.846   2.761  1.00  0.00     0.211 HD
ENDBRANCH   9  10
BRANCH   9  12
ATOM     12  C   UNL     1      10.413  10.202   2.609  1.00  0.00     0.089 C 
BRANCH  12  13
ATOM     13  N   UNL     1      11.385   9.696   3.605  1.00  0.00    -0.325 NA
ATOM     14  H   UNL     1      11.800  10.487   4.100  1.00  0.00     0.119 HD
ATOM     15  H   UNL     1      12.162   9.251   3.112  1.00  0.00     0.119 HD
ENDBRANCH  12  13
BRANCH  12  16
ATOM     16  C   UNL     1      11.033  10.159   1.191  1.00  0.00     0.022 C 
BRANCH  16  17
ATOM     17  C   UNL     1      11.448  11.474   0.517  1.00  0.00     0.002 C 
BRANCH  17  18
ATOM     18  C   UNL     1      12.937  11.800   0.603  1.00  0.00     0.000 C 
BRANCH  18  19
ATOM     19  C   UNL     1      13.609  12.019  -0.759  1.00  0.00    -0.000 C 
BRANCH  19  20
ATOM     20  C   UNL     1      13.575  10.812  -1.702  1.00  0.00    -0.000 C 
BRANCH  20  21
ATOM     21  C   UNL     1      13.430  11.205  -3.174  1.00  0.00    -0.003 C 
ATOM     22  C   UNL     1      14.636  11.996  -3.658  1.00  0.00     0.004 C 
ENDBRANCH  20  21
ENDBRANCH  19  20
ENDBRANCH  18  19
ENDBRANCH  17  18
ENDBRANCH  16  17
ENDBRANCH  12  16
ENDBRANCH   9  12
ENDBRANCH   6   9
ENDBRANCH   3   5
ENDBRANCH   2   3
BRANCH   2  23
ATOM     23  N   UNL     1       6.254  13.979   2.771  1.00  0.00    -0.332 N 
ATOM     24  C   UNL     1       6.439  15.187   3.561  1.00  0.00     0.147 C 
BRANCH  23  25
ATOM     25  C   UNL     1       5.160  13.084   3.242  1.00  0.00     0.174 C 
BRANCH  25  26
ATOM     26  C   UNL     1       3.841  13.842   3.522  1.00  0.00     0.038 C 
BRANCH  26  27
ATOM     27  C   UNL     1       2.579  13.346   2.782  1.00  0.00    -0.015 C 
ATOM     28  C   UNL     1       1.437  14.362   2.830  1.00  0.00     0.007 C 
ATOM     29  C   UNL     1       2.849  12.909   1.345  1.00  0.00     0.007 C 
ENDBRANCH  26  27
ENDBRANCH  25  26
BRANCH  25  30
ATOM     30  C   UNL     1       5.650  12.226   4.431  1.00  0.00     0.243 C 
ATOM     31  O   UNL     1       6.828  12.215   4.783  1.00  0.00    -0.273 OA
ATOM     32  N   UNL     1       4.687  11.479   5.059  1.00  0.00    -0.342 N 
ATOM     33  H   UNL     1       3.712  11.650   4.801  1.00  0.00     0.164 HD
BRANCH  32  34
ATOM     34  C   UNL     1       4.973  10.588   6.187  1.00  0.00     0.175 C 
BRANCH  34  35
ATOM     35  C   UNL     1       3.729  10.381   7.065  1.00  0.00     0.070 C 
BRANCH  35  36
ATOM     36  C   UNL     1       4.012  10.579   8.537  1.00  0.00    -0.045 A 
ATOM     37  C   UNL     1       3.029  10.269   9.489  1.00  0.00     0.007 A 
ATOM     38  C   UNL     1       5.242  11.093   8.969  1.00  0.00     0.007 A 
ATOM     39  C   UNL     1       3.276  10.462  10.848  1.00  0.00     0.046 A 
ATOM     40  C   UNL     1       5.490  11.287  10.330  1.00  0.00     0.046 A 
ATOM     41  C   UNL     1       4.504  10.968  11.258  1.00  0.00     0.115 A 
BRANCH  41  42
ATOM     42  O   UNL     1       4.704  11.145  12.595  1.00  0.00    -0.508 OA
ATOM     43  H   UNL     1       5.454  10.590  12.866  1.00  0.00     0.293 HD
ENDBRANCH  41  42
ENDBRANCH  35  36
ENDBRANCH  34  35
BRANCH  34  44
ATOM     44  C   UNL     1       5.507   9.254   5.619  1.00  0.00     0.243 C 
ATOM     45  O   UNL     1       6.675   9.055   5.297  1.00  0.00    -0.273 OA
ATOM     46  N   UNL     1       4.517   8.325   5.376  1.00  0.00    -0.341 N 
ATOM     47  H   UNL     1       3.548   8.579   5.550  1.00  0.00     0.164 HD
BRANCH  46  48
ATOM     48  C   UNL     1       4.772   7.013   4.776  1.00  0.00     0.196 C 
BRANCH  48  49
ATOM     49  C   UNL     1       3.671   6.005   5.145  1.00  0.00     0.072 C 
BRANCH  49  50
ATOM     50  C   UNL     1       3.070   6.273   6.507  1.00  0.00    -0.045 A 
ATOM     51  C   UNL     1       1.907   7.049   6.616  1.00  0.00     0.007 A 
ATOM     52  C   UNL     1       3.669   5.773   7.670  1.00  0.00     0.007 A 
ATOM     53  C   UNL     1       1.350   7.314   7.868  1.00  0.00     0.046 A 
ATOM     54  C   UNL     1       3.112   6.039   8.923  1.00  0.00     0.046 A 
ATOM     55  C   UNL     1       1.956   6.807   9.011  1.00  0.00     0.115 A 
BRANCH  55  56
ATOM     56  O   UNL     1       1.382   7.090  10.215  1.00  0.00    -0.508 OA
ATOM     57  H   UNL     1       2.001   7.631  10.730  1.00  0.00     0.293 HD
ENDBRANCH  55  56
ENDBRANCH  49  50
ENDBRANCH  48  49
BRANCH  48  58
ATOM     58  C   UNL     1       4.839   7.167   3.251  1.00  0.00     0.326 C 
ATOM     59  O   UNL     1       3.997   7.663   2.520  1.00  0.00    -0.250 OA
BRANCH  58  60
ATOM     60  O   UNL     1       5.990   6.694   2.709  1.00  0.00    -0.480 OA
ATOM     61  H   UNL     1       5.904   5.721   2.810  1.00  0.00     0.296 HD
ENDBRANCH  58  60
ENDBRANCH  48  58
ENDBRANCH  46  48
ENDBRANCH  34  44
ENDBRANCH  32  34
ENDBRANCH  25  30
ENDBRANCH  23  25
ENDBRANCH   2  23
TORSDOF 28
ENDMDL
MODEL 42
REMARK VINA RESULT:    -5.888      2.594      4.549
REMARK INTER + INTRA:         -18.634
REMARK INTER:                 -14.954
REMARK INTRA:                  -3.680
REMARK UNBOUND:                -3.967
REMARK SMILES CCCCCCC[C@H](N)[C@H](O)C(=O)N[C@H](C)C(=O)N(C)[C@H](CC(C)C)C(=O)N[C@@H](Cc1ccc(O)cc1)C(=O)N[C@@H](Cc1ccc(O)cc1)C(=O)O
REMARK SMILES IDX 18 1 17 2 15 3 16 4 14 5 12 6 13 7 10 9 11 10 8 12 9 13 7 16
REMARK SMILES IDX 6 17 5 18 4 19 3 20 2 21 1 22 19 23 20 24 21 25 22 26 23 27
REMARK SMILES IDX 24 28 25 29 26 30 27 31 28 32 29 34 30 35 31 36 32 37 37 38
REMARK SMILES IDX 33 39 36 40 34 41 35 42 38 44 39 45 40 46 41 48 42 49 43 50
REMARK SMILES IDX 44 51 49 52 45 53 48 54 46 55 47 56 50 58 51 59 52 60
REMARK H PARENT 14 8 11 11 9 14 9 15 28 33 35 43 40 47 47 57 52 61
ROOT
ATOM      1  O   UNL     1       9.491   9.854   5.480  1.00  0.00    -0.272 OA
ATOM      2  C   UNL     1       9.906  10.285   4.394  1.00  0.00     0.245 C 
ENDROOT
BRANCH   2   3
ATOM      3  C   UNL     1      11.239   9.725   3.836  1.00  0.00     0.168 C 
ATOM      4  C   UNL     1      11.071   8.279   3.381  1.00  0.00     0.041 C 
BRANCH   3   5
ATOM      5  N   UNL     1      11.865  10.546   2.811  1.00  0.00    -0.342 N 
ATOM      6  C   UNL     1      12.841  11.471   3.115  1.00  0.00     0.251 C 
ATOM      7  O   UNL     1      13.223  11.700   4.258  1.00  0.00    -0.272 OA
ATOM      8  H   UNL     1      11.606  10.470   1.831  1.00  0.00     0.164 HD
BRANCH   6   9
ATOM      9  C   UNL     1      13.458  12.117   1.865  1.00  0.00     0.219 C 
BRANCH   9  10
ATOM     10  O   UNL     1      14.890  12.060   1.862  1.00  0.00    -0.382 OA
ATOM     11  H   UNL     1      15.152  12.866   1.364  1.00  0.00     0.211 HD
ENDBRANCH   9  10
BRANCH   9  12
ATOM     12  C   UNL     1      12.881  11.553   0.540  1.00  0.00     0.089 C 
BRANCH  12  13
ATOM     13  N   UNL     1      11.613  12.259   0.244  1.00  0.00    -0.325 NA
ATOM     14  H   UNL     1      11.809  13.250   0.090  1.00  0.00     0.119 HD
ATOM     15  H   UNL     1      11.017  12.231   1.075  1.00  0.00     0.119 HD
ENDBRANCH  12  13
BRANCH  12  16
ATOM     16  C   UNL     1      13.821  11.611  -0.688  1.00  0.00     0.022 C 
BRANCH  16  17
ATOM     17  C   UNL     1      13.431  10.853  -1.964  1.00  0.00     0.002 C 
BRANCH  17  18
ATOM     18  C   UNL     1      14.265  11.193  -3.197  1.00  0.00     0.000 C 
BRANCH  18  19
ATOM     19  C   UNL     1      13.462  11.232  -4.503  1.00  0.00    -0.000 C 
BRANCH  19  20
ATOM     20  C   UNL     1      12.740  12.553  -4.784  1.00  0.00    -0.000 C 
BRANCH  20  21
ATOM     21  C   UNL     1      13.473  13.770  -4.211  1.00  0.00    -0.003 C 
ATOM     22  C   UNL     1      12.536  14.958  -4.056  1.00  0.00     0.004 C 
ENDBRANCH  20  21
ENDBRANCH  19  20
ENDBRANCH  18  19
ENDBRANCH  17  18
ENDBRANCH  16  17
ENDBRANCH  12  16
ENDBRANCH   9  12
ENDBRANCH   6   9
ENDBRANCH   3   5
ENDBRANCH   2   3
BRANCH   2  23
ATOM     23  N   UNL     1       9.123  11.158   3.646  1.00  0.00    -0.332 N 
ATOM     24  C   UNL     1       9.129  12.605   3.794  1.00  0.00     0.147 C 
BRANCH  23  25
ATOM     25  C   UNL     1       8.294  10.646   2.520  1.00  0.00     0.174 C 
BRANCH  25  26
ATOM     26  C   UNL     1       8.222  11.631   1.330  1.00  0.00     0.038 C 
BRANCH  26  27
ATOM     27  C   UNL     1       7.567  11.112   0.031  1.00  0.00    -0.015 C 
ATOM     28  C   UNL     1       7.296  12.231  -0.975  1.00  0.00     0.007 C 
ATOM     29  C   UNL     1       8.342   9.974  -0.628  1.00  0.00     0.007 C 
ENDBRANCH  26  27
ENDBRANCH  25  26
BRANCH  25  30
ATOM     30  C   UNL     1       6.910  10.197   3.040  1.00  0.00     0.243 C 
ATOM     31  O   UNL     1       6.474   9.065   2.834  1.00  0.00    -0.273 OA
ATOM     32  N   UNL     1       6.202  11.142   3.737  1.00  0.00    -0.342 N 
ATOM     33  H   UNL     1       6.688  12.007   3.988  1.00  0.00     0.164 HD
BRANCH  32  34
ATOM     34  C   UNL     1       4.863  10.903   4.280  1.00  0.00     0.175 C 
BRANCH  34  35
ATOM     35  C   UNL     1       3.845  10.636   3.160  1.00  0.00     0.070 C 
BRANCH  35  36
ATOM     36  C   UNL     1       3.616  11.843   2.279  1.00  0.00    -0.045 A 
ATOM     37  C   UNL     1       2.993  12.986   2.803  1.00  0.00     0.007 A 
ATOM     38  C   UNL     1       3.998  11.832   0.931  1.00  0.00     0.007 A 
ATOM     39  C   UNL     1       2.764  14.100   1.994  1.00  0.00     0.046 A 
ATOM     40  C   UNL     1       3.769  12.947   0.120  1.00  0.00     0.046 A 
ATOM     41  C   UNL     1       3.154  14.072   0.660  1.00  0.00     0.115 A 
BRANCH  41  42
ATOM     42  O   UNL     1       2.910  15.179  -0.097  1.00  0.00    -0.508 OA
ATOM     43  H   UNL     1       1.954  15.348  -0.090  1.00  0.00     0.293 HD
ENDBRANCH  41  42
ENDBRANCH  35  36
ENDBRANCH  34  35
BRANCH  34  44
ATOM     44  C   UNL     1       4.952   9.721   5.272  1.00  0.00     0.243 C 
ATOM     45  O   UNL     1       5.751   9.655   6.202  1.00  0.00    -0.273 OA
ATOM     46  N   UNL     1       4.131   8.664   4.942  1.00  0.00    -0.341 N 
ATOM     47  H   UNL     1       3.572   8.719   4.094  1.00  0.00     0.164 HD
BRANCH  46  48
ATOM     48  C   UNL     1       4.092   7.407   5.694  1.00  0.00     0.196 C 
BRANCH  48  49
ATOM     49  C   UNL     1       2.693   7.144   6.273  1.00  0.00     0.072 C 
BRANCH  49  50
ATOM     50  C   UNL     1       2.733   6.732   7.728  1.00  0.00    -0.045 A 
ATOM     51  C   UNL     1       1.971   7.431   8.674  1.00  0.00     0.007 A 
ATOM     52  C   UNL     1       3.541   5.669   8.153  1.00  0.00     0.007 A 
ATOM     53  C   UNL     1       2.011   7.068  10.020  1.00  0.00     0.046 A 
ATOM     54  C   UNL     1       3.582   5.307   9.501  1.00  0.00     0.046 A 
ATOM     55  C   UNL     1       2.815   6.009  10.424  1.00  0.00     0.115 A 
BRANCH  55  56
ATOM     56  O   UNL     1       2.827   5.688  11.749  1.00  0.00    -0.508 OA
ATOM     57  H   UNL     1       3.282   6.396  12.231  1.00  0.00     0.293 HD
ENDBRANCH  55  56
ENDBRANCH  49  50
ENDBRANCH  48  49
BRANCH  48  58
ATOM     58  C   UNL     1       4.488   6.255   4.760  1.00  0.00     0.326 C 
ATOM     59  O   UNL     1       4.032   5.123   4.749  1.00  0.00    -0.250 OA
BRANCH  58  60
ATOM     60  O   UNL     1       5.445   6.592   3.859  1.00  0.00    -0.480 OA
ATOM     61  H   UNL     1       5.595   5.757   3.365  1.00  0.00     0.296 HD
ENDBRANCH  58  60
ENDBRANCH  48  58
ENDBRANCH  46  48
ENDBRANCH  34  44
ENDBRANCH  32  34
ENDBRANCH  25  30
ENDBRANCH  23  25
ENDBRANCH   2  23
TORSDOF 28
ENDMDL
MODEL 43
REMARK VINA RESULT:    -5.885      3.553      6.338
REMARK INTER + INTRA:         -18.625
REMARK INTER:                 -14.189
REMARK INTRA:                  -4.436
REMARK UNBOUND:                -3.967
REMARK SMILES CCCCCCC[C@H](N)[C@H](O)C(=O)N[C@H](C)C(=O)N(C)[C@H](CC(C)C)C(=O)N[C@@H](Cc1ccc(O)cc1)C(=O)N[C@@H](Cc1ccc(O)cc1)C(=O)O
REMARK SMILES IDX 18 1 17 2 15 3 16 4 14 5 12 6 13 7 10 9 11 10 8 12 9 13 7 16
REMARK SMILES IDX 6 17 5 18 4 19 3 20 2 21 1 22 19 23 20 24 21 25 22 26 23 27
REMARK SMILES IDX 24 28 25 29 26 30 27 31 28 32 29 34 30 35 31 36 32 37 37 38
REMARK SMILES IDX 33 39 36 40 34 41 35 42 38 44 39 45 40 46 41 48 42 49 43 50
REMARK SMILES IDX 44 51 49 52 45 53 48 54 46 55 47 56 50 58 51 59 52 60
REMARK H PARENT 14 8 11 11 9 14 9 15 28 33 35 43 40 47 47 57 52 61
ROOT
ATOM      1  O   UNL     1       3.226  10.920   5.065  1.00  0.00    -0.272 OA
ATOM      2  C   UNL     1       4.156  11.725   4.907  1.00  0.00     0.245 C 
ENDROOT
BRANCH   2   3
ATOM      3  C   UNL     1       4.917  11.723   3.558  1.00  0.00     0.168 C 
ATOM      4  C   UNL     1       5.393  13.128   3.202  1.00  0.00     0.041 C 
BRANCH   3   5
ATOM      5  N   UNL     1       5.991  10.747   3.463  1.00  0.00    -0.342 N 
ATOM      6  C   UNL     1       5.871   9.604   2.702  1.00  0.00     0.251 C 
ATOM      7  O   UNL     1       4.852   9.304   2.088  1.00  0.00    -0.272 OA
ATOM      8  H   UNL     1       6.872  10.870   3.957  1.00  0.00     0.164 HD
BRANCH   6   9
ATOM      9  C   UNL     1       7.175   8.794   2.635  1.00  0.00     0.219 C 
BRANCH   9  10
ATOM     10  O   UNL     1       6.953   7.411   2.331  1.00  0.00    -0.382 OA
ATOM     11  H   UNL     1       6.576   7.049   3.163  1.00  0.00     0.211 HD
ENDBRANCH   9  10
BRANCH   9  12
ATOM     12  C   UNL     1       8.225   9.407   1.673  1.00  0.00     0.089 C 
BRANCH  12  13
ATOM     13  N   UNL     1       7.518  10.267   0.697  1.00  0.00    -0.325 NA
ATOM     14  H   UNL     1       8.132  11.035   0.418  1.00  0.00     0.119 HD
ATOM     15  H   UNL     1       6.726  10.715   1.163  1.00  0.00     0.119 HD
ENDBRANCH  12  13
BRANCH  12  16
ATOM     16  C   UNL     1       9.377  10.197   2.340  1.00  0.00     0.022 C 
BRANCH  16  17
ATOM     17  C   UNL     1      10.819   9.700   2.170  1.00  0.00     0.002 C 
BRANCH  17  18
ATOM     18  C   UNL     1      11.833  10.780   1.797  1.00  0.00     0.000 C 
BRANCH  18  19
ATOM     19  C   UNL     1      12.803  11.142   2.930  1.00  0.00    -0.000 C 
BRANCH  19  20
ATOM     20  C   UNL     1      12.570  12.513   3.572  1.00  0.00    -0.000 C 
BRANCH  20  21
ATOM     21  C   UNL     1      11.364  12.535   4.515  1.00  0.00    -0.003 C 
ATOM     22  C   UNL     1      11.329  13.811   5.341  1.00  0.00     0.004 C 
ENDBRANCH  20  21
ENDBRANCH  19  20
ENDBRANCH  18  19
ENDBRANCH  17  18
ENDBRANCH  16  17
ENDBRANCH  12  16
ENDBRANCH   9  12
ENDBRANCH   6   9
ENDBRANCH   3   5
ENDBRANCH   2   3
BRANCH   2  23
ATOM     23  N   UNL     1       4.417  12.685   5.879  1.00  0.00    -0.332 N 
ATOM     24  C   UNL     1       3.863  14.031   5.881  1.00  0.00     0.147 C 
BRANCH  23  25
ATOM     25  C   UNL     1       5.212  12.332   7.087  1.00  0.00     0.174 C 
BRANCH  25  26
ATOM     26  C   UNL     1       6.238  11.204   6.826  1.00  0.00     0.038 C 
BRANCH  26  27
ATOM     27  C   UNL     1       7.705  11.632   6.595  1.00  0.00    -0.015 C 
ATOM     28  C   UNL     1       8.513  10.569   5.851  1.00  0.00     0.007 C 
ATOM     29  C   UNL     1       7.841  12.988   5.908  1.00  0.00     0.007 C 
ENDBRANCH  26  27
ENDBRANCH  25  26
BRANCH  25  30
ATOM     30  C   UNL     1       4.270  12.051   8.281  1.00  0.00     0.243 C 
ATOM     31  O   UNL     1       4.144  12.846   9.211  1.00  0.00    -0.273 OA
ATOM     32  N   UNL     1       3.593  10.859   8.234  1.00  0.00    -0.342 N 
ATOM     33  H   UNL     1       3.642  10.321   7.365  1.00  0.00     0.164 HD
BRANCH  32  34
ATOM     34  C   UNL     1       2.680  10.415   9.290  1.00  0.00     0.175 C 
BRANCH  34  35
ATOM     35  C   UNL     1       1.221  10.752   8.945  1.00  0.00     0.070 C 
BRANCH  35  36
ATOM     36  C   UNL     1       0.628  11.794   9.867  1.00  0.00    -0.045 A 
ATOM     37  C   UNL     1       0.210  11.433  11.157  1.00  0.00     0.007 A 
ATOM     38  C   UNL     1       0.467  13.120   9.445  1.00  0.00     0.007 A 
ATOM     39  C   UNL     1      -0.351  12.384  12.010  1.00  0.00     0.046 A 
ATOM     40  C   UNL     1      -0.095  14.072  10.298  1.00  0.00     0.046 A 
ATOM     41  C   UNL     1      -0.498  13.695  11.575  1.00  0.00     0.115 A 
BRANCH  41  42
ATOM     42  O   UNL     1      -1.054  14.593  12.438  1.00  0.00    -0.508 OA
ATOM     43  H   UNL     1      -0.904  15.486  12.087  1.00  0.00     0.293 HD
ENDBRANCH  41  42
ENDBRANCH  35  36
ENDBRANCH  34  35
BRANCH  34  44
ATOM     44  C   UNL     1       2.888   8.897   9.495  1.00  0.00     0.243 C 
ATOM     45  O   UNL     1       3.882   8.397  10.014  1.00  0.00    -0.273 OA
ATOM     46  N   UNL     1       1.902   8.125   8.918  1.00  0.00    -0.341 N 
ATOM     47  H   UNL     1       1.158   8.582   8.397  1.00  0.00     0.164 HD
BRANCH  46  48
ATOM     48  C   UNL     1       1.919   6.660   8.923  1.00  0.00     0.196 C 
BRANCH  48  49
ATOM     49  C   UNL     1       3.301   6.115   8.525  1.00  0.00     0.072 C 
BRANCH  49  50
ATOM     50  C   UNL     1       3.571   6.241   7.043  1.00  0.00    -0.045 A 
ATOM     51  C   UNL     1       3.867   5.097   6.287  1.00  0.00     0.007 A 
ATOM     52  C   UNL     1       3.551   7.490   6.410  1.00  0.00     0.007 A 
ATOM     53  C   UNL     1       4.130   5.201   4.921  1.00  0.00     0.046 A 
ATOM     54  C   UNL     1       3.816   7.595   5.042  1.00  0.00     0.046 A 
ATOM     55  C   UNL     1       4.103   6.448   4.309  1.00  0.00     0.115 A 
BRANCH  55  56
ATOM     56  O   UNL     1       4.368   6.508   2.973  1.00  0.00    -0.508 OA
ATOM     57  H   UNL     1       4.347   7.439   2.698  1.00  0.00     0.293 HD
ENDBRANCH  55  56
ENDBRANCH  49  50
ENDBRANCH  48  49
BRANCH  48  58
ATOM     58  C   UNL     1       1.554   6.162  10.328  1.00  0.00     0.326 C 
ATOM     59  O   UNL     1       0.709   6.621  11.079  1.00  0.00    -0.250 OA
BRANCH  58  60
ATOM     60  O   UNL     1       2.273   5.080  10.723  1.00  0.00    -0.480 OA
ATOM     61  H   UNL     1       2.356   5.206  11.693  1.00  0.00     0.296 HD
ENDBRANCH  58  60
ENDBRANCH  48  58
ENDBRANCH  46  48
ENDBRANCH  34  44
ENDBRANCH  32  34
ENDBRANCH  25  30
ENDBRANCH  23  25
ENDBRANCH   2  23
TORSDOF 28
ENDMDL
MODEL 44
REMARK VINA RESULT:    -5.863      2.468      4.381
REMARK INTER + INTRA:         -18.569
REMARK INTER:                 -14.294
REMARK INTRA:                  -4.275
REMARK UNBOUND:                -3.967
REMARK SMILES CCCCCCC[C@H](N)[C@H](O)C(=O)N[C@H](C)C(=O)N(C)[C@H](CC(C)C)C(=O)N[C@@H](Cc1ccc(O)cc1)C(=O)N[C@@H](Cc1ccc(O)cc1)C(=O)O
REMARK SMILES IDX 18 1 17 2 15 3 16 4 14 5 12 6 13 7 10 9 11 10 8 12 9 13 7 16
REMARK SMILES IDX 6 17 5 18 4 19 3 20 2 21 1 22 19 23 20 24 21 25 22 26 23 27
REMARK SMILES IDX 24 28 25 29 26 30 27 31 28 32 29 34 30 35 31 36 32 37 37 38
REMARK SMILES IDX 33 39 36 40 34 41 35 42 38 44 39 45 40 46 41 48 42 49 43 50
REMARK SMILES IDX 44 51 49 52 45 53 48 54 46 55 47 56 50 58 51 59 52 60
REMARK H PARENT 14 8 11 11 9 14 9 15 28 33 35 43 40 47 47 57 52 61
ROOT
ATOM      1  O   UNL     1      10.832  11.826   5.092  1.00  0.00    -0.272 OA
ATOM      2  C   UNL     1      10.696  10.939   4.236  1.00  0.00     0.245 C 
ENDROOT
BRANCH   2   3
ATOM      3  C   UNL     1      11.782  10.793   3.142  1.00  0.00     0.168 C 
ATOM      4  C   UNL     1      11.453   9.637   2.203  1.00  0.00     0.041 C 
BRANCH   3   5
ATOM      5  N   UNL     1      12.083  12.014   2.412  1.00  0.00    -0.342 N 
ATOM      6  C   UNL     1      13.348  12.286   1.936  1.00  0.00     0.251 C 
ATOM      7  O   UNL     1      14.313  11.552   2.124  1.00  0.00    -0.272 OA
ATOM      8  H   UNL     1      11.370  12.716   2.224  1.00  0.00     0.164 HD
BRANCH   6   9
ATOM      9  C   UNL     1      13.400  13.559   1.076  1.00  0.00     0.219 C 
BRANCH   9  10
ATOM     10  O   UNL     1      14.737  14.024   0.857  1.00  0.00    -0.382 OA
ATOM     11  H   UNL     1      15.270  13.507   1.500  1.00  0.00     0.211 HD
ENDBRANCH   9  10
BRANCH   9  12
ATOM     12  C   UNL     1      12.639  13.416  -0.268  1.00  0.00     0.089 C 
BRANCH  12  13
ATOM     13  N   UNL     1      11.214  13.744  -0.036  1.00  0.00    -0.325 NA
ATOM     14  H   UNL     1      10.630  13.107  -0.581  1.00  0.00     0.119 HD
ATOM     15  H   UNL     1      11.022  14.674  -0.416  1.00  0.00     0.119 HD
ENDBRANCH  12  13
BRANCH  12  16
ATOM     16  C   UNL     1      13.190  14.249  -1.451  1.00  0.00     0.022 C 
BRANCH  16  17
ATOM     17  C   UNL     1      14.111  13.573  -2.475  1.00  0.00     0.002 C 
BRANCH  17  18
ATOM     18  C   UNL     1      13.805  12.101  -2.745  1.00  0.00     0.000 C 
BRANCH  18  19
ATOM     19  C   UNL     1      12.839  11.868  -3.914  1.00  0.00    -0.000 C 
BRANCH  19  20
ATOM     20  C   UNL     1      11.775  10.793  -3.674  1.00  0.00    -0.000 C 
BRANCH  20  21
ATOM     21  C   UNL     1      10.691  11.232  -2.686  1.00  0.00    -0.003 C 
ATOM     22  C   UNL     1      10.738  10.409  -1.409  1.00  0.00     0.004 C 
ENDBRANCH  20  21
ENDBRANCH  19  20
ENDBRANCH  18  19
ENDBRANCH  17  18
ENDBRANCH  16  17
ENDBRANCH  12  16
ENDBRANCH   9  12
ENDBRANCH   6   9
ENDBRANCH   3   5
ENDBRANCH   2   3
BRANCH   2  23
ATOM     23  N   UNL     1       9.653  10.025   4.342  1.00  0.00    -0.332 N 
ATOM     24  C   UNL     1       9.709   8.793   5.114  1.00  0.00     0.147 C 
BRANCH  23  25
ATOM     25  C   UNL     1       8.322  10.332   3.748  1.00  0.00     0.174 C 
BRANCH  25  26
ATOM     26  C   UNL     1       8.400  11.362   2.596  1.00  0.00     0.038 C 
BRANCH  26  27
ATOM     27  C   UNL     1       7.589  11.047   1.320  1.00  0.00    -0.015 C 
ATOM     28  C   UNL     1       7.852  12.051   0.198  1.00  0.00     0.007 C 
ATOM     29  C   UNL     1       7.777   9.618   0.817  1.00  0.00     0.007 C 
ENDBRANCH  26  27
ENDBRANCH  25  26
BRANCH  25  30
ATOM     30  C   UNL     1       7.320  10.717   4.860  1.00  0.00     0.243 C 
ATOM     31  O   UNL     1       7.693  11.112   5.963  1.00  0.00    -0.273 OA
ATOM     32  N   UNL     1       5.994  10.583   4.535  1.00  0.00    -0.342 N 
ATOM     33  H   UNL     1       5.763  10.387   3.558  1.00  0.00     0.164 HD
BRANCH  32  34
ATOM     34  C   UNL     1       4.906  10.876   5.472  1.00  0.00     0.175 C 
BRANCH  34  35
ATOM     35  C   UNL     1       3.662  11.399   4.738  1.00  0.00     0.070 C 
BRANCH  35  36
ATOM     36  C   UNL     1       3.824  11.392   3.235  1.00  0.00    -0.045 A 
ATOM     37  C   UNL     1       3.782  10.179   2.530  1.00  0.00     0.007 A 
ATOM     38  C   UNL     1       4.040  12.583   2.529  1.00  0.00     0.007 A 
ATOM     39  C   UNL     1       3.944  10.161   1.145  1.00  0.00     0.046 A 
ATOM     40  C   UNL     1       4.204  12.565   1.142  1.00  0.00     0.046 A 
ATOM     41  C   UNL     1       4.153  11.353   0.462  1.00  0.00     0.115 A 
BRANCH  41  42
ATOM     42  O   UNL     1       4.309  11.291  -0.891  1.00  0.00    -0.508 OA
ATOM     43  H   UNL     1       5.068  11.846  -1.136  1.00  0.00     0.293 HD
ENDBRANCH  41  42
ENDBRANCH  35  36
ENDBRANCH  34  35
BRANCH  34  44
ATOM     44  C   UNL     1       4.605   9.589   6.273  1.00  0.00     0.243 C 
ATOM     45  O   UNL     1       4.755   9.476   7.487  1.00  0.00    -0.273 OA
ATOM     46  N   UNL     1       4.269   8.514   5.478  1.00  0.00    -0.341 N 
ATOM     47  H   UNL     1       4.271   8.627   4.468  1.00  0.00     0.164 HD
BRANCH  46  48
ATOM     48  C   UNL     1       4.007   7.173   6.006  1.00  0.00     0.196 C 
BRANCH  48  49
ATOM     49  C   UNL     1       2.564   7.048   6.525  1.00  0.00     0.072 C 
BRANCH  49  50
ATOM     50  C   UNL     1       2.503   6.652   7.983  1.00  0.00    -0.045 A 
ATOM     51  C   UNL     1       3.525   5.869   8.538  1.00  0.00     0.007 A 
ATOM     52  C   UNL     1       1.425   7.038   8.790  1.00  0.00     0.007 A 
ATOM     53  C   UNL     1       3.473   5.486   9.878  1.00  0.00     0.046 A 
ATOM     54  C   UNL     1       1.372   6.655  10.132  1.00  0.00     0.046 A 
ATOM     55  C   UNL     1       2.398   5.882  10.665  1.00  0.00     0.115 A 
BRANCH  55  56
ATOM     56  O   UNL     1       2.383   5.486  11.970  1.00  0.00    -0.508 OA
ATOM     57  H   UNL     1       1.481   5.210  12.195  1.00  0.00     0.293 HD
ENDBRANCH  55  56
ENDBRANCH  49  50
ENDBRANCH  48  49
BRANCH  48  58
ATOM     58  C   UNL     1       4.244   6.143   4.892  1.00  0.00     0.326 C 
ATOM     59  O   UNL     1       3.697   5.061   4.758  1.00  0.00    -0.250 OA
BRANCH  58  60
ATOM     60  O   UNL     1       5.165   6.539   3.977  1.00  0.00    -0.480 OA
ATOM     61  H   UNL     1       5.966   6.707   4.520  1.00  0.00     0.296 HD
ENDBRANCH  58  60
ENDBRANCH  48  58
ENDBRANCH  46  48
ENDBRANCH  34  44
ENDBRANCH  32  34
ENDBRANCH  25  30
ENDBRANCH  23  25
ENDBRANCH   2  23
TORSDOF 28
ENDMDL
MODEL 45
REMARK VINA RESULT:    -5.862      4.783     11.730
REMARK INTER + INTRA:         -18.567
REMARK INTER:                 -13.989
REMARK INTRA:                  -4.578
REMARK UNBOUND:                -3.967
REMARK SMILES CCCCCCC[C@H](N)[C@H](O)C(=O)N[C@H](C)C(=O)N(C)[C@H](CC(C)C)C(=O)N[C@@H](Cc1ccc(O)cc1)C(=O)N[C@@H](Cc1ccc(O)cc1)C(=O)O
REMARK SMILES IDX 18 1 17 2 15 3 16 4 14 5 12 6 13 7 10 9 11 10 8 12 9 13 7 16
REMARK SMILES IDX 6 17 5 18 4 19 3 20 2 21 1 22 19 23 20 24 21 25 22 26 23 27
REMARK SMILES IDX 24 28 25 29 26 30 27 31 28 32 29 34 30 35 31 36 32 37 37 38
REMARK SMILES IDX 33 39 36 40 34 41 35 42 38 44 39 45 40 46 41 48 42 49 43 50
REMARK SMILES IDX 44 51 49 52 45 53 48 54 46 55 47 56 50 58 51 59 52 60
REMARK H PARENT 14 8 11 11 9 14 9 15 28 33 35 43 40 47 47 57 52 61
ROOT
ATOM      1  O   UNL     1       1.784  15.842   9.004  1.00  0.00    -0.272 OA
ATOM      2  C   UNL     1       2.609  15.045   8.535  1.00  0.00     0.245 C 
ENDROOT
BRANCH   2   3
ATOM      3  C   UNL     1       3.741  14.524   9.455  1.00  0.00     0.168 C 
ATOM      4  C   UNL     1       4.256  15.635  10.363  1.00  0.00     0.041 C 
BRANCH   3   5
ATOM      5  N   UNL     1       3.414  13.320  10.203  1.00  0.00    -0.342 N 
ATOM      6  C   UNL     1       4.349  12.335  10.442  1.00  0.00     0.251 C 
ATOM      7  O   UNL     1       5.498  12.375  10.015  1.00  0.00    -0.272 OA
ATOM      8  H   UNL     1       2.483  13.158  10.579  1.00  0.00     0.164 HD
BRANCH   6   9
ATOM      9  C   UNL     1       3.823  11.228  11.371  1.00  0.00     0.219 C 
BRANCH   9  10
ATOM     10  O   UNL     1       4.495  11.202  12.636  1.00  0.00    -0.382 OA
ATOM     11  H   UNL     1       3.761  11.184  13.287  1.00  0.00     0.211 HD
ENDBRANCH   9  10
BRANCH   9  12
ATOM     12  C   UNL     1       2.285  11.277  11.565  1.00  0.00     0.089 C 
BRANCH  12  13
ATOM     13  N   UNL     1       1.720   9.973  11.150  1.00  0.00    -0.325 NA
ATOM     14  H   UNL     1       1.569   9.978  10.140  1.00  0.00     0.119 HD
ATOM     15  H   UNL     1       0.788   9.871  11.559  1.00  0.00     0.119 HD
ENDBRANCH  12  13
BRANCH  12  16
ATOM     16  C   UNL     1       1.793  11.642  12.986  1.00  0.00     0.022 C 
BRANCH  16  17
ATOM     17  C   UNL     1       1.390  13.092  13.288  1.00  0.00     0.002 C 
BRANCH  17  18
ATOM     18  C   UNL     1      -0.111  13.368  13.238  1.00  0.00     0.000 C 
BRANCH  18  19
ATOM     19  C   UNL     1      -0.664  13.562  11.820  1.00  0.00    -0.000 C 
BRANCH  19  20
ATOM     20  C   UNL     1      -1.645  12.483  11.351  1.00  0.00    -0.000 C 
BRANCH  20  21
ATOM     21  C   UNL     1      -2.439  12.894  10.109  1.00  0.00    -0.003 C 
ATOM     22  C   UNL     1      -2.789  14.373  10.138  1.00  0.00     0.004 C 
ENDBRANCH  20  21
ENDBRANCH  19  20
ENDBRANCH  18  19
ENDBRANCH  17  18
ENDBRANCH  16  17
ENDBRANCH  12  16
ENDBRANCH   9  12
ENDBRANCH   6   9
ENDBRANCH   3   5
ENDBRANCH   2   3
BRANCH   2  23
ATOM     23  N   UNL     1       2.440  14.544   7.249  1.00  0.00    -0.332 N 
ATOM     24  C   UNL     1       3.226  14.951   6.094  1.00  0.00     0.147 C 
BRANCH  23  25
ATOM     25  C   UNL     1       1.489  13.427   6.997  1.00  0.00     0.174 C 
BRANCH  25  26
ATOM     26  C   UNL     1       0.071  13.707   7.548  1.00  0.00     0.038 C 
BRANCH  26  27
ATOM     27  C   UNL     1      -1.067  13.844   6.512  1.00  0.00    -0.015 C 
ATOM     28  C   UNL     1      -2.076  12.699   6.596  1.00  0.00     0.007 C 
ATOM     29  C   UNL     1      -1.781  15.193   6.569  1.00  0.00     0.007 C 
ENDBRANCH  26  27
ENDBRANCH  25  26
BRANCH  25  30
ATOM     30  C   UNL     1       2.094  12.092   7.490  1.00  0.00     0.243 C 
ATOM     31  O   UNL     1       1.603  11.462   8.425  1.00  0.00    -0.273 OA
ATOM     32  N   UNL     1       3.213  11.665   6.822  1.00  0.00    -0.342 N 
ATOM     33  H   UNL     1       3.476  12.167   5.970  1.00  0.00     0.164 HD
BRANCH  32  34
ATOM     34  C   UNL     1       3.935  10.439   7.169  1.00  0.00     0.175 C 
BRANCH  34  35
ATOM     35  C   UNL     1       3.239   9.197   6.591  1.00  0.00     0.070 C 
BRANCH  35  36
ATOM     36  C   UNL     1       2.754   8.246   7.662  1.00  0.00    -0.045 A 
ATOM     37  C   UNL     1       3.564   7.971   8.775  1.00  0.00     0.007 A 
ATOM     38  C   UNL     1       1.510   7.611   7.550  1.00  0.00     0.007 A 
ATOM     39  C   UNL     1       3.131   7.085   9.761  1.00  0.00     0.046 A 
ATOM     40  C   UNL     1       1.077   6.722   8.537  1.00  0.00     0.046 A 
ATOM     41  C   UNL     1       1.892   6.468   9.635  1.00  0.00     0.115 A 
BRANCH  41  42
ATOM     42  O   UNL     1       1.508   5.606  10.619  1.00  0.00    -0.508 OA
ATOM     43  H   UNL     1       0.586   5.348  10.455  1.00  0.00     0.293 HD
ENDBRANCH  41  42
ENDBRANCH  35  36
ENDBRANCH  34  35
BRANCH  34  44
ATOM     44  C   UNL     1       5.387  10.577   6.658  1.00  0.00     0.243 C 
ATOM     45  O   UNL     1       6.358  10.791   7.378  1.00  0.00    -0.273 OA
ATOM     46  N   UNL     1       5.488  10.568   5.283  1.00  0.00    -0.341 N 
ATOM     47  H   UNL     1       4.639  10.505   4.726  1.00  0.00     0.164 HD
BRANCH  46  48
ATOM     48  C   UNL     1       6.752  10.751   4.567  1.00  0.00     0.196 C 
BRANCH  48  49
ATOM     49  C   UNL     1       7.070   9.540   3.673  1.00  0.00     0.072 C 
BRANCH  49  50
ATOM     50  C   UNL     1       8.520   9.120   3.759  1.00  0.00    -0.045 A 
ATOM     51  C   UNL     1       9.254   8.898   2.584  1.00  0.00     0.007 A 
ATOM     52  C   UNL     1       9.143   8.925   4.998  1.00  0.00     0.007 A 
ATOM     53  C   UNL     1      10.588   8.497   2.651  1.00  0.00     0.046 A 
ATOM     54  C   UNL     1      10.478   8.522   5.065  1.00  0.00     0.046 A 
ATOM     55  C   UNL     1      11.190   8.313   3.889  1.00  0.00     0.115 A 
BRANCH  55  56
ATOM     56  O   UNL     1      12.495   7.918   3.910  1.00  0.00    -0.508 OA
ATOM     57  H   UNL     1      12.829   8.012   4.817  1.00  0.00     0.293 HD
ENDBRANCH  55  56
ENDBRANCH  49  50
ENDBRANCH  48  49
BRANCH  48  58
ATOM     58  C   UNL     1       6.658  12.017   3.704  1.00  0.00     0.326 C 
ATOM     59  O   UNL     1       6.787  12.097   2.493  1.00  0.00    -0.250 OA
BRANCH  58  60
ATOM     60  O   UNL     1       6.385  13.139   4.416  1.00  0.00    -0.480 OA
ATOM     61  H   UNL     1       6.267  13.824   3.723  1.00  0.00     0.296 HD
ENDBRANCH  58  60
ENDBRANCH  48  58
ENDBRANCH  46  48
ENDBRANCH  34  44
ENDBRANCH  32  34
ENDBRANCH  25  30
ENDBRANCH  23  25
ENDBRANCH   2  23
TORSDOF 28
ENDMDL
MODEL 46
REMARK VINA RESULT:    -5.827      2.800     12.861
REMARK INTER + INTRA:         -18.481
REMARK INTER:                 -14.931
REMARK INTRA:                  -3.550
REMARK UNBOUND:                -3.967
REMARK SMILES CCCCCCC[C@H](N)[C@H](O)C(=O)N[C@H](C)C(=O)N(C)[C@H](CC(C)C)C(=O)N[C@@H](Cc1ccc(O)cc1)C(=O)N[C@@H](Cc1ccc(O)cc1)C(=O)O
REMARK SMILES IDX 18 1 17 2 15 3 16 4 14 5 12 6 13 7 10 9 11 10 8 12 9 13 7 16
REMARK SMILES IDX 6 17 5 18 4 19 3 20 2 21 1 22 19 23 20 24 21 25 22 26 23 27
REMARK SMILES IDX 24 28 25 29 26 30 27 31 28 32 29 34 30 35 31 36 32 37 37 38
REMARK SMILES IDX 33 39 36 40 34 41 35 42 38 44 39 45 40 46 41 48 42 49 43 50
REMARK SMILES IDX 44 51 49 52 45 53 48 54 46 55 47 56 50 58 51 59 52 60
REMARK H PARENT 14 8 11 11 9 14 9 15 28 33 35 43 40 47 47 57 52 61
ROOT
ATOM      1  O   UNL     1       5.188  10.387   1.039  1.00  0.00    -0.272 OA
ATOM      2  C   UNL     1       5.498   9.849   2.112  1.00  0.00     0.245 C 
ENDROOT
BRANCH   2   3
ATOM      3  C   UNL     1       4.809  10.335   3.412  1.00  0.00     0.168 C 
ATOM      4  C   UNL     1       4.078  11.652   3.177  1.00  0.00     0.041 C 
BRANCH   3   5
ATOM      5  N   UNL     1       3.956   9.349   4.056  1.00  0.00    -0.342 N 
ATOM      6  C   UNL     1       4.413   8.551   5.084  1.00  0.00     0.251 C 
ATOM      7  O   UNL     1       5.566   8.579   5.501  1.00  0.00    -0.272 OA
ATOM      8  H   UNL     1       2.989   9.209   3.773  1.00  0.00     0.164 HD
BRANCH   6   9
ATOM      9  C   UNL     1       3.302   7.688   5.705  1.00  0.00     0.219 C 
BRANCH   9  10
ATOM     10  O   UNL     1       3.274   6.358   5.174  1.00  0.00    -0.382 OA
ATOM     11  H   UNL     1       3.484   5.794   5.951  1.00  0.00     0.211 HD
ENDBRANCH   9  10
BRANCH   9  12
ATOM     12  C   UNL     1       3.348   7.661   7.256  1.00  0.00     0.089 C 
BRANCH  12  13
ATOM     13  N   UNL     1       2.351   8.629   7.769  1.00  0.00    -0.325 NA
ATOM     14  H   UNL     1       2.144   8.412   8.746  1.00  0.00     0.119 HD
ATOM     15  H   UNL     1       1.468   8.490   7.272  1.00  0.00     0.119 HD
ENDBRANCH  12  13
BRANCH  12  16
ATOM     16  C   UNL     1       3.135   6.278   7.916  1.00  0.00     0.022 C 
BRANCH  16  17
ATOM     17  C   UNL     1       2.535   6.209   9.327  1.00  0.00     0.002 C 
BRANCH  17  18
ATOM     18  C   UNL     1       3.167   5.165  10.246  1.00  0.00     0.000 C 
BRANCH  18  19
ATOM     19  C   UNL     1       2.763   5.305  11.720  1.00  0.00    -0.000 C 
BRANCH  19  20
ATOM     20  C   UNL     1       1.971   4.126  12.291  1.00  0.00    -0.000 C 
BRANCH  20  21
ATOM     21  C   UNL     1       0.617   4.539  12.874  1.00  0.00    -0.003 C 
ATOM     22  C   UNL     1      -0.319   5.056  11.792  1.00  0.00     0.004 C 
ENDBRANCH  20  21
ENDBRANCH  19  20
ENDBRANCH  18  19
ENDBRANCH  17  18
ENDBRANCH  16  17
ENDBRANCH  12  16
ENDBRANCH   9  12
ENDBRANCH   6   9
ENDBRANCH   3   5
ENDBRANCH   2   3
BRANCH   2  23
ATOM     23  N   UNL     1       6.355   8.753   2.119  1.00  0.00    -0.332 N 
ATOM     24  C   UNL     1       5.919   7.364   2.122  1.00  0.00     0.147 C 
BRANCH  23  25
ATOM     25  C   UNL     1       7.825   8.948   1.991  1.00  0.00     0.174 C 
BRANCH  25  26
ATOM     26  C   UNL     1       8.446   9.665   3.212  1.00  0.00     0.038 C 
BRANCH  26  27
ATOM     27  C   UNL     1       9.537   8.899   3.994  1.00  0.00    -0.015 C 
ATOM     28  C   UNL     1      10.771   8.606   3.140  1.00  0.00     0.007 C 
ATOM     29  C   UNL     1       9.937   9.577   5.301  1.00  0.00     0.007 C 
ENDBRANCH  26  27
ENDBRANCH  25  26
BRANCH  25  30
ATOM     30  C   UNL     1       8.157   9.622   0.639  1.00  0.00     0.243 C 
ATOM     31  O   UNL     1       7.774   9.154  -0.432  1.00  0.00    -0.273 OA
ATOM     32  N   UNL     1       8.906  10.768   0.716  1.00  0.00    -0.342 N 
ATOM     33  H   UNL     1       9.064  11.169   1.644  1.00  0.00     0.164 HD
BRANCH  32  34
ATOM     34  C   UNL     1       9.337  11.524  -0.462  1.00  0.00     0.175 C 
BRANCH  34  35
ATOM     35  C   UNL     1       9.167  13.036  -0.249  1.00  0.00     0.070 C 
BRANCH  35  36
ATOM     36  C   UNL     1       9.146  13.812  -1.547  1.00  0.00    -0.045 A 
ATOM     37  C   UNL     1       9.738  15.082  -1.615  1.00  0.00     0.007 A 
ATOM     38  C   UNL     1       8.519  13.290  -2.686  1.00  0.00     0.007 A 
ATOM     39  C   UNL     1       9.712  15.810  -2.805  1.00  0.00     0.046 A 
ATOM     40  C   UNL     1       8.490  14.019  -3.876  1.00  0.00     0.046 A 
ATOM     41  C   UNL     1       9.089  15.274  -3.925  1.00  0.00     0.115 A 
BRANCH  41  42
ATOM     42  O   UNL     1       9.082  16.020  -5.067  1.00  0.00    -0.508 OA
ATOM     43  H   UNL     1       8.791  16.919  -4.841  1.00  0.00     0.293 HD
ENDBRANCH  41  42
ENDBRANCH  35  36
ENDBRANCH  34  35
BRANCH  34  44
ATOM     44  C   UNL     1      10.805  11.146  -0.764  1.00  0.00     0.243 C 
ATOM     45  O   UNL     1      11.154  10.101  -1.307  1.00  0.00    -0.273 OA
ATOM     46  N   UNL     1      11.720  12.038  -0.247  1.00  0.00    -0.341 N 
ATOM     47  H   UNL     1      11.384  12.830   0.297  1.00  0.00     0.164 HD
BRANCH  46  48
ATOM     48  C   UNL     1      13.169  11.856  -0.347  1.00  0.00     0.196 C 
BRANCH  48  49
ATOM     49  C   UNL     1      13.785  12.816  -1.379  1.00  0.00     0.072 C 
BRANCH  49  50
ATOM     50  C   UNL     1      13.359  12.499  -2.794  1.00  0.00    -0.045 A 
ATOM     51  C   UNL     1      13.903  11.389  -3.457  1.00  0.00     0.007 A 
ATOM     52  C   UNL     1      12.439  13.312  -3.469  1.00  0.00     0.007 A 
ATOM     53  C   UNL     1      13.527  11.095  -4.768  1.00  0.00     0.046 A 
ATOM     54  C   UNL     1      12.064  13.019  -4.782  1.00  0.00     0.046 A 
ATOM     55  C   UNL     1      12.611  11.911  -5.420  1.00  0.00     0.115 A 
BRANCH  55  56
ATOM     56  O   UNL     1      12.272  11.590  -6.701  1.00  0.00    -0.508 OA
ATOM     57  H   UNL     1      11.475  11.036  -6.677  1.00  0.00     0.293 HD
ENDBRANCH  55  56
ENDBRANCH  49  50
ENDBRANCH  48  49
BRANCH  48  58
ATOM     58  C   UNL     1      13.800  12.106   1.030  1.00  0.00     0.326 C 
ATOM     59  O   UNL     1      13.688  11.417   2.031  1.00  0.00    -0.250 OA
BRANCH  58  60
ATOM     60  O   UNL     1      14.568  13.224   1.078  1.00  0.00    -0.480 OA
ATOM     61  H   UNL     1      15.054  13.202   0.225  1.00  0.00     0.296 HD
ENDBRANCH  58  60
ENDBRANCH  48  58
ENDBRANCH  46  48
ENDBRANCH  34  44
ENDBRANCH  32  34
ENDBRANCH  25  30
ENDBRANCH  23  25
ENDBRANCH   2  23
TORSDOF 28
ENDMDL
MODEL 47
REMARK VINA RESULT:    -5.818      2.822     12.117
REMARK INTER + INTRA:         -18.457
REMARK INTER:                 -14.636
REMARK INTRA:                  -3.820
REMARK UNBOUND:                -3.967
REMARK SMILES CCCCCCC[C@H](N)[C@H](O)C(=O)N[C@H](C)C(=O)N(C)[C@H](CC(C)C)C(=O)N[C@@H](Cc1ccc(O)cc1)C(=O)N[C@@H](Cc1ccc(O)cc1)C(=O)O
REMARK SMILES IDX 18 1 17 2 15 3 16 4 14 5 12 6 13 7 10 9 11 10 8 12 9 13 7 16
REMARK SMILES IDX 6 17 5 18 4 19 3 20 2 21 1 22 19 23 20 24 21 25 22 26 23 27
REMARK SMILES IDX 24 28 25 29 26 30 27 31 28 32 29 34 30 35 31 36 32 37 37 38
REMARK SMILES IDX 33 39 36 40 34 41 35 42 38 44 39 45 40 46 41 48 42 49 43 50
REMARK SMILES IDX 44 51 49 52 45 53 48 54 46 55 47 56 50 58 51 59 52 60
REMARK H PARENT 14 8 11 11 9 14 9 15 28 33 35 43 40 47 47 57 52 61
ROOT
ATOM      1  O   UNL     1       7.645  10.333   4.728  1.00  0.00    -0.272 OA
ATOM      2  C   UNL     1       7.575  10.352   3.490  1.00  0.00     0.245 C 
ENDROOT
BRANCH   2   3
ATOM      3  C   UNL     1       6.742   9.257   2.778  1.00  0.00     0.168 C 
ATOM      4  C   UNL     1       7.572   8.554   1.710  1.00  0.00     0.041 C 
BRANCH   3   5
ATOM      5  N   UNL     1       6.090   8.310   3.669  1.00  0.00    -0.342 N 
ATOM      6  C   UNL     1       4.771   7.943   3.502  1.00  0.00     0.251 C 
ATOM      7  O   UNL     1       4.045   8.409   2.631  1.00  0.00    -0.272 OA
ATOM      8  H   UNL     1       6.582   7.883   4.450  1.00  0.00     0.164 HD
BRANCH   6   9
ATOM      9  C   UNL     1       4.338   6.828   4.468  1.00  0.00     0.219 C 
BRANCH   9  10
ATOM     10  O   UNL     1       5.285   5.755   4.533  1.00  0.00    -0.382 OA
ATOM     11  H   UNL     1       6.090   6.131   4.114  1.00  0.00     0.211 HD
ENDBRANCH   9  10
BRANCH   9  12
ATOM     12  C   UNL     1       3.999   7.350   5.888  1.00  0.00     0.089 C 
BRANCH  12  13
ATOM     13  N   UNL     1       3.673   8.791   5.791  1.00  0.00    -0.325 NA
ATOM     14  H   UNL     1       3.758   9.089   4.818  1.00  0.00     0.119 HD
ATOM     15  H   UNL     1       4.382   9.326   6.297  1.00  0.00     0.119 HD
ENDBRANCH  12  13
BRANCH  12  16
ATOM     16  C   UNL     1       2.870   6.598   6.635  1.00  0.00     0.022 C 
BRANCH  16  17
ATOM     17  C   UNL     1       1.745   7.407   7.295  1.00  0.00     0.002 C 
BRANCH  17  18
ATOM     18  C   UNL     1       1.041   6.703   8.454  1.00  0.00     0.000 C 
BRANCH  18  19
ATOM     19  C   UNL     1       1.546   7.124   9.840  1.00  0.00    -0.000 C 
BRANCH  19  20
ATOM     20  C   UNL     1       1.248   6.133  10.969  1.00  0.00    -0.000 C 
BRANCH  20  21
ATOM     21  C   UNL     1       2.447   5.249  11.321  1.00  0.00    -0.003 C 
ATOM     22  C   UNL     1       2.061   4.163  12.314  1.00  0.00     0.004 C 
ENDBRANCH  20  21
ENDBRANCH  19  20
ENDBRANCH  18  19
ENDBRANCH  17  18
ENDBRANCH  16  17
ENDBRANCH  12  16
ENDBRANCH   9  12
ENDBRANCH   6   9
ENDBRANCH   3   5
ENDBRANCH   2   3
BRANCH   2  23
ATOM     23  N   UNL     1       8.133  11.409   2.778  1.00  0.00    -0.332 N 
ATOM     24  C   UNL     1       7.369  12.379   2.007  1.00  0.00     0.147 C 
BRANCH  23  25
ATOM     25  C   UNL     1       9.591  11.691   2.871  1.00  0.00     0.174 C 
BRANCH  25  26
ATOM     26  C   UNL     1       9.922  13.197   2.758  1.00  0.00     0.038 C 
BRANCH  26  27
ATOM     27  C   UNL     1      10.193  13.956   4.076  1.00  0.00    -0.015 C 
ATOM     28  C   UNL     1      10.404  13.013   5.260  1.00  0.00     0.007 C 
ATOM     29  C   UNL     1      11.341  14.957   3.976  1.00  0.00     0.007 C 
ENDBRANCH  26  27
ENDBRANCH  25  26
BRANCH  25  30
ATOM     30  C   UNL     1      10.369  10.806   1.870  1.00  0.00     0.243 C 
ATOM     31  O   UNL     1      11.126   9.912   2.244  1.00  0.00    -0.273 OA
ATOM     32  N   UNL     1      10.164  11.090   0.544  1.00  0.00    -0.342 N 
ATOM     33  H   UNL     1       9.417  11.750   0.311  1.00  0.00     0.164 HD
BRANCH  32  34
ATOM     34  C   UNL     1      10.838  10.374  -0.543  1.00  0.00     0.175 C 
BRANCH  34  35
ATOM     35  C   UNL     1      10.032  10.455  -1.849  1.00  0.00     0.070 C 
BRANCH  35  36
ATOM     36  C   UNL     1       8.817  11.347  -1.732  1.00  0.00    -0.045 A 
ATOM     37  C   UNL     1       7.539  10.781  -1.615  1.00  0.00     0.007 A 
ATOM     38  C   UNL     1       8.944  12.742  -1.762  1.00  0.00     0.007 A 
ATOM     39  C   UNL     1       6.411  11.596  -1.521  1.00  0.00     0.046 A 
ATOM     40  C   UNL     1       7.815  13.559  -1.669  1.00  0.00     0.046 A 
ATOM     41  C   UNL     1       6.557  12.978  -1.548  1.00  0.00     0.115 A 
BRANCH  41  42
ATOM     42  O   UNL     1       5.430  13.739  -1.456  1.00  0.00    -0.508 OA
ATOM     43  H   UNL     1       5.217  14.076  -2.342  1.00  0.00     0.293 HD
ENDBRANCH  41  42
ENDBRANCH  35  36
ENDBRANCH  34  35
BRANCH  34  44
ATOM     44  C   UNL     1      12.255  10.968  -0.701  1.00  0.00     0.243 C 
ATOM     45  O   UNL     1      13.148  10.463  -1.377  1.00  0.00    -0.273 OA
ATOM     46  N   UNL     1      12.482  12.068   0.099  1.00  0.00    -0.341 N 
ATOM     47  H   UNL     1      11.748  12.379   0.730  1.00  0.00     0.164 HD
BRANCH  46  48
ATOM     48  C   UNL     1      13.771  12.760   0.171  1.00  0.00     0.196 C 
BRANCH  48  49
ATOM     49  C   UNL     1      13.727  14.104  -0.575  1.00  0.00     0.072 C 
BRANCH  49  50
ATOM     50  C   UNL     1      13.337  13.952  -2.027  1.00  0.00    -0.045 A 
ATOM     51  C   UNL     1      14.220  13.339  -2.928  1.00  0.00     0.007 A 
ATOM     52  C   UNL     1      12.108  14.433  -2.497  1.00  0.00     0.007 A 
ATOM     53  C   UNL     1      13.876  13.205  -4.273  1.00  0.00     0.046 A 
ATOM     54  C   UNL     1      11.764  14.300  -3.845  1.00  0.00     0.046 A 
ATOM     55  C   UNL     1      12.652  13.685  -4.721  1.00  0.00     0.115 A 
BRANCH  55  56
ATOM     56  O   UNL     1      12.354  13.536  -6.044  1.00  0.00    -0.508 OA
ATOM     57  H   UNL     1      13.177  13.615  -6.553  1.00  0.00     0.293 HD
ENDBRANCH  55  56
ENDBRANCH  49  50
ENDBRANCH  48  49
BRANCH  48  58
ATOM     58  C   UNL     1      14.128  12.999   1.644  1.00  0.00     0.326 C 
ATOM     59  O   UNL     1      13.547  12.564   2.625  1.00  0.00    -0.250 OA
BRANCH  58  60
ATOM     60  O   UNL     1      15.226  13.777   1.816  1.00  0.00    -0.480 OA
ATOM     61  H   UNL     1      15.739  13.629   0.992  1.00  0.00     0.296 HD
ENDBRANCH  58  60
ENDBRANCH  48  58
ENDBRANCH  46  48
ENDBRANCH  34  44
ENDBRANCH  32  34
ENDBRANCH  25  30
ENDBRANCH  23  25
ENDBRANCH   2  23
TORSDOF 28
ENDMDL
MODEL 48
REMARK VINA RESULT:    -5.785      2.741      6.751
REMARK INTER + INTRA:         -18.376
REMARK INTER:                 -14.006
REMARK INTRA:                  -4.370
REMARK UNBOUND:                -3.967
REMARK SMILES CCCCCCC[C@H](N)[C@H](O)C(=O)N[C@H](C)C(=O)N(C)[C@H](CC(C)C)C(=O)N[C@@H](Cc1ccc(O)cc1)C(=O)N[C@@H](Cc1ccc(O)cc1)C(=O)O
REMARK SMILES IDX 18 1 17 2 15 3 16 4 14 5 12 6 13 7 10 9 11 10 8 12 9 13 7 16
REMARK SMILES IDX 6 17 5 18 4 19 3 20 2 21 1 22 19 23 20 24 21 25 22 26 23 27
REMARK SMILES IDX 24 28 25 29 26 30 27 31 28 32 29 34 30 35 31 36 32 37 37 38
REMARK SMILES IDX 33 39 36 40 34 41 35 42 38 44 39 45 40 46 41 48 42 49 43 50
REMARK SMILES IDX 44 51 49 52 45 53 48 54 46 55 47 56 50 58 51 59 52 60
REMARK H PARENT 14 8 11 11 9 14 9 15 28 33 35 43 40 47 47 57 52 61
ROOT
ATOM      1  O   UNL     1       8.620   9.563  -1.507  1.00  0.00    -0.272 OA
ATOM      2  C   UNL     1       8.591  10.801  -1.576  1.00  0.00     0.245 C 
ENDROOT
BRANCH   2   3
ATOM      3  C   UNL     1       9.324  11.495  -2.750  1.00  0.00     0.168 C 
ATOM      4  C   UNL     1       8.574  12.746  -3.193  1.00  0.00     0.041 C 
BRANCH   3   5
ATOM      5  N   UNL     1      10.735  11.763  -2.517  1.00  0.00    -0.342 N 
ATOM      6  C   UNL     1      11.724  11.157  -3.262  1.00  0.00     0.251 C 
ATOM      7  O   UNL     1      11.499  10.327  -4.137  1.00  0.00    -0.272 OA
ATOM      8  H   UNL     1      11.046  12.408  -1.794  1.00  0.00     0.164 HD
BRANCH   6   9
ATOM      9  C   UNL     1      13.126  11.696  -2.939  1.00  0.00     0.219 C 
BRANCH   9  10
ATOM     10  O   UNL     1      14.149  10.704  -3.093  1.00  0.00    -0.382 OA
ATOM     11  H   UNL     1      14.979  11.199  -2.918  1.00  0.00     0.211 HD
ENDBRANCH   9  10
BRANCH   9  12
ATOM     12  C   UNL     1      13.482  12.982  -3.730  1.00  0.00     0.089 C 
BRANCH  12  13
ATOM     13  N   UNL     1      12.565  13.087  -4.888  1.00  0.00    -0.325 NA
ATOM     14  H   UNL     1      12.636  14.024  -5.288  1.00  0.00     0.119 HD
ATOM     15  H   UNL     1      11.601  13.011  -4.555  1.00  0.00     0.119 HD
ENDBRANCH  12  13
BRANCH  12  16
ATOM     16  C   UNL     1      13.471  14.301  -2.921  1.00  0.00     0.022 C 
BRANCH  16  17
ATOM     17  C   UNL     1      14.651  14.618  -1.993  1.00  0.00     0.002 C 
BRANCH  17  18
ATOM     18  C   UNL     1      14.283  15.370  -0.716  1.00  0.00     0.000 C 
BRANCH  18  19
ATOM     19  C   UNL     1      14.176  14.477   0.527  1.00  0.00    -0.000 C 
BRANCH  19  20
ATOM     20  C   UNL     1      12.931  13.587   0.583  1.00  0.00    -0.000 C 
BRANCH  20  21
ATOM     21  C   UNL     1      13.263  12.094   0.641  1.00  0.00    -0.003 C 
ATOM     22  C   UNL     1      12.004  11.243   0.581  1.00  0.00     0.004 C 
ENDBRANCH  20  21
ENDBRANCH  19  20
ENDBRANCH  18  19
ENDBRANCH  17  18
ENDBRANCH  16  17
ENDBRANCH  12  16
ENDBRANCH   9  12
ENDBRANCH   6   9
ENDBRANCH   3   5
ENDBRANCH   2   3
BRANCH   2  23
ATOM     23  N   UNL     1       7.811  11.528  -0.683  1.00  0.00    -0.332 N 
ATOM     24  C   UNL     1       8.300  12.628   0.135  1.00  0.00     0.147 C 
BRANCH  23  25
ATOM     25  C   UNL     1       6.343  11.294  -0.605  1.00  0.00     0.174 C 
BRANCH  25  26
ATOM     26  C   UNL     1       5.514  12.470  -1.175  1.00  0.00     0.038 C 
BRANCH  26  27
ATOM     27  C   UNL     1       4.732  12.207  -2.481  1.00  0.00    -0.015 C 
ATOM     28  C   UNL     1       3.328  11.662  -2.221  1.00  0.00     0.007 C 
ATOM     29  C   UNL     1       4.675  13.417  -3.409  1.00  0.00     0.007 C 
ENDBRANCH  26  27
ENDBRANCH  25  26
BRANCH  25  30
ATOM     30  C   UNL     1       5.944  10.893   0.834  1.00  0.00     0.243 C 
ATOM     31  O   UNL     1       5.109  11.527   1.478  1.00  0.00    -0.273 OA
ATOM     32  N   UNL     1       6.585   9.793   1.342  1.00  0.00    -0.342 N 
ATOM     33  H   UNL     1       7.157   9.239   0.700  1.00  0.00     0.164 HD
BRANCH  32  34
ATOM     34  C   UNL     1       6.354   9.285   2.697  1.00  0.00     0.175 C 
BRANCH  34  35
ATOM     35  C   UNL     1       5.670   7.909   2.668  1.00  0.00     0.070 C 
BRANCH  35  36
ATOM     36  C   UNL     1       4.854   7.635   3.912  1.00  0.00    -0.045 A 
ATOM     37  C   UNL     1       4.564   6.314   4.284  1.00  0.00     0.007 A 
ATOM     38  C   UNL     1       4.360   8.687   4.693  1.00  0.00     0.007 A 
ATOM     39  C   UNL     1       3.801   6.051   5.422  1.00  0.00     0.046 A 
ATOM     40  C   UNL     1       3.594   8.426   5.832  1.00  0.00     0.046 A 
ATOM     41  C   UNL     1       3.322   7.109   6.187  1.00  0.00     0.115 A 
BRANCH  41  42
ATOM     42  O   UNL     1       2.578   6.810   7.289  1.00  0.00    -0.508 OA
ATOM     43  H   UNL     1       1.639   6.841   7.040  1.00  0.00     0.293 HD
ENDBRANCH  41  42
ENDBRANCH  35  36
ENDBRANCH  34  35
BRANCH  34  44
ATOM     44  C   UNL     1       7.713   9.239   3.430  1.00  0.00     0.243 C 
ATOM     45  O   UNL     1       7.862   8.878   4.594  1.00  0.00    -0.273 OA
ATOM     46  N   UNL     1       8.751   9.771   2.695  1.00  0.00    -0.341 N 
ATOM     47  H   UNL     1       8.556  10.165   1.778  1.00  0.00     0.164 HD
BRANCH  46  48
ATOM     48  C   UNL     1      10.118   9.898   3.205  1.00  0.00     0.196 C 
BRANCH  48  49
ATOM     49  C   UNL     1      10.158  10.727   4.500  1.00  0.00     0.072 C 
BRANCH  49  50
ATOM     50  C   UNL     1      11.127  11.885   4.419  1.00  0.00    -0.045 A 
ATOM     51  C   UNL     1      12.499  11.639   4.265  1.00  0.00     0.007 A 
ATOM     52  C   UNL     1      10.678  13.208   4.518  1.00  0.00     0.007 A 
ATOM     53  C   UNL     1      13.404  12.698   4.203  1.00  0.00     0.046 A 
ATOM     54  C   UNL     1      11.584  14.269   4.457  1.00  0.00     0.046 A 
ATOM     55  C   UNL     1      12.940  14.005   4.299  1.00  0.00     0.115 A 
BRANCH  55  56
ATOM     56  O   UNL     1      13.857  15.012   4.236  1.00  0.00    -0.508 OA
ATOM     57  H   UNL     1      13.709  15.510   3.417  1.00  0.00     0.293 HD
ENDBRANCH  55  56
ENDBRANCH  49  50
ENDBRANCH  48  49
BRANCH  48  58
ATOM     58  C   UNL     1      10.683   8.496   3.475  1.00  0.00     0.326 C 
ATOM     59  O   UNL     1      11.065   8.046   4.543  1.00  0.00    -0.250 OA
BRANCH  58  60
ATOM     60  O   UNL     1      10.727   7.709   2.371  1.00  0.00    -0.480 OA
ATOM     61  H   UNL     1       9.816   7.776   2.009  1.00  0.00     0.296 HD
ENDBRANCH  58  60
ENDBRANCH  48  58
ENDBRANCH  46  48
ENDBRANCH  34  44
ENDBRANCH  32  34
ENDBRANCH  25  30
ENDBRANCH  23  25
ENDBRANCH   2  23
TORSDOF 28
ENDMDL
MODEL 49
REMARK VINA RESULT:    -5.709      3.226      5.839
REMARK INTER + INTRA:         -18.185
REMARK INTER:                 -13.236
REMARK INTRA:                  -4.949
REMARK UNBOUND:                -3.967
REMARK SMILES CCCCCCC[C@H](N)[C@H](O)C(=O)N[C@H](C)C(=O)N(C)[C@H](CC(C)C)C(=O)N[C@@H](Cc1ccc(O)cc1)C(=O)N[C@@H](Cc1ccc(O)cc1)C(=O)O
REMARK SMILES IDX 18 1 17 2 15 3 16 4 14 5 12 6 13 7 10 9 11 10 8 12 9 13 7 16
REMARK SMILES IDX 6 17 5 18 4 19 3 20 2 21 1 22 19 23 20 24 21 25 22 26 23 27
REMARK SMILES IDX 24 28 25 29 26 30 27 31 28 32 29 34 30 35 31 36 32 37 37 38
REMARK SMILES IDX 33 39 36 40 34 41 35 42 38 44 39 45 40 46 41 48 42 49 43 50
REMARK SMILES IDX 44 51 49 52 45 53 48 54 46 55 47 56 50 58 51 59 52 60
REMARK H PARENT 14 8 11 11 9 14 9 15 28 33 35 43 40 47 47 57 52 61
ROOT
ATOM      1  O   UNL     1      11.497   8.258   2.477  1.00  0.00    -0.272 OA
ATOM      2  C   UNL     1      10.869   9.205   2.975  1.00  0.00     0.245 C 
ENDROOT
BRANCH   2   3
ATOM      3  C   UNL     1      11.022  10.610   2.341  1.00  0.00     0.168 C 
ATOM      4  C   UNL     1      11.884  11.510   3.219  1.00  0.00     0.041 C 
BRANCH   3   5
ATOM      5  N   UNL     1      11.473  10.611   0.958  1.00  0.00    -0.342 N 
ATOM      6  C   UNL     1      10.585  10.635  -0.097  1.00  0.00     0.251 C 
ATOM      7  O   UNL     1       9.367  10.616   0.043  1.00  0.00    -0.272 OA
ATOM      8  H   UNL     1      12.461  10.592   0.716  1.00  0.00     0.164 HD
BRANCH   6   9
ATOM      9  C   UNL     1      11.285  10.775  -1.459  1.00  0.00     0.219 C 
BRANCH   9  10
ATOM     10  O   UNL     1      10.483  10.292  -2.544  1.00  0.00    -0.382 OA
ATOM     11  H   UNL     1       9.796  10.986  -2.651  1.00  0.00     0.211 HD
ENDBRANCH   9  10
BRANCH   9  12
ATOM     12  C   UNL     1      11.783  12.216  -1.742  1.00  0.00     0.089 C 
BRANCH  12  13
ATOM     13  N   UNL     1      10.955  13.160  -0.958  1.00  0.00    -0.325 NA
ATOM     14  H   UNL     1       9.978  12.860  -0.994  1.00  0.00     0.119 HD
ATOM     15  H   UNL     1      10.970  14.074  -1.416  1.00  0.00     0.119 HD
ENDBRANCH  12  13
BRANCH  12  16
ATOM     16  C   UNL     1      13.285  12.479  -1.475  1.00  0.00     0.022 C 
BRANCH  16  17
ATOM     17  C   UNL     1      14.200  12.846  -2.651  1.00  0.00     0.002 C 
BRANCH  17  18
ATOM     18  C   UNL     1      14.763  11.657  -3.426  1.00  0.00     0.000 C 
BRANCH  18  19
ATOM     19  C   UNL     1      14.211  11.521  -4.851  1.00  0.00    -0.000 C 
BRANCH  19  20
ATOM     20  C   UNL     1      12.844  10.838  -4.957  1.00  0.00    -0.000 C 
BRANCH  20  21
ATOM     21  C   UNL     1      11.794  11.703  -5.659  1.00  0.00    -0.003 C 
ATOM     22  C   UNL     1      12.086  13.185  -5.480  1.00  0.00     0.004 C 
ENDBRANCH  20  21
ENDBRANCH  19  20
ENDBRANCH  18  19
ENDBRANCH  17  18
ENDBRANCH  16  17
ENDBRANCH  12  16
ENDBRANCH   9  12
ENDBRANCH   6   9
ENDBRANCH   3   5
ENDBRANCH   2   3
BRANCH   2  23
ATOM     23  N   UNL     1       9.958   8.974   4.000  1.00  0.00    -0.332 N 
ATOM     24  C   UNL     1      10.186   8.072   5.119  1.00  0.00     0.147 C 
BRANCH  23  25
ATOM     25  C   UNL     1       8.699   9.764   4.078  1.00  0.00     0.174 C 
BRANCH  25  26
ATOM     26  C   UNL     1       8.029   9.694   5.470  1.00  0.00     0.038 C 
BRANCH  26  27
ATOM     27  C   UNL     1       7.899  11.020   6.252  1.00  0.00    -0.015 C 
ATOM     28  C   UNL     1       8.585  12.187   5.542  1.00  0.00     0.007 C 
ATOM     29  C   UNL     1       6.457  11.378   6.605  1.00  0.00     0.007 C 
ENDBRANCH  26  27
ENDBRANCH  25  26
BRANCH  25  30
ATOM     30  C   UNL     1       7.756   9.378   2.915  1.00  0.00     0.243 C 
ATOM     31  O   UNL     1       7.897   8.332   2.283  1.00  0.00    -0.273 OA
ATOM     32  N   UNL     1       6.761  10.279   2.634  1.00  0.00    -0.342 N 
ATOM     33  H   UNL     1       6.622  11.052   3.291  1.00  0.00     0.164 HD
BRANCH  32  34
ATOM     34  C   UNL     1       5.794  10.093   1.549  1.00  0.00     0.175 C 
BRANCH  34  35
ATOM     35  C   UNL     1       4.357  10.023   2.089  1.00  0.00     0.070 C 
BRANCH  35  36
ATOM     36  C   UNL     1       4.214   9.067   3.251  1.00  0.00    -0.045 A 
ATOM     37  C   UNL     1       4.365   7.686   3.048  1.00  0.00     0.007 A 
ATOM     38  C   UNL     1       3.910   9.537   4.536  1.00  0.00     0.007 A 
ATOM     39  C   UNL     1       4.222   6.795   4.112  1.00  0.00     0.046 A 
ATOM     40  C   UNL     1       3.766   8.645   5.601  1.00  0.00     0.046 A 
ATOM     41  C   UNL     1       3.924   7.281   5.379  1.00  0.00     0.115 A 
BRANCH  41  42
ATOM     42  O   UNL     1       3.790   6.377   6.391  1.00  0.00    -0.508 OA
ATOM     43  H   UNL     1       2.848   6.156   6.479  1.00  0.00     0.293 HD
ENDBRANCH  41  42
ENDBRANCH  35  36
ENDBRANCH  34  35
BRANCH  34  44
ATOM     44  C   UNL     1       5.976  11.250   0.541  1.00  0.00     0.243 C 
ATOM     45  O   UNL     1       6.352  12.379   0.841  1.00  0.00    -0.273 OA
ATOM     46  N   UNL     1       5.549  10.939  -0.733  1.00  0.00    -0.341 N 
ATOM     47  H   UNL     1       5.136  10.026  -0.907  1.00  0.00     0.164 HD
BRANCH  46  48
ATOM     48  C   UNL     1       5.560  11.896  -1.842  1.00  0.00     0.196 C 
BRANCH  48  49
ATOM     49  C   UNL     1       4.705  13.134  -1.522  1.00  0.00     0.072 C 
BRANCH  49  50
ATOM     50  C   UNL     1       3.271  12.783  -1.198  1.00  0.00    -0.045 A 
ATOM     51  C   UNL     1       2.481  12.123  -2.151  1.00  0.00     0.007 A 
ATOM     52  C   UNL     1       2.705  13.126   0.036  1.00  0.00     0.007 A 
ATOM     53  C   UNL     1       1.152  11.805  -1.869  1.00  0.00     0.046 A 
ATOM     54  C   UNL     1       1.374  12.809   0.318  1.00  0.00     0.046 A 
ATOM     55  C   UNL     1       0.609  12.150  -0.638  1.00  0.00     0.115 A 
BRANCH  55  56
ATOM     56  O   UNL     1      -0.694  11.824  -0.403  1.00  0.00    -0.508 OA
ATOM     57  H   UNL     1      -1.043  12.427   0.272  1.00  0.00     0.293 HD
ENDBRANCH  55  56
ENDBRANCH  49  50
ENDBRANCH  48  49
BRANCH  48  58
ATOM     58  C   UNL     1       7.008  12.327  -2.116  1.00  0.00     0.326 C 
ATOM     59  O   UNL     1       7.455  13.462  -2.106  1.00  0.00    -0.250 OA
BRANCH  58  60
ATOM     60  O   UNL     1       7.841  11.288  -2.378  1.00  0.00    -0.480 OA
ATOM     61  H   UNL     1       7.857  11.255  -3.360  1.00  0.00     0.296 HD
ENDBRANCH  58  60
ENDBRANCH  48  58
ENDBRANCH  46  48
ENDBRANCH  34  44
ENDBRANCH  32  34
ENDBRANCH  25  30
ENDBRANCH  23  25
ENDBRANCH   2  23
TORSDOF 28
ENDMDL
MODEL 50
REMARK VINA RESULT:    -5.650      2.688     12.496
REMARK INTER + INTRA:         -18.039
REMARK INTER:                 -13.949
REMARK INTRA:                  -4.090
REMARK UNBOUND:                -3.967
REMARK SMILES CCCCCCC[C@H](N)[C@H](O)C(=O)N[C@H](C)C(=O)N(C)[C@H](CC(C)C)C(=O)N[C@@H](Cc1ccc(O)cc1)C(=O)N[C@@H](Cc1ccc(O)cc1)C(=O)O
REMARK SMILES IDX 18 1 17 2 15 3 16 4 14 5 12 6 13 7 10 9 11 10 8 12 9 13 7 16
REMARK SMILES IDX 6 17 5 18 4 19 3 20 2 21 1 22 19 23 20 24 21 25 22 26 23 27
REMARK SMILES IDX 24 28 25 29 26 30 27 31 28 32 29 34 30 35 31 36 32 37 37 38
REMARK SMILES IDX 33 39 36 40 34 41 35 42 38 44 39 45 40 46 41 48 42 49 43 50
REMARK SMILES IDX 44 51 49 52 45 53 48 54 46 55 47 56 50 58 51 59 52 60
REMARK H PARENT 14 8 11 11 9 14 9 15 28 33 35 43 40 47 47 57 52 61
ROOT
ATOM      1  O   UNL     1       6.372  12.830   4.310  1.00  0.00    -0.272 OA
ATOM      2  C   UNL     1       6.108  11.775   4.905  1.00  0.00     0.245 C 
ENDROOT
BRANCH   2   3
ATOM      3  C   UNL     1       4.839  11.721   5.791  1.00  0.00     0.168 C 
ATOM      4  C   UNL     1       3.594  11.493   4.941  1.00  0.00     0.041 C 
BRANCH   3   5
ATOM      5  N   UNL     1       4.911  10.791   6.907  1.00  0.00    -0.342 N 
ATOM      6  C   UNL     1       4.757  11.207   8.212  1.00  0.00     0.251 C 
ATOM      7  O   UNL     1       4.591  12.378   8.534  1.00  0.00    -0.272 OA
ATOM      8  H   UNL     1       5.079   9.797   6.767  1.00  0.00     0.164 HD
BRANCH   6   9
ATOM      9  C   UNL     1       4.728  10.037   9.209  1.00  0.00     0.219 C 
BRANCH   9  10
ATOM     10  O   UNL     1       5.072  10.437  10.541  1.00  0.00    -0.382 OA
ATOM     11  H   UNL     1       5.886   9.924  10.734  1.00  0.00     0.211 HD
ENDBRANCH   9  10
BRANCH   9  12
ATOM     12  C   UNL     1       3.387   9.259   9.197  1.00  0.00     0.089 C 
BRANCH  12  13
ATOM     13  N   UNL     1       3.379   8.321  10.343  1.00  0.00    -0.325 NA
ATOM     14  H   UNL     1       3.820   7.443  10.061  1.00  0.00     0.119 HD
ATOM     15  H   UNL     1       2.412   8.075  10.563  1.00  0.00     0.119 HD
ENDBRANCH  12  13
BRANCH  12  16
ATOM     16  C   UNL     1       2.102  10.122   9.208  1.00  0.00     0.022 C 
BRANCH  16  17
ATOM     17  C   UNL     1       1.716  10.869  10.491  1.00  0.00     0.002 C 
BRANCH  17  18
ATOM     18  C   UNL     1       0.327  10.542  11.035  1.00  0.00     0.000 C 
BRANCH  18  19
ATOM     19  C   UNL     1      -0.728  11.617  10.741  1.00  0.00    -0.000 C 
BRANCH  19  20
ATOM     20  C   UNL     1      -0.616  12.278   9.364  1.00  0.00    -0.000 C 
BRANCH  20  21
ATOM     21  C   UNL     1      -1.961  12.775   8.826  1.00  0.00    -0.003 C 
ATOM     22  C   UNL     1      -2.102  12.490   7.339  1.00  0.00     0.004 C 
ENDBRANCH  20  21
ENDBRANCH  19  20
ENDBRANCH  18  19
ENDBRANCH  17  18
ENDBRANCH  16  17
ENDBRANCH  12  16
ENDBRANCH   9  12
ENDBRANCH   6   9
ENDBRANCH   3   5
ENDBRANCH   2   3
BRANCH   2  23
ATOM     23  N   UNL     1       6.874  10.636   4.676  1.00  0.00    -0.332 N 
ATOM     24  C   UNL     1       8.039  10.253   5.460  1.00  0.00     0.147 C 
BRANCH  23  25
ATOM     25  C   UNL     1       6.452   9.641   3.652  1.00  0.00     0.174 C 
BRANCH  25  26
ATOM     26  C   UNL     1       6.197   8.236   4.247  1.00  0.00     0.038 C 
BRANCH  26  27
ATOM     27  C   UNL     1       4.773   7.658   4.089  1.00  0.00    -0.015 C 
ATOM     28  C   UNL     1       3.977   7.700   5.393  1.00  0.00     0.007 C 
ATOM     29  C   UNL     1       3.979   8.299   2.954  1.00  0.00     0.007 C 
ENDBRANCH  26  27
ENDBRANCH  25  26
BRANCH  25  30
ATOM     30  C   UNL     1       7.446   9.643   2.467  1.00  0.00     0.243 C 
ATOM     31  O   UNL     1       7.995   8.613   2.078  1.00  0.00    -0.273 OA
ATOM     32  N   UNL     1       7.676  10.864   1.888  1.00  0.00    -0.342 N 
ATOM     33  H   UNL     1       7.079  11.644   2.174  1.00  0.00     0.164 HD
BRANCH  32  34
ATOM     34  C   UNL     1       8.607  11.060   0.773  1.00  0.00     0.175 C 
BRANCH  34  35
ATOM     35  C   UNL     1       8.054  12.068  -0.246  1.00  0.00     0.070 C 
BRANCH  35  36
ATOM     36  C   UNL     1       8.949  12.231  -1.453  1.00  0.00    -0.045 A 
ATOM     37  C   UNL     1       9.313  11.109  -2.213  1.00  0.00     0.007 A 
ATOM     38  C   UNL     1       9.445  13.490  -1.816  1.00  0.00     0.007 A 
ATOM     39  C   UNL     1      10.150  11.247  -3.321  1.00  0.00     0.046 A 
ATOM     40  C   UNL     1      10.285  13.629  -2.924  1.00  0.00     0.046 A 
ATOM     41  C   UNL     1      10.628  12.505  -3.668  1.00  0.00     0.115 A 
BRANCH  41  42
ATOM     42  O   UNL     1      11.446  12.596  -4.755  1.00  0.00    -0.508 OA
ATOM     43  H   UNL     1      12.237  13.101  -4.500  1.00  0.00     0.293 HD
ENDBRANCH  41  42
ENDBRANCH  35  36
ENDBRANCH  34  35
BRANCH  34  44
ATOM     44  C   UNL     1       9.964  11.513   1.356  1.00  0.00     0.243 C 
ATOM     45  O   UNL     1      10.117  12.497   2.075  1.00  0.00    -0.273 OA
ATOM     46  N   UNL     1      11.035  10.782   0.887  1.00  0.00    -0.341 N 
ATOM     47  H   UNL     1      10.870  10.050   0.201  1.00  0.00     0.164 HD
BRANCH  46  48
ATOM     48  C   UNL     1      12.426  11.069   1.245  1.00  0.00     0.196 C 
BRANCH  48  49
ATOM     49  C   UNL     1      12.851  12.466   0.763  1.00  0.00     0.072 C 
BRANCH  49  50
ATOM     50  C   UNL     1      13.366  12.459  -0.659  1.00  0.00    -0.045 A 
ATOM     51  C   UNL     1      13.623  13.671  -1.316  1.00  0.00     0.007 A 
ATOM     52  C   UNL     1      13.574  11.255  -1.344  1.00  0.00     0.007 A 
ATOM     53  C   UNL     1      14.086  13.677  -2.631  1.00  0.00     0.046 A 
ATOM     54  C   UNL     1      14.037  11.261  -2.662  1.00  0.00     0.046 A 
ATOM     55  C   UNL     1      14.290  12.473  -3.294  1.00  0.00     0.115 A 
BRANCH  55  56
ATOM     56  O   UNL     1      14.741  12.523  -4.580  1.00  0.00    -0.508 OA
ATOM     57  H   UNL     1      14.352  11.781  -5.070  1.00  0.00     0.293 HD
ENDBRANCH  55  56
ENDBRANCH  49  50
ENDBRANCH  48  49
BRANCH  48  58
ATOM     58  C   UNL     1      12.577  10.983   2.770  1.00  0.00     0.326 C 
ATOM     59  O   UNL     1      12.395  10.005   3.477  1.00  0.00    -0.250 OA
BRANCH  58  60
ATOM     60  O   UNL     1      12.970  12.149   3.342  1.00  0.00    -0.480 OA
ATOM     61  H   UNL     1      12.668  12.828   2.700  1.00  0.00     0.296 HD
ENDBRANCH  58  60
ENDBRANCH  48  58
ENDBRANCH  46  48
ENDBRANCH  34  44
ENDBRANCH  32  34
ENDBRANCH  25  30
ENDBRANCH  23  25
ENDBRANCH   2  23
TORSDOF 28
ENDMDL
