MODEL 1
REMARK VINA RESULT:    -5.251      0.000      0.000
REMARK INTER + INTRA:         -11.529
REMARK INTER:                  -9.395
REMARK INTRA:                  -2.133
REMARK UNBOUND:                -2.133
REMARK SMILES CC[C@H](C)[C@H]1NC(=O)c2coc(n2)[C@H](C(C)C)NC(=O)[C@H]([C@@H](C)O)NC(=O)[C@H](C)NC(=O)c2csc1n2
REMARK SMILES IDX 11 1 13 2 12 3 9 4 10 5 7 6 6 7 8 8 5 10 36 11 35 12 34 13
REMARK SMILES IDX 37 14 33 15 31 16 32 17 30 18 28 20 29 21 3 23 4 24 2 25
REMARK SMILES IDX 1 26 14 27 18 28 19 29 20 30 21 32 25 33 26 34 27 35 22 38
REMARK SMILES IDX 23 39 24 40 15 42 16 43 17 44
REMARK H PARENT 6 9 30 19 18 31 25 36 24 41
REMARK Flexibility Score:   94.900
ROOT
ATOM      1  O   UNL     1      -3.885   0.880  -5.928  1.00  0.00    -0.446 OA
ATOM      2  N   UNL     1      -5.422   2.524  -6.044  1.00  0.00    -0.207 NA
ATOM      3  C   UNL     1      -4.642   1.700  -6.721  1.00  0.00     0.217 A 
ATOM      4  C   UNL     1      -5.182   2.207  -4.719  1.00  0.00     0.167 A 
ATOM      5  C   UNL     1      -4.246   1.204  -4.655  1.00  0.00     0.231 A 
ENDROOT
BRANCH   4   6
ATOM      6  C   UNL     1      -5.828   2.888  -3.610  1.00  0.00     0.273 C 
ATOM      7  N   UNL     1      -7.192   2.917  -3.755  1.00  0.00    -0.341 N 
ATOM      8  O   UNL     1      -5.216   3.394  -2.677  1.00  0.00    -0.267 OA
ATOM      9  H   UNL     1      -7.551   2.538  -4.626  1.00  0.00     0.164 HD
BRANCH   7  10
ATOM     10  C   UNL     1      -8.058   3.739  -2.932  1.00  0.00     0.145 C 
BRANCH  10  11
ATOM     11  C   UNL     1      -8.233   5.075  -3.640  1.00  0.00     0.116 A 
ATOM     12  S   UNL     1      -8.043   6.541  -2.756  1.00  0.00    -0.124 S 
ATOM     13  C   UNL     1      -8.338   7.432  -4.184  1.00  0.00     0.101 A 
ATOM     14  N   UNL     1      -8.515   5.221  -4.924  1.00  0.00    -0.234 NA
ATOM     15  C   UNL     1      -8.560   6.579  -5.248  1.00  0.00     0.139 A 
BRANCH  15  16
ATOM     16  C   UNL     1      -8.816   7.036  -6.616  1.00  0.00     0.271 C 
ATOM     17  O   UNL     1      -9.922   7.400  -6.999  1.00  0.00    -0.267 OA
ATOM     18  N   UNL     1      -7.697   7.017  -7.421  1.00  0.00    -0.339 N 
ATOM     19  H   UNL     1      -6.867   6.590  -7.019  1.00  0.00     0.164 HD
BRANCH  18  20
ATOM     20  C   UNL     1      -7.776   7.374  -8.831  1.00  0.00     0.168 CG0
ATOM     21  C   UNL     1      -7.287   8.804  -9.072  1.00  0.00     0.041 C 
ATOM     22  G   UNL     1      -6.950   6.437  -9.728  1.00  0.00     0.000 G0
ENDBRANCH  18  20
ENDBRANCH  15  16
ENDBRANCH  10  11
BRANCH  10  23
ATOM     23  C   UNL     1      -9.414   3.045  -2.634  1.00  0.00     0.015 C 
ATOM     24  C   UNL     1     -10.376   3.918  -1.811  1.00  0.00     0.010 C 
BRANCH  23  25
ATOM     25  C   UNL     1     -10.142   2.579  -3.915  1.00  0.00     0.002 C 
ATOM     26  C   UNL     1     -11.652   2.769  -3.872  1.00  0.00     0.004 C 
ENDBRANCH  23  25
ENDBRANCH  10  23
ENDBRANCH   7  10
ENDBRANCH   4   6
BRANCH   3  27
ATOM     27  C   UNL     1      -4.480   1.626  -8.214  1.00  0.00     0.171 C 
BRANCH  27  28
ATOM     28  N   UNL     1      -4.313   2.987  -8.713  1.00  0.00    -0.342 N 
ATOM     29  C   UNL     1      -5.180   3.564  -9.615  1.00  0.00     0.245 C 
ATOM     30  O   UNL     1      -6.168   2.979 -10.055  1.00  0.00    -0.273 OA
ATOM     31  H   UNL     1      -3.583   3.572  -8.308  1.00  0.00     0.164 HD
BRANCH  29  32
ATOM     32  C   UNL     1      -4.914   5.052  -9.926  1.00  0.00     0.200 C 
BRANCH  32  33
ATOM     33  N   UNL     1      -5.855   5.862  -9.142  1.00  0.00    -0.340 N 
ATOM     34  C   UNL     1      -6.955   6.450  -9.729  1.00  0.00     0.243 CG0
ATOM     35  O   UNL     1      -7.163   6.377 -10.939  1.00  0.00    -0.273 OA
ATOM     36  H   UNL     1      -5.693   5.965  -8.147  1.00  0.00     0.164 HD
ATOM     37  G   UNL     1      -7.777   7.380  -8.822  1.00  0.00     0.000 G0
ENDBRANCH  32  33
BRANCH  32  38
ATOM     38  C   UNL     1      -3.436   5.428  -9.670  1.00  0.00     0.143 C 
ATOM     39  C   UNL     1      -2.569   5.436 -10.924  1.00  0.00     0.041 C 
BRANCH  38  40
ATOM     40  O   UNL     1      -3.358   6.722  -9.040  1.00  0.00    -0.391 OA
ATOM     41  H   UNL     1      -3.895   7.329  -9.583  1.00  0.00     0.211 HD
ENDBRANCH  38  40
ENDBRANCH  32  38
ENDBRANCH  29  32
ENDBRANCH  27  28
BRANCH  27  42
ATOM     42  C   UNL     1      -3.387   0.679  -8.767  1.00  0.00     0.015 C 
ATOM     43  C   UNL     1      -3.887  -0.671  -9.293  1.00  0.00     0.010 C 
ATOM     44  C   UNL     1      -2.511   1.368  -9.819  1.00  0.00     0.010 C 
ENDBRANCH  27  42
ENDBRANCH   3  27
TORSDOF 5
ENDMDL
MODEL 2
REMARK VINA RESULT:    -4.992      2.501      6.693
REMARK INTER + INTRA:         -11.065
REMARK INTER:                  -8.645
REMARK INTRA:                  -2.419
REMARK UNBOUND:                -2.133
REMARK SMILES CC[C@H](C)[C@H]1NC(=O)c2coc(n2)[C@H](C(C)C)NC(=O)[C@H]([C@@H](C)O)NC(=O)[C@H](C)NC(=O)c2csc1n2
REMARK SMILES IDX 11 1 13 2 12 3 9 4 10 5 7 6 6 7 8 8 5 10 36 11 35 12 34 13
REMARK SMILES IDX 37 14 33 15 31 16 32 17 30 18 28 20 29 21 3 23 4 24 2 25
REMARK SMILES IDX 1 26 14 27 18 28 19 29 20 30 21 32 25 33 26 34 27 35 22 38
REMARK SMILES IDX 23 39 24 40 15 42 16 43 17 44
REMARK H PARENT 6 9 30 19 18 31 25 36 24 41
REMARK Flexibility Score:   94.900
ROOT
ATOM      1  O   UNL     1      -4.761   1.888  -4.822  1.00  0.00    -0.446 OA
ATOM      2  N   UNL     1      -5.220   3.580  -6.239  1.00  0.00    -0.207 NA
ATOM      3  C   UNL     1      -5.145   3.193  -4.978  1.00  0.00     0.217 A 
ATOM      4  C   UNL     1      -4.835   2.463  -6.960  1.00  0.00     0.167 A 
ATOM      5  C   UNL     1      -4.556   1.436  -6.091  1.00  0.00     0.231 A 
ENDROOT
BRANCH   4   6
ATOM      6  C   UNL     1      -4.785   2.433  -8.411  1.00  0.00     0.273 C 
ATOM      7  N   UNL     1      -4.723   3.695  -8.945  1.00  0.00    -0.341 N 
ATOM      8  O   UNL     1      -4.819   1.400  -9.069  1.00  0.00    -0.267 OA
ATOM      9  H   UNL     1      -4.796   4.459  -8.279  1.00  0.00     0.164 HD
BRANCH   7  10
ATOM     10  C   UNL     1      -4.912   3.968 -10.356  1.00  0.00     0.145 C 
BRANCH  10  11
ATOM     11  C   UNL     1      -6.181   4.796 -10.499  1.00  0.00     0.116 A 
ATOM     12  S   UNL     1      -7.306   4.426 -11.751  1.00  0.00    -0.124 S 
ATOM     13  C   UNL     1      -8.324   5.683 -11.197  1.00  0.00     0.101 A 
ATOM     14  N   UNL     1      -6.521   5.804  -9.713  1.00  0.00    -0.234 NA
ATOM     15  C   UNL     1      -7.765   6.309 -10.100  1.00  0.00     0.139 A 
BRANCH  15  16
ATOM     16  C   UNL     1      -8.407   7.410  -9.379  1.00  0.00     0.271 C 
ATOM     17  O   UNL     1      -8.394   8.568  -9.784  1.00  0.00    -0.267 OA
ATOM     18  N   UNL     1      -9.023   7.017  -8.209  1.00  0.00    -0.339 N 
ATOM     19  H   UNL     1      -8.867   6.053  -7.927  1.00  0.00     0.164 HD
BRANCH  18  20
ATOM     20  C   UNL     1      -9.655   7.988  -7.326  1.00  0.00     0.168 CG0
ATOM     21  C   UNL     1     -11.171   8.022  -7.531  1.00  0.00     0.041 C 
ATOM     22  G   UNL     1      -9.388   7.702  -5.840  1.00  0.00     0.000 G0
ENDBRANCH  18  20
ENDBRANCH  15  16
ENDBRANCH  10  11
BRANCH  10  23
ATOM     23  C   UNL     1      -3.678   4.664 -10.989  1.00  0.00     0.015 C 
ATOM     24  C   UNL     1      -4.045   5.674 -12.088  1.00  0.00     0.010 C 
BRANCH  23  25
ATOM     25  C   UNL     1      -2.789   5.372  -9.942  1.00  0.00     0.002 C 
ATOM     26  C   UNL     1      -3.182   6.819  -9.674  1.00  0.00     0.004 C 
ENDBRANCH  23  25
ENDBRANCH  10  23
ENDBRANCH   7  10
ENDBRANCH   4   6
BRANCH   3  27
ATOM     27  C   UNL     1      -5.482   4.007  -3.759  1.00  0.00     0.171 C 
BRANCH  27  28
ATOM     28  N   UNL     1      -6.880   4.411  -3.863  1.00  0.00    -0.342 N 
ATOM     29  C   UNL     1      -7.272   5.727  -3.960  1.00  0.00     0.245 C 
ATOM     30  O   UNL     1      -6.471   6.660  -3.982  1.00  0.00    -0.273 OA
ATOM     31  H   UNL     1      -7.592   3.689  -3.967  1.00  0.00     0.164 HD
BRANCH  29  32
ATOM     32  C   UNL     1      -8.781   5.950  -4.193  1.00  0.00     0.200 C 
BRANCH  32  33
ATOM     33  N   UNL     1      -8.972   6.414  -5.573  1.00  0.00    -0.340 N 
ATOM     34  C   UNL     1      -9.382   7.702  -5.845  1.00  0.00     0.243 CG0
ATOM     35  O   UNL     1      -9.666   8.496  -4.951  1.00  0.00    -0.273 OA
ATOM     36  H   UNL     1      -8.774   5.772  -6.331  1.00  0.00     0.164 HD
ATOM     37  G   UNL     1      -9.673   8.011  -7.323  1.00  0.00     0.000 G0
ENDBRANCH  32  33
BRANCH  32  38
ATOM     38  C   UNL     1      -9.598   4.678  -3.866  1.00  0.00     0.143 C 
ATOM     39  C   UNL     1     -11.095   4.922  -3.713  1.00  0.00     0.041 C 
BRANCH  38  40
ATOM     40  O   UNL     1      -9.388   3.682  -4.886  1.00  0.00    -0.391 OA
ATOM     41  H   UNL     1      -9.200   4.165  -5.713  1.00  0.00     0.211 HD
ENDBRANCH  38  40
ENDBRANCH  32  38
ENDBRANCH  29  32
ENDBRANCH  27  28
BRANCH  27  42
ATOM     42  C   UNL     1      -5.171   3.383  -2.376  1.00  0.00     0.015 C 
ATOM     43  C   UNL     1      -4.662   4.359  -1.309  1.00  0.00     0.010 C 
ATOM     44  C   UNL     1      -6.354   2.573  -1.835  1.00  0.00     0.010 C 
ENDBRANCH  27  42
ENDBRANCH   3  27
TORSDOF 5
ENDMDL
MODEL 3
REMARK VINA RESULT:    -4.882      3.047      8.496
REMARK INTER + INTRA:         -10.869
REMARK INTER:                  -8.291
REMARK INTRA:                  -2.578
REMARK UNBOUND:                -2.133
REMARK SMILES CC[C@H](C)[C@H]1NC(=O)c2coc(n2)[C@H](C(C)C)NC(=O)[C@H]([C@@H](C)O)NC(=O)[C@H](C)NC(=O)c2csc1n2
REMARK SMILES IDX 11 1 13 2 12 3 9 4 10 5 7 6 6 7 8 8 5 10 36 11 35 12 34 13
REMARK SMILES IDX 37 14 33 15 31 16 32 17 30 18 28 20 29 21 3 23 4 24 2 25
REMARK SMILES IDX 1 26 14 27 18 28 19 29 20 30 21 32 25 33 26 34 27 35 22 38
REMARK SMILES IDX 23 39 24 40 15 42 16 43 17 44
REMARK H PARENT 6 9 30 19 18 31 25 36 24 41
REMARK Flexibility Score:   94.900
ROOT
ATOM      1  O   UNL     1      -9.388   7.793  -7.471  1.00  0.00    -0.446 OA
ATOM      2  N   UNL     1      -8.042   6.360  -6.367  1.00  0.00    -0.207 NA
ATOM      3  C   UNL     1      -9.223   6.951  -6.404  1.00  0.00     0.217 A 
ATOM      4  C   UNL     1      -7.396   6.824  -7.500  1.00  0.00     0.167 A 
ATOM      5  C   UNL     1      -8.221   7.695  -8.168  1.00  0.00     0.231 A 
ENDROOT
BRANCH   4   6
ATOM      6  C   UNL     1      -6.042   6.437  -7.856  1.00  0.00     0.273 C 
ATOM      7  N   UNL     1      -6.016   5.256  -8.555  1.00  0.00    -0.341 N 
ATOM      8  O   UNL     1      -5.049   7.081  -7.542  1.00  0.00    -0.267 OA
ATOM      9  H   UNL     1      -6.911   4.787  -8.661  1.00  0.00     0.164 HD
BRANCH   7  10
ATOM     10  C   UNL     1      -4.797   4.518  -8.818  1.00  0.00     0.145 C 
BRANCH  10  11
ATOM     11  C   UNL     1      -4.758   3.337  -7.859  1.00  0.00     0.116 A 
ATOM     12  S   UNL     1      -4.456   1.753  -8.467  1.00  0.00    -0.124 S 
ATOM     13  C   UNL     1      -4.539   1.135  -6.875  1.00  0.00     0.101 A 
ATOM     14  N   UNL     1      -4.927   3.417  -6.549  1.00  0.00    -0.234 NA
ATOM     15  C   UNL     1      -4.786   2.153  -5.974  1.00  0.00     0.139 A 
BRANCH  15  16
ATOM     16  C   UNL     1      -4.886   1.950  -4.527  1.00  0.00     0.271 C 
ATOM     17  O   UNL     1      -4.273   1.068  -3.935  1.00  0.00    -0.267 OA
ATOM     18  N   UNL     1      -5.730   2.844  -3.903  1.00  0.00    -0.339 N 
ATOM     19  H   UNL     1      -6.263   3.454  -4.516  1.00  0.00     0.164 HD
BRANCH  18  20
ATOM     20  C   UNL     1      -6.005   2.751  -2.475  1.00  0.00     0.168 CG0
ATOM     21  C   UNL     1      -5.051   3.632  -1.666  1.00  0.00     0.041 C 
ATOM     22  G   UNL     1      -7.442   3.165  -2.119  1.00  0.00     0.000 G0
ENDBRANCH  18  20
ENDBRANCH  15  16
ENDBRANCH  10  11
BRANCH  10  23
ATOM     23  C   UNL     1      -4.685   4.079 -10.302  1.00  0.00     0.015 C 
ATOM     24  C   UNL     1      -5.979   4.304 -11.102  1.00  0.00     0.010 C 
BRANCH  23  25
ATOM     25  C   UNL     1      -3.518   4.770 -11.044  1.00  0.00     0.002 C 
ATOM     26  C   UNL     1      -2.789   5.815 -10.211  1.00  0.00     0.004 C 
ENDBRANCH  23  25
ENDBRANCH  10  23
ENDBRANCH   7  10
ENDBRANCH   4   6
BRANCH   3  27
ATOM     27  C   UNL     1     -10.330   6.827  -5.393  1.00  0.00     0.171 C 
BRANCH  27  28
ATOM     28  N   UNL     1      -9.728   6.477  -4.111  1.00  0.00    -0.342 N 
ATOM     29  C   UNL     1      -9.919   5.256  -3.504  1.00  0.00     0.245 C 
ATOM     30  O   UNL     1     -10.601   4.364  -4.005  1.00  0.00    -0.273 OA
ATOM     31  H   UNL     1      -9.059   7.122  -3.692  1.00  0.00     0.164 HD
BRANCH  29  32
ATOM     32  C   UNL     1      -9.098   5.023  -2.218  1.00  0.00     0.200 C 
BRANCH  32  33
ATOM     33  N   UNL     1      -7.815   4.417  -2.595  1.00  0.00    -0.340 N 
ATOM     34  C   UNL     1      -7.434   3.185  -2.106  1.00  0.00     0.243 CG0
ATOM     35  O   UNL     1      -8.117   2.571  -1.288  1.00  0.00    -0.273 OA
ATOM     36  H   UNL     1      -7.216   4.914  -3.243  1.00  0.00     0.164 HD
ATOM     37  G   UNL     1      -6.011   2.733  -2.471  1.00  0.00     0.000 G0
ENDBRANCH  32  33
BRANCH  32  38
ATOM     38  C   UNL     1      -8.933   6.330  -1.408  1.00  0.00     0.143 C 
ATOM     39  C   UNL     1      -8.654   6.112   0.075  1.00  0.00     0.041 C 
BRANCH  38  40
ATOM     40  O   UNL     1      -7.874   7.128  -1.970  1.00  0.00    -0.391 OA
ATOM     41  H   UNL     1      -8.254   7.597  -2.737  1.00  0.00     0.211 HD
ENDBRANCH  38  40
ENDBRANCH  32  38
ENDBRANCH  29  32
ENDBRANCH  27  28
BRANCH  27  42
ATOM     42  C   UNL     1     -11.308   8.020  -5.256  1.00  0.00     0.015 C 
ATOM     43  C   UNL     1     -12.725   7.663  -4.793  1.00  0.00     0.010 C 
ATOM     44  C   UNL     1     -10.729   9.137  -4.382  1.00  0.00     0.010 C 
ENDBRANCH  27  42
ENDBRANCH   3  27
TORSDOF 5
ENDMDL
MODEL 4
REMARK VINA RESULT:    -4.747     10.851     14.247
REMARK INTER + INTRA:         -10.627
REMARK INTER:                  -7.971
REMARK INTRA:                  -2.656
REMARK UNBOUND:                -2.133
REMARK SMILES CC[C@H](C)[C@H]1NC(=O)c2coc(n2)[C@H](C(C)C)NC(=O)[C@H]([C@@H](C)O)NC(=O)[C@H](C)NC(=O)c2csc1n2
REMARK SMILES IDX 11 1 13 2 12 3 9 4 10 5 7 6 6 7 8 8 5 10 36 11 35 12 34 13
REMARK SMILES IDX 37 14 33 15 31 16 32 17 30 18 28 20 29 21 3 23 4 24 2 25
REMARK SMILES IDX 1 26 14 27 18 28 19 29 20 30 21 32 25 33 26 34 27 35 22 38
REMARK SMILES IDX 23 39 24 40 15 42 16 43 17 44
REMARK H PARENT 6 9 30 19 18 31 25 36 24 41
REMARK Flexibility Score:   94.900
ROOT
ATOM      1  O   UNL     1       0.626   4.168   4.338  1.00  0.00    -0.446 OA
ATOM      2  N   UNL     1      -1.332   5.283   4.244  1.00  0.00    -0.207 NA
ATOM      3  C   UNL     1      -0.516   4.556   4.987  1.00  0.00     0.217 A 
ATOM      4  C   UNL     1      -0.671   5.403   3.034  1.00  0.00     0.167 A 
ATOM      5  C   UNL     1       0.521   4.723   3.098  1.00  0.00     0.231 A 
ENDROOT
BRANCH   4   6
ATOM      6  C   UNL     1      -1.220   6.123   1.898  1.00  0.00     0.273 C 
ATOM      7  N   UNL     1      -1.399   7.455   2.177  1.00  0.00    -0.341 N 
ATOM      8  O   UNL     1      -1.509   5.591   0.833  1.00  0.00    -0.267 OA
ATOM      9  H   UNL     1      -1.202   7.735   3.133  1.00  0.00     0.164 HD
BRANCH   7  10
ATOM     10  C   UNL     1      -2.153   8.349   1.320  1.00  0.00     0.145 C 
BRANCH  10  11
ATOM     11  C   UNL     1      -3.070   9.175   2.211  1.00  0.00     0.116 A 
ATOM     12  S   UNL     1      -4.370  10.063   1.509  1.00  0.00    -0.124 S 
ATOM     13  C   UNL     1      -4.838  10.592   3.065  1.00  0.00     0.101 A 
ATOM     14  N   UNL     1      -2.967   9.267   3.526  1.00  0.00    -0.234 NA
ATOM     15  C   UNL     1      -3.995  10.070   4.027  1.00  0.00     0.139 A 
BRANCH  15  16
ATOM     16  C   UNL     1      -4.149  10.317   5.463  1.00  0.00     0.271 C 
ATOM     17  O   UNL     1      -3.735  11.332   6.011  1.00  0.00    -0.267 OA
ATOM     18  N   UNL     1      -4.802   9.301   6.129  1.00  0.00    -0.339 N 
ATOM     19  H   UNL     1      -4.996   8.465   5.584  1.00  0.00     0.164 HD
BRANCH  18  20
ATOM     20  C   UNL     1      -4.986   9.342   7.573  1.00  0.00     0.168 CG0
ATOM     21  C   UNL     1      -6.394   9.815   7.942  1.00  0.00     0.041 C 
ATOM     22  G   UNL     1      -4.759   7.976   8.240  1.00  0.00     0.000 G0
ENDBRANCH  18  20
ENDBRANCH  15  16
ENDBRANCH  10  11
BRANCH  10  23
ATOM     23  C   UNL     1      -1.232   9.232   0.439  1.00  0.00     0.015 C 
ATOM     24  C   UNL     1       0.071   9.645   1.144  1.00  0.00     0.010 C 
BRANCH  23  25
ATOM     25  C   UNL     1      -0.875   8.566  -0.909  1.00  0.00     0.002 C 
ATOM     26  C   UNL     1       0.561   8.066  -0.991  1.00  0.00     0.004 C 
ENDBRANCH  23  25
ENDBRANCH  10  23
ENDBRANCH   7  10
ENDBRANCH   4   6
BRANCH   3  27
ATOM     27  C   UNL     1      -0.746   4.094   6.400  1.00  0.00     0.171 C 
BRANCH  27  28
ATOM     28  N   UNL     1      -2.107   4.465   6.774  1.00  0.00    -0.342 N 
ATOM     29  C   UNL     1      -2.389   5.308   7.826  1.00  0.00     0.245 C 
ATOM     30  O   UNL     1      -1.513   5.824   8.518  1.00  0.00    -0.273 OA
ATOM     31  H   UNL     1      -2.878   4.168   6.177  1.00  0.00     0.164 HD
BRANCH  29  32
ATOM     32  C   UNL     1      -3.876   5.685   7.988  1.00  0.00     0.200 C 
BRANCH  32  33
ATOM     33  N   UNL     1      -4.055   7.066   7.522  1.00  0.00    -0.340 N 
ATOM     34  C   UNL     1      -4.766   7.986   8.264  1.00  0.00     0.243 CG0
ATOM     35  O   UNL     1      -5.332   7.678   9.311  1.00  0.00    -0.273 OA
ATOM     36  H   UNL     1      -3.625   7.341   6.646  1.00  0.00     0.164 HD
ATOM     37  G   UNL     1      -4.991   9.351   7.594  1.00  0.00     0.000 G0
ENDBRANCH  32  33
BRANCH  32  38
ATOM     38  C   UNL     1      -4.798   4.679   7.260  1.00  0.00     0.143 C 
ATOM     39  C   UNL     1      -6.166   4.507   7.909  1.00  0.00     0.041 C 
BRANCH  38  40
ATOM     40  O   UNL     1      -4.977   5.079   5.888  1.00  0.00    -0.391 OA
ATOM     41  H   UNL     1      -5.519   4.386   5.464  1.00  0.00     0.211 HD
ENDBRANCH  38  40
ENDBRANCH  32  38
ENDBRANCH  29  32
ENDBRANCH  27  28
BRANCH  27  42
ATOM     42  C   UNL     1      -0.452   2.608   6.721  1.00  0.00     0.015 C 
ATOM     43  C   UNL     1      -0.087   2.307   8.179  1.00  0.00     0.010 C 
ATOM     44  C   UNL     1      -1.584   1.686   6.256  1.00  0.00     0.010 C 
ENDBRANCH  27  42
ENDBRANCH   3  27
TORSDOF 5
ENDMDL
MODEL 5
REMARK VINA RESULT:    -4.207     11.901     14.329
REMARK INTER + INTRA:          -9.661
REMARK INTER:                  -7.493
REMARK INTRA:                  -2.168
REMARK UNBOUND:                -2.133
REMARK SMILES CC[C@H](C)[C@H]1NC(=O)c2coc(n2)[C@H](C(C)C)NC(=O)[C@H]([C@@H](C)O)NC(=O)[C@H](C)NC(=O)c2csc1n2
REMARK SMILES IDX 11 1 13 2 12 3 9 4 10 5 7 6 6 7 8 8 5 10 36 11 35 12 34 13
REMARK SMILES IDX 37 14 33 15 31 16 32 17 30 18 28 20 29 21 3 23 4 24 2 25
REMARK SMILES IDX 1 26 14 27 18 28 19 29 20 30 21 32 25 33 26 34 27 35 22 38
REMARK SMILES IDX 23 39 24 40 15 42 16 43 17 44
REMARK H PARENT 6 9 30 19 18 31 25 36 24 41
REMARK Flexibility Score:   94.900
ROOT
ATOM      1  O   UNL     1       0.347   4.469   2.446  1.00  0.00    -0.446 OA
ATOM      2  N   UNL     1       0.634   5.890   4.172  1.00  0.00    -0.207 NA
ATOM      3  C   UNL     1       0.359   5.766   2.886  1.00  0.00     0.217 A 
ATOM      4  C   UNL     1       0.787   4.587   4.614  1.00  0.00     0.167 A 
ATOM      5  C   UNL     1       0.611   3.727   3.558  1.00  0.00     0.231 A 
ENDROOT
BRANCH   4   6
ATOM      6  C   UNL     1       1.117   4.249   5.987  1.00  0.00     0.273 C 
ATOM      7  N   UNL     1       0.239   3.334   6.511  1.00  0.00    -0.341 N 
ATOM      8  O   UNL     1       2.053   4.746   6.602  1.00  0.00    -0.267 OA
ATOM      9  H   UNL     1      -0.543   3.081   5.914  1.00  0.00     0.164 HD
BRANCH   7  10
ATOM     10  C   UNL     1       0.183   3.008   7.923  1.00  0.00     0.145 C 
BRANCH  10  11
ATOM     11  C   UNL     1      -0.392   4.215   8.651  1.00  0.00     0.116 A 
ATOM     12  S   UNL     1      -0.271   4.315  10.367  1.00  0.00    -0.124 S 
ATOM     13  C   UNL     1      -1.048   5.837  10.326  1.00  0.00     0.101 A 
ATOM     14  N   UNL     1      -0.987   5.241   8.065  1.00  0.00    -0.234 NA
ATOM     15  C   UNL     1      -1.353   6.188   9.025  1.00  0.00     0.139 A 
BRANCH  15  16
ATOM     16  C   UNL     1      -1.999   7.449   8.654  1.00  0.00     0.271 C 
ATOM     17  O   UNL     1      -2.797   8.027   9.384  1.00  0.00    -0.267 OA
ATOM     18  N   UNL     1      -1.622   7.917   7.413  1.00  0.00    -0.339 N 
ATOM     19  H   UNL     1      -1.041   7.292   6.860  1.00  0.00     0.164 HD
BRANCH  18  20
ATOM     20  C   UNL     1      -2.214   9.123   6.849  1.00  0.00     0.168 CG0
ATOM     21  C   UNL     1      -1.152  10.192   6.583  1.00  0.00     0.041 C 
ATOM     22  G   UNL     1      -2.957   8.860   5.529  1.00  0.00     0.000 G0
ENDBRANCH  18  20
ENDBRANCH  15  16
ENDBRANCH  10  11
BRANCH  10  23
ATOM     23  C   UNL     1      -0.626   1.713   8.194  1.00  0.00     0.015 C 
ATOM     24  C   UNL     1      -1.278   1.126   6.931  1.00  0.00     0.010 C 
BRANCH  23  25
ATOM     25  C   UNL     1       0.218   0.611   8.873  1.00  0.00     0.002 C 
ATOM     26  C   UNL     1      -0.083   0.424  10.353  1.00  0.00     0.004 C 
ENDBRANCH  23  25
ENDBRANCH  10  23
ENDBRANCH   7  10
ENDBRANCH   4   6
BRANCH   3  27
ATOM     27  C   UNL     1       0.122   6.875   1.898  1.00  0.00     0.171 C 
BRANCH  27  28
ATOM     28  N   UNL     1      -0.746   7.861   2.532  1.00  0.00    -0.342 N 
ATOM     29  C   UNL     1      -2.067   8.027   2.183  1.00  0.00     0.245 C 
ATOM     30  O   UNL     1      -2.618   7.346   1.320  1.00  0.00    -0.273 OA
ATOM     31  H   UNL     1      -0.392   8.382   3.334  1.00  0.00     0.164 HD
BRANCH  29  32
ATOM     32  C   UNL     1      -2.858   9.027   3.053  1.00  0.00     0.200 C 
BRANCH  32  33
ATOM     33  N   UNL     1      -2.225   9.089   4.376  1.00  0.00    -0.340 N 
ATOM     34  C   UNL     1      -2.951   8.867   5.528  1.00  0.00     0.243 CG0
ATOM     35  O   UNL     1      -4.165   8.673   5.504  1.00  0.00    -0.273 OA
ATOM     36  H   UNL     1      -1.231   9.277   4.429  1.00  0.00     0.164 HD
ATOM     37  G   UNL     1      -2.195   9.098   6.846  1.00  0.00     0.000 G0
ENDBRANCH  32  33
BRANCH  32  38
ATOM     38  C   UNL     1      -2.963  10.411   2.370  1.00  0.00     0.143 C 
ATOM     39  C   UNL     1      -2.326  11.546   3.162  1.00  0.00     0.041 C 
BRANCH  38  40
ATOM     40  O   UNL     1      -2.364  10.361   1.060  1.00  0.00    -0.391 OA
ATOM     41  H   UNL     1      -2.198   9.419   0.865  1.00  0.00     0.211 HD
ENDBRANCH  38  40
ENDBRANCH  32  38
ENDBRANCH  29  32
ENDBRANCH  27  28
BRANCH  27  42
ATOM     42  C   UNL     1       1.367   7.539   1.260  1.00  0.00     0.015 C 
ATOM     43  C   UNL     1       2.664   6.726   1.341  1.00  0.00     0.010 C 
ATOM     44  C   UNL     1       1.105   7.978  -0.184  1.00  0.00     0.010 C 
ENDBRANCH  27  42
ENDBRANCH   3  27
TORSDOF 5
ENDMDL
MODEL 6
REMARK VINA RESULT:    -3.993      2.695      6.013
REMARK INTER + INTRA:          -9.278
REMARK INTER:                  -7.079
REMARK INTRA:                  -2.198
REMARK UNBOUND:                -2.133
REMARK SMILES CC[C@H](C)[C@H]1NC(=O)c2coc(n2)[C@H](C(C)C)NC(=O)[C@H]([C@@H](C)O)NC(=O)[C@H](C)NC(=O)c2csc1n2
REMARK SMILES IDX 11 1 13 2 12 3 9 4 10 5 7 6 6 7 8 8 5 10 36 11 35 12 34 13
REMARK SMILES IDX 37 14 33 15 31 16 32 17 30 18 28 20 29 21 3 23 4 24 2 25
REMARK SMILES IDX 1 26 14 27 18 28 19 29 20 30 21 32 25 33 26 34 27 35 22 38
REMARK SMILES IDX 23 39 24 40 15 42 16 43 17 44
REMARK H PARENT 6 9 30 19 18 31 25 36 24 41
REMARK Flexibility Score:   94.900
ROOT
ATOM      1  O   UNL     1      -5.867   9.784  -8.219  1.00  0.00    -0.446 OA
ATOM      2  N   UNL     1      -5.602   7.897  -7.014  1.00  0.00    -0.207 NA
ATOM      3  C   UNL     1      -5.198   8.600  -8.057  1.00  0.00     0.217 A 
ATOM      4  C   UNL     1      -6.585   8.683  -6.436  1.00  0.00     0.167 A 
ATOM      5  C   UNL     1      -6.741   9.830  -7.175  1.00  0.00     0.231 A 
ENDROOT
BRANCH   4   6
ATOM      6  C   UNL     1      -7.324   8.284  -5.251  1.00  0.00     0.273 C 
ATOM      7  N   UNL     1      -6.565   7.507  -4.414  1.00  0.00    -0.341 N 
ATOM      8  O   UNL     1      -8.493   8.590  -5.047  1.00  0.00    -0.267 OA
ATOM      9  H   UNL     1      -5.642   7.259  -4.759  1.00  0.00     0.164 HD
BRANCH   7  10
ATOM     10  C   UNL     1      -7.120   6.774  -3.293  1.00  0.00     0.145 C 
BRANCH  10  11
ATOM     11  C   UNL     1      -6.956   5.290  -3.588  1.00  0.00     0.116 A 
ATOM     12  S   UNL     1      -8.199   4.186  -3.133  1.00  0.00    -0.124 S 
ATOM     13  C   UNL     1      -7.296   2.902  -3.809  1.00  0.00     0.101 A 
ATOM     14  N   UNL     1      -5.914   4.748  -4.197  1.00  0.00    -0.234 NA
ATOM     15  C   UNL     1      -6.111   3.373  -4.342  1.00  0.00     0.139 A 
BRANCH  15  16
ATOM     16  C   UNL     1      -5.130   2.522  -5.019  1.00  0.00     0.271 C 
ATOM     17  O   UNL     1      -4.454   1.687  -4.427  1.00  0.00    -0.267 OA
ATOM     18  N   UNL     1      -5.044   2.751  -6.376  1.00  0.00    -0.339 N 
ATOM     19  H   UNL     1      -5.575   3.544  -6.727  1.00  0.00     0.164 HD
BRANCH  18  20
ATOM     20  C   UNL     1      -4.073   2.045  -7.200  1.00  0.00     0.168 CG0
ATOM     21  C   UNL     1      -4.664   0.754  -7.773  1.00  0.00     0.041 C 
ATOM     22  G   UNL     1      -3.566   2.892  -8.378  1.00  0.00     0.000 G0
ENDBRANCH  18  20
ENDBRANCH  15  16
ENDBRANCH  10  11
BRANCH  10  23
ATOM     23  C   UNL     1      -6.472   7.185  -1.945  1.00  0.00     0.015 C 
ATOM     24  C   UNL     1      -5.484   8.355  -2.076  1.00  0.00     0.010 C 
BRANCH  23  25
ATOM     25  C   UNL     1      -7.516   7.538  -0.862  1.00  0.00     0.002 C 
ATOM     26  C   UNL     1      -6.914   7.837   0.504  1.00  0.00     0.004 C 
ENDBRANCH  23  25
ENDBRANCH  10  23
ENDBRANCH   7  10
ENDBRANCH   4   6
BRANCH   3  27
ATOM     27  C   UNL     1      -4.153   8.207  -9.065  1.00  0.00     0.171 C 
BRANCH  27  28
ATOM     28  N   UNL     1      -4.510   6.892  -9.588  1.00  0.00    -0.342 N 
ATOM     29  C   UNL     1      -3.604   5.862  -9.700  1.00  0.00     0.245 C 
ATOM     30  O   UNL     1      -2.429   5.968  -9.351  1.00  0.00    -0.273 OA
ATOM     31  H   UNL     1      -5.490   6.695  -9.789  1.00  0.00     0.164 HD
BRANCH  29  32
ATOM     32  C   UNL     1      -4.196   4.510 -10.152  1.00  0.00     0.200 C 
BRANCH  32  33
ATOM     33  N   UNL     1      -4.521   3.725  -8.955  1.00  0.00    -0.340 N 
ATOM     34  C   UNL     1      -3.587   2.899  -8.365  1.00  0.00     0.243 CG0
ATOM     35  O   UNL     1      -2.468   2.734  -8.847  1.00  0.00    -0.273 OA
ATOM     36  H   UNL     1      -5.446   3.817  -8.551  1.00  0.00     0.164 HD
ATOM     37  G   UNL     1      -4.102   2.034  -7.203  1.00  0.00     0.000 G0
ENDBRANCH  32  33
BRANCH  32  38
ATOM     38  C   UNL     1      -5.409   4.709 -11.090  1.00  0.00     0.143 C 
ATOM     39  C   UNL     1      -5.041   5.178 -12.493  1.00  0.00     0.041 C 
BRANCH  38  40
ATOM     40  O   UNL     1      -6.162   3.485 -11.189  1.00  0.00    -0.391 OA
ATOM     41  H   UNL     1      -5.715   2.935 -11.860  1.00  0.00     0.211 HD
ENDBRANCH  38  40
ENDBRANCH  32  38
ENDBRANCH  29  32
ENDBRANCH  27  28
BRANCH  27  42
ATOM     42  C   UNL     1      -3.849   9.210 -10.205  1.00  0.00     0.015 C 
ATOM     43  C   UNL     1      -2.366   9.391 -10.547  1.00  0.00     0.010 C 
ATOM     44  C   UNL     1      -4.652   8.899 -11.472  1.00  0.00     0.010 C 
ENDBRANCH  27  42
ENDBRANCH   3  27
TORSDOF 5
ENDMDL
MODEL 7
REMARK VINA RESULT:    -3.977      2.696      6.969
REMARK INTER + INTRA:          -9.248
REMARK INTER:                  -7.316
REMARK INTRA:                  -1.933
REMARK UNBOUND:                -2.133
REMARK SMILES CC[C@H](C)[C@H]1NC(=O)c2coc(n2)[C@H](C(C)C)NC(=O)[C@H]([C@@H](C)O)NC(=O)[C@H](C)NC(=O)c2csc1n2
REMARK SMILES IDX 11 1 13 2 12 3 9 4 10 5 7 6 6 7 8 8 5 10 36 11 35 12 34 13
REMARK SMILES IDX 37 14 33 15 31 16 32 17 30 18 28 20 29 21 3 23 4 24 2 25
REMARK SMILES IDX 1 26 14 27 18 28 19 29 20 30 21 32 25 33 26 34 27 35 22 38
REMARK SMILES IDX 23 39 24 40 15 42 16 43 17 44
REMARK H PARENT 6 9 30 19 18 31 25 36 24 41
REMARK Flexibility Score:   94.900
ROOT
ATOM      1  O   UNL     1      -5.497   2.116  -7.966  1.00  0.00    -0.446 OA
ATOM      2  N   UNL     1      -4.523   4.133  -7.715  1.00  0.00    -0.207 NA
ATOM      3  C   UNL     1      -5.103   3.111  -7.112  1.00  0.00     0.217 A 
ATOM      4  C   UNL     1      -4.512   3.776  -9.052  1.00  0.00     0.167 A 
ATOM      5  C   UNL     1      -5.106   2.546  -9.198  1.00  0.00     0.231 A 
ENDROOT
BRANCH   4   6
ATOM      6  C   UNL     1      -3.970   4.628 -10.096  1.00  0.00     0.273 C 
ATOM      7  N   UNL     1      -3.431   5.781  -9.585  1.00  0.00    -0.341 N 
ATOM      8  O   UNL     1      -4.017   4.351 -11.289  1.00  0.00    -0.267 OA
ATOM      9  H   UNL     1      -3.547   5.916  -8.585  1.00  0.00     0.164 HD
BRANCH   7  10
ATOM     10  C   UNL     1      -3.048   6.910 -10.410  1.00  0.00     0.145 C 
BRANCH  10  11
ATOM     11  C   UNL     1      -4.136   7.966 -10.278  1.00  0.00     0.116 A 
ATOM     12  S   UNL     1      -4.282   9.197 -11.475  1.00  0.00    -0.124 S 
ATOM     13  C   UNL     1      -5.630   9.837 -10.642  1.00  0.00     0.101 A 
ATOM     14  N   UNL     1      -5.023   8.022  -9.299  1.00  0.00    -0.234 NA
ATOM     15  C   UNL     1      -5.899   9.090  -9.512  1.00  0.00     0.139 A 
BRANCH  15  16
ATOM     16  C   UNL     1      -7.011   9.367  -8.600  1.00  0.00     0.271 C 
ATOM     17  O   UNL     1      -7.452  10.496  -8.413  1.00  0.00    -0.267 OA
ATOM     18  N   UNL     1      -7.508   8.241  -7.979  1.00  0.00    -0.339 N 
ATOM     19  H   UNL     1      -6.986   7.382  -8.132  1.00  0.00     0.164 HD
BRANCH  18  20
ATOM     20  C   UNL     1      -8.571   8.333  -6.987  1.00  0.00     0.168 CG0
ATOM     21  C   UNL     1      -9.876   7.731  -7.512  1.00  0.00     0.041 C 
ATOM     22  G   UNL     1      -8.220   7.619  -5.672  1.00  0.00     0.000 G0
ENDBRANCH  18  20
ENDBRANCH  15  16
ENDBRANCH  10  11
BRANCH  10  23
ATOM     23  C   UNL     1      -1.644   7.457 -10.040  1.00  0.00     0.015 C 
ATOM     24  C   UNL     1      -0.703   7.587 -11.249  1.00  0.00     0.010 C 
BRANCH  23  25
ATOM     25  C   UNL     1      -1.706   8.819  -9.312  1.00  0.00     0.002 C 
ATOM     26  C   UNL     1      -0.901   8.867  -8.021  1.00  0.00     0.004 C 
ENDBRANCH  23  25
ENDBRANCH  10  23
ENDBRANCH   7  10
ENDBRANCH   4   6
BRANCH   3  27
ATOM     27  C   UNL     1      -5.403   2.975  -5.644  1.00  0.00     0.171 C 
BRANCH  27  28
ATOM     28  N   UNL     1      -6.660   3.667  -5.379  1.00  0.00    -0.342 N 
ATOM     29  C   UNL     1      -6.751   4.756  -4.541  1.00  0.00     0.245 C 
ATOM     30  O   UNL     1      -5.775   5.236  -3.966  1.00  0.00    -0.273 OA
ATOM     31  H   UNL     1      -7.488   3.399  -5.908  1.00  0.00     0.164 HD
BRANCH  29  32
ATOM     32  C   UNL     1      -8.137   5.433  -4.487  1.00  0.00     0.200 C 
BRANCH  32  33
ATOM     33  N   UNL     1      -8.304   6.238  -5.703  1.00  0.00    -0.340 N 
ATOM     34  C   UNL     1      -8.237   7.615  -5.665  1.00  0.00     0.243 CG0
ATOM     35  O   UNL     1      -8.098   8.230  -4.609  1.00  0.00    -0.273 OA
ATOM     36  H   UNL     1      -8.451   5.760  -6.585  1.00  0.00     0.164 HD
ATOM     37  G   UNL     1      -8.567   8.336  -6.982  1.00  0.00     0.000 G0
ENDBRANCH  32  33
BRANCH  32  38
ATOM     38  C   UNL     1      -9.265   4.394  -4.291  1.00  0.00     0.143 C 
ATOM     39  C   UNL     1      -9.120   3.547  -3.033  1.00  0.00     0.041 C 
BRANCH  38  40
ATOM     40  O   UNL     1     -10.545   5.056  -4.264  1.00  0.00    -0.391 OA
ATOM     41  H   UNL     1     -11.199   4.388  -3.984  1.00  0.00     0.211 HD
ENDBRANCH  38  40
ENDBRANCH  32  38
ENDBRANCH  29  32
ENDBRANCH  27  28
BRANCH  27  42
ATOM     42  C   UNL     1      -5.402   1.548  -5.045  1.00  0.00     0.015 C 
ATOM     43  C   UNL     1      -4.143   0.716  -5.320  1.00  0.00     0.010 C 
ATOM     44  C   UNL     1      -5.716   1.556  -3.545  1.00  0.00     0.010 C 
ENDBRANCH  27  42
ENDBRANCH   3  27
TORSDOF 5
ENDMDL
MODEL 8
REMARK VINA RESULT:    -3.883      2.764      6.832
REMARK INTER + INTRA:          -9.081
REMARK INTER:                  -7.159
REMARK INTRA:                  -1.922
REMARK UNBOUND:                -2.133
REMARK SMILES CC[C@H](C)[C@H]1NC(=O)c2coc(n2)[C@H](C(C)C)NC(=O)[C@H]([C@@H](C)O)NC(=O)[C@H](C)NC(=O)c2csc1n2
REMARK SMILES IDX 11 1 13 2 12 3 9 4 10 5 7 6 6 7 8 8 5 10 36 11 35 12 34 13
REMARK SMILES IDX 37 14 33 15 31 16 32 17 30 18 28 20 29 21 3 23 4 24 2 25
REMARK SMILES IDX 1 26 14 27 18 28 19 29 20 30 21 32 25 33 26 34 27 35 22 38
REMARK SMILES IDX 23 39 24 40 15 42 16 43 17 44
REMARK H PARENT 6 9 30 19 18 31 25 36 24 41
REMARK Flexibility Score:   94.900
ROOT
ATOM      1  O   UNL     1      -5.330   2.791  -8.373  1.00  0.00    -0.446 OA
ATOM      2  N   UNL     1      -4.778   4.791  -7.492  1.00  0.00    -0.207 NA
ATOM      3  C   UNL     1      -4.993   3.509  -7.256  1.00  0.00     0.217 A 
ATOM      4  C   UNL     1      -4.960   4.920  -8.858  1.00  0.00     0.167 A 
ATOM      5  C   UNL     1      -5.295   3.698  -9.388  1.00  0.00     0.231 A 
ENDROOT
BRANCH   4   6
ATOM      6  C   UNL     1      -4.833   6.186  -9.559  1.00  0.00     0.273 C 
ATOM      7  N   UNL     1      -3.994   7.050  -8.904  1.00  0.00    -0.341 N 
ATOM      8  O   UNL     1      -5.429   6.448 -10.597  1.00  0.00    -0.267 OA
ATOM      9  H   UNL     1      -3.644   6.729  -8.006  1.00  0.00     0.164 HD
BRANCH   7  10
ATOM     10  C   UNL     1      -3.881   8.455  -9.243  1.00  0.00     0.145 C 
BRANCH  10  11
ATOM     11  C   UNL     1      -5.023   9.189  -8.554  1.00  0.00     0.116 A 
ATOM     12  S   UNL     1      -5.511  10.740  -9.126  1.00  0.00    -0.124 S 
ATOM     13  C   UNL     1      -6.735  10.786  -7.934  1.00  0.00     0.101 A 
ATOM     14  N   UNL     1      -5.712   8.723  -7.526  1.00  0.00    -0.234 NA
ATOM     15  C   UNL     1      -6.712   9.632  -7.173  1.00  0.00     0.139 A 
BRANCH  15  16
ATOM     16  C   UNL     1      -7.655   9.357  -6.087  1.00  0.00     0.271 C 
ATOM     17  O   UNL     1      -8.134  10.239  -5.383  1.00  0.00    -0.267 OA
ATOM     18  N   UNL     1      -7.947   8.017  -5.937  1.00  0.00    -0.339 N 
ATOM     19  H   UNL     1      -7.401   7.377  -6.508  1.00  0.00     0.164 HD
BRANCH  18  20
ATOM     20  C   UNL     1      -8.813   7.549  -4.864  1.00  0.00     0.168 CG0
ATOM     21  C   UNL     1     -10.027   6.799  -5.416  1.00  0.00     0.041 C 
ATOM     22  G   UNL     1      -8.090   6.614  -3.881  1.00  0.00     0.000 G0
ENDBRANCH  18  20
ENDBRANCH  15  16
ENDBRANCH  10  11
BRANCH  10  23
ATOM     23  C   UNL     1      -2.492   9.039  -8.871  1.00  0.00     0.015 C 
ATOM     24  C   UNL     1      -2.380   9.445  -7.392  1.00  0.00     0.010 C 
BRANCH  23  25
ATOM     25  C   UNL     1      -1.330   8.079  -9.210  1.00  0.00     0.002 C 
ATOM     26  C   UNL     1      -0.909   8.110 -10.673  1.00  0.00     0.004 C 
ENDBRANCH  23  25
ENDBRANCH  10  23
ENDBRANCH   7  10
ENDBRANCH   4   6
BRANCH   3  27
ATOM     27  C   UNL     1      -4.955   2.813  -5.923  1.00  0.00     0.171 C 
BRANCH  27  28
ATOM     28  N   UNL     1      -6.149   3.204  -5.182  1.00  0.00    -0.342 N 
ATOM     29  C   UNL     1      -6.097   3.814  -3.949  1.00  0.00     0.245 C 
ATOM     30  O   UNL     1      -5.038   4.091  -3.388  1.00  0.00    -0.273 OA
ATOM     31  H   UNL     1      -7.058   3.111  -5.634  1.00  0.00     0.164 HD
BRANCH  29  32
ATOM     32  C   UNL     1      -7.458   4.269  -3.380  1.00  0.00     0.200 C 
BRANCH  32  33
ATOM     33  N   UNL     1      -8.016   5.288  -4.277  1.00  0.00    -0.340 N 
ATOM     34  C   UNL     1      -8.093   6.612  -3.897  1.00  0.00     0.243 CG0
ATOM     35  O   UNL     1      -7.760   6.986  -2.774  1.00  0.00    -0.273 OA
ATOM     36  H   UNL     1      -8.327   5.004  -5.199  1.00  0.00     0.164 HD
ATOM     37  G   UNL     1      -8.823   7.545  -4.877  1.00  0.00     0.000 G0
ENDBRANCH  32  33
BRANCH  32  38
ATOM     38  C   UNL     1      -8.409   3.069  -3.164  1.00  0.00     0.143 C 
ATOM     39  C   UNL     1      -9.243   3.156  -1.891  1.00  0.00     0.041 C 
BRANCH  38  40
ATOM     40  O   UNL     1      -9.294   2.933  -4.294  1.00  0.00    -0.391 OA
ATOM     41  H   UNL     1     -10.193   2.821  -3.932  1.00  0.00     0.211 HD
ENDBRANCH  38  40
ENDBRANCH  32  38
ENDBRANCH  29  32
ENDBRANCH  27  28
BRANCH  27  42
ATOM     42  C   UNL     1      -4.763   1.277  -5.926  1.00  0.00     0.015 C 
ATOM     43  C   UNL     1      -3.701   0.745  -6.896  1.00  0.00     0.010 C 
ATOM     44  C   UNL     1      -4.516   0.728  -4.517  1.00  0.00     0.010 C 
ENDBRANCH  27  42
ENDBRANCH   3  27
TORSDOF 5
ENDMDL
MODEL 9
REMARK VINA RESULT:    -3.752     14.014     16.975
REMARK INTER + INTRA:          -8.847
REMARK INTER:                  -6.351
REMARK INTRA:                  -2.496
REMARK UNBOUND:                -2.133
REMARK SMILES CC[C@H](C)[C@H]1NC(=O)c2coc(n2)[C@H](C(C)C)NC(=O)[C@H]([C@@H](C)O)NC(=O)[C@H](C)NC(=O)c2csc1n2
REMARK SMILES IDX 11 1 13 2 12 3 9 4 10 5 7 6 6 7 8 8 5 10 36 11 35 12 34 13
REMARK SMILES IDX 37 14 33 15 31 16 32 17 30 18 28 20 29 21 3 23 4 24 2 25
REMARK SMILES IDX 1 26 14 27 18 28 19 29 20 30 21 32 25 33 26 34 27 35 22 38
REMARK SMILES IDX 23 39 24 40 15 42 16 43 17 44
REMARK H PARENT 6 9 30 19 18 31 25 36 24 41
REMARK Flexibility Score:   94.900
ROOT
ATOM      1  O   UNL     1      -1.177   9.766   8.396  1.00  0.00    -0.446 OA
ATOM      2  N   UNL     1      -2.123   7.772   7.933  1.00  0.00    -0.207 NA
ATOM      3  C   UNL     1      -1.504   8.834   7.447  1.00  0.00     0.217 A 
ATOM      4  C   UNL     1      -2.183   8.009   9.295  1.00  0.00     0.167 A 
ATOM      5  C   UNL     1      -1.605   9.224   9.571  1.00  0.00     0.231 A 
ENDROOT
BRANCH   4   6
ATOM      6  C   UNL     1      -2.805   7.091  10.233  1.00  0.00     0.273 C 
ATOM      7  N   UNL     1      -1.945   6.729  11.239  1.00  0.00    -0.341 N 
ATOM      8  O   UNL     1      -3.952   6.675  10.116  1.00  0.00    -0.267 OA
ATOM      9  H   UNL     1      -0.996   7.081  11.154  1.00  0.00     0.164 HD
BRANCH   7  10
ATOM     10  C   UNL     1      -2.217   5.645  12.162  1.00  0.00     0.145 C 
BRANCH  10  11
ATOM     11  C   UNL     1      -1.547   4.394  11.612  1.00  0.00     0.116 A 
ATOM     12  S   UNL     1      -1.250   3.055  12.656  1.00  0.00    -0.124 S 
ATOM     13  C   UNL     1      -0.590   2.186  11.341  1.00  0.00     0.101 A 
ATOM     14  N   UNL     1      -1.169   4.226  10.356  1.00  0.00    -0.234 NA
ATOM     15  C   UNL     1      -0.631   2.947  10.189  1.00  0.00     0.139 A 
BRANCH  15  16
ATOM     16  C   UNL     1      -0.164   2.474   8.884  1.00  0.00     0.271 C 
ATOM     17  O   UNL     1       0.233   1.329   8.696  1.00  0.00    -0.267 OA
ATOM     18  N   UNL     1      -0.215   3.436   7.898  1.00  0.00    -0.339 N 
ATOM     19  H   UNL     1      -0.456   4.375   8.205  1.00  0.00     0.164 HD
BRANCH  18  20
ATOM     20  C   UNL     1       0.274   3.165   6.553  1.00  0.00     0.168 CG0
ATOM     21  C   UNL     1      -0.880   3.052   5.554  1.00  0.00     0.041 C 
ATOM     22  G   UNL     1       1.236   4.249   6.040  1.00  0.00     0.000 G0
ENDBRANCH  18  20
ENDBRANCH  15  16
ENDBRANCH  10  11
BRANCH  10  23
ATOM     23  C   UNL     1      -1.757   5.976  13.607  1.00  0.00     0.015 C 
ATOM     24  C   UNL     1      -0.749   7.135  13.674  1.00  0.00     0.010 C 
BRANCH  23  25
ATOM     25  C   UNL     1      -2.938   6.292  14.552  1.00  0.00     0.002 C 
ATOM     26  C   UNL     1      -4.289   5.819  14.034  1.00  0.00     0.004 C 
ENDBRANCH  23  25
ENDBRANCH  10  23
ENDBRANCH   7  10
ENDBRANCH   4   6
BRANCH   3  27
ATOM     27  C   UNL     1      -1.191   9.120   6.004  1.00  0.00     0.171 C 
BRANCH  27  28
ATOM     28  N   UNL     1      -0.513   7.951   5.454  1.00  0.00    -0.342 N 
ATOM     29  C   UNL     1       0.859   7.831   5.418  1.00  0.00     0.245 C 
ATOM     30  O   UNL     1       1.614   8.695   5.862  1.00  0.00    -0.273 OA
ATOM     31  H   UNL     1      -1.072   7.147   5.173  1.00  0.00     0.164 HD
BRANCH  29  32
ATOM     32  C   UNL     1       1.389   6.470   4.920  1.00  0.00     0.200 C 
BRANCH  32  33
ATOM     33  N   UNL     1       0.616   5.407   5.574  1.00  0.00    -0.340 N 
ATOM     34  C   UNL     1       1.226   4.258   6.032  1.00  0.00     0.243 CG0
ATOM     35  O   UNL     1       2.424   4.044   5.858  1.00  0.00    -0.273 OA
ATOM     36  H   UNL     1      -0.380   5.541   5.704  1.00  0.00     0.164 HD
ATOM     37  G   UNL     1       0.281   3.171   6.570  1.00  0.00     0.000 G0
ENDBRANCH  32  33
BRANCH  32  38
ATOM     38  C   UNL     1       1.352   6.380   3.376  1.00  0.00     0.143 C 
ATOM     39  C   UNL     1       0.169   5.591   2.827  1.00  0.00     0.041 C 
BRANCH  38  40
ATOM     40  O   UNL     1       1.336   7.703   2.806  1.00  0.00    -0.391 OA
ATOM     41  H   UNL     1       1.611   8.316   3.514  1.00  0.00     0.211 HD
ENDBRANCH  38  40
ENDBRANCH  32  38
ENDBRANCH  29  32
ENDBRANCH  27  28
BRANCH  27  42
ATOM     42  C   UNL     1      -2.360   9.579   5.098  1.00  0.00     0.015 C 
ATOM     43  C   UNL     1      -2.749   8.607   3.978  1.00  0.00     0.010 C 
ATOM     44  C   UNL     1      -3.596   9.971   5.913  1.00  0.00     0.010 C 
ENDBRANCH  27  42
ENDBRANCH   3  27
TORSDOF 5
ENDMDL
MODEL 10
REMARK VINA RESULT:    -3.674     10.998     13.046
REMARK INTER + INTRA:          -8.707
REMARK INTER:                  -6.483
REMARK INTRA:                  -2.224
REMARK UNBOUND:                -2.133
REMARK SMILES CC[C@H](C)[C@H]1NC(=O)c2coc(n2)[C@H](C(C)C)NC(=O)[C@H]([C@@H](C)O)NC(=O)[C@H](C)NC(=O)c2csc1n2
REMARK SMILES IDX 11 1 13 2 12 3 9 4 10 5 7 6 6 7 8 8 5 10 36 11 35 12 34 13
REMARK SMILES IDX 37 14 33 15 31 16 32 17 30 18 28 20 29 21 3 23 4 24 2 25
REMARK SMILES IDX 1 26 14 27 18 28 19 29 20 30 21 32 25 33 26 34 27 35 22 38
REMARK SMILES IDX 23 39 24 40 15 42 16 43 17 44
REMARK H PARENT 6 9 30 19 18 31 25 36 24 41
REMARK Flexibility Score:   94.900
ROOT
ATOM      1  O   UNL     1      -1.966   4.388   4.712  1.00  0.00    -0.446 OA
ATOM      2  N   UNL     1      -1.458   6.329   5.740  1.00  0.00    -0.207 NA
ATOM      3  C   UNL     1      -1.250   5.555   4.690  1.00  0.00     0.217 A 
ATOM      4  C   UNL     1      -2.393   5.637   6.491  1.00  0.00     0.167 A 
ATOM      5  C   UNL     1      -2.698   4.456   5.858  1.00  0.00     0.231 A 
ENDROOT
BRANCH   4   6
ATOM      6  C   UNL     1      -2.908   6.121   7.759  1.00  0.00     0.273 C 
ATOM      7  N   UNL     1      -4.238   6.450   7.677  1.00  0.00    -0.341 N 
ATOM      8  O   UNL     1      -2.223   6.242   8.767  1.00  0.00    -0.267 OA
ATOM      9  H   UNL     1      -4.651   6.385   6.752  1.00  0.00     0.164 HD
BRANCH   7  10
ATOM     10  C   UNL     1      -4.937   7.184   8.713  1.00  0.00     0.145 C 
BRANCH  10  11
ATOM     11  C   UNL     1      -5.115   8.614   8.224  1.00  0.00     0.116 A 
ATOM     12  S   UNL     1      -5.979   9.748   9.193  1.00  0.00    -0.124 S 
ATOM     13  C   UNL     1      -5.682  10.961   8.026  1.00  0.00     0.101 A 
ATOM     14  N   UNL     1      -4.638   9.091   7.086  1.00  0.00    -0.234 NA
ATOM     15  C   UNL     1      -4.948  10.449   6.974  1.00  0.00     0.139 A 
BRANCH  15  16
ATOM     16  C   UNL     1      -4.509  11.246   5.826  1.00  0.00     0.271 C 
ATOM     17  O   UNL     1      -4.854  12.410   5.653  1.00  0.00    -0.267 OA
ATOM     18  N   UNL     1      -3.674  10.562   4.967  1.00  0.00    -0.339 N 
ATOM     19  H   UNL     1      -3.552   9.571   5.161  1.00  0.00     0.164 HD
BRANCH  18  20
ATOM     20  C   UNL     1      -3.193  11.173   3.736  1.00  0.00     0.168 CG0
ATOM     21  C   UNL     1      -1.757  11.680   3.891  1.00  0.00     0.041 C 
ATOM     22  G   UNL     1      -3.224  10.207   2.541  1.00  0.00     0.000 G0
ENDBRANCH  18  20
ENDBRANCH  15  16
ENDBRANCH  10  11
BRANCH  10  23
ATOM     23  C   UNL     1      -6.285   6.518   9.096  1.00  0.00     0.015 C 
ATOM     24  C   UNL     1      -6.535   5.187   8.366  1.00  0.00     0.010 C 
BRANCH  23  25
ATOM     25  C   UNL     1      -6.426   6.282  10.617  1.00  0.00     0.002 C 
ATOM     26  C   UNL     1      -6.182   4.842  11.045  1.00  0.00     0.004 C 
ENDBRANCH  23  25
ENDBRANCH  10  23
ENDBRANCH   7  10
ENDBRANCH   4   6
BRANCH   3  27
ATOM     27  C   UNL     1      -0.299   5.808   3.552  1.00  0.00     0.171 C 
BRANCH  27  28
ATOM     28  N   UNL     1      -0.723   7.031   2.879  1.00  0.00    -0.342 N 
ATOM     29  C   UNL     1      -1.581   7.032   1.802  1.00  0.00     0.245 C 
ATOM     30  O   UNL     1      -2.067   6.001   1.337  1.00  0.00    -0.273 OA
ATOM     31  H   UNL     1      -0.453   7.929   3.278  1.00  0.00     0.164 HD
BRANCH  29  32
ATOM     32  C   UNL     1      -2.016   8.427   1.306  1.00  0.00     0.200 C 
BRANCH  32  33
ATOM     33  N   UNL     1      -2.183   9.300   2.475  1.00  0.00    -0.340 N 
ATOM     34  C   UNL     1      -3.211  10.218   2.541  1.00  0.00     0.243 CG0
ATOM     35  O   UNL     1      -3.989  10.391   1.605  1.00  0.00    -0.273 OA
ATOM     36  H   UNL     1      -1.538   9.202   3.249  1.00  0.00     0.164 HD
ATOM     37  G   UNL     1      -3.186  11.159   3.756  1.00  0.00     0.000 G0
ENDBRANCH  32  33
BRANCH  32  38
ATOM     38  C   UNL     1      -1.020   8.994   0.268  1.00  0.00     0.143 C 
ATOM     39  C   UNL     1      -1.671   9.831  -0.827  1.00  0.00     0.041 C 
BRANCH  38  40
ATOM     40  O   UNL     1      -0.017   9.789   0.930  1.00  0.00    -0.391 OA
ATOM     41  H   UNL     1       0.034   9.464   1.849  1.00  0.00     0.211 HD
ENDBRANCH  38  40
ENDBRANCH  32  38
ENDBRANCH  29  32
ENDBRANCH  27  28
BRANCH  27  42
ATOM     42  C   UNL     1       1.214   5.834   3.880  1.00  0.00     0.015 C 
ATOM     43  C   UNL     1       1.734   4.647   4.699  1.00  0.00     0.010 C 
ATOM     44  C   UNL     1       2.069   6.026   2.623  1.00  0.00     0.010 C 
ENDBRANCH  27  42
ENDBRANCH   3  27
TORSDOF 5
ENDMDL
