MODEL 1
REMARK VINA RESULT:    -5.551      0.000      0.000
REMARK INTER + INTRA:         -10.886
REMARK INTER:                  -9.446
REMARK INTRA:                  -1.441
REMARK UNBOUND:                -1.441
REMARK SMILES CC[C@H](C)[C@@H]1NC(=O)[C@H]2CSC(=N2)[C@@H]([C@@H](C)CC)NC(=O)c2csc(n2)CNC(=O)[C@H]2N=C1O[C@@H]2C
REMARK SMILES IDX 27 1 25 2 22 3 26 4 23 5 24 6 20 7 19 8 21 9 14 11 12 12
REMARK SMILES IDX 11 13 10 14 13 15 9 16 15 18 16 19 17 20 18 21 28 22 29 23
REMARK SMILES IDX 30 24 31 26 32 27 35 28 33 29 34 30 36 31 5 32 6 33 7 34
REMARK SMILES IDX 8 35 3 38 4 39 2 40 1 41
REMARK H PARENT 19 10 28 25 6 36
REMARK Flexibility Score:   91.900
ROOT
ATOM      1  C   UNL     1      -3.125   1.395   9.278  1.00  0.00     0.183 C 
ENDROOT
BRANCH   1   2
ATOM      2  C   UNL     1      -2.764   1.995   7.949  1.00  0.00     0.113 A 
ATOM      3  C   UNL     1      -1.814   3.362   6.468  1.00  0.00     0.139 A 
ATOM      4  N   UNL     1      -1.841   2.926   7.794  1.00  0.00    -0.234 NA
ATOM      5  C   UNL     1      -2.690   2.700   5.630  1.00  0.00     0.101 A 
ATOM      6  S   UNL     1      -3.581   1.529   6.513  1.00  0.00    -0.125 S 
BRANCH   3   7
ATOM      7  C   UNL     1      -0.935   4.466   6.077  1.00  0.00     0.271 C 
ATOM      8  N   UNL     1      -0.521   5.193   7.166  1.00  0.00    -0.341 N 
ATOM      9  O   UNL     1      -0.639   4.723   4.917  1.00  0.00    -0.267 OA
ATOM     10  H   UNL     1      -0.831   4.844   8.073  1.00  0.00     0.164 HD
BRANCH   8  11
ATOM     11  C   UNL     1       0.203   6.451   7.082  1.00  0.00     0.140 C 
BRANCH  11  12
ATOM     12  C   UNL     1      -0.771   7.578   7.438  1.00  0.00     0.091 C 
ATOM     13  S   UNL     1      -0.174   9.150   7.915  1.00  0.00    -0.106 SA
ATOM     14  C   UNL     1      -1.835   9.841   7.766  1.00  0.00     0.113 C 
ATOM     15  N   UNL     1      -2.054   7.393   7.470  1.00  0.00    -0.267 NA
ATOM     16  C   UNL     1      -2.740   8.633   7.951  1.00  0.00     0.205 CG0
ATOM     17  G   UNL     1      -3.163   8.490   9.422  1.00  0.00     0.000 G0
ENDBRANCH  11  12
BRANCH  11  18
ATOM     18  C   UNL     1       1.559   6.450   7.833  1.00  0.00     0.015 C 
ATOM     19  C   UNL     1       1.792   5.095   8.514  1.00  0.00     0.010 C 
BRANCH  18  20
ATOM     20  C   UNL     1       2.771   6.866   6.976  1.00  0.00     0.002 C 
ATOM     21  C   UNL     1       2.453   7.997   6.004  1.00  0.00     0.004 C 
ENDBRANCH  18  20
ENDBRANCH  11  18
ENDBRANCH   8  11
ENDBRANCH   3   7
ENDBRANCH   1   2
BRANCH   1  22
ATOM     22  N   UNL     1      -4.032   2.310   9.934  1.00  0.00    -0.348 N 
ATOM     23  C   UNL     1      -3.978   2.644  11.259  1.00  0.00     0.249 C 
ATOM     24  O   UNL     1      -3.092   2.261  12.014  1.00  0.00    -0.272 OA
ATOM     25  H   UNL     1      -4.823   2.672   9.402  1.00  0.00     0.163 HD
BRANCH  23  26
ATOM     26  C   UNL     1      -5.109   3.596  11.679  1.00  0.00     0.238 C 
ATOM     27  N   UNL     1      -4.522   4.900  12.099  1.00  0.00    -0.236 NA
ATOM     28  C   UNL     1      -6.037   3.922  10.522  1.00  0.00     0.206 C 
ATOM     29  C   UNL     1      -4.899   5.712  11.158  1.00  0.00     0.208 C 
ATOM     30  O   UNL     1      -5.665   5.246  10.141  1.00  0.00    -0.474 OA
ATOM     31  C   UNL     1      -7.503   3.929  10.934  1.00  0.00     0.056 C 
BRANCH  29  32
ATOM     32  C   UNL     1      -4.521   7.185  11.029  1.00  0.00     0.171 C 
BRANCH  32  33
ATOM     33  N   UNL     1      -4.042   7.484   9.689  1.00  0.00    -0.342 N 
ATOM     34  C   UNL     1      -3.172   8.515   9.425  1.00  0.00     0.246 CG0
ATOM     35  O   UNL     1      -2.753   9.277  10.292  1.00  0.00    -0.273 OA
ATOM     36  H   UNL     1      -4.369   6.956   8.886  1.00  0.00     0.164 HD
ATOM     37  G   UNL     1      -2.743   8.625   7.953  1.00  0.00     0.000 G0
ENDBRANCH  32  33
BRANCH  32  38
ATOM     38  C   UNL     1      -5.709   8.089  11.452  1.00  0.00     0.017 C 
ATOM     39  C   UNL     1      -6.599   8.390  10.240  1.00  0.00     0.010 C 
BRANCH  38  40
ATOM     40  C   UNL     1      -6.525   7.503  12.627  1.00  0.00     0.002 C 
ATOM     41  C   UNL     1      -6.906   8.535  13.680  1.00  0.00     0.004 C 
ENDBRANCH  38  40
ENDBRANCH  32  38
ENDBRANCH  29  32
ENDBRANCH  23  26
ENDBRANCH   1  22
TORSDOF 4
ENDMDL
MODEL 2
REMARK VINA RESULT:    -5.464     13.809     16.311
REMARK INTER + INTRA:         -10.739
REMARK INTER:                  -9.321
REMARK INTRA:                  -1.418
REMARK UNBOUND:                -1.441
REMARK SMILES CC[C@H](C)[C@@H]1NC(=O)[C@H]2CSC(=N2)[C@@H]([C@@H](C)CC)NC(=O)c2csc(n2)CNC(=O)[C@H]2N=C1O[C@@H]2C
REMARK SMILES IDX 27 1 25 2 22 3 26 4 23 5 24 6 20 7 19 8 21 9 14 11 12 12
REMARK SMILES IDX 11 13 10 14 13 15 9 16 15 18 16 19 17 20 18 21 28 22 29 23
REMARK SMILES IDX 30 24 31 26 32 27 35 28 33 29 34 30 36 31 5 32 6 33 7 34
REMARK SMILES IDX 8 35 3 38 4 39 2 40 1 41
REMARK H PARENT 19 10 28 25 6 36
REMARK Flexibility Score:   91.900
ROOT
ATOM      1  C   UNL     1      -4.288  -0.480  -7.263  1.00  0.00     0.183 C 
ENDROOT
BRANCH   1   2
ATOM      2  C   UNL     1      -4.092   0.658  -8.224  1.00  0.00     0.113 A 
ATOM      3  C   UNL     1      -4.448   2.602  -9.254  1.00  0.00     0.139 A 
ATOM      4  N   UNL     1      -4.768   1.791  -8.163  1.00  0.00    -0.234 NA
ATOM      5  C   UNL     1      -3.482   2.079 -10.092  1.00  0.00     0.101 A 
ATOM      6  S   UNL     1      -2.980   0.538  -9.526  1.00  0.00    -0.125 S 
BRANCH   3   7
ATOM      7  C   UNL     1      -5.149   3.872  -9.453  1.00  0.00     0.271 C 
ATOM      8  N   UNL     1      -4.298   4.944  -9.338  1.00  0.00    -0.341 N 
ATOM      9  O   UNL     1      -6.353   3.959  -9.663  1.00  0.00    -0.267 OA
ATOM     10  H   UNL     1      -3.317   4.713  -9.185  1.00  0.00     0.164 HD
BRANCH   8  11
ATOM     11  C   UNL     1      -4.732   6.331  -9.300  1.00  0.00     0.140 C 
BRANCH  11  12
ATOM     12  C   UNL     1      -4.894   6.732  -7.831  1.00  0.00     0.091 C 
ATOM     13  S   UNL     1      -3.632   7.618  -7.008  1.00  0.00    -0.106 SA
ATOM     14  C   UNL     1      -4.745   7.945  -5.626  1.00  0.00     0.113 C 
ATOM     15  N   UNL     1      -5.924   6.373  -7.131  1.00  0.00    -0.267 NA
ATOM     16  C   UNL     1      -5.759   6.815  -5.711  1.00  0.00     0.205 CG0
ATOM     17  G   UNL     1      -5.338   5.639  -4.815  1.00  0.00     0.000 G0
ENDBRANCH  11  12
BRANCH  11  18
ATOM     18  C   UNL     1      -3.884   7.280 -10.184  1.00  0.00     0.015 C 
ATOM     19  C   UNL     1      -2.438   6.775 -10.279  1.00  0.00     0.010 C 
BRANCH  18  20
ATOM     20  C   UNL     1      -4.475   7.560 -11.581  1.00  0.00     0.002 C 
ATOM     21  C   UNL     1      -4.269   6.407 -12.557  1.00  0.00     0.004 C 
ENDBRANCH  18  20
ENDBRANCH  11  18
ENDBRANCH   8  11
ENDBRANCH   3   7
ENDBRANCH   1   2
BRANCH   1  22
ATOM     22  N   UNL     1      -5.269  -0.059  -6.288  1.00  0.00    -0.348 N 
ATOM     23  C   UNL     1      -6.602  -0.365  -6.341  1.00  0.00     0.249 C 
ATOM     24  O   UNL     1      -7.088  -1.108  -7.187  1.00  0.00    -0.272 OA
ATOM     25  H   UNL     1      -4.977   0.583  -5.552  1.00  0.00     0.163 HD
BRANCH  23  26
ATOM     26  C   UNL     1      -7.405   0.270  -5.196  1.00  0.00     0.238 C 
ATOM     27  N   UNL     1      -6.474   0.990  -4.283  1.00  0.00    -0.236 NA
ATOM     28  C   UNL     1      -8.376   1.324  -5.700  1.00  0.00     0.206 C 
ATOM     29  C   UNL     1      -6.769   2.239  -4.482  1.00  0.00     0.208 C 
ATOM     30  O   UNL     1      -7.754   2.561  -5.356  1.00  0.00    -0.474 OA
ATOM     31  C   UNL     1      -9.729   1.251  -5.004  1.00  0.00     0.056 C 
BRANCH  29  32
ATOM     32  C   UNL     1      -6.071   3.444  -3.857  1.00  0.00     0.171 C 
BRANCH  32  33
ATOM     33  N   UNL     1      -6.294   4.643  -4.649  1.00  0.00    -0.342 N 
ATOM     34  C   UNL     1      -5.355   5.639  -4.766  1.00  0.00     0.246 CG0
ATOM     35  O   UNL     1      -4.269   5.608  -4.192  1.00  0.00    -0.273 OA
ATOM     36  H   UNL     1      -7.178   4.803  -5.120  1.00  0.00     0.164 HD
ATOM     37  G   UNL     1      -5.762   6.793  -5.697  1.00  0.00     0.000 G0
ENDBRANCH  32  33
BRANCH  32  38
ATOM     38  C   UNL     1      -6.509   3.618  -2.379  1.00  0.00     0.017 C 
ATOM     39  C   UNL     1      -8.039   3.580  -2.275  1.00  0.00     0.010 C 
BRANCH  38  40
ATOM     40  C   UNL     1      -5.849   2.592  -1.429  1.00  0.00     0.002 C 
ATOM     41  C   UNL     1      -4.329   2.678  -1.401  1.00  0.00     0.004 C 
ENDBRANCH  38  40
ENDBRANCH  32  38
ENDBRANCH  29  32
ENDBRANCH  23  26
ENDBRANCH   1  22
TORSDOF 4
ENDMDL
MODEL 3
REMARK VINA RESULT:    -5.359     12.184     14.288
REMARK INTER + INTRA:         -10.559
REMARK INTER:                  -9.265
REMARK INTRA:                  -1.294
REMARK UNBOUND:                -1.441
REMARK SMILES CC[C@H](C)[C@@H]1NC(=O)[C@H]2CSC(=N2)[C@@H]([C@@H](C)CC)NC(=O)c2csc(n2)CNC(=O)[C@H]2N=C1O[C@@H]2C
REMARK SMILES IDX 27 1 25 2 22 3 26 4 23 5 24 6 20 7 19 8 21 9 14 11 12 12
REMARK SMILES IDX 11 13 10 14 13 15 9 16 15 18 16 19 17 20 18 21 28 22 29 23
REMARK SMILES IDX 30 24 31 26 32 27 35 28 33 29 34 30 36 31 5 32 6 33 7 34
REMARK SMILES IDX 8 35 3 38 4 39 2 40 1 41
REMARK H PARENT 19 10 28 25 6 36
REMARK Flexibility Score:   91.900
ROOT
ATOM      1  C   UNL     1      -6.910   0.325  -5.216  1.00  0.00     0.183 C 
ENDROOT
BRANCH   1   2
ATOM      2  C   UNL     1      -6.636   1.390  -6.239  1.00  0.00     0.113 A 
ATOM      3  C   UNL     1      -6.538   3.415  -7.165  1.00  0.00     0.139 A 
ATOM      4  N   UNL     1      -6.743   2.683  -5.993  1.00  0.00    -0.234 NA
ATOM      5  C   UNL     1      -6.220   2.649  -8.269  1.00  0.00     0.101 A 
ATOM      6  S   UNL     1      -6.200   0.985  -7.848  1.00  0.00    -0.125 S 
BRANCH   3   7
ATOM      7  C   UNL     1      -6.705   4.870  -7.160  1.00  0.00     0.271 C 
ATOM      8  N   UNL     1      -5.512   5.515  -6.944  1.00  0.00    -0.341 N 
ATOM      9  O   UNL     1      -7.784   5.431  -7.296  1.00  0.00    -0.267 OA
ATOM     10  H   UNL     1      -4.692   4.913  -6.872  1.00  0.00     0.164 HD
BRANCH   8  11
ATOM     11  C   UNL     1      -5.387   6.943  -6.701  1.00  0.00     0.140 C 
BRANCH  11  12
ATOM     12  C   UNL     1      -5.364   7.161  -5.185  1.00  0.00     0.091 C 
ATOM     13  S   UNL     1      -3.847   7.369  -4.342  1.00  0.00    -0.106 SA
ATOM     14  C   UNL     1      -4.730   7.896  -2.858  1.00  0.00     0.113 C 
ATOM     15  N   UNL     1      -6.444   7.126  -4.470  1.00  0.00    -0.267 NA
ATOM     16  C   UNL     1      -6.104   7.263  -3.019  1.00  0.00     0.205 CG0
ATOM     17  G   UNL     1      -6.161   5.900  -2.311  1.00  0.00     0.000 G0
ENDBRANCH  11  12
BRANCH  11  18
ATOM     18  C   UNL     1      -4.256   7.624  -7.513  1.00  0.00     0.015 C 
ATOM     19  C   UNL     1      -3.937   6.810  -8.774  1.00  0.00     0.010 C 
BRANCH  18  20
ATOM     20  C   UNL     1      -4.507   9.108  -7.849  1.00  0.00     0.002 C 
ATOM     21  C   UNL     1      -5.989   9.454  -7.943  1.00  0.00     0.004 C 
ENDBRANCH  18  20
ENDBRANCH  11  18
ENDBRANCH   8  11
ENDBRANCH   3   7
ENDBRANCH   1   2
BRANCH   1  22
ATOM     22  N   UNL     1      -7.789   0.896  -4.220  1.00  0.00    -0.348 N 
ATOM     23  C   UNL     1      -9.131   1.099  -4.389  1.00  0.00     0.249 C 
ATOM     24  O   UNL     1      -9.746   0.733  -5.385  1.00  0.00    -0.272 OA
ATOM     25  H   UNL     1      -7.377   1.256  -3.360  1.00  0.00     0.163 HD
BRANCH  23  26
ATOM     26  C   UNL     1      -9.789   1.774  -3.176  1.00  0.00     0.238 C 
ATOM     27  N   UNL     1      -8.751   2.046  -2.143  1.00  0.00    -0.236 NA
ATOM     28  C   UNL     1     -10.376   3.130  -3.530  1.00  0.00     0.206 C 
ATOM     29  C   UNL     1      -8.655   3.342  -2.151  1.00  0.00     0.208 C 
ATOM     30  O   UNL     1      -9.444   4.063  -2.985  1.00  0.00    -0.474 OA
ATOM     31  C   UNL     1     -11.734   3.365  -2.883  1.00  0.00     0.056 C 
BRANCH  29  32
ATOM     32  C   UNL     1      -7.680   4.182  -1.331  1.00  0.00     0.171 C 
BRANCH  32  33
ATOM     33  N   UNL     1      -7.436   5.466  -1.970  1.00  0.00    -0.342 N 
ATOM     34  C   UNL     1      -6.173   5.912  -2.278  1.00  0.00     0.246 CG0
ATOM     35  O   UNL     1      -5.155   5.276  -2.015  1.00  0.00    -0.273 OA
ATOM     36  H   UNL     1      -8.199   6.100  -2.180  1.00  0.00     0.164 HD
ATOM     37  G   UNL     1      -6.135   7.267  -3.003  1.00  0.00     0.000 G0
ENDBRANCH  32  33
BRANCH  32  38
ATOM     38  C   UNL     1      -8.185   4.331   0.128  1.00  0.00     0.017 C 
ATOM     39  C   UNL     1      -9.718   4.269   0.164  1.00  0.00     0.010 C 
BRANCH  38  40
ATOM     40  C   UNL     1      -7.552   3.302   1.093  1.00  0.00     0.002 C 
ATOM     41  C   UNL     1      -6.399   2.519   0.478  1.00  0.00     0.004 C 
ENDBRANCH  38  40
ENDBRANCH  32  38
ENDBRANCH  29  32
ENDBRANCH  23  26
ENDBRANCH   1  22
TORSDOF 4
ENDMDL
MODEL 4
REMARK VINA RESULT:    -5.194      2.410      5.693
REMARK INTER + INTRA:         -10.279
REMARK INTER:                  -8.539
REMARK INTRA:                  -1.741
REMARK UNBOUND:                -1.441
REMARK SMILES CC[C@H](C)[C@@H]1NC(=O)[C@H]2CSC(=N2)[C@@H]([C@@H](C)CC)NC(=O)c2csc(n2)CNC(=O)[C@H]2N=C1O[C@@H]2C
REMARK SMILES IDX 27 1 25 2 22 3 26 4 23 5 24 6 20 7 19 8 21 9 14 11 12 12
REMARK SMILES IDX 11 13 10 14 13 15 9 16 15 18 16 19 17 20 18 21 28 22 29 23
REMARK SMILES IDX 30 24 31 26 32 27 35 28 33 29 34 30 36 31 5 32 6 33 7 34
REMARK SMILES IDX 8 35 3 38 4 39 2 40 1 41
REMARK H PARENT 19 10 28 25 6 36
REMARK Flexibility Score:   91.900
ROOT
ATOM      1  C   UNL     1      -6.106   6.988  11.190  1.00  0.00     0.183 C 
ENDROOT
BRANCH   1   2
ATOM      2  C   UNL     1      -4.859   7.774  11.480  1.00  0.00     0.113 A 
ATOM      3  C   UNL     1      -2.894   8.768  11.139  1.00  0.00     0.139 A 
ATOM      4  N   UNL     1      -4.005   8.160  10.550  1.00  0.00    -0.234 NA
ATOM      5  C   UNL     1      -2.965   8.880  12.513  1.00  0.00     0.101 A 
ATOM      6  S   UNL     1      -4.429   8.194  13.088  1.00  0.00    -0.125 S 
BRANCH   3   7
ATOM      7  C   UNL     1      -1.764   9.190  10.308  1.00  0.00     0.271 C 
ATOM      8  N   UNL     1      -1.914   8.784   9.005  1.00  0.00    -0.341 N 
ATOM      9  O   UNL     1      -0.793   9.799  10.739  1.00  0.00    -0.267 OA
ATOM     10  H   UNL     1      -2.789   8.306   8.790  1.00  0.00     0.164 HD
BRANCH   8  11
ATOM     11  C   UNL     1      -0.878   8.891   7.991  1.00  0.00     0.140 C 
BRANCH  11  12
ATOM     12  C   UNL     1      -0.872   7.587   7.187  1.00  0.00     0.091 C 
ATOM     13  S   UNL     1      -0.967   7.620   5.442  1.00  0.00    -0.106 SA
ATOM     14  C   UNL     1      -0.542   5.867   5.373  1.00  0.00     0.113 C 
ATOM     15  N   UNL     1      -0.870   6.426   7.762  1.00  0.00    -0.267 NA
ATOM     16  C   UNL     1      -0.974   5.343   6.734  1.00  0.00     0.205 CG0
ATOM     17  G   UNL     1      -2.404   4.781   6.672  1.00  0.00     0.000 G0
ENDBRANCH  11  12
BRANCH  11  18
ATOM     18  C   UNL     1      -0.931  10.206   7.171  1.00  0.00     0.015 C 
ATOM     19  C   UNL     1      -2.357  10.771   7.158  1.00  0.00     0.010 C 
BRANCH  18  20
ATOM     20  C   UNL     1       0.095  11.274   7.601  1.00  0.00     0.002 C 
ATOM     21  C   UNL     1      -0.549  12.480   8.277  1.00  0.00     0.004 C 
ENDBRANCH  18  20
ENDBRANCH  11  18
ENDBRANCH   8  11
ENDBRANCH   3   7
ENDBRANCH   1   2
BRANCH   1  22
ATOM     22  N   UNL     1      -5.708   5.618  10.954  1.00  0.00    -0.348 N 
ATOM     23  C   UNL     1      -6.009   4.566  11.776  1.00  0.00     0.249 C 
ATOM     24  O   UNL     1      -6.727   4.670  12.765  1.00  0.00    -0.272 OA
ATOM     25  H   UNL     1      -5.088   5.422  10.169  1.00  0.00     0.163 HD
BRANCH  23  26
ATOM     26  C   UNL     1      -5.403   3.240  11.293  1.00  0.00     0.238 C 
ATOM     27  N   UNL     1      -5.598   3.118   9.822  1.00  0.00    -0.236 NA
ATOM     28  C   UNL     1      -3.900   3.190  11.509  1.00  0.00     0.206 C 
ATOM     29  C   UNL     1      -4.392   3.235   9.351  1.00  0.00     0.208 C 
ATOM     30  O   UNL     1      -3.355   3.401  10.208  1.00  0.00    -0.474 OA
ATOM     31  C   UNL     1      -3.428   1.835  12.020  1.00  0.00     0.056 C 
BRANCH  29  32
ATOM     32  C   UNL     1      -3.995   3.259   7.877  1.00  0.00     0.171 C 
BRANCH  32  33
ATOM     33  N   UNL     1      -2.688   3.872   7.701  1.00  0.00    -0.342 N 
ATOM     34  C   UNL     1      -2.418   4.765   6.693  1.00  0.00     0.246 CG0
ATOM     35  O   UNL     1      -3.248   5.095   5.849  1.00  0.00    -0.273 OA
ATOM     36  H   UNL     1      -1.909   3.629   8.305  1.00  0.00     0.164 HD
ATOM     37  G   UNL     1      -0.993   5.342   6.717  1.00  0.00     0.000 G0
ENDBRANCH  32  33
BRANCH  32  38
ATOM     38  C   UNL     1      -4.070   1.833   7.272  1.00  0.00     0.017 C 
ATOM     39  C   UNL     1      -4.344   1.914   5.764  1.00  0.00     0.010 C 
BRANCH  38  40
ATOM     40  C   UNL     1      -2.815   0.982   7.577  1.00  0.00     0.002 C 
ATOM     41  C   UNL     1      -3.018  -0.019   8.707  1.00  0.00     0.004 C 
ENDBRANCH  38  40
ENDBRANCH  32  38
ENDBRANCH  29  32
ENDBRANCH  23  26
ENDBRANCH   1  22
TORSDOF 4
ENDMDL
MODEL 5
REMARK VINA RESULT:    -5.031      2.870      7.694
REMARK INTER + INTRA:         -10.002
REMARK INTER:                  -8.090
REMARK INTRA:                  -1.912
REMARK UNBOUND:                -1.441
REMARK SMILES CC[C@H](C)[C@@H]1NC(=O)[C@H]2CSC(=N2)[C@@H]([C@@H](C)CC)NC(=O)c2csc(n2)CNC(=O)[C@H]2N=C1O[C@@H]2C
REMARK SMILES IDX 27 1 25 2 22 3 26 4 23 5 24 6 20 7 19 8 21 9 14 11 12 12
REMARK SMILES IDX 11 13 10 14 13 15 9 16 15 18 16 19 17 20 18 21 28 22 29 23
REMARK SMILES IDX 30 24 31 26 32 27 35 28 33 29 34 30 36 31 5 32 6 33 7 34
REMARK SMILES IDX 8 35 3 38 4 39 2 40 1 41
REMARK H PARENT 19 10 28 25 6 36
REMARK Flexibility Score:   91.900
ROOT
ATOM      1  C   UNL     1      -3.783   8.795   5.532  1.00  0.00     0.183 C 
ENDROOT
BRANCH   1   2
ATOM      2  C   UNL     1      -5.087   9.039   6.235  1.00  0.00     0.113 A 
ATOM      3  C   UNL     1      -6.621   9.016   7.852  1.00  0.00     0.139 A 
ATOM      4  N   UNL     1      -5.282   8.801   7.519  1.00  0.00    -0.234 NA
ATOM      5  C   UNL     1      -7.403   9.473   6.810  1.00  0.00     0.101 A 
ATOM      6  S   UNL     1      -6.461   9.614   5.382  1.00  0.00    -0.125 S 
BRANCH   3   7
ATOM      7  C   UNL     1      -7.096   8.719   9.205  1.00  0.00     0.271 C 
ATOM      8  N   UNL     1      -6.100   8.186   9.986  1.00  0.00    -0.341 N 
ATOM      9  O   UNL     1      -8.250   8.896   9.575  1.00  0.00    -0.267 OA
ATOM     10  H   UNL     1      -5.183   8.120   9.546  1.00  0.00     0.164 HD
BRANCH   8  11
ATOM     11  C   UNL     1      -6.312   7.622  11.309  1.00  0.00     0.140 C 
BRANCH  11  12
ATOM     12  C   UNL     1      -6.318   6.096  11.173  1.00  0.00     0.091 C 
ATOM     13  S   UNL     1      -6.358   5.079  12.594  1.00  0.00    -0.106 SA
ATOM     14  C   UNL     1      -6.703   3.635  11.566  1.00  0.00     0.113 C 
ATOM     15  N   UNL     1      -6.220   5.509  10.022  1.00  0.00    -0.267 NA
ATOM     16  C   UNL     1      -6.144   4.025  10.207  1.00  0.00     0.205 CG0
ATOM     17  G   UNL     1      -4.699   3.526  10.049  1.00  0.00     0.000 G0
ENDBRANCH  11  12
BRANCH  11  18
ATOM     18  C   UNL     1      -5.386   8.212  12.402  1.00  0.00     0.015 C 
ATOM     19  C   UNL     1      -4.092   8.748  11.775  1.00  0.00     0.010 C 
BRANCH  18  20
ATOM     20  C   UNL     1      -6.051   9.268  13.309  1.00  0.00     0.002 C 
ATOM     21  C   UNL     1      -7.515   8.961  13.604  1.00  0.00     0.004 C 
ENDBRANCH  18  20
ENDBRANCH  11  18
ENDBRANCH   8  11
ENDBRANCH   3   7
ENDBRANCH   1   2
BRANCH   1  22
ATOM     22  N   UNL     1      -2.944   8.031   6.428  1.00  0.00    -0.348 N 
ATOM     23  C   UNL     1      -2.008   7.117   6.030  1.00  0.00     0.249 C 
ATOM     24  O   UNL     1      -1.724   6.914   4.854  1.00  0.00    -0.272 OA
ATOM     25  H   UNL     1      -3.112   8.107   7.431  1.00  0.00     0.163 HD
BRANCH  23  26
ATOM     26  C   UNL     1      -1.313   6.423   7.211  1.00  0.00     0.238 C 
ATOM     27  N   UNL     1      -2.334   5.721   8.037  1.00  0.00    -0.236 NA
ATOM     28  C   UNL     1      -0.350   5.342   6.749  1.00  0.00     0.206 C 
ATOM     29  C   UNL     1      -2.074   4.465   7.827  1.00  0.00     0.208 C 
ATOM     30  O   UNL     1      -1.043   4.124   7.016  1.00  0.00    -0.474 OA
ATOM     31  C   UNL     1       0.952   5.344   7.539  1.00  0.00     0.056 C 
BRANCH  29  32
ATOM     32  C   UNL     1      -2.861   3.275   8.371  1.00  0.00     0.171 C 
BRANCH  32  33
ATOM     33  N   UNL     1      -4.208   3.673   8.749  1.00  0.00    -0.342 N 
ATOM     34  C   UNL     1      -4.706   3.489  10.017  1.00  0.00     0.246 CG0
ATOM     35  O   UNL     1      -4.064   2.954  10.918  1.00  0.00    -0.273 OA
ATOM     36  H   UNL     1      -4.847   4.071   8.070  1.00  0.00     0.164 HD
ATOM     37  G   UNL     1      -6.129   4.032  10.227  1.00  0.00     0.000 G0
ENDBRANCH  32  33
BRANCH  32  38
ATOM     38  C   UNL     1      -2.851   2.106   7.351  1.00  0.00     0.017 C 
ATOM     39  C   UNL     1      -2.855   0.762   8.090  1.00  0.00     0.010 C 
BRANCH  38  40
ATOM     40  C   UNL     1      -4.001   2.194   6.322  1.00  0.00     0.002 C 
ATOM     41  C   UNL     1      -3.693   3.103   5.140  1.00  0.00     0.004 C 
ENDBRANCH  38  40
ENDBRANCH  32  38
ENDBRANCH  29  32
ENDBRANCH  23  26
ENDBRANCH   1  22
TORSDOF 4
ENDMDL
MODEL 6
REMARK VINA RESULT:    -4.921     12.497     15.544
REMARK INTER + INTRA:          -9.814
REMARK INTER:                  -8.293
REMARK INTRA:                  -1.521
REMARK UNBOUND:                -1.441
REMARK SMILES CC[C@H](C)[C@@H]1NC(=O)[C@H]2CSC(=N2)[C@@H]([C@@H](C)CC)NC(=O)c2csc(n2)CNC(=O)[C@H]2N=C1O[C@@H]2C
REMARK SMILES IDX 27 1 25 2 22 3 26 4 23 5 24 6 20 7 19 8 21 9 14 11 12 12
REMARK SMILES IDX 11 13 10 14 13 15 9 16 15 18 16 19 17 20 18 21 28 22 29 23
REMARK SMILES IDX 30 24 31 26 32 27 35 28 33 29 34 30 36 31 5 32 6 33 7 34
REMARK SMILES IDX 8 35 3 38 4 39 2 40 1 41
REMARK H PARENT 19 10 28 25 6 36
REMARK Flexibility Score:   91.900
ROOT
ATOM      1  C   UNL     1      -8.275   1.900  -2.825  1.00  0.00     0.183 C 
ENDROOT
BRANCH   1   2
ATOM      2  C   UNL     1      -7.630   2.988  -2.016  1.00  0.00     0.113 A 
ATOM      3  C   UNL     1      -6.184   4.586  -1.448  1.00  0.00     0.139 A 
ATOM      4  N   UNL     1      -6.648   3.748  -2.464  1.00  0.00    -0.234 NA
ATOM      5  C   UNL     1      -6.876   4.478  -0.257  1.00  0.00     0.101 A 
ATOM      6  S   UNL     1      -8.111   3.293  -0.397  1.00  0.00    -0.125 S 
BRANCH   3   7
ATOM      7  C   UNL     1      -5.027   5.452  -1.683  1.00  0.00     0.271 C 
ATOM      8  N   UNL     1      -5.379   6.595  -2.358  1.00  0.00    -0.341 N 
ATOM      9  O   UNL     1      -3.884   5.168  -1.346  1.00  0.00    -0.267 OA
ATOM     10  H   UNL     1      -6.374   6.704  -2.550  1.00  0.00     0.164 HD
BRANCH   8  11
ATOM     11  C   UNL     1      -4.427   7.553  -2.895  1.00  0.00     0.140 C 
BRANCH  11  12
ATOM     12  C   UNL     1      -4.577   7.560  -4.419  1.00  0.00     0.091 C 
ATOM     13  S   UNL     1      -5.520   8.801  -5.212  1.00  0.00    -0.106 SA
ATOM     14  C   UNL     1      -4.872   8.286  -6.816  1.00  0.00     0.113 C 
ATOM     15  N   UNL     1      -4.082   6.621  -5.163  1.00  0.00    -0.267 NA
ATOM     16  C   UNL     1      -4.477   6.834  -6.591  1.00  0.00     0.205 CG0
ATOM     17  G   UNL     1      -5.623   5.891  -6.990  1.00  0.00     0.000 G0
ENDBRANCH  11  12
BRANCH  11  18
ATOM     18  C   UNL     1      -4.458   8.935  -2.193  1.00  0.00     0.015 C 
ATOM     19  C   UNL     1      -4.756   8.768  -0.697  1.00  0.00     0.010 C 
BRANCH  18  20
ATOM     20  C   UNL     1      -3.206   9.804  -2.425  1.00  0.00     0.002 C 
ATOM     21  C   UNL     1      -3.450  11.284  -2.152  1.00  0.00     0.004 C 
ENDBRANCH  18  20
ENDBRANCH  11  18
ENDBRANCH   8  11
ENDBRANCH   3   7
ENDBRANCH   1   2
BRANCH   1  22
ATOM     22  N   UNL     1      -7.439   1.668  -3.983  1.00  0.00    -0.348 N 
ATOM     23  C   UNL     1      -7.863   1.084  -5.145  1.00  0.00     0.249 C 
ATOM     24  O   UNL     1      -9.030   0.771  -5.354  1.00  0.00    -0.272 OA
ATOM     25  H   UNL     1      -6.443   1.872  -3.910  1.00  0.00     0.163 HD
BRANCH  23  26
ATOM     26  C   UNL     1      -6.735   0.921  -6.175  1.00  0.00     0.238 C 
ATOM     27  N   UNL     1      -7.069   1.704  -7.397  1.00  0.00    -0.236 NA
ATOM     28  C   UNL     1      -5.420   1.492  -5.673  1.00  0.00     0.206 C 
ATOM     29  C   UNL     1      -6.200   2.670  -7.378  1.00  0.00     0.208 C 
ATOM     30  O   UNL     1      -5.285   2.724  -6.379  1.00  0.00    -0.474 OA
ATOM     31  C   UNL     1      -4.230   0.605  -6.012  1.00  0.00     0.056 C 
BRANCH  29  32
ATOM     32  C   UNL     1      -6.117   3.832  -8.365  1.00  0.00     0.171 C 
BRANCH  32  33
ATOM     33  N   UNL     1      -5.211   4.861  -7.881  1.00  0.00    -0.342 N 
ATOM     34  C   UNL     1      -5.613   5.861  -7.027  1.00  0.00     0.246 CG0
ATOM     35  O   UNL     1      -6.770   5.978  -6.630  1.00  0.00    -0.273 OA
ATOM     36  H   UNL     1      -4.245   4.898  -8.190  1.00  0.00     0.164 HD
ATOM     37  G   UNL     1      -4.490   6.813  -6.587  1.00  0.00     0.000 G0
ENDBRANCH  32  33
BRANCH  32  38
ATOM     38  C   UNL     1      -5.732   3.318  -9.777  1.00  0.00     0.017 C 
ATOM     39  C   UNL     1      -6.977   3.253 -10.672  1.00  0.00     0.010 C 
BRANCH  38  40
ATOM     40  C   UNL     1      -4.603   4.145 -10.433  1.00  0.00     0.002 C 
ATOM     41  C   UNL     1      -3.314   3.360 -10.640  1.00  0.00     0.004 C 
ENDBRANCH  38  40
ENDBRANCH  32  38
ENDBRANCH  29  32
ENDBRANCH  23  26
ENDBRANCH   1  22
TORSDOF 4
ENDMDL
MODEL 7
REMARK VINA RESULT:    -4.789      2.359      2.990
REMARK INTER + INTRA:          -9.590
REMARK INTER:                  -7.650
REMARK INTRA:                  -1.940
REMARK UNBOUND:                -1.441
REMARK SMILES CC[C@H](C)[C@@H]1NC(=O)[C@H]2CSC(=N2)[C@@H]([C@@H](C)CC)NC(=O)c2csc(n2)CNC(=O)[C@H]2N=C1O[C@@H]2C
REMARK SMILES IDX 27 1 25 2 22 3 26 4 23 5 24 6 20 7 19 8 21 9 14 11 12 12
REMARK SMILES IDX 11 13 10 14 13 15 9 16 15 18 16 19 17 20 18 21 28 22 29 23
REMARK SMILES IDX 30 24 31 26 32 27 35 28 33 29 34 30 36 31 5 32 6 33 7 34
REMARK SMILES IDX 8 35 3 38 4 39 2 40 1 41
REMARK H PARENT 19 10 28 25 6 36
REMARK Flexibility Score:   91.900
ROOT
ATOM      1  C   UNL     1      -2.722   3.508   7.765  1.00  0.00     0.183 C 
ENDROOT
BRANCH   1   2
ATOM      2  C   UNL     1      -2.424   4.846   7.152  1.00  0.00     0.113 A 
ATOM      3  C   UNL     1      -1.619   6.915   6.950  1.00  0.00     0.139 A 
ATOM      4  N   UNL     1      -1.601   5.729   7.687  1.00  0.00    -0.234 NA
ATOM      5  C   UNL     1      -2.423   6.878   5.827  1.00  0.00     0.101 A 
ATOM      6  S   UNL     1      -3.190   5.347   5.699  1.00  0.00    -0.125 S 
BRANCH   3   7
ATOM      7  C   UNL     1      -0.857   8.077   7.411  1.00  0.00     0.271 C 
ATOM      8  N   UNL     1      -0.355   7.884   8.675  1.00  0.00    -0.341 N 
ATOM      9  O   UNL     1      -0.719   9.104   6.758  1.00  0.00    -0.267 OA
ATOM     10  H   UNL     1      -0.533   6.967   9.084  1.00  0.00     0.164 HD
BRANCH   8  11
ATOM     11  C   UNL     1       0.281   8.922   9.469  1.00  0.00     0.140 C 
BRANCH  11  12
ATOM     12  C   UNL     1      -0.767   9.483  10.435  1.00  0.00     0.091 C 
ATOM     13  S   UNL     1      -0.277  10.381  11.852  1.00  0.00    -0.106 SA
ATOM     14  C   UNL     1      -1.982  10.910  12.122  1.00  0.00     0.113 C 
ATOM     15  N   UNL     1      -2.034   9.254  10.282  1.00  0.00    -0.267 NA
ATOM     16  C   UNL     1      -2.802   9.833  11.429  1.00  0.00     0.205 CG0
ATOM     17  G   UNL     1      -3.210   8.735  12.426  1.00  0.00     0.000 G0
ENDBRANCH  11  12
BRANCH  11  18
ATOM     18  C   UNL     1       1.635   8.497  10.093  1.00  0.00     0.015 C 
ATOM     19  C   UNL     1       1.973   7.051   9.706  1.00  0.00     0.010 C 
BRANCH  18  20
ATOM     20  C   UNL     1       2.810   9.450   9.792  1.00  0.00     0.002 C 
ATOM     21  C   UNL     1       2.552  10.352   8.591  1.00  0.00     0.004 C 
ENDBRANCH  18  20
ENDBRANCH  11  18
ENDBRANCH   8  11
ENDBRANCH   3   7
ENDBRANCH   1   2
BRANCH   1  22
ATOM     22  N   UNL     1      -3.710   3.717   8.800  1.00  0.00    -0.348 N 
ATOM     23  C   UNL     1      -3.650   3.176  10.055  1.00  0.00     0.249 C 
ATOM     24  O   UNL     1      -2.697   2.521  10.460  1.00  0.00    -0.272 OA
ATOM     25  H   UNL     1      -4.558   4.231   8.563  1.00  0.00     0.163 HD
BRANCH  23  26
ATOM     26  C   UNL     1      -4.873   3.531  10.915  1.00  0.00     0.238 C 
ATOM     27  N   UNL     1      -4.428   4.308  12.105  1.00  0.00    -0.236 NA
ATOM     28  C   UNL     1      -5.843   4.437  10.177  1.00  0.00     0.206 C 
ATOM     29  C   UNL     1      -4.900   5.497  11.878  1.00  0.00     0.208 C 
ATOM     30  O   UNL     1      -5.621   5.724  10.752  1.00  0.00    -0.474 OA
ATOM     31  C   UNL     1      -7.297   4.046  10.407  1.00  0.00     0.056 C 
BRANCH  29  32
ATOM     32  C   UNL     1      -4.686   6.736  12.743  1.00  0.00     0.171 C 
BRANCH  32  33
ATOM     33  N   UNL     1      -4.168   7.840  11.950  1.00  0.00    -0.342 N 
ATOM     34  C   UNL     1      -3.244   8.733  12.436  1.00  0.00     0.246 CG0
ATOM     35  O   UNL     1      -2.804   8.684  13.582  1.00  0.00    -0.273 OA
ATOM     36  H   UNL     1      -4.505   8.012  11.008  1.00  0.00     0.164 HD
ATOM     37  G   UNL     1      -2.782   9.790  11.420  1.00  0.00     0.000 G0
ENDBRANCH  32  33
BRANCH  32  38
ATOM     38  C   UNL     1      -5.991   7.105  13.495  1.00  0.00     0.017 C 
ATOM     39  C   UNL     1      -5.680   7.426  14.963  1.00  0.00     0.010 C 
BRANCH  38  40
ATOM     40  C   UNL     1      -6.775   8.251  12.816  1.00  0.00     0.002 C 
ATOM     41  C   UNL     1      -8.250   7.936  12.600  1.00  0.00     0.004 C 
ENDBRANCH  38  40
ENDBRANCH  32  38
ENDBRANCH  29  32
ENDBRANCH  23  26
ENDBRANCH   1  22
TORSDOF 4
ENDMDL
MODEL 8
REMARK VINA RESULT:    -4.682     14.610     17.362
REMARK INTER + INTRA:          -9.407
REMARK INTER:                  -8.031
REMARK INTRA:                  -1.376
REMARK UNBOUND:                -1.441
REMARK SMILES CC[C@H](C)[C@@H]1NC(=O)[C@H]2CSC(=N2)[C@@H]([C@@H](C)CC)NC(=O)c2csc(n2)CNC(=O)[C@H]2N=C1O[C@@H]2C
REMARK SMILES IDX 27 1 25 2 22 3 26 4 23 5 24 6 20 7 19 8 21 9 14 11 12 12
REMARK SMILES IDX 11 13 10 14 13 15 9 16 15 18 16 19 17 20 18 21 28 22 29 23
REMARK SMILES IDX 30 24 31 26 32 27 35 28 33 29 34 30 36 31 5 32 6 33 7 34
REMARK SMILES IDX 8 35 3 38 4 39 2 40 1 41
REMARK H PARENT 19 10 28 25 6 36
REMARK Flexibility Score:   91.900
ROOT
ATOM      1  C   UNL     1      -2.560   1.161 -10.837  1.00  0.00     0.183 C 
ENDROOT
BRANCH   1   2
ATOM      2  C   UNL     1      -2.194   2.604 -10.640  1.00  0.00     0.113 A 
ATOM      3  C   UNL     1      -2.434   4.815 -10.494  1.00  0.00     0.139 A 
ATOM      4  N   UNL     1      -3.080   3.579 -10.561  1.00  0.00    -0.234 NA
ATOM      5  C   UNL     1      -1.055   4.738 -10.466  1.00  0.00     0.101 A 
ATOM      6  S   UNL     1      -0.552   3.099 -10.549  1.00  0.00    -0.125 S 
BRANCH   3   7
ATOM      7  C   UNL     1      -3.216   6.053 -10.500  1.00  0.00     0.271 C 
ATOM      8  N   UNL     1      -3.190   6.673  -9.275  1.00  0.00    -0.341 N 
ATOM      9  O   UNL     1      -3.842   6.458 -11.471  1.00  0.00    -0.267 OA
ATOM     10  H   UNL     1      -2.606   6.229  -8.568  1.00  0.00     0.164 HD
BRANCH   8  11
ATOM     11  C   UNL     1      -4.017   7.814  -8.919  1.00  0.00     0.140 C 
BRANCH  11  12
ATOM     12  C   UNL     1      -4.782   7.460  -7.641  1.00  0.00     0.091 C 
ATOM     13  S   UNL     1      -4.549   8.390  -6.180  1.00  0.00    -0.106 SA
ATOM     14  C   UNL     1      -5.979   7.588  -5.425  1.00  0.00     0.113 C 
ATOM     15  N   UNL     1      -5.563   6.428  -7.572  1.00  0.00    -0.267 NA
ATOM     16  C   UNL     1      -6.086   6.271  -6.178  1.00  0.00     0.205 CG0
ATOM     17  G   UNL     1      -5.335   5.155  -5.433  1.00  0.00     0.000 G0
ENDBRANCH  11  12
BRANCH  11  18
ATOM     18  C   UNL     1      -3.259   9.166  -8.916  1.00  0.00     0.015 C 
ATOM     19  C   UNL     1      -1.743   8.930  -8.952  1.00  0.00     0.010 C 
BRANCH  18  20
ATOM     20  C   UNL     1      -3.701  10.156 -10.013  1.00  0.00     0.002 C 
ATOM     21  C   UNL     1      -5.215  10.324 -10.088  1.00  0.00     0.004 C 
ENDBRANCH  18  20
ENDBRANCH  11  18
ENDBRANCH   8  11
ENDBRANCH   3   7
ENDBRANCH   1   2
BRANCH   1  22
ATOM     22  N   UNL     1      -3.404   0.774  -9.730  1.00  0.00    -0.348 N 
ATOM     23  C   UNL     1      -2.984   0.655  -8.433  1.00  0.00     0.249 C 
ATOM     24  O   UNL     1      -1.853   0.951  -8.063  1.00  0.00    -0.272 OA
ATOM     25  H   UNL     1      -4.361   0.484  -9.928  1.00  0.00     0.163 HD
BRANCH  23  26
ATOM     26  C   UNL     1      -4.095   0.172  -7.489  1.00  0.00     0.238 C 
ATOM     27  N   UNL     1      -3.961   0.866  -6.177  1.00  0.00    -0.236 NA
ATOM     28  C   UNL     1      -5.477   0.538  -8.003  1.00  0.00     0.206 C 
ATOM     29  C   UNL     1      -4.998   1.648  -6.147  1.00  0.00     0.208 C 
ATOM     30  O   UNL     1      -5.871   1.639  -7.185  1.00  0.00    -0.474 OA
ATOM     31  C   UNL     1      -6.486  -0.588  -7.820  1.00  0.00     0.056 C 
BRANCH  29  32
ATOM     32  C   UNL     1      -5.337   2.659  -5.055  1.00  0.00     0.171 C 
BRANCH  32  33
ATOM     33  N   UNL     1      -5.906   3.869  -5.625  1.00  0.00    -0.342 N 
ATOM     34  C   UNL     1      -5.352   5.112  -5.432  1.00  0.00     0.246 CG0
ATOM     35  O   UNL     1      -4.352   5.299  -4.743  1.00  0.00    -0.273 OA
ATOM     36  H   UNL     1      -6.766   3.842  -6.164  1.00  0.00     0.164 HD
ATOM     37  G   UNL     1      -6.072   6.253  -6.169  1.00  0.00     0.000 G0
ENDBRANCH  32  33
BRANCH  32  38
ATOM     38  C   UNL     1      -6.260   2.014  -3.987  1.00  0.00     0.017 C 
ATOM     39  C   UNL     1      -7.142   3.087  -3.336  1.00  0.00     0.010 C 
BRANCH  38  40
ATOM     40  C   UNL     1      -7.104   0.846  -4.545  1.00  0.00     0.002 C 
ATOM     41  C   UNL     1      -8.578   1.187  -4.717  1.00  0.00     0.004 C 
ENDBRANCH  38  40
ENDBRANCH  32  38
ENDBRANCH  29  32
ENDBRANCH  23  26
ENDBRANCH   1  22
TORSDOF 4
ENDMDL
MODEL 9
REMARK VINA RESULT:    -4.677     10.747     13.604
REMARK INTER + INTRA:          -9.398
REMARK INTER:                  -7.599
REMARK INTRA:                  -1.799
REMARK UNBOUND:                -1.441
REMARK SMILES CC[C@H](C)[C@@H]1NC(=O)[C@H]2CSC(=N2)[C@@H]([C@@H](C)CC)NC(=O)c2csc(n2)CNC(=O)[C@H]2N=C1O[C@@H]2C
REMARK SMILES IDX 27 1 25 2 22 3 26 4 23 5 24 6 20 7 19 8 21 9 14 11 12 12
REMARK SMILES IDX 11 13 10 14 13 15 9 16 15 18 16 19 17 20 18 21 28 22 29 23
REMARK SMILES IDX 30 24 31 26 32 27 35 28 33 29 34 30 36 31 5 32 6 33 7 34
REMARK SMILES IDX 8 35 3 38 4 39 2 40 1 41
REMARK H PARENT 19 10 28 25 6 36
REMARK Flexibility Score:   91.900
ROOT
ATOM      1  C   UNL     1      -8.625   1.346  -3.951  1.00  0.00     0.183 C 
ENDROOT
BRANCH   1   2
ATOM      2  C   UNL     1      -9.692   2.270  -3.438  1.00  0.00     0.113 A 
ATOM      3  C   UNL     1     -10.797   3.606  -2.037  1.00  0.00     0.139 A 
ATOM      4  N   UNL     1      -9.607   2.920  -2.291  1.00  0.00    -0.234 NA
ATOM      5  C   UNL     1     -11.742   3.503  -3.039  1.00  0.00     0.101 A 
ATOM      6  S   UNL     1     -11.150   2.514  -4.311  1.00  0.00    -0.125 S 
BRANCH   3   7
ATOM      7  C   UNL     1     -10.974   4.320  -0.771  1.00  0.00     0.271 C 
ATOM      8  N   UNL     1     -10.699   5.659  -0.902  1.00  0.00    -0.341 N 
ATOM      9  O   UNL     1     -11.295   3.776   0.278  1.00  0.00    -0.267 OA
ATOM     10  H   UNL     1     -10.467   5.971  -1.845  1.00  0.00     0.164 HD
BRANCH   8  11
ATOM     11  C   UNL     1     -10.606   6.588   0.212  1.00  0.00     0.140 C 
BRANCH  11  12
ATOM     12  C   UNL     1      -9.435   7.535  -0.062  1.00  0.00     0.091 C 
ATOM     13  S   UNL     1      -9.721   9.151  -0.664  1.00  0.00    -0.106 SA
ATOM     14  C   UNL     1      -8.001   9.591  -0.338  1.00  0.00     0.113 C 
ATOM     15  N   UNL     1      -8.202   7.157   0.069  1.00  0.00    -0.267 NA
ATOM     16  C   UNL     1      -7.280   8.252  -0.369  1.00  0.00     0.205 CG0
ATOM     17  G   UNL     1      -6.719   7.969  -1.772  1.00  0.00     0.000 G0
ENDBRANCH  11  12
BRANCH  11  18
ATOM     18  C   UNL     1     -11.954   7.251   0.593  1.00  0.00     0.015 C 
ATOM     19  C   UNL     1     -12.927   7.208  -0.593  1.00  0.00     0.010 C 
BRANCH  18  20
ATOM     20  C   UNL     1     -12.606   6.697   1.877  1.00  0.00     0.002 C 
ATOM     21  C   UNL     1     -13.060   7.792   2.835  1.00  0.00     0.004 C 
ENDBRANCH  18  20
ENDBRANCH  11  18
ENDBRANCH   8  11
ENDBRANCH   3   7
ENDBRANCH   1   2
BRANCH   1  22
ATOM     22  N   UNL     1      -7.347   1.924  -3.602  1.00  0.00    -0.348 N 
ATOM     23  C   UNL     1      -6.576   2.677  -4.446  1.00  0.00     0.249 C 
ATOM     24  O   UNL     1      -6.937   3.011  -5.569  1.00  0.00    -0.272 OA
ATOM     25  H   UNL     1      -6.941   1.692  -2.697  1.00  0.00     0.163 HD
BRANCH  23  26
ATOM     26  C   UNL     1      -5.245   3.106  -3.811  1.00  0.00     0.238 C 
ATOM     27  N   UNL     1      -4.929   4.501  -4.229  1.00  0.00    -0.236 NA
ATOM     28  C   UNL     1      -5.323   3.144  -2.295  1.00  0.00     0.206 C 
ATOM     29  C   UNL     1      -5.068   5.179  -3.129  1.00  0.00     0.208 C 
ATOM     30  O   UNL     1      -5.408   4.534  -1.986  1.00  0.00    -0.474 OA
ATOM     31  C   UNL     1      -4.076   2.574  -1.631  1.00  0.00     0.056 C 
BRANCH  29  32
ATOM     32  C   UNL     1      -4.937   6.692  -2.977  1.00  0.00     0.171 C 
BRANCH  32  33
ATOM     33  N   UNL     1      -5.585   7.150  -1.758  1.00  0.00    -0.342 N 
ATOM     34  C   UNL     1      -6.699   7.955  -1.769  1.00  0.00     0.246 CG0
ATOM     35  O   UNL     1      -7.216   8.371  -2.803  1.00  0.00    -0.273 OA
ATOM     36  H   UNL     1      -5.209   6.917  -0.845  1.00  0.00     0.164 HD
ATOM     37  G   UNL     1      -7.265   8.278  -0.376  1.00  0.00     0.000 G0
ENDBRANCH  32  33
BRANCH  32  38
ATOM     38  C   UNL     1      -3.447   7.118  -3.054  1.00  0.00     0.017 C 
ATOM     39  C   UNL     1      -3.296   8.344  -3.964  1.00  0.00     0.010 C 
BRANCH  38  40
ATOM     40  C   UNL     1      -2.817   7.361  -1.664  1.00  0.00     0.002 C 
ATOM     41  C   UNL     1      -2.195   6.113  -1.050  1.00  0.00     0.004 C 
ENDBRANCH  38  40
ENDBRANCH  32  38
ENDBRANCH  29  32
ENDBRANCH  23  26
ENDBRANCH   1  22
TORSDOF 4
ENDMDL
MODEL 10
REMARK VINA RESULT:    -4.372     13.496     15.835
REMARK INTER + INTRA:          -8.880
REMARK INTER:                  -7.424
REMARK INTRA:                  -1.456
REMARK UNBOUND:                -1.441
REMARK SMILES CC[C@H](C)[C@@H]1NC(=O)[C@H]2CSC(=N2)[C@@H]([C@@H](C)CC)NC(=O)c2csc(n2)CNC(=O)[C@H]2N=C1O[C@@H]2C
REMARK SMILES IDX 27 1 25 2 22 3 26 4 23 5 24 6 20 7 19 8 21 9 14 11 12 12
REMARK SMILES IDX 11 13 10 14 13 15 9 16 15 18 16 19 17 20 18 21 28 22 29 23
REMARK SMILES IDX 30 24 31 26 32 27 35 28 33 29 34 30 36 31 5 32 6 33 7 34
REMARK SMILES IDX 8 35 3 38 4 39 2 40 1 41
REMARK H PARENT 19 10 28 25 6 36
REMARK Flexibility Score:   91.900
ROOT
ATOM      1  C   UNL     1      -5.834   2.024  -9.303  1.00  0.00     0.183 C 
ENDROOT
BRANCH   1   2
ATOM      2  C   UNL     1      -4.825   3.111  -9.541  1.00  0.00     0.113 A 
ATOM      3  C   UNL     1      -3.977   5.162  -9.735  1.00  0.00     0.139 A 
ATOM      4  N   UNL     1      -5.060   4.389  -9.311  1.00  0.00    -0.234 NA
ATOM      5  C   UNL     1      -2.913   4.434 -10.229  1.00  0.00     0.101 A 
ATOM      6  S   UNL     1      -3.275   2.757 -10.187  1.00  0.00    -0.125 S 
BRANCH   3   7
ATOM      7  C   UNL     1      -4.051   6.624  -9.672  1.00  0.00     0.271 C 
ATOM      8  N   UNL     1      -3.342   7.121  -8.607  1.00  0.00    -0.341 N 
ATOM      9  O   UNL     1      -4.696   7.307 -10.458  1.00  0.00    -0.267 OA
ATOM     10  H   UNL     1      -2.835   6.430  -8.054  1.00  0.00     0.164 HD
BRANCH   8  11
ATOM     11  C   UNL     1      -3.379   8.509  -8.176  1.00  0.00     0.140 C 
BRANCH  11  12
ATOM     12  C   UNL     1      -3.582   8.524  -6.658  1.00  0.00     0.091 C 
ATOM     13  S   UNL     1      -2.319   9.109  -5.600  1.00  0.00    -0.106 SA
ATOM     14  C   UNL     1      -3.471   9.118  -4.210  1.00  0.00     0.113 C 
ATOM     15  N   UNL     1      -4.650   8.044  -6.103  1.00  0.00    -0.267 NA
ATOM     16  C   UNL     1      -4.522   8.096  -4.613  1.00  0.00     0.205 CG0
ATOM     17  G   UNL     1      -4.179   6.710  -4.043  1.00  0.00     0.000 G0
ENDBRANCH  11  12
BRANCH  11  18
ATOM     18  C   UNL     1      -2.212   9.370  -8.724  1.00  0.00     0.015 C 
ATOM     19  C   UNL     1      -1.057   8.473  -9.188  1.00  0.00     0.010 C 
BRANCH  18  20
ATOM     20  C   UNL     1      -2.616  10.380  -9.818  1.00  0.00     0.002 C 
ATOM     21  C   UNL     1      -4.097  10.740  -9.779  1.00  0.00     0.004 C 
ENDBRANCH  18  20
ENDBRANCH  11  18
ENDBRANCH   8  11
ENDBRANCH   3   7
ENDBRANCH   1   2
BRANCH   1  22
ATOM     22  N   UNL     1      -6.349   2.198  -7.963  1.00  0.00    -0.348 N 
ATOM     23  C   UNL     1      -5.866   1.560  -6.853  1.00  0.00     0.249 C 
ATOM     24  O   UNL     1      -4.880   0.831  -6.872  1.00  0.00    -0.272 OA
ATOM     25  H   UNL     1      -7.185   2.767  -7.835  1.00  0.00     0.163 HD
BRANCH  23  26
ATOM     26  C   UNL     1      -6.653   1.903  -5.579  1.00  0.00     0.238 C 
ATOM     27  N   UNL     1      -5.700   2.300  -4.506  1.00  0.00    -0.236 NA
ATOM     28  C   UNL     1      -7.563   3.103  -5.779  1.00  0.00     0.206 C 
ATOM     29  C   UNL     1      -5.929   3.571  -4.359  1.00  0.00     0.208 C 
ATOM     30  O   UNL     1      -6.884   4.167  -5.114  1.00  0.00    -0.474 OA
ATOM     31  C   UNL     1      -8.928   2.916  -5.130  1.00  0.00     0.056 C 
BRANCH  29  32
ATOM     32  C   UNL     1      -5.181   4.524  -3.431  1.00  0.00     0.171 C 
BRANCH  32  33
ATOM     33  N   UNL     1      -5.285   5.896  -3.902  1.00  0.00    -0.342 N 
ATOM     34  C   UNL     1      -4.192   6.718  -4.040  1.00  0.00     0.246 CG0
ATOM     35  O   UNL     1      -3.050   6.367  -3.752  1.00  0.00    -0.273 OA
ATOM     36  H   UNL     1      -6.187   6.311  -4.113  1.00  0.00     0.164 HD
ATOM     37  G   UNL     1      -4.509   8.111  -4.608  1.00  0.00     0.000 G0
ENDBRANCH  32  33
BRANCH  32  38
ATOM     38  C   UNL     1      -5.674   4.358  -1.970  1.00  0.00     0.017 C 
ATOM     39  C   UNL     1      -6.076   5.720  -1.391  1.00  0.00     0.010 C 
BRANCH  38  40
ATOM     40  C   UNL     1      -6.814   3.323  -1.833  1.00  0.00     0.002 C 
ATOM     41  C   UNL     1      -6.552   2.265  -0.769  1.00  0.00     0.004 C 
ENDBRANCH  38  40
ENDBRANCH  32  38
ENDBRANCH  29  32
ENDBRANCH  23  26
ENDBRANCH   1  22
TORSDOF 4
ENDMDL
