MODEL 1
REMARK VINA RESULT:    -6.488      0.000      0.000
REMARK INTER + INTRA:         -17.467
REMARK INTER:                 -13.126
REMARK INTRA:                  -4.340
REMARK UNBOUND:                -4.340
REMARK SMILES CC[C@@H](C)[C@@H](NC(=O)[C@@H](O)Cc1ccc(O)c(Cl)c1)C(=O)N1[C@H](C(=O)NCCCCN=C(N)N)C[C@H]2CC[C@H](OS(=O)(=O)O)C[C@@H]21
REMARK SMILES IDX 22 1 36 2 46 3 35 4 23 5 45 6 37 7 39 8 38 9 20 10 21 11
REMARK SMILES IDX 5 12 6 13 7 14 8 15 9 17 11 18 12 19 17 20 19 21 15 22 14 23
REMARK SMILES IDX 13 24 18 25 16 26 10 28 3 30 4 31 2 32 1 33 24 34 25 35
REMARK SMILES IDX 26 36 27 38 28 39 29 40 30 41 31 42 32 43 33 44 34 45 40 50
REMARK SMILES IDX 41 51 42 52 43 53 44 54
REMARK H PARENT 6 16 16 27 10 29 26 37 33 46 33 47 34 48 34 49 44 55
ROOT
ATOM      1  N   UNL     1       8.817  -3.983   1.174  1.00  0.00    -0.326 N 
ATOM      2  C   UNL     1      10.172  -2.218   1.944  1.00  0.00     0.014 C 
ATOM      3  C   UNL     1       8.753  -2.789   2.022  1.00  0.00     0.091 C 
ATOM      4  C   UNL     1      10.586  -2.546   0.517  1.00  0.00     0.041 C 
ATOM      5  C   UNL     1      10.093  -4.001   0.418  1.00  0.00     0.175 C 
ATOM      6  C   UNL     1       8.384  -2.964   3.494  1.00  0.00     0.059 C 
ATOM      7  C   UNL     1      10.204  -0.778   2.415  1.00  0.00     0.008 C 
ATOM      8  C   UNL     1       9.034  -1.920   4.427  1.00  0.00     0.143 C 
ATOM      9  C   UNL     1       9.351  -0.603   3.689  1.00  0.00     0.034 C 
ENDROOT
BRANCH   1  10
ATOM     10  C   UNL     1       7.827  -4.895   0.850  1.00  0.00     0.246 C 
ATOM     11  O   UNL     1       7.606  -5.840   1.615  1.00  0.00    -0.272 OA
BRANCH  10  12
ATOM     12  C   UNL     1       6.988  -4.688  -0.445  1.00  0.00     0.174 C 
BRANCH  12  13
ATOM     13  N   UNL     1       7.684  -5.277  -1.589  1.00  0.00    -0.342 N 
ATOM     14  C   UNL     1       7.067  -5.838  -2.685  1.00  0.00     0.249 C 
ATOM     15  O   UNL     1       5.853  -5.882  -2.836  1.00  0.00    -0.272 OA
ATOM     16  H   UNL     1       8.684  -5.454  -1.534  1.00  0.00     0.164 HD
BRANCH  14  17
ATOM     17  C   UNL     1       8.074  -6.391  -3.716  1.00  0.00     0.207 C 
BRANCH  17  18
ATOM     18  C   UNL     1       8.907  -5.252  -4.314  1.00  0.00     0.077 C 
BRANCH  18  19
ATOM     19  C   UNL     1      10.287  -5.184  -3.700  1.00  0.00    -0.043 A 
ATOM     20  C   UNL     1      12.169  -6.278  -2.630  1.00  0.00     0.083 A 
ATOM     21  C   UNL     1      10.917  -6.351  -3.241  1.00  0.00     0.028 A 
ATOM     22  C   UNL     1      12.798  -5.042  -2.472  1.00  0.00     0.134 A 
ATOM     23  C   UNL     1      12.186  -3.878  -2.922  1.00  0.00     0.048 A 
ATOM     24  C   UNL     1      10.932  -3.948  -3.533  1.00  0.00     0.008 A 
ATOM     25  Cl  UNL     1      12.927  -7.723  -2.072  1.00  0.00    -0.080 Cl
BRANCH  22  26
ATOM     26  O   UNL     1      14.021  -4.919  -1.870  1.00  0.00    -0.506 OA
ATOM     27  H   UNL     1      14.215  -3.965  -1.822  1.00  0.00     0.293 HD
ENDBRANCH  22  26
ENDBRANCH  18  19
ENDBRANCH  17  18
BRANCH  17  28
ATOM     28  O   UNL     1       7.400  -7.093  -4.773  1.00  0.00    -0.383 OA
ATOM     29  H   UNL     1       8.100  -7.368  -5.407  1.00  0.00     0.211 HD
ENDBRANCH  17  28
ENDBRANCH  14  17
ENDBRANCH  12  13
BRANCH  12  30
ATOM     30  C   UNL     1       6.609  -3.202  -0.683  1.00  0.00     0.018 C 
ATOM     31  C   UNL     1       5.103  -3.059  -0.953  1.00  0.00     0.010 C 
BRANCH  30  32
ATOM     32  C   UNL     1       7.420  -2.528  -1.817  1.00  0.00     0.002 C 
ATOM     33  C   UNL     1       6.618  -2.156  -3.058  1.00  0.00     0.004 C 
ENDBRANCH  30  32
ENDBRANCH  12  30
ENDBRANCH  10  12
ENDBRANCH   1  10
BRANCH   5  34
ATOM     34  C   UNL     1      11.100  -4.992   1.062  1.00  0.00     0.242 C 
ATOM     35  O   UNL     1      12.288  -5.025   0.740  1.00  0.00    -0.273 OA
ATOM     36  N   UNL     1      10.558  -5.865   1.978  1.00  0.00    -0.354 N 
ATOM     37  H   UNL     1       9.546  -5.870   2.114  1.00  0.00     0.163 HD
BRANCH  36  38
ATOM     38  C   UNL     1      11.379  -6.704   2.826  1.00  0.00     0.116 C 
BRANCH  38  39
ATOM     39  C   UNL     1      10.853  -6.664   4.259  1.00  0.00     0.023 C 
BRANCH  39  40
ATOM     40  C   UNL     1      10.225  -7.987   4.686  1.00  0.00     0.026 C 
BRANCH  40  41
ATOM     41  C   UNL     1       9.098  -7.752   5.692  1.00  0.00     0.146 C 
BRANCH  41  42
ATOM     42  N   UNL     1       8.745  -6.339   5.715  1.00  0.00    -0.254 NA
ATOM     43  C   UNL     1       8.678  -5.721   6.834  1.00  0.00     0.185 C 
ATOM     44  N   UNL     1       8.891  -6.170   8.085  1.00  0.00    -0.370 N 
ATOM     45  N   UNL     1       8.347  -4.419   6.834  1.00  0.00    -0.370 N 
ATOM     46  H   UNL     1       8.568  -5.646   8.880  1.00  0.00     0.159 HD
ATOM     47  H   UNL     1       9.164  -7.131   8.267  1.00  0.00     0.159 HD
ATOM     48  H   UNL     1       8.178  -3.999   5.930  1.00  0.00     0.159 HD
ATOM     49  H   UNL     1       8.503  -3.818   7.624  1.00  0.00     0.159 HD
ENDBRANCH  41  42
ENDBRANCH  40  41
ENDBRANCH  39  40
ENDBRANCH  38  39
ENDBRANCH  36  38
ENDBRANCH   5  34
BRANCH   8  50
ATOM     50  O   UNL     1      10.247  -2.438   4.973  1.00  0.00    -0.245 OA
BRANCH  50  51
ATOM     51  S   UNL     1      10.762  -1.914   6.424  1.00  0.00     0.397 S 
ATOM     52  O   UNL     1       9.621  -1.395   7.142  1.00  0.00    -0.169 OA
ATOM     53  O   UNL     1      11.974  -1.138   6.258  1.00  0.00    -0.169 OA
BRANCH  51  54
ATOM     54  O   UNL     1      11.152  -3.291   7.158  1.00  0.00    -0.264 OA
ATOM     55  H   UNL     1      11.897  -3.105   7.765  1.00  0.00     0.236 HD
ENDBRANCH  51  54
ENDBRANCH  50  51
ENDBRANCH   8  50
TORSDOF 19
ENDMDL
MODEL 2
REMARK VINA RESULT:    -6.463      3.007      5.462
REMARK INTER + INTRA:         -17.415
REMARK INTER:                 -13.345
REMARK INTRA:                  -4.069
REMARK UNBOUND:                -4.340
REMARK SMILES CC[C@@H](C)[C@@H](NC(=O)[C@@H](O)Cc1ccc(O)c(Cl)c1)C(=O)N1[C@H](C(=O)NCCCCN=C(N)N)C[C@H]2CC[C@H](OS(=O)(=O)O)C[C@@H]21
REMARK SMILES IDX 22 1 36 2 46 3 35 4 23 5 45 6 37 7 39 8 38 9 20 10 21 11
REMARK SMILES IDX 5 12 6 13 7 14 8 15 9 17 11 18 12 19 17 20 19 21 15 22 14 23
REMARK SMILES IDX 13 24 18 25 16 26 10 28 3 30 4 31 2 32 1 33 24 34 25 35
REMARK SMILES IDX 26 36 27 38 28 39 29 40 30 41 31 42 32 43 33 44 34 45 40 50
REMARK SMILES IDX 41 51 42 52 43 53 44 54
REMARK H PARENT 6 16 16 27 10 29 26 37 33 46 33 47 34 48 34 49 44 55
ROOT
ATOM      1  N   UNL     1      10.905  -4.672   3.439  1.00  0.00    -0.326 N 
ATOM      2  C   UNL     1       9.909  -2.864   4.571  1.00  0.00     0.014 C 
ATOM      3  C   UNL     1       9.727  -3.803   3.375  1.00  0.00     0.091 C 
ATOM      4  C   UNL     1      11.418  -2.685   4.630  1.00  0.00     0.041 C 
ATOM      5  C   UNL     1      11.873  -4.142   4.431  1.00  0.00     0.175 C 
ATOM      6  C   UNL     1       8.345  -4.448   3.473  1.00  0.00     0.059 C 
ATOM      7  C   UNL     1       9.019  -1.643   4.443  1.00  0.00     0.008 C 
ATOM      8  C   UNL     1       7.282  -3.543   4.133  1.00  0.00     0.143 C 
ATOM      9  C   UNL     1       7.609  -2.046   3.962  1.00  0.00     0.034 C 
ENDROOT
BRANCH   1  10
ATOM     10  C   UNL     1      11.294  -5.704   2.602  1.00  0.00     0.246 C 
ATOM     11  O   UNL     1      11.233  -6.867   3.015  1.00  0.00    -0.272 OA
BRANCH  10  12
ATOM     12  C   UNL     1      11.756  -5.383   1.151  1.00  0.00     0.174 C 
BRANCH  12  13
ATOM     13  N   UNL     1      10.598  -5.333   0.259  1.00  0.00    -0.342 N 
ATOM     14  C   UNL     1      10.039  -4.180  -0.246  1.00  0.00     0.249 C 
ATOM     15  O   UNL     1      10.474  -3.057  -0.023  1.00  0.00    -0.272 OA
ATOM     16  H   UNL     1      10.038  -6.169   0.112  1.00  0.00     0.164 HD
BRANCH  14  17
ATOM     17  C   UNL     1       8.815  -4.456  -1.145  1.00  0.00     0.207 C 
BRANCH  17  18
ATOM     18  C   UNL     1       7.661  -5.031  -0.317  1.00  0.00     0.077 C 
BRANCH  18  19
ATOM     19  C   UNL     1       6.412  -4.186  -0.432  1.00  0.00    -0.043 A 
ATOM     20  C   UNL     1       5.085  -2.287   0.286  1.00  0.00     0.083 A 
ATOM     21  C   UNL     1       6.260  -3.036   0.359  1.00  0.00     0.028 A 
ATOM     22  C   UNL     1       4.058  -2.680  -0.572  1.00  0.00     0.134 A 
ATOM     23  C   UNL     1       4.195  -3.817  -1.360  1.00  0.00     0.048 A 
ATOM     24  C   UNL     1       5.369  -4.570  -1.288  1.00  0.00     0.008 A 
ATOM     25  Cl  UNL     1       4.916  -0.877   1.265  1.00  0.00    -0.080 Cl
BRANCH  22  26
ATOM     26  O   UNL     1       2.883  -1.984  -0.669  1.00  0.00    -0.506 OA
ATOM     27  H   UNL     1       2.304  -2.493  -1.266  1.00  0.00     0.293 HD
ENDBRANCH  22  26
ENDBRANCH  18  19
ENDBRANCH  17  18
BRANCH  17  28
ATOM     28  O   UNL     1       9.145  -5.371  -2.202  1.00  0.00    -0.383 OA
ATOM     29  H   UNL     1       8.299  -5.798  -2.466  1.00  0.00     0.211 HD
ENDBRANCH  17  28
ENDBRANCH  14  17
ENDBRANCH  12  13
BRANCH  12  30
ATOM     30  C   UNL     1      12.854  -6.355   0.643  1.00  0.00     0.018 C 
ATOM     31  C   UNL     1      14.159  -5.599   0.348  1.00  0.00     0.010 C 
BRANCH  30  32
ATOM     32  C   UNL     1      12.427  -7.182  -0.595  1.00  0.00     0.002 C 
ATOM     33  C   UNL     1      13.435  -8.224  -1.061  1.00  0.00     0.004 C 
ENDBRANCH  30  32
ENDBRANCH  12  30
ENDBRANCH  10  12
ENDBRANCH   1  10
BRANCH   5  34
ATOM     34  C   UNL     1      11.802  -4.949   5.755  1.00  0.00     0.242 C 
ATOM     35  O   UNL     1      11.089  -4.604   6.698  1.00  0.00    -0.273 OA
ATOM     36  N   UNL     1      12.632  -6.046   5.818  1.00  0.00    -0.354 N 
ATOM     37  H   UNL     1      13.286  -6.211   5.053  1.00  0.00     0.163 HD
BRANCH  36  38
ATOM     38  C   UNL     1      12.538  -7.026   6.880  1.00  0.00     0.116 C 
BRANCH  38  39
ATOM     39  C   UNL     1      11.767  -8.249   6.389  1.00  0.00     0.023 C 
BRANCH  39  40
ATOM     40  C   UNL     1      10.571  -8.579   7.276  1.00  0.00     0.026 C 
BRANCH  40  41
ATOM     41  C   UNL     1       9.267  -8.133   6.617  1.00  0.00     0.146 C 
BRANCH  41  42
ATOM     42  N   UNL     1       8.217  -8.030   7.621  1.00  0.00    -0.254 NA
ATOM     43  C   UNL     1       7.883  -6.880   8.073  1.00  0.00     0.185 C 
ATOM     44  N   UNL     1       8.359  -5.659   7.767  1.00  0.00    -0.370 N 
ATOM     45  N   UNL     1       6.916  -6.807   9.002  1.00  0.00    -0.370 N 
ATOM     46  H   UNL     1       8.180  -4.873   8.370  1.00  0.00     0.159 HD
ATOM     47  H   UNL     1       9.087  -5.529   7.071  1.00  0.00     0.159 HD
ATOM     48  H   UNL     1       6.497  -7.683   9.283  1.00  0.00     0.159 HD
ATOM     49  H   UNL     1       6.441  -5.951   9.227  1.00  0.00     0.159 HD
ENDBRANCH  41  42
ENDBRANCH  40  41
ENDBRANCH  39  40
ENDBRANCH  38  39
ENDBRANCH  36  38
ENDBRANCH   5  34
BRANCH   8  50
ATOM     50  O   UNL     1       7.193  -3.831   5.529  1.00  0.00    -0.245 OA
BRANCH  50  51
ATOM     51  S   UNL     1       6.020  -3.137   6.418  1.00  0.00     0.397 S 
ATOM     52  O   UNL     1       4.856  -2.980   5.576  1.00  0.00    -0.169 OA
ATOM     53  O   UNL     1       6.571  -2.027   7.168  1.00  0.00    -0.169 OA
BRANCH  51  54
ATOM     54  O   UNL     1       5.653  -4.306   7.460  1.00  0.00    -0.264 OA
ATOM     55  H   UNL     1       6.490  -4.726   7.744  1.00  0.00     0.236 HD
ENDBRANCH  51  54
ENDBRANCH  50  51
ENDBRANCH   8  50
TORSDOF 19
ENDMDL
MODEL 3
REMARK VINA RESULT:    -6.447      2.378      5.072
REMARK INTER + INTRA:         -17.382
REMARK INTER:                 -14.418
REMARK INTRA:                  -2.964
REMARK UNBOUND:                -4.340
REMARK SMILES CC[C@@H](C)[C@@H](NC(=O)[C@@H](O)Cc1ccc(O)c(Cl)c1)C(=O)N1[C@H](C(=O)NCCCCN=C(N)N)C[C@H]2CC[C@H](OS(=O)(=O)O)C[C@@H]21
REMARK SMILES IDX 22 1 36 2 46 3 35 4 23 5 45 6 37 7 39 8 38 9 20 10 21 11
REMARK SMILES IDX 5 12 6 13 7 14 8 15 9 17 11 18 12 19 17 20 19 21 15 22 14 23
REMARK SMILES IDX 13 24 18 25 16 26 10 28 3 30 4 31 2 32 1 33 24 34 25 35
REMARK SMILES IDX 26 36 27 38 28 39 29 40 30 41 31 42 32 43 33 44 34 45 40 50
REMARK SMILES IDX 41 51 42 52 43 53 44 54
REMARK H PARENT 6 16 16 27 10 29 26 37 33 46 33 47 34 48 34 49 44 55
ROOT
ATOM      1  N   UNL     1      11.507  -5.575   3.265  1.00  0.00    -0.326 N 
ATOM      2  C   UNL     1      12.114  -4.584   5.313  1.00  0.00     0.014 C 
ATOM      3  C   UNL     1      12.023  -4.315   3.808  1.00  0.00     0.091 C 
ATOM      4  C   UNL     1      12.497  -6.055   5.367  1.00  0.00     0.041 C 
ATOM      5  C   UNL     1      11.532  -6.627   4.311  1.00  0.00     0.175 C 
ATOM      6  C   UNL     1      11.202  -3.044   3.594  1.00  0.00     0.059 C 
ATOM      7  C   UNL     1      12.999  -3.560   5.995  1.00  0.00     0.008 C 
ATOM      8  C   UNL     1      11.350  -2.010   4.731  1.00  0.00     0.143 C 
ATOM      9  C   UNL     1      12.701  -2.142   5.463  1.00  0.00     0.034 C 
ENDROOT
BRANCH   1  10
ATOM     10  C   UNL     1      11.238  -5.932   1.955  1.00  0.00     0.246 C 
ATOM     11  O   UNL     1      10.086  -6.253   1.644  1.00  0.00    -0.272 OA
BRANCH  10  12
ATOM     12  C   UNL     1      12.377  -5.881   0.896  1.00  0.00     0.174 C 
BRANCH  12  13
ATOM     13  N   UNL     1      11.827  -5.528  -0.412  1.00  0.00    -0.342 N 
ATOM     14  C   UNL     1      12.466  -4.756  -1.356  1.00  0.00     0.249 C 
ATOM     15  O   UNL     1      13.593  -4.298  -1.212  1.00  0.00    -0.272 OA
ATOM     16  H   UNL     1      10.845  -5.703  -0.610  1.00  0.00     0.164 HD
BRANCH  14  17
ATOM     17  C   UNL     1      11.618  -4.546  -2.628  1.00  0.00     0.207 C 
BRANCH  17  18
ATOM     18  C   UNL     1      10.936  -5.854  -3.039  1.00  0.00     0.077 C 
BRANCH  18  19
ATOM     19  C   UNL     1       9.448  -5.674  -3.241  1.00  0.00    -0.043 A 
ATOM     20  C   UNL     1       7.296  -4.897  -2.436  1.00  0.00     0.083 A 
ATOM     21  C   UNL     1       8.676  -5.018  -2.270  1.00  0.00     0.028 A 
ATOM     22  C   UNL     1       6.680  -5.429  -3.569  1.00  0.00     0.134 A 
ATOM     23  C   UNL     1       7.433  -6.081  -4.539  1.00  0.00     0.048 A 
ATOM     24  C   UNL     1       8.814  -6.206  -4.375  1.00  0.00     0.008 A 
ATOM     25  Cl  UNL     1       6.364  -4.088  -1.231  1.00  0.00    -0.080 Cl
BRANCH  22  26
ATOM     26  O   UNL     1       5.329  -5.344  -3.771  1.00  0.00    -0.506 OA
ATOM     27  H   UNL     1       5.200  -4.833  -4.591  1.00  0.00     0.293 HD
ENDBRANCH  22  26
ENDBRANCH  18  19
ENDBRANCH  17  18
BRANCH  17  28
ATOM     28  O   UNL     1      12.426  -4.067  -3.715  1.00  0.00    -0.383 OA
ATOM     29  H   UNL     1      13.312  -4.478  -3.598  1.00  0.00     0.211 HD
ENDBRANCH  17  28
ENDBRANCH  14  17
ENDBRANCH  12  13
BRANCH  12  30
ATOM     30  C   UNL     1      13.214  -7.188   0.853  1.00  0.00     0.018 C 
ATOM     31  C   UNL     1      12.898  -7.998  -0.415  1.00  0.00     0.010 C 
BRANCH  30  32
ATOM     32  C   UNL     1      13.044  -8.077   2.108  1.00  0.00     0.002 C 
ATOM     33  C   UNL     1      13.650  -9.471   2.006  1.00  0.00     0.004 C 
ENDBRANCH  30  32
ENDBRANCH  12  30
ENDBRANCH  10  12
ENDBRANCH   1  10
BRANCH   5  34
ATOM     34  C   UNL     1      10.113  -6.855   4.896  1.00  0.00     0.242 C 
ATOM     35  O   UNL     1       9.126  -6.246   4.484  1.00  0.00    -0.273 OA
ATOM     36  N   UNL     1      10.048  -7.746   5.944  1.00  0.00    -0.354 N 
ATOM     37  H   UNL     1      10.917  -8.128   6.319  1.00  0.00     0.163 HD
BRANCH  36  38
ATOM     38  C   UNL     1       8.789  -8.238   6.463  1.00  0.00     0.116 C 
BRANCH  38  39
ATOM     39  C   UNL     1       8.530  -7.642   7.845  1.00  0.00     0.023 C 
BRANCH  39  40
ATOM     40  C   UNL     1       7.072  -7.240   8.043  1.00  0.00     0.026 C 
BRANCH  40  41
ATOM     41  C   UNL     1       6.963  -5.759   8.408  1.00  0.00     0.146 C 
BRANCH  41  42
ATOM     42  N   UNL     1       6.644  -4.981   7.218  1.00  0.00    -0.254 NA
ATOM     43  C   UNL     1       7.580  -4.378   6.587  1.00  0.00     0.185 C 
ATOM     44  N   UNL     1       8.901  -4.328   6.838  1.00  0.00    -0.370 N 
ATOM     45  N   UNL     1       7.265  -3.662   5.495  1.00  0.00    -0.370 N 
ATOM     46  H   UNL     1       9.479  -3.625   6.409  1.00  0.00     0.159 HD
ATOM     47  H   UNL     1       9.314  -4.826   7.621  1.00  0.00     0.159 HD
ATOM     48  H   UNL     1       6.289  -3.654   5.230  1.00  0.00     0.159 HD
ATOM     49  H   UNL     1       7.950  -3.365   4.823  1.00  0.00     0.159 HD
ENDBRANCH  41  42
ENDBRANCH  40  41
ENDBRANCH  39  40
ENDBRANCH  38  39
ENDBRANCH  36  38
ENDBRANCH   5  34
BRANCH   8  50
ATOM     50  O   UNL     1      10.299  -2.176   5.684  1.00  0.00    -0.245 OA
BRANCH  50  51
ATOM     51  S   UNL     1       9.758  -0.887   6.515  1.00  0.00     0.397 S 
ATOM     52  O   UNL     1       8.343  -1.069   6.749  1.00  0.00    -0.169 OA
ATOM     53  O   UNL     1      10.280   0.327   5.923  1.00  0.00    -0.169 OA
BRANCH  51  54
ATOM     54  O   UNL     1      10.467  -1.087   7.944  1.00  0.00    -0.264 OA
ATOM     55  H   UNL     1      11.190  -0.430   8.013  1.00  0.00     0.236 HD
ENDBRANCH  51  54
ENDBRANCH  50  51
ENDBRANCH   8  50
TORSDOF 19
ENDMDL
MODEL 4
REMARK VINA RESULT:    -6.435      2.193      2.750
REMARK INTER + INTRA:         -17.359
REMARK INTER:                 -13.046
REMARK INTRA:                  -4.313
REMARK UNBOUND:                -4.340
REMARK SMILES CC[C@@H](C)[C@@H](NC(=O)[C@@H](O)Cc1ccc(O)c(Cl)c1)C(=O)N1[C@H](C(=O)NCCCCN=C(N)N)C[C@H]2CC[C@H](OS(=O)(=O)O)C[C@@H]21
REMARK SMILES IDX 22 1 36 2 46 3 35 4 23 5 45 6 37 7 39 8 38 9 20 10 21 11
REMARK SMILES IDX 5 12 6 13 7 14 8 15 9 17 11 18 12 19 17 20 19 21 15 22 14 23
REMARK SMILES IDX 13 24 18 25 16 26 10 28 3 30 4 31 2 32 1 33 24 34 25 35
REMARK SMILES IDX 26 36 27 38 28 39 29 40 30 41 31 42 32 43 33 44 34 45 40 50
REMARK SMILES IDX 41 51 42 52 43 53 44 54
REMARK H PARENT 6 16 16 27 10 29 26 37 33 46 33 47 34 48 34 49 44 55
ROOT
ATOM      1  N   UNL     1       7.885  -3.592   0.838  1.00  0.00    -0.326 N 
ATOM      2  C   UNL     1       8.196  -1.430   1.715  1.00  0.00     0.014 C 
ATOM      3  C   UNL     1       7.194  -2.586   1.650  1.00  0.00     0.091 C 
ATOM      4  C   UNL     1       8.862  -1.487   0.349  1.00  0.00     0.041 C 
ATOM      5  C   UNL     1       9.100  -3.003   0.225  1.00  0.00     0.175 C 
ATOM      6  C   UNL     1       6.793  -2.957   3.077  1.00  0.00     0.059 C 
ATOM      7  C   UNL     1       7.518  -0.148   2.158  1.00  0.00     0.008 C 
ATOM      8  C   UNL     1       6.793  -1.762   4.054  1.00  0.00     0.143 C 
ATOM      9  C   UNL     1       6.551  -0.422   3.330  1.00  0.00     0.034 C 
ENDROOT
BRANCH   1  10
ATOM     10  C   UNL     1       7.460  -4.844   0.426  1.00  0.00     0.246 C 
ATOM     11  O   UNL     1       7.693  -5.823   1.142  1.00  0.00    -0.272 OA
BRANCH  10  12
ATOM     12  C   UNL     1       6.664  -4.984  -0.904  1.00  0.00     0.174 C 
BRANCH  12  13
ATOM     13  N   UNL     1       7.581  -5.272  -2.006  1.00  0.00    -0.342 N 
ATOM     14  C   UNL     1       7.424  -6.291  -2.918  1.00  0.00     0.249 C 
ATOM     15  O   UNL     1       6.473  -7.062  -2.923  1.00  0.00    -0.272 OA
ATOM     16  H   UNL     1       8.490  -4.819  -2.036  1.00  0.00     0.164 HD
BRANCH  14  17
ATOM     17  C   UNL     1       8.570  -6.347  -3.952  1.00  0.00     0.207 C 
BRANCH  17  18
ATOM     18  C   UNL     1       9.324  -5.014  -3.987  1.00  0.00     0.077 C 
BRANCH  18  19
ATOM     19  C   UNL     1      10.697  -5.128  -3.364  1.00  0.00    -0.043 A 
ATOM     20  C   UNL     1      12.453  -6.481  -2.378  1.00  0.00     0.083 A 
ATOM     21  C   UNL     1      11.206  -6.384  -2.998  1.00  0.00     0.028 A 
ATOM     22  C   UNL     1      13.196  -5.329  -2.120  1.00  0.00     0.134 A 
ATOM     23  C   UNL     1      12.704  -4.079  -2.478  1.00  0.00     0.048 A 
ATOM     24  C   UNL     1      11.456  -3.978  -3.097  1.00  0.00     0.008 A 
ATOM     25  Cl  UNL     1      13.061  -8.032  -1.935  1.00  0.00    -0.080 Cl
BRANCH  22  26
ATOM     26  O   UNL     1      14.418  -5.373  -1.506  1.00  0.00    -0.506 OA
ATOM     27  H   UNL     1      14.568  -6.301  -1.247  1.00  0.00     0.293 HD
ENDBRANCH  22  26
ENDBRANCH  18  19
ENDBRANCH  17  18
BRANCH  17  28
ATOM     28  O   UNL     1       8.068  -6.646  -5.264  1.00  0.00    -0.383 OA
ATOM     29  H   UNL     1       7.263  -6.092  -5.381  1.00  0.00     0.211 HD
ENDBRANCH  17  28
ENDBRANCH  14  17
ENDBRANCH  12  13
BRANCH  12  30
ATOM     30  C   UNL     1       5.757  -3.758  -1.192  1.00  0.00     0.018 C 
ATOM     31  C   UNL     1       4.308  -4.199  -1.453  1.00  0.00     0.010 C 
BRANCH  30  32
ATOM     32  C   UNL     1       6.261  -2.872  -2.358  1.00  0.00     0.002 C 
ATOM     33  C   UNL     1       6.317  -1.379  -2.064  1.00  0.00     0.004 C 
ENDBRANCH  30  32
ENDBRANCH  12  30
ENDBRANCH  10  12
ENDBRANCH   1  10
BRANCH   5  34
ATOM     34  C   UNL     1      10.374  -3.446   0.993  1.00  0.00     0.242 C 
ATOM     35  O   UNL     1      11.502  -3.080   0.664  1.00  0.00    -0.273 OA
ATOM     36  N   UNL     1      10.155  -4.320   2.034  1.00  0.00    -0.354 N 
ATOM     37  H   UNL     1       9.212  -4.681   2.183  1.00  0.00     0.163 HD
BRANCH  36  38
ATOM     38  C   UNL     1      11.192  -4.665   2.985  1.00  0.00     0.116 C 
BRANCH  38  39
ATOM     39  C   UNL     1      10.975  -3.899   4.288  1.00  0.00     0.023 C 
BRANCH  39  40
ATOM     40  C   UNL     1      11.543  -2.485   4.235  1.00  0.00     0.026 C 
BRANCH  40  41
ATOM     41  C   UNL     1      12.595  -2.282   5.326  1.00  0.00     0.146 C 
BRANCH  41  42
ATOM     42  N   UNL     1      11.953  -1.810   6.546  1.00  0.00    -0.254 NA
ATOM     43  C   UNL     1      12.062  -0.580   6.884  1.00  0.00     0.185 C 
ATOM     44  N   UNL     1      12.706   0.431   6.274  1.00  0.00    -0.370 N 
ATOM     45  N   UNL     1      11.467  -0.167   8.015  1.00  0.00    -0.370 N 
ATOM     46  H   UNL     1      12.914   1.281   6.771  1.00  0.00     0.159 HD
ATOM     47  H   UNL     1      13.200   0.297   5.397  1.00  0.00     0.159 HD
ATOM     48  H   UNL     1      10.952  -0.866   8.532  1.00  0.00     0.159 HD
ATOM     49  H   UNL     1      11.305   0.803   8.221  1.00  0.00     0.159 HD
ENDBRANCH  41  42
ENDBRANCH  40  41
ENDBRANCH  39  40
ENDBRANCH  38  39
ENDBRANCH  36  38
ENDBRANCH   5  34
BRANCH   8  50
ATOM     50  O   UNL     1       8.044  -1.688   4.738  1.00  0.00    -0.245 OA
BRANCH  50  51
ATOM     51  S   UNL     1       8.102  -1.069   6.241  1.00  0.00     0.397 S 
ATOM     52  O   UNL     1       6.786  -1.196   6.827  1.00  0.00    -0.169 OA
ATOM     53  O   UNL     1       8.804   0.197   6.218  1.00  0.00    -0.169 OA
BRANCH  51  54
ATOM     54  O   UNL     1       9.028  -2.136   7.008  1.00  0.00    -0.264 OA
ATOM     55  H   UNL     1       9.655  -1.637   7.570  1.00  0.00     0.236 HD
ENDBRANCH  51  54
ENDBRANCH  50  51
ENDBRANCH   8  50
TORSDOF 19
ENDMDL
MODEL 5
REMARK VINA RESULT:    -6.426      5.248      8.591
REMARK INTER + INTRA:         -17.339
REMARK INTER:                 -13.349
REMARK INTRA:                  -3.991
REMARK UNBOUND:                -4.340
REMARK SMILES CC[C@@H](C)[C@@H](NC(=O)[C@@H](O)Cc1ccc(O)c(Cl)c1)C(=O)N1[C@H](C(=O)NCCCCN=C(N)N)C[C@H]2CC[C@H](OS(=O)(=O)O)C[C@@H]21
REMARK SMILES IDX 22 1 36 2 46 3 35 4 23 5 45 6 37 7 39 8 38 9 20 10 21 11
REMARK SMILES IDX 5 12 6 13 7 14 8 15 9 17 11 18 12 19 17 20 19 21 15 22 14 23
REMARK SMILES IDX 13 24 18 25 16 26 10 28 3 30 4 31 2 32 1 33 24 34 25 35
REMARK SMILES IDX 26 36 27 38 28 39 29 40 30 41 31 42 32 43 33 44 34 45 40 50
REMARK SMILES IDX 41 51 42 52 43 53 44 54
REMARK H PARENT 6 16 16 27 10 29 26 37 33 46 33 47 34 48 34 49 44 55
ROOT
ATOM      1  N   UNL     1       3.411  -0.700   4.538  1.00  0.00    -0.326 N 
ATOM      2  C   UNL     1       1.818   1.022   4.336  1.00  0.00     0.014 C 
ATOM      3  C   UNL     1       2.865   0.436   5.287  1.00  0.00     0.091 C 
ATOM      4  C   UNL     1       1.270  -0.214   3.639  1.00  0.00     0.041 C 
ATOM      5  C   UNL     1       2.583  -0.959   3.334  1.00  0.00     0.175 C 
ATOM      6  C   UNL     1       3.819   1.554   5.704  1.00  0.00     0.059 C 
ATOM      7  C   UNL     1       0.866   1.940   5.077  1.00  0.00     0.008 C 
ATOM      8  C   UNL     1       3.152   2.945   5.775  1.00  0.00     0.143 C 
ATOM      9  C   UNL     1       1.639   2.848   6.057  1.00  0.00     0.034 C 
ENDROOT
BRANCH   1  10
ATOM     10  C   UNL     1       4.381  -1.619   4.901  1.00  0.00     0.246 C 
ATOM     11  O   UNL     1       4.035  -2.754   5.243  1.00  0.00    -0.272 OA
BRANCH  10  12
ATOM     12  C   UNL     1       5.883  -1.218   4.829  1.00  0.00     0.174 C 
BRANCH  12  13
ATOM     13  N   UNL     1       6.567  -2.027   3.821  1.00  0.00    -0.342 N 
ATOM     14  C   UNL     1       7.428  -1.537   2.864  1.00  0.00     0.249 C 
ATOM     15  O   UNL     1       7.740  -0.357   2.769  1.00  0.00    -0.272 OA
ATOM     16  H   UNL     1       6.288  -2.995   3.678  1.00  0.00     0.164 HD
BRANCH  14  17
ATOM     17  C   UNL     1       7.976  -2.640   1.935  1.00  0.00     0.207 C 
BRANCH  17  18
ATOM     18  C   UNL     1       9.501  -2.733   2.054  1.00  0.00     0.077 C 
BRANCH  18  19
ATOM     19  C   UNL     1       9.931  -3.175   3.435  1.00  0.00    -0.043 A 
ATOM     20  C   UNL     1       9.924  -4.827   5.210  1.00  0.00     0.083 A 
ATOM     21  C   UNL     1       9.568  -4.442   3.918  1.00  0.00     0.028 A 
ATOM     22  C   UNL     1      10.641  -3.952   6.028  1.00  0.00     0.134 A 
ATOM     23  C   UNL     1      11.006  -2.695   5.562  1.00  0.00     0.048 A 
ATOM     24  C   UNL     1      10.650  -2.305   4.269  1.00  0.00     0.008 A 
ATOM     25  Cl  UNL     1       9.470  -6.388   5.786  1.00  0.00    -0.080 Cl
BRANCH  22  26
ATOM     26  O   UNL     1      11.003  -4.282   7.306  1.00  0.00    -0.506 OA
ATOM     27  H   UNL     1      11.826  -3.796   7.498  1.00  0.00     0.293 HD
ENDBRANCH  22  26
ENDBRANCH  18  19
ENDBRANCH  17  18
BRANCH  17  28
ATOM     28  O   UNL     1       7.619  -2.388   0.566  1.00  0.00    -0.383 OA
ATOM     29  H   UNL     1       8.466  -2.366   0.064  1.00  0.00     0.211 HD
ENDBRANCH  17  28
ENDBRANCH  14  17
ENDBRANCH  12  13
BRANCH  12  30
ATOM     30  C   UNL     1       6.586  -1.274   6.212  1.00  0.00     0.018 C 
ATOM     31  C   UNL     1       7.454  -0.026   6.435  1.00  0.00     0.010 C 
BRANCH  30  32
ATOM     32  C   UNL     1       7.429  -2.555   6.428  1.00  0.00     0.002 C 
ATOM     33  C   UNL     1       6.663  -3.756   6.966  1.00  0.00     0.004 C 
ENDBRANCH  30  32
ENDBRANCH  12  30
ENDBRANCH  10  12
ENDBRANCH   1  10
BRANCH   5  34
ATOM     34  C   UNL     1       3.274  -0.404   2.061  1.00  0.00     0.242 C 
ATOM     35  O   UNL     1       4.168   0.441   2.112  1.00  0.00    -0.273 OA
ATOM     36  N   UNL     1       2.778  -0.883   0.869  1.00  0.00    -0.354 N 
ATOM     37  H   UNL     1       1.957  -1.490   0.887  1.00  0.00     0.163 HD
BRANCH  36  38
ATOM     38  C   UNL     1       3.440  -0.642  -0.397  1.00  0.00     0.116 C 
BRANCH  38  39
ATOM     39  C   UNL     1       4.434  -1.764  -0.685  1.00  0.00     0.023 C 
BRANCH  39  40
ATOM     40  C   UNL     1       3.753  -3.029  -1.195  1.00  0.00     0.026 C 
BRANCH  40  41
ATOM     41  C   UNL     1       4.620  -3.726  -2.244  1.00  0.00     0.146 C 
BRANCH  41  42
ATOM     42  N   UNL     1       6.006  -3.754  -1.797  1.00  0.00    -0.254 NA
ATOM     43  C   UNL     1       6.609  -4.877  -1.673  1.00  0.00     0.185 C 
ATOM     44  N   UNL     1       6.165  -6.127  -1.898  1.00  0.00    -0.370 N 
ATOM     45  N   UNL     1       7.886  -4.882  -1.255  1.00  0.00    -0.370 N 
ATOM     46  H   UNL     1       6.659  -6.921  -1.529  1.00  0.00     0.159 HD
ATOM     47  H   UNL     1       5.223  -6.306  -2.232  1.00  0.00     0.159 HD
ATOM     48  H   UNL     1       8.301  -3.979  -1.072  1.00  0.00     0.159 HD
ATOM     49  H   UNL     1       8.489  -5.678  -1.359  1.00  0.00     0.159 HD
ENDBRANCH  41  42
ENDBRANCH  40  41
ENDBRANCH  39  40
ENDBRANCH  38  39
ENDBRANCH  36  38
ENDBRANCH   5  34
BRANCH   8  50
ATOM     50  O   UNL     1       3.340   3.643   4.544  1.00  0.00    -0.245 OA
BRANCH  50  51
ATOM     51  S   UNL     1       4.194   5.026   4.527  1.00  0.00     0.397 S 
ATOM     52  O   UNL     1       3.781   5.820   5.663  1.00  0.00    -0.169 OA
ATOM     53  O   UNL     1       4.211   5.571   3.185  1.00  0.00    -0.169 OA
BRANCH  51  54
ATOM     54  O   UNL     1       5.677   4.509   4.871  1.00  0.00    -0.264 OA
ATOM     55  H   UNL     1       5.796   4.565   5.841  1.00  0.00     0.236 HD
ENDBRANCH  51  54
ENDBRANCH  50  51
ENDBRANCH   8  50
TORSDOF 19
ENDMDL
MODEL 6
REMARK VINA RESULT:    -6.269      1.764      2.142
REMARK INTER + INTRA:         -17.023
REMARK INTER:                 -12.291
REMARK INTRA:                  -4.733
REMARK UNBOUND:                -4.340
REMARK SMILES CC[C@@H](C)[C@@H](NC(=O)[C@@H](O)Cc1ccc(O)c(Cl)c1)C(=O)N1[C@H](C(=O)NCCCCN=C(N)N)C[C@H]2CC[C@H](OS(=O)(=O)O)C[C@@H]21
REMARK SMILES IDX 22 1 36 2 46 3 35 4 23 5 45 6 37 7 39 8 38 9 20 10 21 11
REMARK SMILES IDX 5 12 6 13 7 14 8 15 9 17 11 18 12 19 17 20 19 21 15 22 14 23
REMARK SMILES IDX 13 24 18 25 16 26 10 28 3 30 4 31 2 32 1 33 24 34 25 35
REMARK SMILES IDX 26 36 27 38 28 39 29 40 30 41 31 42 32 43 33 44 34 45 40 50
REMARK SMILES IDX 41 51 42 52 43 53 44 54
REMARK H PARENT 6 16 16 27 10 29 26 37 33 46 33 47 34 48 34 49 44 55
ROOT
ATOM      1  N   UNL     1       7.892  -3.545   0.869  1.00  0.00    -0.326 N 
ATOM      2  C   UNL     1       8.056  -1.366   1.746  1.00  0.00     0.014 C 
ATOM      3  C   UNL     1       7.138  -2.591   1.688  1.00  0.00     0.091 C 
ATOM      4  C   UNL     1       8.713  -1.375   0.375  1.00  0.00     0.041 C 
ATOM      5  C   UNL     1       9.057  -2.870   0.247  1.00  0.00     0.175 C 
ATOM      6  C   UNL     1       6.776  -2.992   3.117  1.00  0.00     0.059 C 
ATOM      7  C   UNL     1       7.291  -0.137   2.197  1.00  0.00     0.008 C 
ATOM      8  C   UNL     1       6.699  -1.800   4.096  1.00  0.00     0.143 C 
ATOM      9  C   UNL     1       6.356  -0.480   3.376  1.00  0.00     0.034 C 
ENDROOT
BRANCH   1  10
ATOM     10  C   UNL     1       7.554  -4.823   0.459  1.00  0.00     0.246 C 
ATOM     11  O   UNL     1       7.867  -5.785   1.168  1.00  0.00    -0.272 OA
BRANCH  10  12
ATOM     12  C   UNL     1       6.752  -5.019  -0.861  1.00  0.00     0.174 C 
BRANCH  12  13
ATOM     13  N   UNL     1       7.670  -5.291  -1.966  1.00  0.00    -0.342 N 
ATOM     14  C   UNL     1       7.495  -6.273  -2.916  1.00  0.00     0.249 C 
ATOM     15  O   UNL     1       6.524  -7.018  -2.955  1.00  0.00    -0.272 OA
ATOM     16  H   UNL     1       8.592  -4.860  -1.973  1.00  0.00     0.164 HD
BRANCH  14  17
ATOM     17  C   UNL     1       8.647  -6.321  -3.942  1.00  0.00     0.207 C 
BRANCH  17  18
ATOM     18  C   UNL     1       9.447  -5.015  -3.911  1.00  0.00     0.077 C 
BRANCH  18  19
ATOM     19  C   UNL     1      10.737  -5.164  -3.135  1.00  0.00    -0.043 A 
ATOM     20  C   UNL     1      12.571  -4.173  -1.894  1.00  0.00     0.083 A 
ATOM     21  C   UNL     1      11.356  -4.039  -2.567  1.00  0.00     0.028 A 
ATOM     22  C   UNL     1      13.174  -5.427  -1.785  1.00  0.00     0.134 A 
ATOM     23  C   UNL     1      12.571  -6.549  -2.342  1.00  0.00     0.048 A 
ATOM     24  C   UNL     1      11.356  -6.418  -3.018  1.00  0.00     0.008 A 
ATOM     25  Cl  UNL     1      13.316  -2.780  -1.204  1.00  0.00    -0.080 Cl
BRANCH  22  26
ATOM     26  O   UNL     1      14.370  -5.606  -1.143  1.00  0.00    -0.506 OA
ATOM     27  H   UNL     1      14.680  -4.720  -0.878  1.00  0.00     0.293 HD
ENDBRANCH  22  26
ENDBRANCH  18  19
ENDBRANCH  17  18
BRANCH  17  28
ATOM     28  O   UNL     1       8.147  -6.542  -5.271  1.00  0.00    -0.383 OA
ATOM     29  H   UNL     1       8.704  -7.257  -5.655  1.00  0.00     0.211 HD
ENDBRANCH  17  28
ENDBRANCH  14  17
ENDBRANCH  12  13
BRANCH  12  30
ATOM     30  C   UNL     1       5.796  -3.834  -1.163  1.00  0.00     0.018 C 
ATOM     31  C   UNL     1       4.376  -4.340  -1.462  1.00  0.00     0.010 C 
BRANCH  30  32
ATOM     32  C   UNL     1       6.286  -2.916  -2.310  1.00  0.00     0.002 C 
ATOM     33  C   UNL     1       6.010  -1.431  -2.119  1.00  0.00     0.004 C 
ENDBRANCH  30  32
ENDBRANCH  12  30
ENDBRANCH  10  12
ENDBRANCH   1  10
BRANCH   5  34
ATOM     34  C   UNL     1      10.366  -3.222   1.004  1.00  0.00     0.242 C 
ATOM     35  O   UNL     1      11.143  -2.359   1.411  1.00  0.00    -0.273 OA
ATOM     36  N   UNL     1      10.620  -4.569   1.140  1.00  0.00    -0.354 N 
ATOM     37  H   UNL     1      10.000  -5.235   0.677  1.00  0.00     0.163 HD
BRANCH  36  38
ATOM     38  C   UNL     1      11.672  -5.075   1.997  1.00  0.00     0.116 C 
BRANCH  38  39
ATOM     39  C   UNL     1      11.438  -6.556   2.284  1.00  0.00     0.023 C 
BRANCH  39  40
ATOM     40  C   UNL     1      11.895  -6.957   3.683  1.00  0.00     0.026 C 
BRANCH  40  41
ATOM     41  C   UNL     1      10.713  -6.985   4.652  1.00  0.00     0.146 C 
BRANCH  41  42
ATOM     42  N   UNL     1      10.959  -6.066   5.755  1.00  0.00    -0.254 NA
ATOM     43  C   UNL     1      10.405  -4.912   5.754  1.00  0.00     0.185 C 
ATOM     44  N   UNL     1       9.576  -4.352   4.855  1.00  0.00    -0.370 N 
ATOM     45  N   UNL     1      10.648  -4.078   6.778  1.00  0.00    -0.370 N 
ATOM     46  H   UNL     1       9.414  -3.359   4.856  1.00  0.00     0.159 HD
ATOM     47  H   UNL     1       9.276  -4.850   4.023  1.00  0.00     0.159 HD
ATOM     48  H   UNL     1      11.258  -4.427   7.505  1.00  0.00     0.159 HD
ATOM     49  H   UNL     1      10.081  -3.272   6.970  1.00  0.00     0.159 HD
ENDBRANCH  41  42
ENDBRANCH  40  41
ENDBRANCH  39  40
ENDBRANCH  38  39
ENDBRANCH  36  38
ENDBRANCH   5  34
BRANCH   8  50
ATOM     50  O   UNL     1       7.947  -1.637   4.770  1.00  0.00    -0.245 OA
BRANCH  50  51
ATOM     51  S   UNL     1       7.978  -1.554   6.394  1.00  0.00     0.397 S 
ATOM     52  O   UNL     1       6.837  -0.775   6.823  1.00  0.00    -0.169 OA
ATOM     53  O   UNL     1       9.320  -1.243   6.840  1.00  0.00    -0.169 OA
BRANCH  51  54
ATOM     54  O   UNL     1       7.654  -3.072   6.814  1.00  0.00    -0.264 OA
ATOM     55  H   UNL     1       8.496  -3.570   6.803  1.00  0.00     0.236 HD
ENDBRANCH  51  54
ENDBRANCH  50  51
ENDBRANCH   8  50
TORSDOF 19
ENDMDL
MODEL 7
REMARK VINA RESULT:    -6.264      3.553      8.498
REMARK INTER + INTRA:         -17.012
REMARK INTER:                 -13.621
REMARK INTRA:                  -3.391
REMARK UNBOUND:                -4.340
REMARK SMILES CC[C@@H](C)[C@@H](NC(=O)[C@@H](O)Cc1ccc(O)c(Cl)c1)C(=O)N1[C@H](C(=O)NCCCCN=C(N)N)C[C@H]2CC[C@H](OS(=O)(=O)O)C[C@@H]21
REMARK SMILES IDX 22 1 36 2 46 3 35 4 23 5 45 6 37 7 39 8 38 9 20 10 21 11
REMARK SMILES IDX 5 12 6 13 7 14 8 15 9 17 11 18 12 19 17 20 19 21 15 22 14 23
REMARK SMILES IDX 13 24 18 25 16 26 10 28 3 30 4 31 2 32 1 33 24 34 25 35
REMARK SMILES IDX 26 36 27 38 28 39 29 40 30 41 31 42 32 43 33 44 34 45 40 50
REMARK SMILES IDX 41 51 42 52 43 53 44 54
REMARK H PARENT 6 16 16 27 10 29 26 37 33 46 33 47 34 48 34 49 44 55
ROOT
ATOM      1  N   UNL     1      11.393  -4.233  -1.737  1.00  0.00    -0.326 N 
ATOM      2  C   UNL     1       9.655  -3.125  -2.875  1.00  0.00     0.014 C 
ATOM      3  C   UNL     1      10.756  -4.175  -3.056  1.00  0.00     0.091 C 
ATOM      4  C   UNL     1      10.288  -2.141  -1.904  1.00  0.00     0.041 C 
ATOM      5  C   UNL     1      10.905  -3.119  -0.887  1.00  0.00     0.175 C 
ATOM      6  C   UNL     1      10.121  -5.449  -3.611  1.00  0.00     0.059 C 
ATOM      7  C   UNL     1       9.155  -2.628  -4.217  1.00  0.00     0.008 C 
ATOM      8  C   UNL     1       8.904  -5.190  -4.526  1.00  0.00     0.143 C 
ATOM      9  C   UNL     1       8.971  -3.804  -5.199  1.00  0.00     0.034 C 
ENDROOT
BRANCH   1  10
ATOM     10  C   UNL     1      12.465  -4.994  -1.303  1.00  0.00     0.246 C 
ATOM     11  O   UNL     1      13.603  -4.514  -1.352  1.00  0.00    -0.272 OA
BRANCH  10  12
ATOM     12  C   UNL     1      12.212  -6.416  -0.723  1.00  0.00     0.174 C 
BRANCH  12  13
ATOM     13  N   UNL     1      11.850  -6.321   0.691  1.00  0.00    -0.342 N 
ATOM     14  C   UNL     1      12.656  -5.802   1.679  1.00  0.00     0.249 C 
ATOM     15  O   UNL     1      13.768  -5.330   1.475  1.00  0.00    -0.272 OA
ATOM     16  H   UNL     1      11.028  -6.811   1.034  1.00  0.00     0.164 HD
BRANCH  14  17
ATOM     17  C   UNL     1      11.998  -5.857   3.074  1.00  0.00     0.207 C 
BRANCH  17  18
ATOM     18  C   UNL     1      10.927  -6.952   3.118  1.00  0.00     0.077 C 
BRANCH  18  19
ATOM     19  C   UNL     1      10.807  -7.566   4.494  1.00  0.00    -0.043 A 
ATOM     20  C   UNL     1       9.549  -7.915   6.539  1.00  0.00     0.083 A 
ATOM     21  C   UNL     1       9.637  -7.389   5.250  1.00  0.00     0.028 A 
ATOM     22  C   UNL     1      10.625  -8.618   7.081  1.00  0.00     0.134 A 
ATOM     23  C   UNL     1      11.789  -8.801   6.344  1.00  0.00     0.048 A 
ATOM     24  C   UNL     1      11.881  -8.274   5.054  1.00  0.00     0.008 A 
ATOM     25  Cl  UNL     1       8.103  -7.687   7.451  1.00  0.00    -0.080 Cl
BRANCH  22  26
ATOM     26  O   UNL     1      10.589  -9.143   8.345  1.00  0.00    -0.506 OA
ATOM     27  H   UNL     1       9.648  -9.237   8.582  1.00  0.00     0.293 HD
ENDBRANCH  22  26
ENDBRANCH  18  19
ENDBRANCH  17  18
BRANCH  17  28
ATOM     28  O   UNL     1      11.404  -4.595   3.417  1.00  0.00    -0.383 OA
ATOM     29  H   UNL     1      11.465  -4.523   4.396  1.00  0.00     0.211 HD
ENDBRANCH  17  28
ENDBRANCH  14  17
ENDBRANCH  12  13
BRANCH  12  30
ATOM     30  C   UNL     1      13.401  -7.384  -0.967  1.00  0.00     0.018 C 
ATOM     31  C   UNL     1      13.647  -7.579  -2.472  1.00  0.00     0.010 C 
BRANCH  30  32
ATOM     32  C   UNL     1      13.236  -8.758  -0.273  1.00  0.00     0.002 C 
ATOM     33  C   UNL     1      13.779  -9.950  -1.051  1.00  0.00     0.004 C 
ENDBRANCH  30  32
ENDBRANCH  12  30
ENDBRANCH  10  12
ENDBRANCH   1  10
BRANCH   5  34
ATOM     34  C   UNL     1       9.850  -3.626   0.132  1.00  0.00     0.242 C 
ATOM     35  O   UNL     1       9.465  -4.795   0.153  1.00  0.00    -0.273 OA
ATOM     36  N   UNL     1       9.338  -2.663   0.972  1.00  0.00    -0.354 N 
ATOM     37  H   UNL     1       9.608  -1.690   0.827  1.00  0.00     0.163 HD
BRANCH  36  38
ATOM     38  C   UNL     1       8.513  -2.995   2.116  1.00  0.00     0.116 C 
BRANCH  38  39
ATOM     39  C   UNL     1       7.038  -2.866   1.746  1.00  0.00     0.023 C 
BRANCH  39  40
ATOM     40  C   UNL     1       6.780  -1.722   0.770  1.00  0.00     0.026 C 
BRANCH  40  41
ATOM     41  C   UNL     1       6.227  -2.253  -0.553  1.00  0.00     0.146 C 
BRANCH  41  42
ATOM     42  N   UNL     1       5.843  -3.650  -0.401  1.00  0.00    -0.254 NA
ATOM     43  C   UNL     1       5.139  -4.216  -1.309  1.00  0.00     0.185 C 
ATOM     44  N   UNL     1       4.654  -3.720  -2.462  1.00  0.00    -0.370 N 
ATOM     45  N   UNL     1       4.791  -5.503  -1.147  1.00  0.00    -0.370 N 
ATOM     46  H   UNL     1       3.919  -4.197  -2.956  1.00  0.00     0.159 HD
ATOM     47  H   UNL     1       4.834  -2.763  -2.748  1.00  0.00     0.159 HD
ATOM     48  H   UNL     1       5.124  -5.955  -0.307  1.00  0.00     0.159 HD
ATOM     49  H   UNL     1       4.454  -6.074  -1.902  1.00  0.00     0.159 HD
ENDBRANCH  41  42
ENDBRANCH  40  41
ENDBRANCH  39  40
ENDBRANCH  38  39
ENDBRANCH  36  38
ENDBRANCH   5  34
BRANCH   8  50
ATOM     50  O   UNL     1       7.696  -5.268  -3.768  1.00  0.00    -0.245 OA
BRANCH  50  51
ATOM     51  S   UNL     1       6.623  -6.447  -4.090  1.00  0.00     0.397 S 
ATOM     52  O   UNL     1       5.377  -5.823  -4.477  1.00  0.00    -0.169 OA
ATOM     53  O   UNL     1       6.677  -7.451  -3.048  1.00  0.00    -0.169 OA
BRANCH  51  54
ATOM     54  O   UNL     1       7.225  -7.093  -5.433  1.00  0.00    -0.264 OA
ATOM     55  H   UNL     1       7.918  -7.733  -5.172  1.00  0.00     0.236 HD
ENDBRANCH  51  54
ENDBRANCH  50  51
ENDBRANCH   8  50
TORSDOF 19
ENDMDL
MODEL 8
REMARK VINA RESULT:    -6.242      2.982      6.127
REMARK INTER + INTRA:         -16.967
REMARK INTER:                 -13.915
REMARK INTRA:                  -3.052
REMARK UNBOUND:                -4.340
REMARK SMILES CC[C@@H](C)[C@@H](NC(=O)[C@@H](O)Cc1ccc(O)c(Cl)c1)C(=O)N1[C@H](C(=O)NCCCCN=C(N)N)C[C@H]2CC[C@H](OS(=O)(=O)O)C[C@@H]21
REMARK SMILES IDX 22 1 36 2 46 3 35 4 23 5 45 6 37 7 39 8 38 9 20 10 21 11
REMARK SMILES IDX 5 12 6 13 7 14 8 15 9 17 11 18 12 19 17 20 19 21 15 22 14 23
REMARK SMILES IDX 13 24 18 25 16 26 10 28 3 30 4 31 2 32 1 33 24 34 25 35
REMARK SMILES IDX 26 36 27 38 28 39 29 40 30 41 31 42 32 43 33 44 34 45 40 50
REMARK SMILES IDX 41 51 42 52 43 53 44 54
REMARK H PARENT 6 16 16 27 10 29 26 37 33 46 33 47 34 48 34 49 44 55
ROOT
ATOM      1  N   UNL     1      11.693  -5.746   2.304  1.00  0.00    -0.326 N 
ATOM      2  C   UNL     1       9.940  -6.621   3.609  1.00  0.00     0.014 C 
ATOM      3  C   UNL     1      11.344  -6.937   3.085  1.00  0.00     0.091 C 
ATOM      4  C   UNL     1       9.328  -5.823   2.469  1.00  0.00     0.041 C 
ATOM      5  C   UNL     1      10.500  -4.881   2.136  1.00  0.00     0.175 C 
ATOM      6  C   UNL     1      12.230  -7.311   4.271  1.00  0.00     0.059 C 
ATOM      7  C   UNL     1       9.246  -7.880   4.092  1.00  0.00     0.008 C 
ATOM      8  C   UNL     1      11.470  -8.014   5.417  1.00  0.00     0.143 C 
ATOM      9  C   UNL     1      10.217  -8.756   4.911  1.00  0.00     0.034 C 
ENDROOT
BRANCH   1  10
ATOM     10  C   UNL     1      12.838  -5.466   1.578  1.00  0.00     0.246 C 
ATOM     11  O   UNL     1      13.646  -4.644   2.023  1.00  0.00    -0.272 OA
BRANCH  10  12
ATOM     12  C   UNL     1      13.104  -6.220   0.243  1.00  0.00     0.174 C 
BRANCH  12  13
ATOM     13  N   UNL     1      12.185  -5.743  -0.791  1.00  0.00    -0.342 N 
ATOM     14  C   UNL     1      12.483  -4.781  -1.730  1.00  0.00     0.249 C 
ATOM     15  O   UNL     1      13.574  -4.232  -1.821  1.00  0.00    -0.272 OA
ATOM     16  H   UNL     1      11.200  -5.991  -0.742  1.00  0.00     0.164 HD
BRANCH  14  17
ATOM     17  C   UNL     1      11.298  -4.482  -2.672  1.00  0.00     0.207 C 
BRANCH  17  18
ATOM     18  C   UNL     1      10.667  -5.786  -3.170  1.00  0.00     0.077 C 
BRANCH  18  19
ATOM     19  C   UNL     1       9.174  -5.650  -3.364  1.00  0.00    -0.043 A 
ATOM     20  C   UNL     1       6.996  -4.991  -2.524  1.00  0.00     0.083 A 
ATOM     21  C   UNL     1       8.380  -5.071  -2.363  1.00  0.00     0.028 A 
ATOM     22  C   UNL     1       6.398  -5.490  -3.682  1.00  0.00     0.134 A 
ATOM     23  C   UNL     1       7.173  -6.066  -4.682  1.00  0.00     0.048 A 
ATOM     24  C   UNL     1       8.558  -6.148  -4.523  1.00  0.00     0.008 A 
ATOM     25  Cl  UNL     1       6.037  -4.276  -1.282  1.00  0.00    -0.080 Cl
BRANCH  22  26
ATOM     26  O   UNL     1       5.045  -5.444  -3.881  1.00  0.00    -0.506 OA
ATOM     27  H   UNL     1       4.801  -4.501  -3.928  1.00  0.00     0.293 HD
ENDBRANCH  22  26
ENDBRANCH  18  19
ENDBRANCH  17  18
BRANCH  17  28
ATOM     28  O   UNL     1      11.719  -3.696  -3.799  1.00  0.00    -0.383 OA
ATOM     29  H   UNL     1      12.402  -3.075  -3.457  1.00  0.00     0.211 HD
ENDBRANCH  17  28
ENDBRANCH  14  17
ENDBRANCH  12  13
BRANCH  12  30
ATOM     30  C   UNL     1      13.061  -7.763   0.407  1.00  0.00     0.018 C 
ATOM     31  C   UNL     1      14.268  -8.260   1.217  1.00  0.00     0.010 C 
BRANCH  30  32
ATOM     32  C   UNL     1      12.969  -8.529  -0.936  1.00  0.00     0.002 C 
ATOM     33  C   UNL     1      13.954  -9.679  -1.098  1.00  0.00     0.004 C 
ENDBRANCH  30  32
ENDBRANCH  12  30
ENDBRANCH  10  12
ENDBRANCH   1  10
BRANCH   5  34
ATOM     34  C   UNL     1      10.556  -3.672   3.107  1.00  0.00     0.242 C 
ATOM     35  O   UNL     1      11.414  -3.571   3.984  1.00  0.00    -0.273 OA
ATOM     36  N   UNL     1       9.545  -2.749   2.952  1.00  0.00    -0.354 N 
ATOM     37  H   UNL     1       8.796  -2.948   2.288  1.00  0.00     0.163 HD
BRANCH  36  38
ATOM     38  C   UNL     1       9.563  -1.464   3.619  1.00  0.00     0.116 C 
BRANCH  38  39
ATOM     39  C   UNL     1      10.307  -0.444   2.761  1.00  0.00     0.023 C 
BRANCH  39  40
ATOM     40  C   UNL     1      11.678  -0.094   3.329  1.00  0.00     0.026 C 
BRANCH  40  41
ATOM     41  C   UNL     1      11.602   0.110   4.842  1.00  0.00     0.146 C 
BRANCH  41  42
ATOM     42  N   UNL     1      12.734  -0.544   5.485  1.00  0.00    -0.254 NA
ATOM     43  C   UNL     1      12.527  -1.498   6.313  1.00  0.00     0.185 C 
ATOM     44  N   UNL     1      11.372  -2.048   6.728  1.00  0.00    -0.370 N 
ATOM     45  N   UNL     1      13.584  -2.085   6.898  1.00  0.00    -0.370 N 
ATOM     46  H   UNL     1      11.343  -2.618   7.557  1.00  0.00     0.159 HD
ATOM     47  H   UNL     1      10.474  -1.733   6.375  1.00  0.00     0.159 HD
ATOM     48  H   UNL     1      14.495  -1.735   6.633  1.00  0.00     0.159 HD
ATOM     49  H   UNL     1      13.524  -2.974   7.362  1.00  0.00     0.159 HD
ENDBRANCH  41  42
ENDBRANCH  40  41
ENDBRANCH  39  40
ENDBRANCH  38  39
ENDBRANCH  36  38
ENDBRANCH   5  34
BRANCH   8  50
ATOM     50  O   UNL     1      11.066  -7.057   6.397  1.00  0.00    -0.245 OA
BRANCH  50  51
ATOM     51  S   UNL     1      11.305  -7.372   7.974  1.00  0.00     0.397 S 
ATOM     52  O   UNL     1      10.668  -6.325   8.741  1.00  0.00    -0.169 OA
ATOM     53  O   UNL     1      12.690  -7.739   8.192  1.00  0.00    -0.169 OA
BRANCH  51  54
ATOM     54  O   UNL     1      10.405  -8.686   8.194  1.00  0.00    -0.264 OA
ATOM     55  H   UNL     1      10.904  -9.452   7.844  1.00  0.00     0.236 HD
ENDBRANCH  51  54
ENDBRANCH  50  51
ENDBRANCH   8  50
TORSDOF 19
ENDMDL
MODEL 9
REMARK VINA RESULT:    -6.238      2.238      6.553
REMARK INTER + INTRA:         -16.960
REMARK INTER:                 -13.071
REMARK INTRA:                  -3.889
REMARK UNBOUND:                -4.340
REMARK SMILES CC[C@@H](C)[C@@H](NC(=O)[C@@H](O)Cc1ccc(O)c(Cl)c1)C(=O)N1[C@H](C(=O)NCCCCN=C(N)N)C[C@H]2CC[C@H](OS(=O)(=O)O)C[C@@H]21
REMARK SMILES IDX 22 1 36 2 46 3 35 4 23 5 45 6 37 7 39 8 38 9 20 10 21 11
REMARK SMILES IDX 5 12 6 13 7 14 8 15 9 17 11 18 12 19 17 20 19 21 15 22 14 23
REMARK SMILES IDX 13 24 18 25 16 26 10 28 3 30 4 31 2 32 1 33 24 34 25 35
REMARK SMILES IDX 26 36 27 38 28 39 29 40 30 41 31 42 32 43 33 44 34 45 40 50
REMARK SMILES IDX 41 51 42 52 43 53 44 54
REMARK H PARENT 6 16 16 27 10 29 26 37 33 46 33 47 34 48 34 49 44 55
ROOT
ATOM      1  N   UNL     1       8.743  -3.672   5.616  1.00  0.00    -0.326 N 
ATOM      2  C   UNL     1       8.604  -1.326   5.463  1.00  0.00     0.014 C 
ATOM      3  C   UNL     1       9.267  -2.460   6.252  1.00  0.00     0.091 C 
ATOM      4  C   UNL     1       7.236  -1.904   5.134  1.00  0.00     0.041 C 
ATOM      5  C   UNL     1       7.639  -3.321   4.689  1.00  0.00     0.175 C 
ATOM      6  C   UNL     1      10.778  -2.233   6.244  1.00  0.00     0.059 C 
ATOM      7  C   UNL     1       8.696  -0.015   6.218  1.00  0.00     0.008 C 
ATOM      8  C   UNL     1      11.183  -0.744   6.210  1.00  0.00     0.143 C 
ATOM      9  C   UNL     1      10.102   0.165   6.828  1.00  0.00     0.034 C 
ENDROOT
BRANCH   1  10
ATOM     10  C   UNL     1       8.975  -5.003   5.916  1.00  0.00     0.246 C 
ATOM     11  O   UNL     1       8.022  -5.724   6.229  1.00  0.00    -0.272 OA
BRANCH  10  12
ATOM     12  C   UNL     1      10.420  -5.572   5.812  1.00  0.00     0.174 C 
BRANCH  12  13
ATOM     13  N   UNL     1      10.932  -5.388   4.455  1.00  0.00    -0.342 N 
ATOM     14  C   UNL     1      12.156  -4.843   4.138  1.00  0.00     0.249 C 
ATOM     15  O   UNL     1      12.973  -4.473   4.972  1.00  0.00    -0.272 OA
ATOM     16  H   UNL     1      10.306  -5.503   3.661  1.00  0.00     0.164 HD
BRANCH  14  17
ATOM     17  C   UNL     1      12.399  -4.768   2.616  1.00  0.00     0.207 C 
BRANCH  17  18
ATOM     18  C   UNL     1      12.157  -6.134   1.967  1.00  0.00     0.077 C 
BRANCH  18  19
ATOM     19  C   UNL     1      11.721  -6.002   0.525  1.00  0.00    -0.043 A 
ATOM     20  C   UNL     1      12.059  -6.490  -1.827  1.00  0.00     0.083 A 
ATOM     21  C   UNL     1      12.434  -6.654  -0.493  1.00  0.00     0.028 A 
ATOM     22  C   UNL     1      10.974  -5.675  -2.152  1.00  0.00     0.134 A 
ATOM     23  C   UNL     1      10.259  -5.023  -1.154  1.00  0.00     0.048 A 
ATOM     24  C   UNL     1      10.633  -5.184   0.182  1.00  0.00     0.008 A 
ATOM     25  Cl  UNL     1      12.947  -7.300  -3.064  1.00  0.00    -0.080 Cl
BRANCH  22  26
ATOM     26  O   UNL     1      10.575  -5.475  -3.447  1.00  0.00    -0.506 OA
ATOM     27  H   UNL     1       9.603  -5.542  -3.454  1.00  0.00     0.293 HD
ENDBRANCH  22  26
ENDBRANCH  18  19
ENDBRANCH  17  18
BRANCH  17  28
ATOM     28  O   UNL     1      13.737  -4.333   2.327  1.00  0.00    -0.383 OA
ATOM     29  H   UNL     1      14.097  -4.976   1.674  1.00  0.00     0.211 HD
ENDBRANCH  17  28
ENDBRANCH  14  17
ENDBRANCH  12  13
BRANCH  12  30
ATOM     30  C   UNL     1      10.520  -7.046   6.289  1.00  0.00     0.018 C 
ATOM     31  C   UNL     1      11.773  -7.256   7.153  1.00  0.00     0.010 C 
BRANCH  30  32
ATOM     32  C   UNL     1      10.492  -8.076   5.134  1.00  0.00     0.002 C 
ATOM     33  C   UNL     1       9.200  -8.872   5.003  1.00  0.00     0.004 C 
ENDBRANCH  30  32
ENDBRANCH  12  30
ENDBRANCH  10  12
ENDBRANCH   1  10
BRANCH   5  34
ATOM     34  C   UNL     1       8.130  -3.340   3.216  1.00  0.00     0.242 C 
ATOM     35  O   UNL     1       9.321  -3.429   2.922  1.00  0.00    -0.273 OA
ATOM     36  N   UNL     1       7.142  -3.197   2.268  1.00  0.00    -0.354 N 
ATOM     37  H   UNL     1       6.188  -3.008   2.577  1.00  0.00     0.163 HD
BRANCH  36  38
ATOM     38  C   UNL     1       7.389  -3.407   0.856  1.00  0.00     0.116 C 
BRANCH  38  39
ATOM     39  C   UNL     1       6.912  -4.798   0.447  1.00  0.00     0.023 C 
BRANCH  39  40
ATOM     40  C   UNL     1       5.903  -4.756  -0.695  1.00  0.00     0.026 C 
BRANCH  40  41
ATOM     41  C   UNL     1       6.567  -4.279  -1.987  1.00  0.00     0.146 C 
BRANCH  41  42
ATOM     42  N   UNL     1       7.446  -5.321  -2.503  1.00  0.00    -0.254 NA
ATOM     43  C   UNL     1       7.038  -6.085  -3.445  1.00  0.00     0.185 C 
ATOM     44  N   UNL     1       5.860  -6.103  -4.095  1.00  0.00    -0.370 N 
ATOM     45  N   UNL     1       7.862  -7.042  -3.903  1.00  0.00    -0.370 N 
ATOM     46  H   UNL     1       5.586  -6.904  -4.637  1.00  0.00     0.159 HD
ATOM     47  H   UNL     1       5.124  -5.436  -3.884  1.00  0.00     0.159 HD
ATOM     48  H   UNL     1       8.775  -7.091  -3.472  1.00  0.00     0.159 HD
ATOM     49  H   UNL     1       7.714  -7.513  -4.778  1.00  0.00     0.159 HD
ENDBRANCH  41  42
ENDBRANCH  40  41
ENDBRANCH  39  40
ENDBRANCH  38  39
ENDBRANCH  36  38
ENDBRANCH   5  34
BRANCH   8  50
ATOM     50  O   UNL     1      11.409  -0.328   4.863  1.00  0.00    -0.245 OA
BRANCH  50  51
ATOM     51  S   UNL     1      12.931  -0.095   4.339  1.00  0.00     0.397 S 
ATOM     52  O   UNL     1      13.420   1.135   4.919  1.00  0.00    -0.169 OA
ATOM     53  O   UNL     1      12.998  -0.341   2.913  1.00  0.00    -0.169 OA
BRANCH  51  54
ATOM     54  O   UNL     1      13.727  -1.278   5.084  1.00  0.00    -0.264 OA
ATOM     55  H   UNL     1      13.715  -2.061   4.497  1.00  0.00     0.236 HD
ENDBRANCH  51  54
ENDBRANCH  50  51
ENDBRANCH   8  50
TORSDOF 19
ENDMDL
MODEL 10
REMARK VINA RESULT:    -6.197      3.359      5.200
REMARK INTER + INTRA:         -16.878
REMARK INTER:                 -13.921
REMARK INTRA:                  -2.957
REMARK UNBOUND:                -4.340
REMARK SMILES CC[C@@H](C)[C@@H](NC(=O)[C@@H](O)Cc1ccc(O)c(Cl)c1)C(=O)N1[C@H](C(=O)NCCCCN=C(N)N)C[C@H]2CC[C@H](OS(=O)(=O)O)C[C@@H]21
REMARK SMILES IDX 22 1 36 2 46 3 35 4 23 5 45 6 37 7 39 8 38 9 20 10 21 11
REMARK SMILES IDX 5 12 6 13 7 14 8 15 9 17 11 18 12 19 17 20 19 21 15 22 14 23
REMARK SMILES IDX 13 24 18 25 16 26 10 28 3 30 4 31 2 32 1 33 24 34 25 35
REMARK SMILES IDX 26 36 27 38 28 39 29 40 30 41 31 42 32 43 33 44 34 45 40 50
REMARK SMILES IDX 41 51 42 52 43 53 44 54
REMARK H PARENT 6 16 16 27 10 29 26 37 33 46 33 47 34 48 34 49 44 55
ROOT
ATOM      1  N   UNL     1       9.967  -3.281   2.869  1.00  0.00    -0.326 N 
ATOM      2  C   UNL     1      11.300  -3.995   4.673  1.00  0.00     0.014 C 
ATOM      3  C   UNL     1      11.285  -3.051   3.468  1.00  0.00     0.091 C 
ATOM      4  C   UNL     1      10.501  -5.189   4.173  1.00  0.00     0.041 C 
ATOM      5  C   UNL     1       9.325  -4.464   3.493  1.00  0.00     0.175 C 
ATOM      6  C   UNL     1      11.625  -1.642   3.953  1.00  0.00     0.059 C 
ATOM      7  C   UNL     1      12.713  -4.205   5.180  1.00  0.00     0.008 C 
ATOM      8  C   UNL     1      12.586  -1.616   5.161  1.00  0.00     0.143 C 
ATOM      9  C   UNL     1      13.484  -2.869   5.214  1.00  0.00     0.034 C 
ENDROOT
BRANCH   1  10
ATOM     10  C   UNL     1       9.396  -2.720   1.739  1.00  0.00     0.246 C 
ATOM     11  O   UNL     1       9.305  -1.490   1.659  1.00  0.00    -0.272 OA
BRANCH  10  12
ATOM     12  C   UNL     1       8.921  -3.644   0.581  1.00  0.00     0.174 C 
BRANCH  12  13
ATOM     13  N   UNL     1      10.037  -3.927  -0.321  1.00  0.00    -0.342 N 
ATOM     14  C   UNL     1      10.865  -5.023  -0.233  1.00  0.00     0.249 C 
ATOM     15  O   UNL     1      10.739  -5.908   0.604  1.00  0.00    -0.272 OA
ATOM     16  H   UNL     1      10.359  -3.209  -0.965  1.00  0.00     0.164 HD
BRANCH  14  17
ATOM     17  C   UNL     1      11.961  -5.030  -1.320  1.00  0.00     0.207 C 
BRANCH  17  18
ATOM     18  C   UNL     1      11.594  -6.004  -2.445  1.00  0.00     0.077 C 
BRANCH  18  19
ATOM     19  C   UNL     1      10.530  -5.434  -3.356  1.00  0.00    -0.043 A 
ATOM     20  C   UNL     1       8.501  -5.720  -4.655  1.00  0.00     0.083 A 
ATOM     21  C   UNL     1       9.454  -6.233  -3.775  1.00  0.00     0.028 A 
ATOM     22  C   UNL     1       8.615  -4.410  -5.121  1.00  0.00     0.134 A 
ATOM     23  C   UNL     1       9.675  -3.607  -4.714  1.00  0.00     0.048 A 
ATOM     24  C   UNL     1      10.632  -4.119  -3.835  1.00  0.00     0.008 A 
ATOM     25  Cl  UNL     1       7.187  -6.717  -5.159  1.00  0.00    -0.080 Cl
BRANCH  22  26
ATOM     26  O   UNL     1       7.711  -3.866  -5.993  1.00  0.00    -0.506 OA
ATOM     27  H   UNL     1       7.736  -2.901  -5.857  1.00  0.00     0.293 HD
ENDBRANCH  22  26
ENDBRANCH  18  19
ENDBRANCH  17  18
BRANCH  17  28
ATOM     28  O   UNL     1      13.235  -5.399  -0.768  1.00  0.00    -0.383 OA
ATOM     29  H   UNL     1      13.047  -5.778   0.121  1.00  0.00     0.211 HD
ENDBRANCH  17  28
ENDBRANCH  14  17
ENDBRANCH  12  13
BRANCH  12  30
ATOM     30  C   UNL     1       7.683  -3.079  -0.168  1.00  0.00     0.018 C 
ATOM     31  C   UNL     1       6.442  -3.097   0.738  1.00  0.00     0.010 C 
BRANCH  30  32
ATOM     32  C   UNL     1       7.379  -3.805  -1.501  1.00  0.00     0.002 C 
ATOM     33  C   UNL     1       6.865  -5.232  -1.363  1.00  0.00     0.004 C 
ENDBRANCH  30  32
ENDBRANCH  12  30
ENDBRANCH  10  12
ENDBRANCH   1  10
BRANCH   5  34
ATOM     34  C   UNL     1       8.249  -4.027   4.522  1.00  0.00     0.242 C 
ATOM     35  O   UNL     1       8.029  -4.662   5.553  1.00  0.00    -0.273 OA
ATOM     36  N   UNL     1       7.523  -2.911   4.172  1.00  0.00    -0.354 N 
ATOM     37  H   UNL     1       7.669  -2.499   3.250  1.00  0.00     0.163 HD
BRANCH  36  38
ATOM     38  C   UNL     1       6.636  -2.242   5.102  1.00  0.00     0.116 C 
BRANCH  38  39
ATOM     39  C   UNL     1       5.317  -1.907   4.410  1.00  0.00     0.023 C 
BRANCH  39  40
ATOM     40  C   UNL     1       4.433  -0.993   5.252  1.00  0.00     0.026 C 
BRANCH  40  41
ATOM     41  C   UNL     1       4.880   0.463   5.123  1.00  0.00     0.146 C 
BRANCH  41  42
ATOM     42  N   UNL     1       4.101   1.299   6.027  1.00  0.00    -0.254 NA
ATOM     43  C   UNL     1       4.319   2.559   6.070  1.00  0.00     0.185 C 
ATOM     44  N   UNL     1       5.199   3.309   5.382  1.00  0.00    -0.370 N 
ATOM     45  N   UNL     1       3.593   3.312   6.912  1.00  0.00    -0.370 N 
ATOM     46  H   UNL     1       5.431   4.238   5.688  1.00  0.00     0.159 HD
ATOM     47  H   UNL     1       5.820   2.901   4.690  1.00  0.00     0.159 HD
ATOM     48  H   UNL     1       2.898   2.825   7.463  1.00  0.00     0.159 HD
ATOM     49  H   UNL     1       3.535   4.312   6.836  1.00  0.00     0.159 HD
ENDBRANCH  41  42
ENDBRANCH  40  41
ENDBRANCH  39  40
ENDBRANCH  38  39
ENDBRANCH  36  38
ENDBRANCH   5  34
BRANCH   8  50
ATOM     50  O   UNL     1      11.843  -1.539   6.377  1.00  0.00    -0.245 OA
BRANCH  50  51
ATOM     51  S   UNL     1      11.759  -0.127   7.179  1.00  0.00     0.397 S 
ATOM     52  O   UNL     1      10.517  -0.106   7.919  1.00  0.00    -0.169 OA
ATOM     53  O   UNL     1      12.135   0.957   6.296  1.00  0.00    -0.169 OA
BRANCH  51  54
ATOM     54  O   UNL     1      12.921  -0.296   8.278  1.00  0.00    -0.264 OA
ATOM     55  H   UNL     1      13.567  -0.944   7.932  1.00  0.00     0.236 HD
ENDBRANCH  51  54
ENDBRANCH  50  51
ENDBRANCH   8  50
TORSDOF 19
ENDMDL
MODEL 11
REMARK VINA RESULT:    -6.195      3.998      6.839
REMARK INTER + INTRA:         -16.874
REMARK INTER:                 -12.017
REMARK INTRA:                  -4.857
REMARK UNBOUND:                -4.340
REMARK SMILES CC[C@@H](C)[C@@H](NC(=O)[C@@H](O)Cc1ccc(O)c(Cl)c1)C(=O)N1[C@H](C(=O)NCCCCN=C(N)N)C[C@H]2CC[C@H](OS(=O)(=O)O)C[C@@H]21
REMARK SMILES IDX 22 1 36 2 46 3 35 4 23 5 45 6 37 7 39 8 38 9 20 10 21 11
REMARK SMILES IDX 5 12 6 13 7 14 8 15 9 17 11 18 12 19 17 20 19 21 15 22 14 23
REMARK SMILES IDX 13 24 18 25 16 26 10 28 3 30 4 31 2 32 1 33 24 34 25 35
REMARK SMILES IDX 26 36 27 38 28 39 29 40 30 41 31 42 32 43 33 44 34 45 40 50
REMARK SMILES IDX 41 51 42 52 43 53 44 54
REMARK H PARENT 6 16 16 27 10 29 26 37 33 46 33 47 34 48 34 49 44 55
ROOT
ATOM      1  N   UNL     1      10.103  -4.837   2.208  1.00  0.00    -0.326 N 
ATOM      2  C   UNL     1      12.456  -4.790   2.283  1.00  0.00     0.014 C 
ATOM      3  C   UNL     1      11.223  -3.892   2.147  1.00  0.00     0.091 C 
ATOM      4  C   UNL     1      12.031  -6.056   1.555  1.00  0.00     0.041 C 
ATOM      5  C   UNL     1      10.608  -6.229   2.117  1.00  0.00     0.175 C 
ATOM      6  C   UNL     1      11.304  -2.796   3.208  1.00  0.00     0.059 C 
ATOM      7  C   UNL     1      13.709  -4.061   1.839  1.00  0.00     0.008 C 
ATOM      8  C   UNL     1      12.747  -2.371   3.553  1.00  0.00     0.143 C 
ATOM      9  C   UNL     1      13.719  -2.616   2.381  1.00  0.00     0.034 C 
ENDROOT
BRANCH   1  10
ATOM     10  C   UNL     1       8.741  -4.606   2.118  1.00  0.00     0.246 C 
ATOM     11  O   UNL     1       7.997  -5.528   1.767  1.00  0.00    -0.272 OA
BRANCH  10  12
ATOM     12  C   UNL     1       8.173  -3.209   2.502  1.00  0.00     0.174 C 
BRANCH  12  13
ATOM     13  N   UNL     1       7.278  -3.333   3.652  1.00  0.00    -0.342 N 
ATOM     14  C   UNL     1       7.685  -3.404   4.965  1.00  0.00     0.249 C 
ATOM     15  O   UNL     1       8.855  -3.344   5.321  1.00  0.00    -0.272 OA
ATOM     16  H   UNL     1       6.296  -3.551   3.504  1.00  0.00     0.164 HD
BRANCH  14  17
ATOM     17  C   UNL     1       6.503  -3.549   5.947  1.00  0.00     0.207 C 
BRANCH  17  18
ATOM     18  C   UNL     1       6.151  -2.192   6.565  1.00  0.00     0.077 C 
BRANCH  18  19
ATOM     19  C   UNL     1       5.251  -1.379   5.661  1.00  0.00    -0.043 A 
ATOM     20  C   UNL     1       4.546   0.765   4.773  1.00  0.00     0.083 A 
ATOM     21  C   UNL     1       5.409   0.013   5.570  1.00  0.00     0.028 A 
ATOM     22  C   UNL     1       3.521   0.135   4.065  1.00  0.00     0.134 A 
ATOM     23  C   UNL     1       3.353  -1.242   4.146  1.00  0.00     0.048 A 
ATOM     24  C   UNL     1       4.215  -1.998   4.945  1.00  0.00     0.008 A 
ATOM     25  Cl  UNL     1       4.756   2.474   4.673  1.00  0.00    -0.080 Cl
BRANCH  22  26
ATOM     26  O   UNL     1       2.644   0.833   3.280  1.00  0.00    -0.506 OA
ATOM     27  H   UNL     1       2.039   0.177   2.885  1.00  0.00     0.293 HD
ENDBRANCH  22  26
ENDBRANCH  18  19
ENDBRANCH  17  18
BRANCH  17  28
ATOM     28  O   UNL     1       6.811  -4.483   6.994  1.00  0.00    -0.383 OA
ATOM     29  H   UNL     1       6.712  -5.379   6.597  1.00  0.00     0.211 HD
ENDBRANCH  17  28
ENDBRANCH  14  17
ENDBRANCH  12  13
BRANCH  12  30
ATOM     30  C   UNL     1       7.502  -2.485   1.304  1.00  0.00     0.018 C 
ATOM     31  C   UNL     1       8.561  -1.918   0.345  1.00  0.00     0.010 C 
BRANCH  30  32
ATOM     32  C   UNL     1       6.515  -1.369   1.726  1.00  0.00     0.002 C 
ATOM     33  C   UNL     1       7.159  -0.097   2.261  1.00  0.00     0.004 C 
ENDBRANCH  30  32
ENDBRANCH  12  30
ENDBRANCH  10  12
ENDBRANCH   1  10
BRANCH   5  34
ATOM     34  C   UNL     1      10.625  -6.901   3.517  1.00  0.00     0.242 C 
ATOM     35  O   UNL     1      10.168  -6.348   4.517  1.00  0.00    -0.273 OA
ATOM     36  N   UNL     1      11.235  -8.134   3.567  1.00  0.00    -0.354 N 
ATOM     37  H   UNL     1      11.701  -8.487   2.730  1.00  0.00     0.163 HD
BRANCH  36  38
ATOM     38  C   UNL     1      11.151  -8.991   4.732  1.00  0.00     0.116 C 
BRANCH  38  39
ATOM     39  C   UNL     1      12.265  -8.640   5.715  1.00  0.00     0.023 C 
BRANCH  39  40
ATOM     40  C   UNL     1      11.904  -8.989   7.155  1.00  0.00     0.026 C 
BRANCH  40  41
ATOM     41  C   UNL     1      11.512  -7.734   7.935  1.00  0.00     0.146 C 
BRANCH  41  42
ATOM     42  N   UNL     1      10.100  -7.795   8.289  1.00  0.00    -0.254 NA
ATOM     43  C   UNL     1       9.327  -6.823   7.979  1.00  0.00     0.185 C 
ATOM     44  N   UNL     1       9.599  -5.672   7.338  1.00  0.00    -0.370 N 
ATOM     45  N   UNL     1       8.030  -6.897   8.319  1.00  0.00    -0.370 N 
ATOM     46  H   UNL     1       8.958  -4.898   7.379  1.00  0.00     0.159 HD
ATOM     47  H   UNL     1      10.532  -5.459   6.998  1.00  0.00     0.159 HD
ATOM     48  H   UNL     1       7.739  -7.738   8.798  1.00  0.00     0.159 HD
ATOM     49  H   UNL     1       7.327  -6.305   7.913  1.00  0.00     0.159 HD
ENDBRANCH  41  42
ENDBRANCH  40  41
ENDBRANCH  39  40
ENDBRANCH  38  39
ENDBRANCH  36  38
ENDBRANCH   5  34
BRANCH   8  50
ATOM     50  O   UNL     1      13.214  -3.098   4.689  1.00  0.00    -0.245 OA
BRANCH  50  51
ATOM     51  S   UNL     1      12.706  -2.677   6.176  1.00  0.00     0.397 S 
ATOM     52  O   UNL     1      11.859  -3.737   6.675  1.00  0.00    -0.169 OA
ATOM     53  O   UNL     1      12.269  -1.296   6.168  1.00  0.00    -0.169 OA
BRANCH  51  54
ATOM     54  O   UNL     1      14.064  -2.763   7.032  1.00  0.00    -0.264 OA
ATOM     55  H   UNL     1      14.451  -3.651   6.890  1.00  0.00     0.236 HD
ENDBRANCH  51  54
ENDBRANCH  50  51
ENDBRANCH   8  50
TORSDOF 19
ENDMDL
MODEL 12
REMARK VINA RESULT:    -6.160      2.860      5.624
REMARK INTER + INTRA:         -16.803
REMARK INTER:                 -12.446
REMARK INTRA:                  -4.357
REMARK UNBOUND:                -4.340
REMARK SMILES CC[C@@H](C)[C@@H](NC(=O)[C@@H](O)Cc1ccc(O)c(Cl)c1)C(=O)N1[C@H](C(=O)NCCCCN=C(N)N)C[C@H]2CC[C@H](OS(=O)(=O)O)C[C@@H]21
REMARK SMILES IDX 22 1 36 2 46 3 35 4 23 5 45 6 37 7 39 8 38 9 20 10 21 11
REMARK SMILES IDX 5 12 6 13 7 14 8 15 9 17 11 18 12 19 17 20 19 21 15 22 14 23
REMARK SMILES IDX 13 24 18 25 16 26 10 28 3 30 4 31 2 32 1 33 24 34 25 35
REMARK SMILES IDX 26 36 27 38 28 39 29 40 30 41 31 42 32 43 33 44 34 45 40 50
REMARK SMILES IDX 41 51 42 52 43 53 44 54
REMARK H PARENT 6 16 16 27 10 29 26 37 33 46 33 47 34 48 34 49 44 55
ROOT
ATOM      1  N   UNL     1      12.217  -3.827   1.755  1.00  0.00    -0.326 N 
ATOM      2  C   UNL     1       9.981  -3.526   2.428  1.00  0.00     0.014 C 
ATOM      3  C   UNL     1      10.954  -4.564   1.861  1.00  0.00     0.091 C 
ATOM      4  C   UNL     1      10.461  -2.232   1.789  1.00  0.00     0.041 C 
ATOM      5  C   UNL     1      11.981  -2.380   1.983  1.00  0.00     0.175 C 
ATOM      6  C   UNL     1      10.912  -5.804   2.751  1.00  0.00     0.059 C 
ATOM      7  C   UNL     1       8.544  -3.966   2.229  1.00  0.00     0.008 C 
ATOM      8  C   UNL     1       9.533  -6.058   3.397  1.00  0.00     0.143 C 
ATOM      9  C   UNL     1       8.382  -5.464   2.559  1.00  0.00     0.034 C 
ENDROOT
BRANCH   1  10
ATOM     10  C   UNL     1      13.452  -4.243   1.287  1.00  0.00     0.246 C 
ATOM     11  O   UNL     1      14.466  -3.964   1.936  1.00  0.00    -0.272 OA
BRANCH  10  12
ATOM     12  C   UNL     1      13.532  -5.089  -0.017  1.00  0.00     0.174 C 
BRANCH  12  13
ATOM     13  N   UNL     1      12.555  -4.600  -0.989  1.00  0.00    -0.342 N 
ATOM     14  C   UNL     1      12.845  -3.781  -2.057  1.00  0.00     0.249 C 
ATOM     15  O   UNL     1      13.972  -3.389  -2.330  1.00  0.00    -0.272 OA
ATOM     16  H   UNL     1      11.561  -4.713  -0.804  1.00  0.00     0.164 HD
BRANCH  14  17
ATOM     17  C   UNL     1      11.595  -3.425  -2.890  1.00  0.00     0.207 C 
BRANCH  17  18
ATOM     18  C   UNL     1      11.054  -4.668  -3.602  1.00  0.00     0.077 C 
BRANCH  18  19
ATOM     19  C   UNL     1       9.671  -5.038  -3.115  1.00  0.00    -0.043 A 
ATOM     20  C   UNL     1       7.515  -6.082  -3.498  1.00  0.00     0.083 A 
ATOM     21  C   UNL     1       8.808  -5.785  -3.931  1.00  0.00     0.028 A 
ATOM     22  C   UNL     1       7.076  -5.634  -2.252  1.00  0.00     0.134 A 
ATOM     23  C   UNL     1       7.920  -4.893  -1.433  1.00  0.00     0.048 A 
ATOM     24  C   UNL     1       9.214  -4.593  -1.864  1.00  0.00     0.008 A 
ATOM     25  Cl  UNL     1       6.469  -7.001  -4.516  1.00  0.00    -0.080 Cl
BRANCH  22  26
ATOM     26  O   UNL     1       5.814  -5.891  -1.789  1.00  0.00    -0.506 OA
ATOM     27  H   UNL     1       5.900  -6.091  -0.838  1.00  0.00     0.293 HD
ENDBRANCH  22  26
ENDBRANCH  18  19
ENDBRANCH  17  18
BRANCH  17  28
ATOM     28  O   UNL     1      11.894  -2.411  -3.863  1.00  0.00    -0.383 OA
ATOM     29  H   UNL     1      12.687  -1.936  -3.527  1.00  0.00     0.211 HD
ENDBRANCH  17  28
ENDBRANCH  14  17
ENDBRANCH  12  13
BRANCH  12  30
ATOM     30  C   UNL     1      13.395  -6.612   0.246  1.00  0.00     0.018 C 
ATOM     31  C   UNL     1      14.772  -7.252   0.484  1.00  0.00     0.010 C 
BRANCH  30  32
ATOM     32  C   UNL     1      12.642  -7.371  -0.874  1.00  0.00     0.002 C 
ATOM     33  C   UNL     1      12.994  -8.847  -1.010  1.00  0.00     0.004 C 
ENDBRANCH  30  32
ENDBRANCH  12  30
ENDBRANCH  10  12
ENDBRANCH   1  10
BRANCH   5  34
ATOM     34  C   UNL     1      12.417  -1.970   3.416  1.00  0.00     0.242 C 
ATOM     35  O   UNL     1      12.607  -2.797   4.307  1.00  0.00    -0.273 OA
ATOM     36  N   UNL     1      12.522  -0.614   3.631  1.00  0.00    -0.354 N 
ATOM     37  H   UNL     1      12.235   0.025   2.888  1.00  0.00     0.163 HD
BRANCH  36  38
ATOM     38  C   UNL     1      13.119  -0.066   4.831  1.00  0.00     0.116 C 
BRANCH  38  39
ATOM     39  C   UNL     1      12.200   0.997   5.428  1.00  0.00     0.023 C 
BRANCH  39  40
ATOM     40  C   UNL     1      10.743   0.550   5.469  1.00  0.00     0.026 C 
BRANCH  40  41
ATOM     41  C   UNL     1      10.387  -0.012   6.845  1.00  0.00     0.146 C 
BRANCH  41  42
ATOM     42  N   UNL     1       9.344  -1.021   6.711  1.00  0.00    -0.254 NA
ATOM     43  C   UNL     1       9.660  -2.262   6.715  1.00  0.00     0.185 C 
ATOM     44  N   UNL     1      10.865  -2.848   6.832  1.00  0.00    -0.370 N 
ATOM     45  N   UNL     1       8.684  -3.176   6.585  1.00  0.00    -0.370 N 
ATOM     46  H   UNL     1      10.994  -3.812   6.575  1.00  0.00     0.159 HD
ATOM     47  H   UNL     1      11.713  -2.303   6.952  1.00  0.00     0.159 HD
ATOM     48  H   UNL     1       7.743  -2.818   6.501  1.00  0.00     0.159 HD
ATOM     49  H   UNL     1       8.814  -4.146   6.814  1.00  0.00     0.159 HD
ENDBRANCH  41  42
ENDBRANCH  40  41
ENDBRANCH  39  40
ENDBRANCH  38  39
ENDBRANCH  36  38
ENDBRANCH   5  34
BRANCH   8  50
ATOM     50  O   UNL     1       9.488  -5.479   4.702  1.00  0.00    -0.245 OA
BRANCH  50  51
ATOM     51  S   UNL     1       9.541  -6.444   6.011  1.00  0.00     0.397 S 
ATOM     52  O   UNL     1      10.404  -5.822   6.990  1.00  0.00    -0.169 OA
ATOM     53  O   UNL     1       9.731  -7.818   5.594  1.00  0.00    -0.169 OA
BRANCH  51  54
ATOM     54  O   UNL     1       8.048  -6.304   6.591  1.00  0.00    -0.264 OA
ATOM     55  H   UNL     1       8.116  -6.027   7.527  1.00  0.00     0.236 HD
ENDBRANCH  51  54
ENDBRANCH  50  51
ENDBRANCH   8  50
TORSDOF 19
ENDMDL
MODEL 13
REMARK VINA RESULT:    -6.160      1.462      1.807
REMARK INTER + INTRA:         -16.802
REMARK INTER:                 -12.922
REMARK INTRA:                  -3.880
REMARK UNBOUND:                -4.340
REMARK SMILES CC[C@@H](C)[C@@H](NC(=O)[C@@H](O)Cc1ccc(O)c(Cl)c1)C(=O)N1[C@H](C(=O)NCCCCN=C(N)N)C[C@H]2CC[C@H](OS(=O)(=O)O)C[C@@H]21
REMARK SMILES IDX 22 1 36 2 46 3 35 4 23 5 45 6 37 7 39 8 38 9 20 10 21 11
REMARK SMILES IDX 5 12 6 13 7 14 8 15 9 17 11 18 12 19 17 20 19 21 15 22 14 23
REMARK SMILES IDX 13 24 18 25 16 26 10 28 3 30 4 31 2 32 1 33 24 34 25 35
REMARK SMILES IDX 26 36 27 38 28 39 29 40 30 41 31 42 32 43 33 44 34 45 40 50
REMARK SMILES IDX 41 51 42 52 43 53 44 54
REMARK H PARENT 6 16 16 27 10 29 26 37 33 46 33 47 34 48 34 49 44 55
ROOT
ATOM      1  N   UNL     1       8.018  -3.806   0.571  1.00  0.00    -0.326 N 
ATOM      2  C   UNL     1       8.759  -1.711   1.346  1.00  0.00     0.014 C 
ATOM      3  C   UNL     1       7.586  -2.693   1.421  1.00  0.00     0.091 C 
ATOM      4  C   UNL     1       9.256  -1.891  -0.080  1.00  0.00     0.041 C 
ATOM      5  C   UNL     1       9.238  -3.427  -0.183  1.00  0.00     0.175 C 
ATOM      6  C   UNL     1       7.288  -2.977   2.892  1.00  0.00     0.059 C 
ATOM      7  C   UNL     1       8.343  -0.332   1.820  1.00  0.00     0.008 C 
ATOM      8  C   UNL     1       7.582  -1.785   3.828  1.00  0.00     0.143 C 
ATOM      9  C   UNL     1       7.477  -0.433   3.094  1.00  0.00     0.034 C 
ENDROOT
BRANCH   1  10
ATOM     10  C   UNL     1       7.359  -4.979   0.243  1.00  0.00     0.246 C 
ATOM     11  O   UNL     1       7.393  -5.929   1.033  1.00  0.00    -0.272 OA
BRANCH  10  12
ATOM     12  C   UNL     1       6.558  -5.062  -1.088  1.00  0.00     0.174 C 
BRANCH  12  13
ATOM     13  N   UNL     1       7.471  -5.302  -2.205  1.00  0.00    -0.342 N 
ATOM     14  C   UNL     1       7.376  -6.351  -3.092  1.00  0.00     0.249 C 
ATOM     15  O   UNL     1       6.490  -7.195  -3.058  1.00  0.00    -0.272 OA
ATOM     16  H   UNL     1       8.340  -4.778  -2.266  1.00  0.00     0.164 HD
BRANCH  14  17
ATOM     17  C   UNL     1       8.500  -6.339  -4.150  1.00  0.00     0.207 C 
BRANCH  17  18
ATOM     18  C   UNL     1       9.213  -4.983  -4.159  1.00  0.00     0.077 C 
BRANCH  18  19
ATOM     19  C   UNL     1      10.572  -5.059  -3.500  1.00  0.00    -0.043 A 
ATOM     20  C   UNL     1      12.301  -6.347  -2.388  1.00  0.00     0.083 A 
ATOM     21  C   UNL     1      11.068  -6.288  -3.040  1.00  0.00     0.028 A 
ATOM     22  C   UNL     1      13.042  -5.181  -2.190  1.00  0.00     0.134 A 
ATOM     23  C   UNL     1      12.562  -3.957  -2.640  1.00  0.00     0.048 A 
ATOM     24  C   UNL     1      11.328  -3.895  -3.292  1.00  0.00     0.008 A 
ATOM     25  Cl  UNL     1      12.894  -7.867  -1.829  1.00  0.00    -0.080 Cl
BRANCH  22  26
ATOM     26  O   UNL     1      14.250  -5.187  -1.546  1.00  0.00    -0.506 OA
ATOM     27  H   UNL     1      14.844  -4.610  -2.061  1.00  0.00     0.293 HD
ENDBRANCH  22  26
ENDBRANCH  18  19
ENDBRANCH  17  18
BRANCH  17  28
ATOM     28  O   UNL     1       7.979  -6.611  -5.461  1.00  0.00    -0.383 OA
ATOM     29  H   UNL     1       7.332  -5.894  -5.651  1.00  0.00     0.211 HD
ENDBRANCH  17  28
ENDBRANCH  14  17
ENDBRANCH  12  13
BRANCH  12  30
ATOM     30  C   UNL     1       5.650  -3.825  -1.320  1.00  0.00     0.018 C 
ATOM     31  C   UNL     1       4.230  -4.256  -1.721  1.00  0.00     0.010 C 
BRANCH  30  32
ATOM     32  C   UNL     1       6.215  -2.824  -2.357  1.00  0.00     0.002 C 
ATOM     33  C   UNL     1       6.126  -1.356  -1.962  1.00  0.00     0.004 C 
ENDBRANCH  30  32
ENDBRANCH  12  30
ENDBRANCH  10  12
ENDBRANCH   1  10
BRANCH   5  34
ATOM     34  C   UNL     1      10.501  -4.058   0.461  1.00  0.00     0.242 C 
ATOM     35  O   UNL     1      11.514  -3.403   0.702  1.00  0.00    -0.273 OA
ATOM     36  N   UNL     1      10.425  -5.414   0.692  1.00  0.00    -0.354 N 
ATOM     37  H   UNL     1       9.606  -5.924   0.360  1.00  0.00     0.163 HD
BRANCH  36  38
ATOM     38  C   UNL     1      11.417  -6.121   1.476  1.00  0.00     0.116 C 
BRANCH  38  39
ATOM     39  C   UNL     1      11.190  -5.853   2.962  1.00  0.00     0.023 C 
BRANCH  39  40
ATOM     40  C   UNL     1       9.871  -6.431   3.463  1.00  0.00     0.026 C 
BRANCH  40  41
ATOM     41  C   UNL     1      10.118  -7.510   4.518  1.00  0.00     0.146 C 
BRANCH  41  42
ATOM     42  N   UNL     1       9.192  -8.617   4.316  1.00  0.00    -0.254 NA
ATOM     43  C   UNL     1       8.440  -8.996   5.280  1.00  0.00     0.185 C 
ATOM     44  N   UNL     1       8.339  -8.525   6.536  1.00  0.00    -0.370 N 
ATOM     45  N   UNL     1       7.596 -10.022   5.075  1.00  0.00    -0.370 N 
ATOM     46  H   UNL     1       7.889  -9.069   7.253  1.00  0.00     0.159 HD
ATOM     47  H   UNL     1       8.896  -7.740   6.857  1.00  0.00     0.159 HD
ATOM     48  H   UNL     1       7.603 -10.429   4.150  1.00  0.00     0.159 HD
ATOM     49  H   UNL     1       6.823 -10.220   5.684  1.00  0.00     0.159 HD
ENDBRANCH  41  42
ENDBRANCH  40  41
ENDBRANCH  39  40
ENDBRANCH  38  39
ENDBRANCH  36  38
ENDBRANCH   5  34
BRANCH   8  50
ATOM     50  O   UNL     1       8.895  -1.903   4.375  1.00  0.00    -0.245 OA
BRANCH  50  51
ATOM     51  S   UNL     1       9.084  -2.427   5.903  1.00  0.00     0.397 S 
ATOM     52  O   UNL     1       9.058  -3.872   5.886  1.00  0.00    -0.169 OA
ATOM     53  O   UNL     1       8.231  -1.661   6.789  1.00  0.00    -0.169 OA
BRANCH  51  54
ATOM     54  O   UNL     1      10.610  -2.021   6.211  1.00  0.00    -0.264 OA
ATOM     55  H   UNL     1      11.097  -2.028   5.362  1.00  0.00     0.236 HD
ENDBRANCH  51  54
ENDBRANCH  50  51
ENDBRANCH   8  50
TORSDOF 19
ENDMDL
MODEL 14
REMARK VINA RESULT:    -6.158      4.431      8.899
REMARK INTER + INTRA:         -16.797
REMARK INTER:                 -14.212
REMARK INTRA:                  -2.585
REMARK UNBOUND:                -4.340
REMARK SMILES CC[C@@H](C)[C@@H](NC(=O)[C@@H](O)Cc1ccc(O)c(Cl)c1)C(=O)N1[C@H](C(=O)NCCCCN=C(N)N)C[C@H]2CC[C@H](OS(=O)(=O)O)C[C@@H]21
REMARK SMILES IDX 22 1 36 2 46 3 35 4 23 5 45 6 37 7 39 8 38 9 20 10 21 11
REMARK SMILES IDX 5 12 6 13 7 14 8 15 9 17 11 18 12 19 17 20 19 21 15 22 14 23
REMARK SMILES IDX 13 24 18 25 16 26 10 28 3 30 4 31 2 32 1 33 24 34 25 35
REMARK SMILES IDX 26 36 27 38 28 39 29 40 30 41 31 42 32 43 33 44 34 45 40 50
REMARK SMILES IDX 41 51 42 52 43 53 44 54
REMARK H PARENT 6 16 16 27 10 29 26 37 33 46 33 47 34 48 34 49 44 55
ROOT
ATOM      1  N   UNL     1      10.212  -4.175   3.003  1.00  0.00    -0.326 N 
ATOM      2  C   UNL     1      10.851  -6.441   2.958  1.00  0.00     0.014 C 
ATOM      3  C   UNL     1      10.951  -5.163   3.795  1.00  0.00     0.091 C 
ATOM      4  C   UNL     1      10.886  -5.911   1.533  1.00  0.00     0.041 C 
ATOM      5  C   UNL     1       9.911  -4.726   1.658  1.00  0.00     0.175 C 
ATOM      6  C   UNL     1      10.460  -5.471   5.208  1.00  0.00     0.059 C 
ATOM      7  C   UNL     1      11.884  -7.460   3.398  1.00  0.00     0.008 C 
ATOM      8  C   UNL     1      10.740  -6.920   5.661  1.00  0.00     0.143 C 
ATOM      9  C   UNL     1      11.959  -7.528   4.938  1.00  0.00     0.034 C 
ENDROOT
BRANCH   1  10
ATOM     10  C   UNL     1       9.981  -2.833   3.249  1.00  0.00     0.246 C 
ATOM     11  O   UNL     1      10.102  -2.022   2.324  1.00  0.00    -0.272 OA
BRANCH  10  12
ATOM     12  C   UNL     1       9.533  -2.380   4.669  1.00  0.00     0.174 C 
BRANCH  12  13
ATOM     13  N   UNL     1       8.082  -2.200   4.700  1.00  0.00    -0.342 N 
ATOM     14  C   UNL     1       7.175  -3.162   5.086  1.00  0.00     0.249 C 
ATOM     15  O   UNL     1       7.490  -4.279   5.476  1.00  0.00    -0.272 OA
ATOM     16  H   UNL     1       7.666  -1.384   4.259  1.00  0.00     0.164 HD
BRANCH  14  17
ATOM     17  C   UNL     1       5.714  -2.673   4.993  1.00  0.00     0.207 C 
BRANCH  17  18
ATOM     18  C   UNL     1       5.663  -1.143   4.938  1.00  0.00     0.077 C 
BRANCH  18  19
ATOM     19  C   UNL     1       4.317  -0.642   4.464  1.00  0.00    -0.043 A 
ATOM     20  C   UNL     1       2.312   0.671   4.836  1.00  0.00     0.083 A 
ATOM     21  C   UNL     1       3.575   0.250   5.254  1.00  0.00     0.028 A 
ATOM     22  C   UNL     1       1.783   0.205   3.632  1.00  0.00     0.134 A 
ATOM     23  C   UNL     1       2.508  -0.678   2.840  1.00  0.00     0.048 A 
ATOM     24  C   UNL     1       3.771  -1.103   3.256  1.00  0.00     0.008 A 
ATOM     25  Cl  UNL     1       1.415   1.767   5.821  1.00  0.00    -0.080 Cl
BRANCH  22  26
ATOM     26  O   UNL     1       0.545   0.582   3.187  1.00  0.00    -0.506 OA
ATOM     27  H   UNL     1       0.170  -0.187   2.719  1.00  0.00     0.293 HD
ENDBRANCH  22  26
ENDBRANCH  18  19
ENDBRANCH  17  18
BRANCH  17  28
ATOM     28  O   UNL     1       4.942  -3.135   6.114  1.00  0.00    -0.383 OA
ATOM     29  H   UNL     1       4.100  -2.626   6.093  1.00  0.00     0.211 HD
ENDBRANCH  17  28
ENDBRANCH  14  17
ENDBRANCH  12  13
BRANCH  12  30
ATOM     30  C   UNL     1      10.296  -1.123   5.166  1.00  0.00     0.018 C 
ATOM     31  C   UNL     1      11.795  -1.422   5.328  1.00  0.00     0.010 C 
BRANCH  30  32
ATOM     32  C   UNL     1       9.728  -0.529   6.478  1.00  0.00     0.002 C 
ATOM     33  C   UNL     1      10.729   0.237   7.333  1.00  0.00     0.004 C 
ENDBRANCH  30  32
ENDBRANCH  12  30
ENDBRANCH  10  12
ENDBRANCH   1  10
BRANCH   5  34
ATOM     34  C   UNL     1       8.432  -5.191   1.573  1.00  0.00     0.242 C 
ATOM     35  O   UNL     1       7.868  -5.763   2.505  1.00  0.00    -0.273 OA
ATOM     36  N   UNL     1       7.816  -4.965   0.363  1.00  0.00    -0.354 N 
ATOM     37  H   UNL     1       8.372  -4.596  -0.410  1.00  0.00     0.163 HD
BRANCH  36  38
ATOM     38  C   UNL     1       6.390  -5.135   0.177  1.00  0.00     0.116 C 
BRANCH  38  39
ATOM     39  C   UNL     1       5.779  -3.842  -0.357  1.00  0.00     0.023 C 
BRANCH  39  40
ATOM     40  C   UNL     1       4.530  -4.091  -1.196  1.00  0.00     0.026 C 
BRANCH  40  41
ATOM     41  C   UNL     1       4.792  -3.771  -2.668  1.00  0.00     0.146 C 
BRANCH  41  42
ATOM     42  N   UNL     1       4.906  -5.009  -3.428  1.00  0.00    -0.254 NA
ATOM     43  C   UNL     1       6.063  -5.446  -3.757  1.00  0.00     0.185 C 
ATOM     44  N   UNL     1       7.283  -4.936  -3.510  1.00  0.00    -0.370 N 
ATOM     45  N   UNL     1       6.146  -6.587  -4.461  1.00  0.00    -0.370 N 
ATOM     46  H   UNL     1       8.084  -5.247  -4.032  1.00  0.00     0.159 HD
ATOM     47  H   UNL     1       7.405  -4.081  -2.976  1.00  0.00     0.159 HD
ATOM     48  H   UNL     1       5.270  -7.042  -4.682  1.00  0.00     0.159 HD
ATOM     49  H   UNL     1       6.998  -7.111  -4.550  1.00  0.00     0.159 HD
ENDBRANCH  41  42
ENDBRANCH  40  41
ENDBRANCH  39  40
ENDBRANCH  38  39
ENDBRANCH  36  38
ENDBRANCH   5  34
BRANCH   8  50
ATOM     50  O   UNL     1       9.602  -7.744   5.402  1.00  0.00    -0.245 OA
BRANCH  50  51
ATOM     51  S   UNL     1       8.564  -8.082   6.607  1.00  0.00     0.397 S 
ATOM     52  O   UNL     1       9.337  -8.430   7.778  1.00  0.00    -0.169 OA
ATOM     53  O   UNL     1       7.507  -8.939   6.112  1.00  0.00    -0.169 OA
BRANCH  51  54
ATOM     54  O   UNL     1       7.927  -6.638   6.916  1.00  0.00    -0.264 OA
ATOM     55  H   UNL     1       7.328  -6.411   6.177  1.00  0.00     0.236 HD
ENDBRANCH  51  54
ENDBRANCH  50  51
ENDBRANCH   8  50
TORSDOF 19
ENDMDL
MODEL 15
REMARK VINA RESULT:    -6.138      3.336      8.146
REMARK INTER + INTRA:         -16.758
REMARK INTER:                 -12.126
REMARK INTRA:                  -4.631
REMARK UNBOUND:                -4.340
REMARK SMILES CC[C@@H](C)[C@@H](NC(=O)[C@@H](O)Cc1ccc(O)c(Cl)c1)C(=O)N1[C@H](C(=O)NCCCCN=C(N)N)C[C@H]2CC[C@H](OS(=O)(=O)O)C[C@@H]21
REMARK SMILES IDX 22 1 36 2 46 3 35 4 23 5 45 6 37 7 39 8 38 9 20 10 21 11
REMARK SMILES IDX 5 12 6 13 7 14 8 15 9 17 11 18 12 19 17 20 19 21 15 22 14 23
REMARK SMILES IDX 13 24 18 25 16 26 10 28 3 30 4 31 2 32 1 33 24 34 25 35
REMARK SMILES IDX 26 36 27 38 28 39 29 40 30 41 31 42 32 43 33 44 34 45 40 50
REMARK SMILES IDX 41 51 42 52 43 53 44 54
REMARK H PARENT 6 16 16 27 10 29 26 37 33 46 33 47 34 48 34 49 44 55
ROOT
ATOM      1  N   UNL     1      11.845  -3.693  -2.325  1.00  0.00    -0.326 N 
ATOM      2  C   UNL     1       9.948  -3.330  -3.671  1.00  0.00     0.014 C 
ATOM      3  C   UNL     1      11.028  -4.364  -3.340  1.00  0.00     0.091 C 
ATOM      4  C   UNL     1      10.696  -2.012  -3.543  1.00  0.00     0.041 C 
ATOM      5  C   UNL     1      11.465  -2.262  -2.232  1.00  0.00     0.175 C 
ATOM      6  C   UNL     1      10.341  -5.676  -2.965  1.00  0.00     0.059 C 
ATOM      7  C   UNL     1       9.256  -3.668  -4.977  1.00  0.00     0.008 C 
ATOM      8  C   UNL     1       9.004  -5.910  -3.701  1.00  0.00     0.143 C 
ATOM      9  C   UNL     1       8.954  -5.179  -5.058  1.00  0.00     0.034 C 
ENDROOT
BRANCH   1  10
ATOM     10  C   UNL     1      12.979  -4.134  -1.665  1.00  0.00     0.246 C 
ATOM     11  O   UNL     1      13.938  -3.365  -1.538  1.00  0.00    -0.272 OA
BRANCH  10  12
ATOM     12  C   UNL     1      13.006  -5.568  -1.060  1.00  0.00     0.174 C 
BRANCH  12  13
ATOM     13  N   UNL     1      12.922  -5.496   0.398  1.00  0.00    -0.342 N 
ATOM     14  C   UNL     1      11.764  -5.635   1.131  1.00  0.00     0.249 C 
ATOM     15  O   UNL     1      10.668  -5.866   0.636  1.00  0.00    -0.272 OA
ATOM     16  H   UNL     1      13.718  -5.157   0.932  1.00  0.00     0.164 HD
BRANCH  14  17
ATOM     17  C   UNL     1      12.000  -5.491   2.649  1.00  0.00     0.207 C 
BRANCH  17  18
ATOM     18  C   UNL     1      12.626  -4.130   2.967  1.00  0.00     0.077 C 
BRANCH  18  19
ATOM     19  C   UNL     1      11.974  -3.477   4.165  1.00  0.00    -0.043 A 
ATOM     20  C   UNL     1      11.159  -1.490   5.292  1.00  0.00     0.083 A 
ATOM     21  C   UNL     1      11.716  -2.097   4.166  1.00  0.00     0.028 A 
ATOM     22  C   UNL     1      10.858  -2.253   6.421  1.00  0.00     0.134 A 
ATOM     23  C   UNL     1      11.108  -3.620   6.433  1.00  0.00     0.048 A 
ATOM     24  C   UNL     1      11.667  -4.231   5.308  1.00  0.00     0.008 A 
ATOM     25  Cl  UNL     1      10.850   0.207   5.275  1.00  0.00    -0.080 Cl
BRANCH  22  26
ATOM     26  O   UNL     1      10.321  -1.700   7.552  1.00  0.00    -0.506 OA
ATOM     27  H   UNL     1      10.938  -1.898   8.281  1.00  0.00     0.293 HD
ENDBRANCH  22  26
ENDBRANCH  18  19
ENDBRANCH  17  18
BRANCH  17  28
ATOM     28  O   UNL     1      12.855  -6.536   3.142  1.00  0.00    -0.383 OA
ATOM     29  H   UNL     1      12.344  -6.996   3.846  1.00  0.00     0.211 HD
ENDBRANCH  17  28
ENDBRANCH  14  17
ENDBRANCH  12  13
BRANCH  12  30
ATOM     30  C   UNL     1      14.224  -6.400  -1.543  1.00  0.00     0.018 C 
ATOM     31  C   UNL     1      14.221  -6.536  -3.074  1.00  0.00     0.010 C 
BRANCH  30  32
ATOM     32  C   UNL     1      14.322  -7.798  -0.885  1.00  0.00     0.002 C 
ATOM     33  C   UNL     1      13.284  -8.810  -1.349  1.00  0.00     0.004 C 
ENDBRANCH  30  32
ENDBRANCH  12  30
ENDBRANCH  10  12
ENDBRANCH   1  10
BRANCH   5  34
ATOM     34  C   UNL     1      10.571  -2.010  -0.988  1.00  0.00     0.242 C 
ATOM     35  O   UNL     1      10.775  -2.565   0.092  1.00  0.00    -0.273 OA
ATOM     36  N   UNL     1       9.504  -1.165  -1.195  1.00  0.00    -0.354 N 
ATOM     37  H   UNL     1       9.318  -0.831  -2.141  1.00  0.00     0.163 HD
BRANCH  36  38
ATOM     38  C   UNL     1       8.701  -0.652  -0.104  1.00  0.00     0.116 C 
BRANCH  38  39
ATOM     39  C   UNL     1       7.270  -0.417  -0.581  1.00  0.00     0.023 C 
BRANCH  39  40
ATOM     40  C   UNL     1       6.235  -1.026   0.359  1.00  0.00     0.026 C 
BRANCH  40  41
ATOM     41  C   UNL     1       6.090  -2.527   0.106  1.00  0.00     0.146 C 
BRANCH  41  42
ATOM     42  N   UNL     1       6.693  -3.272   1.203  1.00  0.00    -0.254 NA
ATOM     43  C   UNL     1       7.629  -4.111   0.961  1.00  0.00     0.185 C 
ATOM     44  N   UNL     1       8.200  -4.456  -0.208  1.00  0.00    -0.370 N 
ATOM     45  N   UNL     1       8.168  -4.791   1.986  1.00  0.00    -0.370 N 
ATOM     46  H   UNL     1       8.746  -5.298  -0.283  1.00  0.00     0.159 HD
ATOM     47  H   UNL     1       7.921  -4.028  -1.085  1.00  0.00     0.159 HD
ATOM     48  H   UNL     1       7.799  -4.584   2.904  1.00  0.00     0.159 HD
ATOM     49  H   UNL     1       9.044  -5.277   1.915  1.00  0.00     0.159 HD
ENDBRANCH  41  42
ENDBRANCH  40  41
ENDBRANCH  39  40
ENDBRANCH  38  39
ENDBRANCH  36  38
ENDBRANCH   5  34
BRANCH   8  50
ATOM     50  O   UNL     1       7.916  -5.452  -2.898  1.00  0.00    -0.245 OA
BRANCH  50  51
ATOM     51  S   UNL     1       6.461  -6.165  -3.035  1.00  0.00     0.397 S 
ATOM     52  O   UNL     1       6.671  -7.590  -3.152  1.00  0.00    -0.169 OA
ATOM     53  O   UNL     1       5.650  -5.436  -3.988  1.00  0.00    -0.169 OA
BRANCH  51  54
ATOM     54  O   UNL     1       5.835  -5.933  -1.572  1.00  0.00    -0.264 OA
ATOM     55  H   UNL     1       5.722  -6.811  -1.153  1.00  0.00     0.236 HD
ENDBRANCH  51  54
ENDBRANCH  50  51
ENDBRANCH   8  50
TORSDOF 19
ENDMDL
MODEL 16
REMARK VINA RESULT:    -6.091      4.596      8.034
REMARK INTER + INTRA:         -16.662
REMARK INTER:                 -12.897
REMARK INTRA:                  -3.766
REMARK UNBOUND:                -4.340
REMARK SMILES CC[C@@H](C)[C@@H](NC(=O)[C@@H](O)Cc1ccc(O)c(Cl)c1)C(=O)N1[C@H](C(=O)NCCCCN=C(N)N)C[C@H]2CC[C@H](OS(=O)(=O)O)C[C@@H]21
REMARK SMILES IDX 22 1 36 2 46 3 35 4 23 5 45 6 37 7 39 8 38 9 20 10 21 11
REMARK SMILES IDX 5 12 6 13 7 14 8 15 9 17 11 18 12 19 17 20 19 21 15 22 14 23
REMARK SMILES IDX 13 24 18 25 16 26 10 28 3 30 4 31 2 32 1 33 24 34 25 35
REMARK SMILES IDX 26 36 27 38 28 39 29 40 30 41 31 42 32 43 33 44 34 45 40 50
REMARK SMILES IDX 41 51 42 52 43 53 44 54
REMARK H PARENT 6 16 16 27 10 29 26 37 33 46 33 47 34 48 34 49 44 55
ROOT
ATOM      1  N   UNL     1       5.086  -0.952   4.801  1.00  0.00    -0.326 N 
ATOM      2  C   UNL     1       3.242   0.404   4.249  1.00  0.00     0.014 C 
ATOM      3  C   UNL     1       4.302   0.169   5.329  1.00  0.00     0.091 C 
ATOM      4  C   UNL     1       2.964  -1.002   3.740  1.00  0.00     0.041 C 
ATOM      5  C   UNL     1       4.403  -1.537   3.620  1.00  0.00     0.175 C 
ATOM      6  C   UNL     1       5.019   1.490   5.598  1.00  0.00     0.059 C 
ATOM      7  C   UNL     1       2.097   1.240   4.787  1.00  0.00     0.008 C 
ATOM      8  C   UNL     1       4.122   2.733   5.411  1.00  0.00     0.143 C 
ATOM      9  C   UNL     1       2.631   2.411   5.638  1.00  0.00     0.034 C 
ENDROOT
BRANCH   1  10
ATOM     10  C   UNL     1       6.169  -1.615   5.352  1.00  0.00     0.246 C 
ATOM     11  O   UNL     1       6.060  -2.111   6.478  1.00  0.00    -0.272 OA
BRANCH  10  12
ATOM     12  C   UNL     1       7.480  -1.760   4.527  1.00  0.00     0.174 C 
BRANCH  12  13
ATOM     13  N   UNL     1       7.785  -3.176   4.319  1.00  0.00    -0.342 N 
ATOM     14  C   UNL     1       7.858  -3.797   3.093  1.00  0.00     0.249 C 
ATOM     15  O   UNL     1       7.700  -3.219   2.025  1.00  0.00    -0.272 OA
ATOM     16  H   UNL     1       7.785  -3.812   5.112  1.00  0.00     0.164 HD
BRANCH  14  17
ATOM     17  C   UNL     1       8.181  -5.302   3.206  1.00  0.00     0.207 C 
BRANCH  17  18
ATOM     18  C   UNL     1       9.643  -5.565   2.830  1.00  0.00     0.077 C 
BRANCH  18  19
ATOM     19  C   UNL     1      10.597  -5.028   3.873  1.00  0.00    -0.043 A 
ATOM     20  C   UNL     1      12.478  -3.620   4.475  1.00  0.00     0.083 A 
ATOM     21  C   UNL     1      11.567  -4.077   3.522  1.00  0.00     0.028 A 
ATOM     22  C   UNL     1      12.427  -4.110   5.781  1.00  0.00     0.134 A 
ATOM     23  C   UNL     1      11.471  -5.052   6.142  1.00  0.00     0.048 A 
ATOM     24  C   UNL     1      10.559  -5.513   5.189  1.00  0.00     0.008 A 
ATOM     25  Cl  UNL     1      13.663  -2.451   4.025  1.00  0.00    -0.080 Cl
BRANCH  22  26
ATOM     26  O   UNL     1      13.305  -3.700   6.747  1.00  0.00    -0.506 OA
ATOM     27  H   UNL     1      13.110  -2.761   6.923  1.00  0.00     0.293 HD
ENDBRANCH  22  26
ENDBRANCH  18  19
ENDBRANCH  17  18
BRANCH  17  28
ATOM     28  O   UNL     1       7.323  -6.081   2.357  1.00  0.00    -0.383 OA
ATOM     29  H   UNL     1       7.904  -6.739   1.913  1.00  0.00     0.211 HD
ENDBRANCH  17  28
ENDBRANCH  14  17
ENDBRANCH  12  13
BRANCH  12  30
ATOM     30  C   UNL     1       8.671  -0.983   5.151  1.00  0.00     0.018 C 
ATOM     31  C   UNL     1       9.625  -0.476   4.058  1.00  0.00     0.010 C 
BRANCH  30  32
ATOM     32  C   UNL     1       9.457  -1.796   6.208  1.00  0.00     0.002 C 
ATOM     33  C   UNL     1      10.672  -1.092   6.799  1.00  0.00     0.004 C 
ENDBRANCH  30  32
ENDBRANCH  12  30
ENDBRANCH  10  12
ENDBRANCH   1  10
BRANCH   5  34
ATOM     34  C   UNL     1       5.080  -1.069   2.305  1.00  0.00     0.242 C 
ATOM     35  O   UNL     1       5.764  -0.048   2.244  1.00  0.00    -0.273 OA
ATOM     36  N   UNL     1       4.816  -1.848   1.201  1.00  0.00    -0.354 N 
ATOM     37  H   UNL     1       4.145  -2.613   1.288  1.00  0.00     0.163 HD
BRANCH  36  38
ATOM     38  C   UNL     1       5.530  -1.686  -0.049  1.00  0.00     0.116 C 
BRANCH  38  39
ATOM     39  C   UNL     1       4.554  -1.296  -1.157  1.00  0.00     0.023 C 
BRANCH  39  40
ATOM     40  C   UNL     1       4.358  -2.409  -2.180  1.00  0.00     0.026 C 
BRANCH  40  41
ATOM     41  C   UNL     1       4.098  -3.745  -1.484  1.00  0.00     0.146 C 
BRANCH  41  42
ATOM     42  N   UNL     1       4.887  -4.793  -2.118  1.00  0.00    -0.254 NA
ATOM     43  C   UNL     1       5.871  -5.315  -1.487  1.00  0.00     0.185 C 
ATOM     44  N   UNL     1       6.344  -5.055  -0.255  1.00  0.00    -0.370 N 
ATOM     45  N   UNL     1       6.589  -6.276  -2.092  1.00  0.00    -0.370 N 
ATOM     46  H   UNL     1       7.263  -5.361   0.017  1.00  0.00     0.159 HD
ATOM     47  H   UNL     1       5.910  -4.363   0.348  1.00  0.00     0.159 HD
ATOM     48  H   UNL     1       6.293  -6.538  -3.022  1.00  0.00     0.159 HD
ATOM     49  H   UNL     1       7.208  -6.888  -1.591  1.00  0.00     0.159 HD
ENDBRANCH  41  42
ENDBRANCH  40  41
ENDBRANCH  39  40
ENDBRANCH  38  39
ENDBRANCH  36  38
ENDBRANCH   5  34
BRANCH   8  50
ATOM     50  O   UNL     1       4.278   3.256   4.092  1.00  0.00    -0.245 OA
BRANCH  50  51
ATOM     51  S   UNL     1       4.885   4.751   3.886  1.00  0.00     0.397 S 
ATOM     52  O   UNL     1       5.694   5.067   5.042  1.00  0.00    -0.169 OA
ATOM     53  O   UNL     1       3.840   5.641   3.424  1.00  0.00    -0.169 OA
BRANCH  51  54
ATOM     54  O   UNL     1       5.919   4.529   2.675  1.00  0.00    -0.264 OA
ATOM     55  H   UNL     1       6.804   4.814   2.983  1.00  0.00     0.236 HD
ENDBRANCH  51  54
ENDBRANCH  50  51
ENDBRANCH   8  50
TORSDOF 19
ENDMDL
MODEL 17
REMARK VINA RESULT:    -6.080      2.438      5.001
REMARK INTER + INTRA:         -16.639
REMARK INTER:                 -13.387
REMARK INTRA:                  -3.252
REMARK UNBOUND:                -4.340
REMARK SMILES CC[C@@H](C)[C@@H](NC(=O)[C@@H](O)Cc1ccc(O)c(Cl)c1)C(=O)N1[C@H](C(=O)NCCCCN=C(N)N)C[C@H]2CC[C@H](OS(=O)(=O)O)C[C@@H]21
REMARK SMILES IDX 22 1 36 2 46 3 35 4 23 5 45 6 37 7 39 8 38 9 20 10 21 11
REMARK SMILES IDX 5 12 6 13 7 14 8 15 9 17 11 18 12 19 17 20 19 21 15 22 14 23
REMARK SMILES IDX 13 24 18 25 16 26 10 28 3 30 4 31 2 32 1 33 24 34 25 35
REMARK SMILES IDX 26 36 27 38 28 39 29 40 30 41 31 42 32 43 33 44 34 45 40 50
REMARK SMILES IDX 41 51 42 52 43 53 44 54
REMARK H PARENT 6 16 16 27 10 29 26 37 33 46 33 47 34 48 34 49 44 55
ROOT
ATOM      1  N   UNL     1      12.061  -3.268   3.946  1.00  0.00    -0.326 N 
ATOM      2  C   UNL     1      11.368  -2.130   5.887  1.00  0.00     0.014 C 
ATOM      3  C   UNL     1      11.268  -2.106   4.359  1.00  0.00     0.091 C 
ATOM      4  C   UNL     1      12.776  -2.653   6.123  1.00  0.00     0.041 C 
ATOM      5  C   UNL     1      12.811  -3.809   5.106  1.00  0.00     0.175 C 
ATOM      6  C   UNL     1       9.791  -2.062   3.972  1.00  0.00     0.059 C 
ATOM      7  C   UNL     1      10.963  -0.794   6.477  1.00  0.00     0.008 C 
ATOM      8  C   UNL     1       8.905  -1.309   4.988  1.00  0.00     0.143 C 
ATOM      9  C   UNL     1       9.700  -0.249   5.777  1.00  0.00     0.034 C 
ENDROOT
BRANCH   1  10
ATOM     10  C   UNL     1      12.347  -3.742   2.677  1.00  0.00     0.246 C 
ATOM     11  O   UNL     1      13.243  -4.580   2.536  1.00  0.00    -0.272 OA
BRANCH  10  12
ATOM     12  C   UNL     1      11.508  -3.242   1.465  1.00  0.00     0.174 C 
BRANCH  12  13
ATOM     13  N   UNL     1      10.172  -3.836   1.505  1.00  0.00    -0.342 N 
ATOM     14  C   UNL     1       9.908  -5.180   1.643  1.00  0.00     0.249 C 
ATOM     15  O   UNL     1      10.774  -6.035   1.777  1.00  0.00    -0.272 OA
ATOM     16  H   UNL     1       9.363  -3.274   1.250  1.00  0.00     0.164 HD
BRANCH  14  17
ATOM     17  C   UNL     1       8.396  -5.494   1.632  1.00  0.00     0.207 C 
BRANCH  17  18
ATOM     18  C   UNL     1       7.596  -4.260   1.202  1.00  0.00     0.077 C 
BRANCH  18  19
ATOM     19  C   UNL     1       6.843  -4.500  -0.087  1.00  0.00    -0.043 A 
ATOM     20  C   UNL     1       6.775  -5.369  -2.351  1.00  0.00     0.083 A 
ATOM     21  C   UNL     1       7.454  -5.192  -1.145  1.00  0.00     0.028 A 
ATOM     22  C   UNL     1       5.486  -4.856  -2.509  1.00  0.00     0.134 A 
ATOM     23  C   UNL     1       4.870  -4.169  -1.469  1.00  0.00     0.048 A 
ATOM     24  C   UNL     1       5.548  -3.989  -0.261  1.00  0.00     0.008 A 
ATOM     25  Cl  UNL     1       7.541  -6.221  -3.640  1.00  0.00    -0.080 Cl
BRANCH  22  26
ATOM     26  O   UNL     1       4.785  -4.995  -3.676  1.00  0.00    -0.506 OA
ATOM     27  H   UNL     1       5.397  -5.390  -4.325  1.00  0.00     0.293 HD
ENDBRANCH  22  26
ENDBRANCH  18  19
ENDBRANCH  17  18
BRANCH  17  28
ATOM     28  O   UNL     1       7.948  -5.925   2.928  1.00  0.00    -0.383 OA
ATOM     29  H   UNL     1       8.547  -5.494   3.580  1.00  0.00     0.211 HD
ENDBRANCH  17  28
ENDBRANCH  14  17
ENDBRANCH  12  13
BRANCH  12  30
ATOM     30  C   UNL     1      12.220  -3.477   0.105  1.00  0.00     0.018 C 
ATOM     31  C   UNL     1      13.280  -2.395  -0.150  1.00  0.00     0.010 C 
BRANCH  30  32
ATOM     32  C   UNL     1      11.249  -3.566  -1.097  1.00  0.00     0.002 C 
ATOM     33  C   UNL     1      11.217  -4.911  -1.811  1.00  0.00     0.004 C 
ENDBRANCH  30  32
ENDBRANCH  12  30
ENDBRANCH  10  12
ENDBRANCH   1  10
BRANCH   5  34
ATOM     34  C   UNL     1      12.120  -5.082   5.664  1.00  0.00     0.242 C 
ATOM     35  O   UNL     1      11.703  -5.151   6.819  1.00  0.00    -0.273 OA
ATOM     36  N   UNL     1      12.057  -6.144   4.790  1.00  0.00    -0.354 N 
ATOM     37  H   UNL     1      12.527  -6.067   3.887  1.00  0.00     0.163 HD
BRANCH  36  38
ATOM     38  C   UNL     1      11.263  -7.324   5.064  1.00  0.00     0.116 C 
BRANCH  38  39
ATOM     39  C   UNL     1      12.125  -8.379   5.754  1.00  0.00     0.023 C 
BRANCH  39  40
ATOM     40  C   UNL     1      11.345  -9.180   6.791  1.00  0.00     0.026 C 
BRANCH  40  41
ATOM     41  C   UNL     1      10.825  -8.268   7.902  1.00  0.00     0.146 C 
BRANCH  41  42
ATOM     42  N   UNL     1       9.371  -8.340   7.958  1.00  0.00    -0.254 NA
ATOM     43  C   UNL     1       8.681  -7.262   7.927  1.00  0.00     0.185 C 
ATOM     44  N   UNL     1       9.083  -5.980   7.845  1.00  0.00    -0.370 N 
ATOM     45  N   UNL     1       7.342  -7.350   7.984  1.00  0.00    -0.370 N 
ATOM     46  H   UNL     1       8.453  -5.230   8.075  1.00  0.00     0.159 HD
ATOM     47  H   UNL     1      10.065  -5.733   7.779  1.00  0.00     0.159 HD
ATOM     48  H   UNL     1       6.956  -8.283   8.039  1.00  0.00     0.159 HD
ATOM     49  H   UNL     1       6.736  -6.591   7.730  1.00  0.00     0.159 HD
ENDBRANCH  41  42
ENDBRANCH  40  41
ENDBRANCH  39  40
ENDBRANCH  38  39
ENDBRANCH  36  38
ENDBRANCH   5  34
BRANCH   8  50
ATOM     50  O   UNL     1       8.332  -2.230   5.916  1.00  0.00    -0.245 OA
BRANCH  50  51
ATOM     51  S   UNL     1       7.140  -3.224   5.429  1.00  0.00     0.397 S 
ATOM     52  O   UNL     1       7.643  -4.579   5.471  1.00  0.00    -0.169 OA
ATOM     53  O   UNL     1       6.510  -2.683   4.243  1.00  0.00    -0.169 OA
BRANCH  51  54
ATOM     54  O   UNL     1       6.091  -3.109   6.643  1.00  0.00    -0.264 OA
ATOM     55  H   UNL     1       6.106  -2.184   6.964  1.00  0.00     0.236 HD
ENDBRANCH  51  54
ENDBRANCH  50  51
ENDBRANCH   8  50
TORSDOF 19
ENDMDL
MODEL 18
REMARK VINA RESULT:    -6.035      3.555      7.967
REMARK INTER + INTRA:         -16.548
REMARK INTER:                 -12.976
REMARK INTRA:                  -3.573
REMARK UNBOUND:                -4.340
REMARK SMILES CC[C@@H](C)[C@@H](NC(=O)[C@@H](O)Cc1ccc(O)c(Cl)c1)C(=O)N1[C@H](C(=O)NCCCCN=C(N)N)C[C@H]2CC[C@H](OS(=O)(=O)O)C[C@@H]21
REMARK SMILES IDX 22 1 36 2 46 3 35 4 23 5 45 6 37 7 39 8 38 9 20 10 21 11
REMARK SMILES IDX 5 12 6 13 7 14 8 15 9 17 11 18 12 19 17 20 19 21 15 22 14 23
REMARK SMILES IDX 13 24 18 25 16 26 10 28 3 30 4 31 2 32 1 33 24 34 25 35
REMARK SMILES IDX 26 36 27 38 28 39 29 40 30 41 31 42 32 43 33 44 34 45 40 50
REMARK SMILES IDX 41 51 42 52 43 53 44 54
REMARK H PARENT 6 16 16 27 10 29 26 37 33 46 33 47 34 48 34 49 44 55
ROOT
ATOM      1  N   UNL     1      11.694  -4.004  -1.925  1.00  0.00    -0.326 N 
ATOM      2  C   UNL     1      10.063  -3.054  -3.332  1.00  0.00     0.014 C 
ATOM      3  C   UNL     1      10.964  -4.281  -3.166  1.00  0.00     0.091 C 
ATOM      4  C   UNL     1      10.922  -1.929  -2.778  1.00  0.00     0.041 C 
ATOM      5  C   UNL     1      11.461  -2.601  -1.502  1.00  0.00     0.175 C 
ATOM      6  C   UNL     1      10.092  -5.534  -3.229  1.00  0.00     0.059 C 
ATOM      7  C   UNL     1       9.535  -2.958  -4.750  1.00  0.00     0.008 C 
ATOM      8  C   UNL     1       8.859  -5.386  -4.146  1.00  0.00     0.143 C 
ATOM      9  C   UNL     1       9.086  -4.343  -5.259  1.00  0.00     0.034 C 
ENDROOT
BRANCH   1  10
ATOM     10  C   UNL     1      12.665  -4.751  -1.281  1.00  0.00     0.246 C 
ATOM     11  O   UNL     1      13.707  -4.196  -0.917  1.00  0.00    -0.272 OA
BRANCH  10  12
ATOM     12  C   UNL     1      12.407  -6.258  -0.991  1.00  0.00     0.174 C 
BRANCH  12  13
ATOM     13  N   UNL     1      12.298  -6.477   0.451  1.00  0.00    -0.342 N 
ATOM     14  C   UNL     1      11.209  -6.135   1.222  1.00  0.00     0.249 C 
ATOM     15  O   UNL     1      10.189  -5.627   0.774  1.00  0.00    -0.272 OA
ATOM     16  H   UNL     1      13.122  -6.744   0.984  1.00  0.00     0.164 HD
BRANCH  14  17
ATOM     17  C   UNL     1      11.405  -6.479   2.714  1.00  0.00     0.207 C 
BRANCH  17  18
ATOM     18  C   UNL     1      12.500  -5.600   3.327  1.00  0.00     0.077 C 
BRANCH  18  19
ATOM     19  C   UNL     1      11.962  -4.723   4.435  1.00  0.00    -0.043 A 
ATOM     20  C   UNL     1      10.106  -3.954   5.795  1.00  0.00     0.083 A 
ATOM     21  C   UNL     1      10.610  -4.799   4.806  1.00  0.00     0.028 A 
ATOM     22  C   UNL     1      10.945  -3.029   6.417  1.00  0.00     0.134 A 
ATOM     23  C   UNL     1      12.285  -2.943   6.060  1.00  0.00     0.048 A 
ATOM     24  C   UNL     1      12.793  -3.787   5.069  1.00  0.00     0.008 A 
ATOM     25  Cl  UNL     1       8.442  -4.062   6.236  1.00  0.00    -0.080 Cl
BRANCH  22  26
ATOM     26  O   UNL     1      10.494  -2.172   7.384  1.00  0.00    -0.506 OA
ATOM     27  H   UNL     1      11.001  -2.370   8.193  1.00  0.00     0.293 HD
ENDBRANCH  22  26
ENDBRANCH  18  19
ENDBRANCH  17  18
BRANCH  17  28
ATOM     28  O   UNL     1      11.752  -7.862   2.884  1.00  0.00    -0.383 OA
ATOM     29  H   UNL     1      11.486  -8.098   3.802  1.00  0.00     0.211 HD
ENDBRANCH  17  28
ENDBRANCH  14  17
ENDBRANCH  12  13
BRANCH  12  30
ATOM     30  C   UNL     1      13.462  -7.185  -1.653  1.00  0.00     0.018 C 
ATOM     31  C   UNL     1      13.514  -6.957  -3.172  1.00  0.00     0.010 C 
BRANCH  30  32
ATOM     32  C   UNL     1      13.247  -8.688  -1.348  1.00  0.00     0.002 C 
ATOM     33  C   UNL     1      14.465  -9.422  -0.803  1.00  0.00     0.004 C 
ENDBRANCH  30  32
ENDBRANCH  12  30
ENDBRANCH  10  12
ENDBRANCH   1  10
BRANCH   5  34
ATOM     34  C   UNL     1      10.429  -2.540  -0.344  1.00  0.00     0.242 C 
ATOM     35  O   UNL     1       9.216  -2.620  -0.538  1.00  0.00    -0.273 OA
ATOM     36  N   UNL     1      10.965  -2.335   0.908  1.00  0.00    -0.354 N 
ATOM     37  H   UNL     1      11.967  -2.156   0.991  1.00  0.00     0.163 HD
BRANCH  36  38
ATOM     38  C   UNL     1      10.178  -2.466   2.117  1.00  0.00     0.116 C 
BRANCH  38  39
ATOM     39  C   UNL     1      10.598  -1.400   3.126  1.00  0.00     0.023 C 
BRANCH  39  40
ATOM     40  C   UNL     1      11.602  -0.411   2.545  1.00  0.00     0.026 C 
BRANCH  40  41
ATOM     41  C   UNL     1      11.753   0.807   3.457  1.00  0.00     0.146 C 
BRANCH  41  42
ATOM     42  N   UNL     1      11.295   0.476   4.800  1.00  0.00    -0.254 NA
ATOM     43  C   UNL     1      11.968   0.872   5.815  1.00  0.00     0.185 C 
ATOM     44  N   UNL     1      13.104   1.590   5.872  1.00  0.00    -0.370 N 
ATOM     45  N   UNL     1      11.531   0.553   7.044  1.00  0.00    -0.370 N 
ATOM     46  H   UNL     1      13.651   1.619   6.716  1.00  0.00     0.159 HD
ATOM     47  H   UNL     1      13.565   1.927   5.032  1.00  0.00     0.159 HD
ATOM     48  H   UNL     1      10.674   0.018   7.090  1.00  0.00     0.159 HD
ATOM     49  H   UNL     1      11.858   1.014   7.874  1.00  0.00     0.159 HD
ENDBRANCH  41  42
ENDBRANCH  40  41
ENDBRANCH  39  40
ENDBRANCH  38  39
ENDBRANCH  36  38
ENDBRANCH   5  34
BRANCH   8  50
ATOM     50  O   UNL     1       7.722  -4.990  -3.379  1.00  0.00    -0.245 OA
BRANCH  50  51
ATOM     51  S   UNL     1       6.432  -5.977  -3.285  1.00  0.00     0.397 S 
ATOM     52  O   UNL     1       6.892  -7.332  -3.488  1.00  0.00    -0.169 OA
ATOM     53  O   UNL     1       5.339  -5.422  -4.056  1.00  0.00    -0.169 OA
BRANCH  51  54
ATOM     54  O   UNL     1       6.043  -5.875  -1.729  1.00  0.00    -0.264 OA
ATOM     55  H   UNL     1       6.242  -4.964  -1.430  1.00  0.00     0.236 HD
ENDBRANCH  51  54
ENDBRANCH  50  51
ENDBRANCH   8  50
TORSDOF 19
ENDMDL
MODEL 19
REMARK VINA RESULT:    -6.027      2.620      5.517
REMARK INTER + INTRA:         -16.532
REMARK INTER:                 -12.812
REMARK INTRA:                  -3.721
REMARK UNBOUND:                -4.340
REMARK SMILES CC[C@@H](C)[C@@H](NC(=O)[C@@H](O)Cc1ccc(O)c(Cl)c1)C(=O)N1[C@H](C(=O)NCCCCN=C(N)N)C[C@H]2CC[C@H](OS(=O)(=O)O)C[C@@H]21
REMARK SMILES IDX 22 1 36 2 46 3 35 4 23 5 45 6 37 7 39 8 38 9 20 10 21 11
REMARK SMILES IDX 5 12 6 13 7 14 8 15 9 17 11 18 12 19 17 20 19 21 15 22 14 23
REMARK SMILES IDX 13 24 18 25 16 26 10 28 3 30 4 31 2 32 1 33 24 34 25 35
REMARK SMILES IDX 26 36 27 38 28 39 29 40 30 41 31 42 32 43 33 44 34 45 40 50
REMARK SMILES IDX 41 51 42 52 43 53 44 54
REMARK H PARENT 6 16 16 27 10 29 26 37 33 46 33 47 34 48 34 49 44 55
ROOT
ATOM      1  N   UNL     1      10.007  -4.228   0.587  1.00  0.00    -0.326 N 
ATOM      2  C   UNL     1       9.593  -5.332   2.625  1.00  0.00     0.014 C 
ATOM      3  C   UNL     1      10.695  -5.025   1.606  1.00  0.00     0.091 C 
ATOM      4  C   UNL     1       8.359  -5.477   1.749  1.00  0.00     0.041 C 
ATOM      5  C   UNL     1       8.541  -4.265   0.817  1.00  0.00     0.175 C 
ATOM      6  C   UNL     1      11.874  -4.394   2.345  1.00  0.00     0.059 C 
ATOM      7  C   UNL     1       9.999  -6.475   3.534  1.00  0.00     0.008 C 
ATOM      8  C   UNL     1      12.042  -4.901   3.794  1.00  0.00     0.143 C 
ATOM      9  C   UNL     1      11.467  -6.320   3.982  1.00  0.00     0.034 C 
ENDROOT
BRANCH   1  10
ATOM     10  C   UNL     1      10.492  -3.680  -0.589  1.00  0.00     0.246 C 
ATOM     11  O   UNL     1      10.756  -2.474  -0.626  1.00  0.00    -0.272 OA
BRANCH  10  12
ATOM     12  C   UNL     1      10.732  -4.600  -1.821  1.00  0.00     0.174 C 
BRANCH  12  13
ATOM     13  N   UNL     1       9.480  -5.243  -2.216  1.00  0.00    -0.342 N 
ATOM     14  C   UNL     1       8.947  -5.223  -3.485  1.00  0.00     0.249 C 
ATOM     15  O   UNL     1       9.485  -4.681  -4.442  1.00  0.00    -0.272 OA
ATOM     16  H   UNL     1       8.847  -5.596  -1.501  1.00  0.00     0.164 HD
BRANCH  14  17
ATOM     17  C   UNL     1       7.604  -5.978  -3.580  1.00  0.00     0.207 C 
BRANCH  17  18
ATOM     18  C   UNL     1       6.878  -5.950  -2.231  1.00  0.00     0.077 C 
BRANCH  18  19
ATOM     19  C   UNL     1       5.948  -4.762  -2.118  1.00  0.00    -0.043 A 
ATOM     20  C   UNL     1       5.185  -2.605  -2.925  1.00  0.00     0.083 A 
ATOM     21  C   UNL     1       6.010  -3.723  -3.060  1.00  0.00     0.028 A 
ATOM     22  C   UNL     1       4.298  -2.518  -1.852  1.00  0.00     0.134 A 
ATOM     23  C   UNL     1       4.227  -3.539  -0.912  1.00  0.00     0.048 A 
ATOM     24  C   UNL     1       5.052  -4.659  -1.043  1.00  0.00     0.008 A 
ATOM     25  Cl  UNL     1       5.275  -1.339  -4.092  1.00  0.00    -0.080 Cl
BRANCH  22  26
ATOM     26  O   UNL     1       3.477  -1.437  -1.672  1.00  0.00    -0.506 OA
ATOM     27  H   UNL     1       2.622  -1.784  -1.358  1.00  0.00     0.293 HD
ENDBRANCH  22  26
ENDBRANCH  18  19
ENDBRANCH  17  18
BRANCH  17  28
ATOM     28  O   UNL     1       7.804  -7.342  -3.984  1.00  0.00    -0.383 OA
ATOM     29  H   UNL     1       7.807  -7.336  -4.968  1.00  0.00     0.211 HD
ENDBRANCH  17  28
ENDBRANCH  14  17
ENDBRANCH  12  13
BRANCH  12  30
ATOM     30  C   UNL     1      11.877  -5.624  -1.591  1.00  0.00     0.018 C 
ATOM     31  C   UNL     1      13.209  -4.904  -1.327  1.00  0.00     0.010 C 
BRANCH  30  32
ATOM     32  C   UNL     1      12.042  -6.642  -2.745  1.00  0.00     0.002 C 
ATOM     33  C   UNL     1      13.389  -7.350  -2.802  1.00  0.00     0.004 C 
ENDBRANCH  30  32
ENDBRANCH  12  30
ENDBRANCH  10  12
ENDBRANCH   1  10
BRANCH   5  34
ATOM     34  C   UNL     1       8.055  -2.952   1.485  1.00  0.00     0.242 C 
ATOM     35  O   UNL     1       8.834  -2.067   1.839  1.00  0.00    -0.273 OA
ATOM     36  N   UNL     1       6.698  -2.872   1.701  1.00  0.00    -0.354 N 
ATOM     37  H   UNL     1       6.118  -3.687   1.495  1.00  0.00     0.163 HD
BRANCH  36  38
ATOM     38  C   UNL     1       6.051  -1.643   2.111  1.00  0.00     0.116 C 
BRANCH  38  39
ATOM     39  C   UNL     1       5.837  -1.649   3.623  1.00  0.00     0.023 C 
BRANCH  39  40
ATOM     40  C   UNL     1       6.243  -0.332   4.274  1.00  0.00     0.026 C 
BRANCH  40  41
ATOM     41  C   UNL     1       6.437  -0.509   5.780  1.00  0.00     0.146 C 
BRANCH  41  42
ATOM     42  N   UNL     1       7.806  -0.166   6.144  1.00  0.00    -0.254 NA
ATOM     43  C   UNL     1       8.624  -1.093   6.475  1.00  0.00     0.185 C 
ATOM     44  N   UNL     1       8.439  -2.424   6.553  1.00  0.00    -0.370 N 
ATOM     45  N   UNL     1       9.880  -0.756   6.812  1.00  0.00    -0.370 N 
ATOM     46  H   UNL     1       9.087  -3.003   7.058  1.00  0.00     0.159 HD
ATOM     47  H   UNL     1       7.548  -2.852   6.319  1.00  0.00     0.159 HD
ATOM     48  H   UNL     1      10.106   0.228   6.771  1.00  0.00     0.159 HD
ATOM     49  H   UNL     1      10.630  -1.423   6.850  1.00  0.00     0.159 HD
ENDBRANCH  41  42
ENDBRANCH  40  41
ENDBRANCH  39  40
ENDBRANCH  38  39
ENDBRANCH  36  38
ENDBRANCH   5  34
BRANCH   8  50
ATOM     50  O   UNL     1      11.380  -4.020   4.702  1.00  0.00    -0.245 OA
BRANCH  50  51
ATOM     51  S   UNL     1      12.158  -3.508   6.036  1.00  0.00     0.397 S 
ATOM     52  O   UNL     1      12.414  -2.093   5.888  1.00  0.00    -0.169 OA
ATOM     53  O   UNL     1      13.214  -4.441   6.370  1.00  0.00    -0.169 OA
BRANCH  51  54
ATOM     54  O   UNL     1      11.013  -3.631   7.159  1.00  0.00    -0.264 OA
ATOM     55  H   UNL     1      11.069  -4.529   7.544  1.00  0.00     0.236 HD
ENDBRANCH  51  54
ENDBRANCH  50  51
ENDBRANCH   8  50
TORSDOF 19
ENDMDL
MODEL 20
REMARK VINA RESULT:    -6.024      3.085      5.783
REMARK INTER + INTRA:         -16.526
REMARK INTER:                 -13.362
REMARK INTRA:                  -3.164
REMARK UNBOUND:                -4.340
REMARK SMILES CC[C@@H](C)[C@@H](NC(=O)[C@@H](O)Cc1ccc(O)c(Cl)c1)C(=O)N1[C@H](C(=O)NCCCCN=C(N)N)C[C@H]2CC[C@H](OS(=O)(=O)O)C[C@@H]21
REMARK SMILES IDX 22 1 36 2 46 3 35 4 23 5 45 6 37 7 39 8 38 9 20 10 21 11
REMARK SMILES IDX 5 12 6 13 7 14 8 15 9 17 11 18 12 19 17 20 19 21 15 22 14 23
REMARK SMILES IDX 13 24 18 25 16 26 10 28 3 30 4 31 2 32 1 33 24 34 25 35
REMARK SMILES IDX 26 36 27 38 28 39 29 40 30 41 31 42 32 43 33 44 34 45 40 50
REMARK SMILES IDX 41 51 42 52 43 53 44 54
REMARK H PARENT 6 16 16 27 10 29 26 37 33 46 33 47 34 48 34 49 44 55
ROOT
ATOM      1  N   UNL     1      11.484  -5.512   2.882  1.00  0.00    -0.326 N 
ATOM      2  C   UNL     1      10.150  -6.267   4.670  1.00  0.00     0.014 C 
ATOM      3  C   UNL     1      10.870  -6.737   3.403  1.00  0.00     0.091 C 
ATOM      4  C   UNL     1       9.688  -4.867   4.293  1.00  0.00     0.041 C 
ATOM      5  C   UNL     1      10.964  -4.332   3.617  1.00  0.00     0.175 C 
ATOM      6  C   UNL     1      11.783  -7.905   3.771  1.00  0.00     0.059 C 
ATOM      7  C   UNL     1       9.128  -7.290   5.125  1.00  0.00     0.008 C 
ATOM      8  C   UNL     1      11.245  -8.774   4.929  1.00  0.00     0.143 C 
ATOM      9  C   UNL     1       9.707  -8.717   5.029  1.00  0.00     0.034 C 
ENDROOT
BRANCH   1  10
ATOM     10  C   UNL     1      12.246  -5.316   1.744  1.00  0.00     0.246 C 
ATOM     11  O   UNL     1      13.448  -5.603   1.768  1.00  0.00    -0.272 OA
BRANCH  10  12
ATOM     12  C   UNL     1      11.568  -4.780   0.449  1.00  0.00     0.174 C 
BRANCH  12  13
ATOM     13  N   UNL     1      10.211  -5.312   0.341  1.00  0.00    -0.342 N 
ATOM     14  C   UNL     1       9.059  -4.596   0.581  1.00  0.00     0.249 C 
ATOM     15  O   UNL     1       9.045  -3.411   0.889  1.00  0.00    -0.272 OA
ATOM     16  H   UNL     1      10.069  -6.315   0.247  1.00  0.00     0.164 HD
BRANCH  14  17
ATOM     17  C   UNL     1       7.782  -5.444   0.399  1.00  0.00     0.207 C 
BRANCH  17  18
ATOM     18  C   UNL     1       6.718  -4.651  -0.368  1.00  0.00     0.077 C 
BRANCH  18  19
ATOM     19  C   UNL     1       7.011  -4.607  -1.851  1.00  0.00    -0.043 A 
ATOM     20  C   UNL     1       6.893  -5.626  -4.049  1.00  0.00     0.083 A 
ATOM     21  C   UNL     1       6.579  -5.646  -2.690  1.00  0.00     0.028 A 
ATOM     22  C   UNL     1       7.639  -4.572  -4.578  1.00  0.00     0.134 A 
ATOM     23  C   UNL     1       8.073  -3.536  -3.758  1.00  0.00     0.048 A 
ATOM     24  C   UNL     1       7.762  -3.554  -2.397  1.00  0.00     0.008 A 
ATOM     25  Cl  UNL     1       6.354  -6.912  -5.063  1.00  0.00    -0.080 Cl
BRANCH  22  26
ATOM     26  O   UNL     1       7.981  -4.514  -5.902  1.00  0.00    -0.506 OA
ATOM     27  H   UNL     1       8.206  -5.424  -6.173  1.00  0.00     0.293 HD
ENDBRANCH  22  26
ENDBRANCH  18  19
ENDBRANCH  17  18
BRANCH  17  28
ATOM     28  O   UNL     1       7.248  -5.855   1.668  1.00  0.00    -0.383 OA
ATOM     29  H   UNL     1       7.659  -6.727   1.866  1.00  0.00     0.211 HD
ENDBRANCH  17  28
ENDBRANCH  14  17
ENDBRANCH  12  13
BRANCH  12  30
ATOM     30  C   UNL     1      12.414  -5.047  -0.825  1.00  0.00     0.018 C 
ATOM     31  C   UNL     1      12.342  -3.852  -1.789  1.00  0.00     0.010 C 
BRANCH  30  32
ATOM     32  C   UNL     1      12.027  -6.351  -1.565  1.00  0.00     0.002 C 
ATOM     33  C   UNL     1      11.379  -6.157  -2.930  1.00  0.00     0.004 C 
ENDBRANCH  30  32
ENDBRANCH  12  30
ENDBRANCH  10  12
ENDBRANCH   1  10
BRANCH   5  34
ATOM     34  C   UNL     1      11.999  -3.835   4.662  1.00  0.00     0.242 C 
ATOM     35  O   UNL     1      13.025  -4.463   4.921  1.00  0.00    -0.273 OA
ATOM     36  N   UNL     1      11.659  -2.671   5.314  1.00  0.00    -0.354 N 
ATOM     37  H   UNL     1      10.740  -2.262   5.143  1.00  0.00     0.163 HD
BRANCH  36  38
ATOM     38  C   UNL     1      12.596  -1.954   6.155  1.00  0.00     0.116 C 
BRANCH  38  39
ATOM     39  C   UNL     1      11.878  -0.819   6.880  1.00  0.00     0.023 C 
BRANCH  39  40
ATOM     40  C   UNL     1      11.087   0.072   5.928  1.00  0.00     0.026 C 
BRANCH  40  41
ATOM     41  C   UNL     1       9.616   0.134   6.339  1.00  0.00     0.146 C 
BRANCH  41  42
ATOM     42  N   UNL     1       9.210  -1.143   6.910  1.00  0.00    -0.254 NA
ATOM     43  C   UNL     1       8.287  -1.825   6.343  1.00  0.00     0.185 C 
ATOM     44  N   UNL     1       7.571  -1.560   5.235  1.00  0.00    -0.370 N 
ATOM     45  N   UNL     1       7.924  -2.998   6.888  1.00  0.00    -0.370 N 
ATOM     46  H   UNL     1       6.719  -2.058   5.044  1.00  0.00     0.159 HD
ATOM     47  H   UNL     1       7.726  -0.717   4.690  1.00  0.00     0.159 HD
ATOM     48  H   UNL     1       8.421  -3.278   7.722  1.00  0.00     0.159 HD
ATOM     49  H   UNL     1       7.393  -3.689   6.388  1.00  0.00     0.159 HD
ENDBRANCH  41  42
ENDBRANCH  40  41
ENDBRANCH  39  40
ENDBRANCH  38  39
ENDBRANCH  36  38
ENDBRANCH   5  34
BRANCH   8  50
ATOM     50  O   UNL     1      11.796  -8.333   6.170  1.00  0.00    -0.245 OA
BRANCH  50  51
ATOM     51  S   UNL     1      11.742  -9.313   7.466  1.00  0.00     0.397 S 
ATOM     52  O   UNL     1      11.976 -10.666   7.013  1.00  0.00    -0.169 OA
ATOM     53  O   UNL     1      10.596  -8.974   8.284  1.00  0.00    -0.169 OA
BRANCH  51  54
ATOM     54  O   UNL     1      13.067  -8.884   8.268  1.00  0.00    -0.264 OA
ATOM     55  H   UNL     1      13.786  -9.494   8.005  1.00  0.00     0.236 HD
ENDBRANCH  51  54
ENDBRANCH  50  51
ENDBRANCH   8  50
TORSDOF 19
ENDMDL
MODEL 21
REMARK VINA RESULT:    -6.010      3.597      7.829
REMARK INTER + INTRA:         -16.498
REMARK INTER:                 -12.554
REMARK INTRA:                  -3.944
REMARK UNBOUND:                -4.340
REMARK SMILES CC[C@@H](C)[C@@H](NC(=O)[C@@H](O)Cc1ccc(O)c(Cl)c1)C(=O)N1[C@H](C(=O)NCCCCN=C(N)N)C[C@H]2CC[C@H](OS(=O)(=O)O)C[C@@H]21
REMARK SMILES IDX 22 1 36 2 46 3 35 4 23 5 45 6 37 7 39 8 38 9 20 10 21 11
REMARK SMILES IDX 5 12 6 13 7 14 8 15 9 17 11 18 12 19 17 20 19 21 15 22 14 23
REMARK SMILES IDX 13 24 18 25 16 26 10 28 3 30 4 31 2 32 1 33 24 34 25 35
REMARK SMILES IDX 26 36 27 38 28 39 29 40 30 41 31 42 32 43 33 44 34 45 40 50
REMARK SMILES IDX 41 51 42 52 43 53 44 54
REMARK H PARENT 6 16 16 27 10 29 26 37 33 46 33 47 34 48 34 49 44 55
ROOT
ATOM      1  N   UNL     1       9.589  -3.557   1.719  1.00  0.00    -0.326 N 
ATOM      2  C   UNL     1       8.869  -4.851  -0.112  1.00  0.00     0.014 C 
ATOM      3  C   UNL     1       9.776  -3.677   0.270  1.00  0.00     0.091 C 
ATOM      4  C   UNL     1       7.699  -4.695   0.848  1.00  0.00     0.041 C 
ATOM      5  C   UNL     1       8.456  -4.409   2.157  1.00  0.00     0.175 C 
ATOM      6  C   UNL     1      11.181  -3.961  -0.259  1.00  0.00     0.059 C 
ATOM      7  C   UNL     1       8.608  -4.871  -1.605  1.00  0.00     0.008 C 
ATOM      8  C   UNL     1      11.199  -4.781  -1.566  1.00  0.00     0.143 C 
ATOM      9  C   UNL     1       9.908  -4.590  -2.388  1.00  0.00     0.034 C 
ENDROOT
BRANCH   1  10
ATOM     10  C   UNL     1      10.142  -2.656   2.613  1.00  0.00     0.246 C 
ATOM     11  O   UNL     1      11.263  -2.883   3.079  1.00  0.00    -0.272 OA
BRANCH  10  12
ATOM     12  C   UNL     1       9.360  -1.361   2.979  1.00  0.00     0.174 C 
BRANCH  12  13
ATOM     13  N   UNL     1       8.534  -1.594   4.163  1.00  0.00    -0.342 N 
ATOM     14  C   UNL     1       8.807  -1.114   5.424  1.00  0.00     0.249 C 
ATOM     15  O   UNL     1       9.769  -0.405   5.690  1.00  0.00    -0.272 OA
ATOM     16  H   UNL     1       7.792  -2.290   4.131  1.00  0.00     0.164 HD
BRANCH  14  17
ATOM     17  C   UNL     1       7.754  -1.547   6.467  1.00  0.00     0.207 C 
BRANCH  17  18
ATOM     18  C   UNL     1       6.888  -2.683   5.914  1.00  0.00     0.077 C 
BRANCH  18  19
ATOM     19  C   UNL     1       7.152  -3.990   6.628  1.00  0.00    -0.043 A 
ATOM     20  C   UNL     1       6.539  -5.628   8.309  1.00  0.00     0.083 A 
ATOM     21  C   UNL     1       6.267  -4.447   7.617  1.00  0.00     0.028 A 
ATOM     22  C   UNL     1       7.694  -6.356   8.020  1.00  0.00     0.134 A 
ATOM     23  C   UNL     1       8.579  -5.915   7.044  1.00  0.00     0.048 A 
ATOM     24  C   UNL     1       8.310  -4.732   6.350  1.00  0.00     0.008 A 
ATOM     25  Cl  UNL     1       5.440  -6.174   9.521  1.00  0.00    -0.080 Cl
BRANCH  22  26
ATOM     26  O   UNL     1       8.008  -7.514   8.680  1.00  0.00    -0.506 OA
ATOM     27  H   UNL     1       7.165  -7.910   8.967  1.00  0.00     0.293 HD
ENDBRANCH  22  26
ENDBRANCH  18  19
ENDBRANCH  17  18
BRANCH  17  28
ATOM     28  O   UNL     1       6.912  -0.444   6.841  1.00  0.00    -0.383 OA
ATOM     29  H   UNL     1       6.200  -0.825   7.403  1.00  0.00     0.211 HD
ENDBRANCH  17  28
ENDBRANCH  14  17
ENDBRANCH  12  13
BRANCH  12  30
ATOM     30  C   UNL     1       8.540  -0.798   1.786  1.00  0.00     0.018 C 
ATOM     31  C   UNL     1       8.883   0.679   1.537  1.00  0.00     0.010 C 
BRANCH  30  32
ATOM     32  C   UNL     1       7.010  -0.970   1.948  1.00  0.00     0.002 C 
ATOM     33  C   UNL     1       6.165  -0.340   0.848  1.00  0.00     0.004 C 
ENDBRANCH  30  32
ENDBRANCH  12  30
ENDBRANCH  10  12
ENDBRANCH   1  10
BRANCH   5  34
ATOM     34  C   UNL     1       8.974  -5.716   2.816  1.00  0.00     0.242 C 
ATOM     35  O   UNL     1       8.213  -6.601   3.207  1.00  0.00    -0.273 OA
ATOM     36  N   UNL     1      10.339  -5.789   2.979  1.00  0.00    -0.354 N 
ATOM     37  H   UNL     1      10.906  -4.973   2.745  1.00  0.00     0.163 HD
BRANCH  36  38
ATOM     38  C   UNL     1      11.006  -7.012   3.374  1.00  0.00     0.116 C 
BRANCH  38  39
ATOM     39  C   UNL     1      11.065  -7.103   4.897  1.00  0.00     0.023 C 
BRANCH  39  40
ATOM     40  C   UNL     1      12.324  -6.463   5.471  1.00  0.00     0.026 C 
BRANCH  40  41
ATOM     41  C   UNL     1      12.009  -5.097   6.079  1.00  0.00     0.146 C 
BRANCH  41  42
ATOM     42  N   UNL     1      13.248  -4.412   6.421  1.00  0.00    -0.254 NA
ATOM     43  C   UNL     1      13.320  -3.139   6.309  1.00  0.00     0.185 C 
ATOM     44  N   UNL     1      12.392  -2.252   5.905  1.00  0.00    -0.370 N 
ATOM     45  N   UNL     1      14.473  -2.526   6.624  1.00  0.00    -0.370 N 
ATOM     46  H   UNL     1      12.656  -1.321   5.632  1.00  0.00     0.159 HD
ATOM     47  H   UNL     1      11.456  -2.543   5.640  1.00  0.00     0.159 HD
ATOM     48  H   UNL     1      15.223  -3.122   6.947  1.00  0.00     0.159 HD
ATOM     49  H   UNL     1      14.536  -1.538   6.790  1.00  0.00     0.159 HD
ENDBRANCH  41  42
ENDBRANCH  40  41
ENDBRANCH  39  40
ENDBRANCH  38  39
ENDBRANCH  36  38
ENDBRANCH   5  34
BRANCH   8  50
ATOM     50  O   UNL     1      11.347  -6.171  -1.271  1.00  0.00    -0.245 OA
BRANCH  50  51
ATOM     51  S   UNL     1      12.715  -6.941  -1.698  1.00  0.00     0.397 S 
ATOM     52  O   UNL     1      12.764  -8.194  -0.978  1.00  0.00    -0.169 OA
ATOM     53  O   UNL     1      13.823  -6.009  -1.678  1.00  0.00    -0.169 OA
BRANCH  51  54
ATOM     54  O   UNL     1      12.418  -7.327  -3.230  1.00  0.00    -0.264 OA
ATOM     55  H   UNL     1      11.471  -7.152  -3.404  1.00  0.00     0.236 HD
ENDBRANCH  51  54
ENDBRANCH  50  51
ENDBRANCH   8  50
TORSDOF 19
ENDMDL
MODEL 22
REMARK VINA RESULT:    -5.973      2.709      5.225
REMARK INTER + INTRA:         -16.423
REMARK INTER:                 -12.460
REMARK INTRA:                  -3.963
REMARK UNBOUND:                -4.340
REMARK SMILES CC[C@@H](C)[C@@H](NC(=O)[C@@H](O)Cc1ccc(O)c(Cl)c1)C(=O)N1[C@H](C(=O)NCCCCN=C(N)N)C[C@H]2CC[C@H](OS(=O)(=O)O)C[C@@H]21
REMARK SMILES IDX 22 1 36 2 46 3 35 4 23 5 45 6 37 7 39 8 38 9 20 10 21 11
REMARK SMILES IDX 5 12 6 13 7 14 8 15 9 17 11 18 12 19 17 20 19 21 15 22 14 23
REMARK SMILES IDX 13 24 18 25 16 26 10 28 3 30 4 31 2 32 1 33 24 34 25 35
REMARK SMILES IDX 26 36 27 38 28 39 29 40 30 41 31 42 32 43 33 44 34 45 40 50
REMARK SMILES IDX 41 51 42 52 43 53 44 54
REMARK H PARENT 6 16 16 27 10 29 26 37 33 46 33 47 34 48 34 49 44 55
ROOT
ATOM      1  N   UNL     1      10.819  -4.942   4.171  1.00  0.00    -0.326 N 
ATOM      2  C   UNL     1      12.246  -4.095   5.841  1.00  0.00     0.014 C 
ATOM      3  C   UNL     1      11.743  -3.832   4.419  1.00  0.00     0.091 C 
ATOM      4  C   UNL     1      12.295  -5.614   5.903  1.00  0.00     0.041 C 
ATOM      5  C   UNL     1      10.945  -5.957   5.247  1.00  0.00     0.175 C 
ATOM      6  C   UNL     1      11.196  -2.407   4.356  1.00  0.00     0.059 C 
ATOM      7  C   UNL     1      13.504  -3.298   6.128  1.00  0.00     0.008 C 
ATOM      8  C   UNL     1      11.920  -1.421   5.299  1.00  0.00     0.143 C 
ATOM      9  C   UNL     1      13.369  -1.858   5.591  1.00  0.00     0.034 C 
ENDROOT
BRANCH   1  10
ATOM     10  C   UNL     1      10.076  -5.244   3.043  1.00  0.00     0.246 C 
ATOM     11  O   UNL     1       9.406  -6.282   3.024  1.00  0.00    -0.272 OA
BRANCH  10  12
ATOM     12  C   UNL     1      10.066  -4.252   1.843  1.00  0.00     0.174 C 
BRANCH  12  13
ATOM     13  N   UNL     1       8.703  -4.094   1.338  1.00  0.00    -0.342 N 
ATOM     14  C   UNL     1       8.048  -2.892   1.193  1.00  0.00     0.249 C 
ATOM     15  O   UNL     1       8.553  -1.806   1.449  1.00  0.00    -0.272 OA
ATOM     16  H   UNL     1       8.107  -4.912   1.233  1.00  0.00     0.164 HD
BRANCH  14  17
ATOM     17  C   UNL     1       6.612  -3.057   0.651  1.00  0.00     0.207 C 
BRANCH  17  18
ATOM     18  C   UNL     1       6.551  -2.673  -0.830  1.00  0.00     0.077 C 
BRANCH  18  19
ATOM     19  C   UNL     1       6.977  -3.815  -1.725  1.00  0.00    -0.043 A 
ATOM     20  C   UNL     1       8.151  -4.624  -3.688  1.00  0.00     0.083 A 
ATOM     21  C   UNL     1       7.801  -3.575  -2.836  1.00  0.00     0.028 A 
ATOM     22  C   UNL     1       7.682  -5.914  -3.437  1.00  0.00     0.134 A 
ATOM     23  C   UNL     1       6.866  -6.165  -2.340  1.00  0.00     0.048 A 
ATOM     24  C   UNL     1       6.512  -5.117  -1.487  1.00  0.00     0.008 A 
ATOM     25  Cl  UNL     1       9.164  -4.309  -5.048  1.00  0.00    -0.080 Cl
BRANCH  22  26
ATOM     26  O   UNL     1       7.990  -6.971  -4.250  1.00  0.00    -0.506 OA
ATOM     27  H   UNL     1       7.164  -7.230  -4.698  1.00  0.00     0.293 HD
ENDBRANCH  22  26
ENDBRANCH  18  19
ENDBRANCH  17  18
BRANCH  17  28
ATOM     28  O   UNL     1       5.684  -2.249   1.392  1.00  0.00    -0.383 OA
ATOM     29  H   UNL     1       5.141  -1.775   0.722  1.00  0.00     0.211 HD
ENDBRANCH  17  28
ENDBRANCH  14  17
ENDBRANCH  12  13
BRANCH  12  30
ATOM     30  C   UNL     1      11.069  -4.651   0.727  1.00  0.00     0.018 C 
ATOM     31  C   UNL     1      10.327  -5.148  -0.523  1.00  0.00     0.010 C 
BRANCH  30  32
ATOM     32  C   UNL     1      12.115  -5.701   1.177  1.00  0.00     0.002 C 
ATOM     33  C   UNL     1      12.317  -6.869   0.221  1.00  0.00     0.004 C 
ENDBRANCH  30  32
ENDBRANCH  12  30
ENDBRANCH  10  12
ENDBRANCH   1  10
BRANCH   5  34
ATOM     34  C   UNL     1       9.771  -5.837   6.256  1.00  0.00     0.242 C 
ATOM     35  O   UNL     1       9.780  -6.408   7.346  1.00  0.00    -0.273 OA
ATOM     36  N   UNL     1       8.699  -5.091   5.821  1.00  0.00    -0.354 N 
ATOM     37  H   UNL     1       8.700  -4.742   4.861  1.00  0.00     0.163 HD
BRANCH  36  38
ATOM     38  C   UNL     1       7.621  -4.697   6.705  1.00  0.00     0.116 C 
BRANCH  38  39
ATOM     39  C   UNL     1       7.176  -3.274   6.378  1.00  0.00     0.023 C 
BRANCH  39  40
ATOM     40  C   UNL     1       5.660  -3.145   6.284  1.00  0.00     0.026 C 
BRANCH  40  41
ATOM     41  C   UNL     1       5.267  -2.148   5.193  1.00  0.00     0.146 C 
BRANCH  41  42
ATOM     42  N   UNL     1       6.447  -1.761   4.432  1.00  0.00    -0.254 NA
ATOM     43  C   UNL     1       6.917  -0.576   4.550  1.00  0.00     0.185 C 
ATOM     44  N   UNL     1       6.490   0.453   5.305  1.00  0.00    -0.370 N 
ATOM     45  N   UNL     1       8.003  -0.238   3.836  1.00  0.00    -0.370 N 
ATOM     46  H   UNL     1       6.801   1.391   5.117  1.00  0.00     0.159 HD
ATOM     47  H   UNL     1       5.686   0.366   5.918  1.00  0.00     0.159 HD
ATOM     48  H   UNL     1       8.395  -0.960   3.246  1.00  0.00     0.159 HD
ATOM     49  H   UNL     1       8.562   0.570   4.045  1.00  0.00     0.159 HD
ENDBRANCH  41  42
ENDBRANCH  40  41
ENDBRANCH  39  40
ENDBRANCH  38  39
ENDBRANCH  36  38
ENDBRANCH   5  34
BRANCH   8  50
ATOM     50  O   UNL     1      11.217  -1.323   6.538  1.00  0.00    -0.245 OA
BRANCH  50  51
ATOM     51  S   UNL     1      10.668   0.124   7.038  1.00  0.00     0.397 S 
ATOM     52  O   UNL     1      11.247   0.398   8.334  1.00  0.00    -0.169 OA
ATOM     53  O   UNL     1       9.240   0.207   6.810  1.00  0.00    -0.169 OA
BRANCH  51  54
ATOM     54  O   UNL     1      11.392   1.130   6.013  1.00  0.00    -0.264 OA
ATOM     55  H   UNL     1      11.872   1.800   6.541  1.00  0.00     0.236 HD
ENDBRANCH  51  54
ENDBRANCH  50  51
ENDBRANCH   8  50
TORSDOF 19
ENDMDL
MODEL 23
REMARK VINA RESULT:    -5.936      3.567      7.869
REMARK INTER + INTRA:         -16.349
REMARK INTER:                 -13.306
REMARK INTRA:                  -3.043
REMARK UNBOUND:                -4.340
REMARK SMILES CC[C@@H](C)[C@@H](NC(=O)[C@@H](O)Cc1ccc(O)c(Cl)c1)C(=O)N1[C@H](C(=O)NCCCCN=C(N)N)C[C@H]2CC[C@H](OS(=O)(=O)O)C[C@@H]21
REMARK SMILES IDX 22 1 36 2 46 3 35 4 23 5 45 6 37 7 39 8 38 9 20 10 21 11
REMARK SMILES IDX 5 12 6 13 7 14 8 15 9 17 11 18 12 19 17 20 19 21 15 22 14 23
REMARK SMILES IDX 13 24 18 25 16 26 10 28 3 30 4 31 2 32 1 33 24 34 25 35
REMARK SMILES IDX 26 36 27 38 28 39 29 40 30 41 31 42 32 43 33 44 34 45 40 50
REMARK SMILES IDX 41 51 42 52 43 53 44 54
REMARK H PARENT 6 16 16 27 10 29 26 37 33 46 33 47 34 48 34 49 44 55
ROOT
ATOM      1  N   UNL     1      11.958  -3.830  -2.186  1.00  0.00    -0.326 N 
ATOM      2  C   UNL     1      10.095  -3.355  -3.544  1.00  0.00     0.014 C 
ATOM      3  C   UNL     1      11.139  -4.433  -3.241  1.00  0.00     0.091 C 
ATOM      4  C   UNL     1      10.878  -2.066  -3.348  1.00  0.00     0.041 C 
ATOM      5  C   UNL     1      11.618  -2.394  -2.038  1.00  0.00     0.175 C 
ATOM      6  C   UNL     1      10.408  -5.739  -2.934  1.00  0.00     0.059 C 
ATOM      7  C   UNL     1       9.415  -3.616  -4.874  1.00  0.00     0.008 C 
ATOM      8  C   UNL     1       9.077  -5.902  -3.699  1.00  0.00     0.143 C 
ATOM      9  C   UNL     1       9.070  -5.113  -5.024  1.00  0.00     0.034 C 
ENDROOT
BRANCH   1  10
ATOM     10  C   UNL     1      13.068  -4.333  -1.528  1.00  0.00     0.246 C 
ATOM     11  O   UNL     1      14.003  -3.571  -1.259  1.00  0.00    -0.272 OA
BRANCH  10  12
ATOM     12  C   UNL     1      13.096  -5.830  -1.105  1.00  0.00     0.174 C 
BRANCH  12  13
ATOM     13  N   UNL     1      12.931  -5.942   0.344  1.00  0.00    -0.342 N 
ATOM     14  C   UNL     1      11.727  -5.873   1.010  1.00  0.00     0.249 C 
ATOM     15  O   UNL     1      10.646  -5.736   0.451  1.00  0.00    -0.272 OA
ATOM     16  H   UNL     1      13.747  -5.901   0.949  1.00  0.00     0.164 HD
BRANCH  14  17
ATOM     17  C   UNL     1      11.884  -6.007   2.539  1.00  0.00     0.207 C 
BRANCH  17  18
ATOM     18  C   UNL     1      10.513  -5.990   3.222  1.00  0.00     0.077 C 
BRANCH  18  19
ATOM     19  C   UNL     1      10.492  -6.853   4.464  1.00  0.00    -0.043 A 
ATOM     20  C   UNL     1       9.358  -7.643   6.457  1.00  0.00     0.083 A 
ATOM     21  C   UNL     1       9.355  -6.884   5.286  1.00  0.00     0.028 A 
ATOM     22  C   UNL     1      10.493  -8.371   6.814  1.00  0.00     0.134 A 
ATOM     23  C   UNL     1      11.625  -8.350   6.009  1.00  0.00     0.048 A 
ATOM     24  C   UNL     1      11.627  -7.590   4.837  1.00  0.00     0.008 A 
ATOM     25  Cl  UNL     1       7.951  -7.668   7.454  1.00  0.00    -0.080 Cl
BRANCH  22  26
ATOM     26  O   UNL     1      10.546  -9.121   7.958  1.00  0.00    -0.506 OA
ATOM     27  H   UNL     1      10.834  -8.522   8.672  1.00  0.00     0.293 HD
ENDBRANCH  22  26
ENDBRANCH  18  19
ENDBRANCH  17  18
BRANCH  17  28
ATOM     28  O   UNL     1      12.695  -4.947   3.072  1.00  0.00    -0.383 OA
ATOM     29  H   UNL     1      12.221  -4.111   2.861  1.00  0.00     0.211 HD
ENDBRANCH  17  28
ENDBRANCH  14  17
ENDBRANCH  12  13
BRANCH  12  30
ATOM     30  C   UNL     1      14.359  -6.574  -1.616  1.00  0.00     0.018 C 
ATOM     31  C   UNL     1      14.411  -6.570  -3.152  1.00  0.00     0.010 C 
BRANCH  30  32
ATOM     32  C   UNL     1      14.485  -8.022  -1.083  1.00  0.00     0.002 C 
ATOM     33  C   UNL     1      13.307  -8.936  -1.395  1.00  0.00     0.004 C 
ENDBRANCH  30  32
ENDBRANCH  12  30
ENDBRANCH  10  12
ENDBRANCH   1  10
BRANCH   5  34
ATOM     34  C   UNL     1      10.712  -2.169  -0.798  1.00  0.00     0.242 C 
ATOM     35  O   UNL     1       9.569  -1.721  -0.890  1.00  0.00    -0.273 OA
ATOM     36  N   UNL     1      11.297  -2.455   0.415  1.00  0.00    -0.354 N 
ATOM     37  H   UNL     1      12.286  -2.709   0.436  1.00  0.00     0.163 HD
BRANCH  36  38
ATOM     38  C   UNL     1      10.537  -2.509   1.647  1.00  0.00     0.116 C 
BRANCH  38  39
ATOM     39  C   UNL     1      10.884  -1.308   2.523  1.00  0.00     0.023 C 
BRANCH  39  40
ATOM     40  C   UNL     1      12.196  -1.497   3.278  1.00  0.00     0.026 C 
BRANCH  40  41
ATOM     41  C   UNL     1      11.972  -1.394   4.787  1.00  0.00     0.146 C 
BRANCH  41  42
ATOM     42  N   UNL     1      11.691  -2.714   5.335  1.00  0.00    -0.254 NA
ATOM     43  C   UNL     1      11.080  -2.818   6.455  1.00  0.00     0.185 C 
ATOM     44  N   UNL     1      10.615  -1.862   7.279  1.00  0.00    -0.370 N 
ATOM     45  N   UNL     1      10.834  -4.045   6.945  1.00  0.00    -0.370 N 
ATOM     46  H   UNL     1      10.378  -2.077   8.232  1.00  0.00     0.159 HD
ATOM     47  H   UNL     1      10.705  -0.876   7.055  1.00  0.00     0.159 HD
ATOM     48  H   UNL     1      11.145  -4.824   6.380  1.00  0.00     0.159 HD
ATOM     49  H   UNL     1      10.167  -4.214   7.676  1.00  0.00     0.159 HD
ENDBRANCH  41  42
ENDBRANCH  40  41
ENDBRANCH  39  40
ENDBRANCH  38  39
ENDBRANCH  36  38
ENDBRANCH   5  34
BRANCH   8  50
ATOM     50  O   UNL     1       7.990  -5.446  -2.894  1.00  0.00    -0.245 OA
BRANCH  50  51
ATOM     51  S   UNL     1       6.527  -6.140  -3.051  1.00  0.00     0.397 S 
ATOM     52  O   UNL     1       6.724  -7.564  -3.205  1.00  0.00    -0.169 OA
ATOM     53  O   UNL     1       5.725  -5.379  -3.986  1.00  0.00    -0.169 OA
BRANCH  51  54
ATOM     54  O   UNL     1       5.901  -5.941  -1.584  1.00  0.00    -0.264 OA
ATOM     55  H   UNL     1       6.243  -6.660  -1.014  1.00  0.00     0.236 HD
ENDBRANCH  51  54
ENDBRANCH  50  51
ENDBRANCH   8  50
TORSDOF 19
ENDMDL
MODEL 24
REMARK VINA RESULT:    -5.935      3.155      5.937
REMARK INTER + INTRA:         -16.346
REMARK INTER:                 -11.473
REMARK INTRA:                  -4.873
REMARK UNBOUND:                -4.340
REMARK SMILES CC[C@@H](C)[C@@H](NC(=O)[C@@H](O)Cc1ccc(O)c(Cl)c1)C(=O)N1[C@H](C(=O)NCCCCN=C(N)N)C[C@H]2CC[C@H](OS(=O)(=O)O)C[C@@H]21
REMARK SMILES IDX 22 1 36 2 46 3 35 4 23 5 45 6 37 7 39 8 38 9 20 10 21 11
REMARK SMILES IDX 5 12 6 13 7 14 8 15 9 17 11 18 12 19 17 20 19 21 15 22 14 23
REMARK SMILES IDX 13 24 18 25 16 26 10 28 3 30 4 31 2 32 1 33 24 34 25 35
REMARK SMILES IDX 26 36 27 38 28 39 29 40 30 41 31 42 32 43 33 44 34 45 40 50
REMARK SMILES IDX 41 51 42 52 43 53 44 54
REMARK H PARENT 6 16 16 27 10 29 26 37 33 46 33 47 34 48 34 49 44 55
ROOT
ATOM      1  N   UNL     1      12.200  -4.847   1.299  1.00  0.00    -0.326 N 
ATOM      2  C   UNL     1      10.300  -4.264   2.561  1.00  0.00     0.014 C 
ATOM      3  C   UNL     1      10.978  -5.439   1.850  1.00  0.00     0.091 C 
ATOM      4  C   UNL     1      10.658  -3.083   1.672  1.00  0.00     0.041 C 
ATOM      5  C   UNL     1      12.151  -3.369   1.426  1.00  0.00     0.175 C 
ATOM      6  C   UNL     1      11.115  -6.590   2.844  1.00  0.00     0.059 C 
ATOM      7  C   UNL     1       8.842  -4.568   2.841  1.00  0.00     0.008 C 
ATOM      8  C   UNL     1       9.981  -6.647   3.890  1.00  0.00     0.143 C 
ATOM      9  C   UNL     1       8.678  -6.010   3.366  1.00  0.00     0.034 C 
ENDROOT
BRANCH   1  10
ATOM     10  C   UNL     1      13.202  -5.425   0.538  1.00  0.00     0.246 C 
ATOM     11  O   UNL     1      14.149  -5.975   1.109  1.00  0.00    -0.272 OA
BRANCH  10  12
ATOM     12  C   UNL     1      13.093  -5.408  -1.014  1.00  0.00     0.174 C 
BRANCH  12  13
ATOM     13  N   UNL     1      11.687  -5.439  -1.416  1.00  0.00    -0.342 N 
ATOM     14  C   UNL     1      11.021  -4.409  -2.044  1.00  0.00     0.249 C 
ATOM     15  O   UNL     1      11.549  -3.352  -2.364  1.00  0.00    -0.272 OA
ATOM     16  H   UNL     1      11.082  -6.184  -1.078  1.00  0.00     0.164 HD
BRANCH  14  17
ATOM     17  C   UNL     1       9.539  -4.740  -2.321  1.00  0.00     0.207 C 
BRANCH  17  18
ATOM     18  C   UNL     1       8.804  -5.042  -1.012  1.00  0.00     0.077 C 
BRANCH  18  19
ATOM     19  C   UNL     1       7.417  -4.438  -0.994  1.00  0.00    -0.043 A 
ATOM     20  C   UNL     1       5.871  -2.745  -0.201  1.00  0.00     0.083 A 
ATOM     21  C   UNL     1       7.162  -3.272  -0.255  1.00  0.00     0.028 A 
ATOM     22  C   UNL     1       4.830  -3.378  -0.880  1.00  0.00     0.134 A 
ATOM     23  C   UNL     1       5.068  -4.533  -1.615  1.00  0.00     0.048 A 
ATOM     24  C   UNL     1       6.359  -5.064  -1.670  1.00  0.00     0.008 A 
ATOM     25  Cl  UNL     1       5.578  -1.312   0.713  1.00  0.00    -0.080 Cl
BRANCH  22  26
ATOM     26  O   UNL     1       3.546  -2.905  -0.847  1.00  0.00    -0.506 OA
ATOM     27  H   UNL     1       3.237  -2.869  -1.771  1.00  0.00     0.293 HD
ENDBRANCH  22  26
ENDBRANCH  18  19
ENDBRANCH  17  18
BRANCH  17  28
ATOM     28  O   UNL     1       9.417  -5.864  -3.207  1.00  0.00    -0.383 OA
ATOM     29  H   UNL     1      10.261  -5.906  -3.711  1.00  0.00     0.211 HD
ENDBRANCH  17  28
ENDBRANCH  14  17
ENDBRANCH  12  13
BRANCH  12  30
ATOM     30  C   UNL     1      13.925  -6.533  -1.687  1.00  0.00     0.018 C 
ATOM     31  C   UNL     1      14.437  -6.085  -3.064  1.00  0.00     0.010 C 
BRANCH  30  32
ATOM     32  C   UNL     1      13.166  -7.877  -1.813  1.00  0.00     0.002 C 
ATOM     33  C   UNL     1      13.841  -9.071  -1.150  1.00  0.00     0.004 C 
ENDBRANCH  30  32
ENDBRANCH  12  30
ENDBRANCH  10  12
ENDBRANCH   1  10
BRANCH   5  34
ATOM     34  C   UNL     1      13.028  -2.890   2.614  1.00  0.00     0.242 C 
ATOM     35  O   UNL     1      13.476  -3.668   3.457  1.00  0.00    -0.273 OA
ATOM     36  N   UNL     1      13.223  -1.529   2.687  1.00  0.00    -0.354 N 
ATOM     37  H   UNL     1      12.728  -0.926   2.029  1.00  0.00     0.163 HD
BRANCH  36  38
ATOM     38  C   UNL     1      14.182  -0.932   3.593  1.00  0.00     0.116 C 
BRANCH  38  39
ATOM     39  C   UNL     1      13.600   0.344   4.196  1.00  0.00     0.023 C 
BRANCH  39  40
ATOM     40  C   UNL     1      12.147   0.176   4.625  1.00  0.00     0.026 C 
BRANCH  40  41
ATOM     41  C   UNL     1      12.061  -0.309   6.072  1.00  0.00     0.146 C 
BRANCH  41  42
ATOM     42  N   UNL     1      10.952  -1.244   6.214  1.00  0.00    -0.254 NA
ATOM     43  C   UNL     1      11.192  -2.493   6.360  1.00  0.00     0.185 C 
ATOM     44  N   UNL     1      12.366  -3.148   6.412  1.00  0.00    -0.370 N 
ATOM     45  N   UNL     1      10.156  -3.339   6.484  1.00  0.00    -0.370 N 
ATOM     46  H   UNL     1      12.403  -4.145   6.285  1.00  0.00     0.159 HD
ATOM     47  H   UNL     1      13.253  -2.659   6.348  1.00  0.00     0.159 HD
ATOM     48  H   UNL     1       9.234  -2.924   6.464  1.00  0.00     0.159 HD
ATOM     49  H   UNL     1      10.257  -4.275   6.834  1.00  0.00     0.159 HD
ENDBRANCH  41  42
ENDBRANCH  40  41
ENDBRANCH  39  40
ENDBRANCH  38  39
ENDBRANCH  36  38
ENDBRANCH   5  34
BRANCH   8  50
ATOM     50  O   UNL     1      10.375  -5.962   5.079  1.00  0.00    -0.245 OA
BRANCH  50  51
ATOM     51  S   UNL     1      11.513  -6.614   6.042  1.00  0.00     0.397 S 
ATOM     52  O   UNL     1      11.563  -8.033   5.774  1.00  0.00    -0.169 OA
ATOM     53  O   UNL     1      11.363  -6.099   7.387  1.00  0.00    -0.169 OA
BRANCH  51  54
ATOM     54  O   UNL     1      12.866  -6.003   5.424  1.00  0.00    -0.264 OA
ATOM     55  H   UNL     1      12.797  -6.050   4.449  1.00  0.00     0.236 HD
ENDBRANCH  51  54
ENDBRANCH  50  51
ENDBRANCH   8  50
TORSDOF 19
ENDMDL
MODEL 25
REMARK VINA RESULT:    -5.917      3.157      7.774
REMARK INTER + INTRA:         -16.310
REMARK INTER:                 -12.905
REMARK INTRA:                  -3.405
REMARK UNBOUND:                -4.340
REMARK SMILES CC[C@@H](C)[C@@H](NC(=O)[C@@H](O)Cc1ccc(O)c(Cl)c1)C(=O)N1[C@H](C(=O)NCCCCN=C(N)N)C[C@H]2CC[C@H](OS(=O)(=O)O)C[C@@H]21
REMARK SMILES IDX 22 1 36 2 46 3 35 4 23 5 45 6 37 7 39 8 38 9 20 10 21 11
REMARK SMILES IDX 5 12 6 13 7 14 8 15 9 17 11 18 12 19 17 20 19 21 15 22 14 23
REMARK SMILES IDX 13 24 18 25 16 26 10 28 3 30 4 31 2 32 1 33 24 34 25 35
REMARK SMILES IDX 26 36 27 38 28 39 29 40 30 41 31 42 32 43 33 44 34 45 40 50
REMARK SMILES IDX 41 51 42 52 43 53 44 54
REMARK H PARENT 6 16 16 27 10 29 26 37 33 46 33 47 34 48 34 49 44 55
ROOT
ATOM      1  N   UNL     1      11.943  -4.483  -1.997  1.00  0.00    -0.326 N 
ATOM      2  C   UNL     1      10.310  -3.372  -3.278  1.00  0.00     0.014 C 
ATOM      3  C   UNL     1      11.132  -4.662  -3.204  1.00  0.00     0.091 C 
ATOM      4  C   UNL     1      11.274  -2.330  -2.733  1.00  0.00     0.041 C 
ATOM      5  C   UNL     1      11.831  -3.085  -1.513  1.00  0.00     0.175 C 
ATOM      6  C   UNL     1      10.173  -5.850  -3.263  1.00  0.00     0.059 C 
ATOM      7  C   UNL     1       9.717  -3.186  -4.660  1.00  0.00     0.008 C 
ATOM      8  C   UNL     1       8.906  -5.585  -4.104  1.00  0.00     0.143 C 
ATOM      9  C   UNL     1       9.146  -4.518  -5.192  1.00  0.00     0.034 C 
ENDROOT
BRANCH   1  10
ATOM     10  C   UNL     1      12.893  -5.318  -1.433  1.00  0.00     0.246 C 
ATOM     11  O   UNL     1      14.086  -5.006  -1.505  1.00  0.00    -0.272 OA
BRANCH  10  12
ATOM     12  C   UNL     1      12.437  -6.605  -0.687  1.00  0.00     0.174 C 
BRANCH  12  13
ATOM     13  N   UNL     1      11.918  -6.258   0.635  1.00  0.00    -0.342 N 
ATOM     14  C   UNL     1      12.640  -5.635   1.629  1.00  0.00     0.249 C 
ATOM     15  O   UNL     1      13.804  -5.275   1.502  1.00  0.00    -0.272 OA
ATOM     16  H   UNL     1      11.023  -6.632   0.940  1.00  0.00     0.164 HD
BRANCH  14  17
ATOM     17  C   UNL     1      11.818  -5.421   2.917  1.00  0.00     0.207 C 
BRANCH  17  18
ATOM     18  C   UNL     1      10.689  -6.452   3.011  1.00  0.00     0.077 C 
BRANCH  18  19
ATOM     19  C   UNL     1      10.571  -7.031   4.403  1.00  0.00    -0.043 A 
ATOM     20  C   UNL     1      11.587  -7.648   6.517  1.00  0.00     0.083 A 
ATOM     21  C   UNL     1      11.688  -7.069   5.252  1.00  0.00     0.028 A 
ATOM     22  C   UNL     1      10.374  -8.192   6.941  1.00  0.00     0.134 A 
ATOM     23  C   UNL     1       9.260  -8.161   6.111  1.00  0.00     0.048 A 
ATOM     24  C   UNL     1       9.358  -7.583   4.843  1.00  0.00     0.008 A 
ATOM     25  Cl  UNL     1      12.971  -7.686   7.546  1.00  0.00    -0.080 Cl
BRANCH  22  26
ATOM     26  O   UNL     1      10.230  -8.780   8.169  1.00  0.00    -0.506 OA
ATOM     27  H   UNL     1      10.238  -8.060   8.827  1.00  0.00     0.293 HD
ENDBRANCH  22  26
ENDBRANCH  18  19
ENDBRANCH  17  18
BRANCH  17  28
ATOM     28  O   UNL     1      11.259  -4.098   2.960  1.00  0.00    -0.383 OA
ATOM     29  H   UNL     1      12.023  -3.478   2.919  1.00  0.00     0.211 HD
ENDBRANCH  17  28
ENDBRANCH  14  17
ENDBRANCH  12  13
BRANCH  12  30
ATOM     30  C   UNL     1      13.548  -7.687  -0.622  1.00  0.00     0.018 C 
ATOM     31  C   UNL     1      13.725  -8.372  -1.987  1.00  0.00     0.010 C 
BRANCH  30  32
ATOM     32  C   UNL     1      13.318  -8.749   0.480  1.00  0.00     0.002 C 
ATOM     33  C   UNL     1      13.660 -10.181   0.087  1.00  0.00     0.004 C 
ENDBRANCH  30  32
ENDBRANCH  12  30
ENDBRANCH  10  12
ENDBRANCH   1  10
BRANCH   5  34
ATOM     34  C   UNL     1      10.869  -2.998  -0.298  1.00  0.00     0.242 C 
ATOM     35  O   UNL     1      11.094  -2.271   0.669  1.00  0.00    -0.273 OA
ATOM     36  N   UNL     1       9.775  -3.832  -0.357  1.00  0.00    -0.354 N 
ATOM     37  H   UNL     1       9.706  -4.498  -1.128  1.00  0.00     0.163 HD
BRANCH  36  38
ATOM     38  C   UNL     1       8.672  -3.728   0.575  1.00  0.00     0.116 C 
BRANCH  38  39
ATOM     39  C   UNL     1       8.075  -5.111   0.828  1.00  0.00     0.023 C 
BRANCH  39  40
ATOM     40  C   UNL     1       7.425  -5.222   2.203  1.00  0.00     0.026 C 
BRANCH  40  41
ATOM     41  C   UNL     1       7.846  -4.056   3.098  1.00  0.00     0.146 C 
BRANCH  41  42
ATOM     42  N   UNL     1       7.647  -4.411   4.497  1.00  0.00    -0.254 NA
ATOM     43  C   UNL     1       8.517  -4.064   5.369  1.00  0.00     0.185 C 
ATOM     44  N   UNL     1       9.666  -3.380   5.220  1.00  0.00    -0.370 N 
ATOM     45  N   UNL     1       8.317  -4.405   6.652  1.00  0.00    -0.370 N 
ATOM     46  H   UNL     1      10.367  -3.391   5.941  1.00  0.00     0.159 HD
ATOM     47  H   UNL     1       9.966  -3.033   4.314  1.00  0.00     0.159 HD
ATOM     48  H   UNL     1       7.468  -4.916   6.853  1.00  0.00     0.159 HD
ATOM     49  H   UNL     1       8.814  -3.977   7.413  1.00  0.00     0.159 HD
ENDBRANCH  41  42
ENDBRANCH  40  41
ENDBRANCH  39  40
ENDBRANCH  38  39
ENDBRANCH  36  38
ENDBRANCH   5  34
BRANCH   8  50
ATOM     50  O   UNL     1       7.841  -5.142  -3.262  1.00  0.00    -0.245 OA
BRANCH  50  51
ATOM     51  S   UNL     1       6.526  -6.079  -3.071  1.00  0.00     0.397 S 
ATOM     52  O   UNL     1       5.801  -5.601  -1.916  1.00  0.00    -0.169 OA
ATOM     53  O   UNL     1       6.897  -7.472  -3.212  1.00  0.00    -0.169 OA
BRANCH  51  54
ATOM     54  O   UNL     1       5.635  -5.672  -4.346  1.00  0.00    -0.264 OA
ATOM     55  H   UNL     1       4.710  -5.930  -4.159  1.00  0.00     0.236 HD
ENDBRANCH  51  54
ENDBRANCH  50  51
ENDBRANCH   8  50
TORSDOF 19
ENDMDL
MODEL 26
REMARK VINA RESULT:    -5.912      4.528      8.247
REMARK INTER + INTRA:         -16.300
REMARK INTER:                 -12.302
REMARK INTRA:                  -3.998
REMARK UNBOUND:                -4.340
REMARK SMILES CC[C@@H](C)[C@@H](NC(=O)[C@@H](O)Cc1ccc(O)c(Cl)c1)C(=O)N1[C@H](C(=O)NCCCCN=C(N)N)C[C@H]2CC[C@H](OS(=O)(=O)O)C[C@@H]21
REMARK SMILES IDX 22 1 36 2 46 3 35 4 23 5 45 6 37 7 39 8 38 9 20 10 21 11
REMARK SMILES IDX 5 12 6 13 7 14 8 15 9 17 11 18 12 19 17 20 19 21 15 22 14 23
REMARK SMILES IDX 13 24 18 25 16 26 10 28 3 30 4 31 2 32 1 33 24 34 25 35
REMARK SMILES IDX 26 36 27 38 28 39 29 40 30 41 31 42 32 43 33 44 34 45 40 50
REMARK SMILES IDX 41 51 42 52 43 53 44 54
REMARK H PARENT 6 16 16 27 10 29 26 37 33 46 33 47 34 48 34 49 44 55
ROOT
ATOM      1  N   UNL     1      11.612  -4.332   5.366  1.00  0.00    -0.326 N 
ATOM      2  C   UNL     1      10.270  -5.770   4.074  1.00  0.00     0.014 C 
ATOM      3  C   UNL     1      11.167  -4.533   3.984  1.00  0.00     0.091 C 
ATOM      4  C   UNL     1       9.616  -5.613   5.438  1.00  0.00     0.041 C 
ATOM      5  C   UNL     1      10.840  -5.210   6.281  1.00  0.00     0.175 C 
ATOM      6  C   UNL     1      12.226  -4.781   2.911  1.00  0.00     0.059 C 
ATOM      7  C   UNL     1       9.396  -5.896   2.841  1.00  0.00     0.008 C 
ATOM      8  C   UNL     1      11.739  -5.679   1.754  1.00  0.00     0.143 C 
ATOM      9  C   UNL     1      10.210  -5.602   1.564  1.00  0.00     0.034 C 
ENDROOT
BRANCH   1  10
ATOM     10  C   UNL     1      12.430  -3.352   5.902  1.00  0.00     0.246 C 
ATOM     11  O   UNL     1      13.487  -3.684   6.449  1.00  0.00    -0.272 OA
BRANCH  10  12
ATOM     12  C   UNL     1      12.024  -1.856   5.767  1.00  0.00     0.174 C 
BRANCH  12  13
ATOM     13  N   UNL     1      10.566  -1.732   5.778  1.00  0.00    -0.342 N 
ATOM     14  C   UNL     1       9.846  -0.954   6.656  1.00  0.00     0.249 C 
ATOM     15  O   UNL     1      10.356  -0.249   7.519  1.00  0.00    -0.272 OA
ATOM     16  H   UNL     1      10.002  -2.374   5.227  1.00  0.00     0.164 HD
BRANCH  14  17
ATOM     17  C   UNL     1       8.323  -1.048   6.425  1.00  0.00     0.207 C 
BRANCH  17  18
ATOM     18  C   UNL     1       8.021  -1.897   5.185  1.00  0.00     0.077 C 
BRANCH  18  19
ATOM     19  C   UNL     1       6.555  -1.856   4.820  1.00  0.00    -0.043 A 
ATOM     20  C   UNL     1       4.787  -1.211   3.289  1.00  0.00     0.083 A 
ATOM     21  C   UNL     1       6.144  -1.292   3.601  1.00  0.00     0.028 A 
ATOM     22  C   UNL     1       3.833  -1.690   4.188  1.00  0.00     0.134 A 
ATOM     23  C   UNL     1       4.226  -2.251   5.398  1.00  0.00     0.048 A 
ATOM     24  C   UNL     1       5.584  -2.332   5.715  1.00  0.00     0.008 A 
ATOM     25  Cl  UNL     1       4.302  -0.515   1.788  1.00  0.00    -0.080 Cl
BRANCH  22  26
ATOM     26  O   UNL     1       2.491  -1.622   3.931  1.00  0.00    -0.506 OA
ATOM     27  H   UNL     1       2.097  -2.443   4.280  1.00  0.00     0.293 HD
ENDBRANCH  22  26
ENDBRANCH  18  19
ENDBRANCH  17  18
BRANCH  17  28
ATOM     28  O   UNL     1       7.743   0.256   6.261  1.00  0.00    -0.383 OA
ATOM     29  H   UNL     1       8.347   0.749   5.662  1.00  0.00     0.211 HD
ENDBRANCH  17  28
ENDBRANCH  14  17
ENDBRANCH  12  13
BRANCH  12  30
ATOM     30  C   UNL     1      12.667  -1.169   4.532  1.00  0.00     0.018 C 
ATOM     31  C   UNL     1      13.192   0.229   4.897  1.00  0.00     0.010 C 
BRANCH  30  32
ATOM     32  C   UNL     1      11.723  -1.080   3.308  1.00  0.00     0.002 C 
ATOM     33  C   UNL     1      11.211   0.317   2.981  1.00  0.00     0.004 C 
ENDBRANCH  30  32
ENDBRANCH  12  30
ENDBRANCH  10  12
ENDBRANCH   1  10
BRANCH   5  34
ATOM     34  C   UNL     1      11.681  -6.446   6.697  1.00  0.00     0.242 C 
ATOM     35  O   UNL     1      12.572  -6.906   5.983  1.00  0.00    -0.273 OA
ATOM     36  N   UNL     1      11.322  -7.022   7.895  1.00  0.00    -0.354 N 
ATOM     37  H   UNL     1      10.498  -6.669   8.383  1.00  0.00     0.163 HD
BRANCH  36  38
ATOM     38  C   UNL     1      12.128  -8.041   8.536  1.00  0.00     0.116 C 
BRANCH  38  39
ATOM     39  C   UNL     1      11.427  -9.393   8.439  1.00  0.00     0.023 C 
BRANCH  39  40
ATOM     40  C   UNL     1      12.306 -10.461   7.796  1.00  0.00     0.026 C 
BRANCH  40  41
ATOM     41  C   UNL     1      12.059 -10.530   6.289  1.00  0.00     0.146 C 
BRANCH  41  42
ATOM     42  N   UNL     1      10.684 -10.150   5.997  1.00  0.00    -0.254 NA
ATOM     43  C   UNL     1      10.417  -9.517   4.917  1.00  0.00     0.185 C 
ATOM     44  N   UNL     1      11.235  -9.109   3.929  1.00  0.00    -0.370 N 
ATOM     45  N   UNL     1       9.143  -9.171   4.668  1.00  0.00    -0.370 N 
ATOM     46  H   UNL     1      10.932  -8.415   3.267  1.00  0.00     0.159 HD
ATOM     47  H   UNL     1      12.232  -9.299   3.949  1.00  0.00     0.159 HD
ATOM     48  H   UNL     1       8.460  -9.449   5.360  1.00  0.00     0.159 HD
ATOM     49  H   UNL     1       8.823  -8.894   3.758  1.00  0.00     0.159 HD
ENDBRANCH  41  42
ENDBRANCH  40  41
ENDBRANCH  39  40
ENDBRANCH  38  39
ENDBRANCH  36  38
ENDBRANCH   5  34
BRANCH   8  50
ATOM     50  O   UNL     1      12.097  -7.038   2.004  1.00  0.00    -0.245 OA
BRANCH  50  51
ATOM     51  S   UNL     1      13.302  -7.722   1.153  1.00  0.00     0.397 S 
ATOM     52  O   UNL     1      13.630  -8.983   1.777  1.00  0.00    -0.169 OA
ATOM     53  O   UNL     1      14.317  -6.730   0.865  1.00  0.00    -0.169 OA
BRANCH  51  54
ATOM     54  O   UNL     1      12.568  -8.095  -0.228  1.00  0.00    -0.264 OA
ATOM     55  H   UNL     1      13.091  -7.706  -0.959  1.00  0.00     0.236 HD
ENDBRANCH  51  54
ENDBRANCH  50  51
ENDBRANCH   8  50
TORSDOF 19
ENDMDL
MODEL 27
REMARK VINA RESULT:    -5.892      3.982      8.866
REMARK INTER + INTRA:         -16.259
REMARK INTER:                 -13.606
REMARK INTRA:                  -2.653
REMARK UNBOUND:                -4.340
REMARK SMILES CC[C@@H](C)[C@@H](NC(=O)[C@@H](O)Cc1ccc(O)c(Cl)c1)C(=O)N1[C@H](C(=O)NCCCCN=C(N)N)C[C@H]2CC[C@H](OS(=O)(=O)O)C[C@@H]21
REMARK SMILES IDX 22 1 36 2 46 3 35 4 23 5 45 6 37 7 39 8 38 9 20 10 21 11
REMARK SMILES IDX 5 12 6 13 7 14 8 15 9 17 11 18 12 19 17 20 19 21 15 22 14 23
REMARK SMILES IDX 13 24 18 25 16 26 10 28 3 30 4 31 2 32 1 33 24 34 25 35
REMARK SMILES IDX 26 36 27 38 28 39 29 40 30 41 31 42 32 43 33 44 34 45 40 50
REMARK SMILES IDX 41 51 42 52 43 53 44 54
REMARK H PARENT 6 16 16 27 10 29 26 37 33 46 33 47 34 48 34 49 44 55
ROOT
ATOM      1  N   UNL     1      10.826  -4.523   3.258  1.00  0.00    -0.326 N 
ATOM      2  C   UNL     1      11.635  -6.525   2.321  1.00  0.00     0.014 C 
ATOM      3  C   UNL     1      11.665  -5.676   3.595  1.00  0.00     0.091 C 
ATOM      4  C   UNL     1      11.581  -5.477   1.221  1.00  0.00     0.041 C 
ATOM      5  C   UNL     1      10.522  -4.524   1.805  1.00  0.00     0.175 C 
ATOM      6  C   UNL     1      11.247  -6.556   4.772  1.00  0.00     0.059 C 
ATOM      7  C   UNL     1      12.758  -7.544   2.322  1.00  0.00     0.008 C 
ATOM      8  C   UNL     1      11.654  -8.038   4.615  1.00  0.00     0.143 C 
ATOM      9  C   UNL     1      12.891  -8.206   3.710  1.00  0.00     0.034 C 
ENDROOT
BRANCH   1  10
ATOM     10  C   UNL     1      10.500  -3.411   4.014  1.00  0.00     0.246 C 
ATOM     11  O   UNL     1      10.465  -2.302   3.470  1.00  0.00    -0.272 OA
BRANCH  10  12
ATOM     12  C   UNL     1      10.143  -3.584   5.519  1.00  0.00     0.174 C 
BRANCH  12  13
ATOM     13  N   UNL     1       8.728  -3.284   5.734  1.00  0.00    -0.342 N 
ATOM     14  C   UNL     1       7.752  -4.221   5.994  1.00  0.00     0.249 C 
ATOM     15  O   UNL     1       7.970  -5.421   6.102  1.00  0.00    -0.272 OA
ATOM     16  H   UNL     1       8.372  -2.356   5.522  1.00  0.00     0.164 HD
BRANCH  14  17
ATOM     17  C   UNL     1       6.352  -3.592   6.156  1.00  0.00     0.207 C 
BRANCH  17  18
ATOM     18  C   UNL     1       6.469  -2.103   6.495  1.00  0.00     0.077 C 
BRANCH  18  19
ATOM     19  C   UNL     1       5.541  -1.259   5.650  1.00  0.00    -0.043 A 
ATOM     20  C   UNL     1       3.533  -1.045   4.307  1.00  0.00     0.083 A 
ATOM     21  C   UNL     1       4.362  -1.812   5.127  1.00  0.00     0.028 A 
ATOM     22  C   UNL     1       3.875   0.273   4.004  1.00  0.00     0.134 A 
ATOM     23  C   UNL     1       5.040   0.833   4.516  1.00  0.00     0.048 A 
ATOM     24  C   UNL     1       5.873   0.067   5.335  1.00  0.00     0.008 A 
ATOM     25  Cl  UNL     1       2.088  -1.741   3.673  1.00  0.00    -0.080 Cl
BRANCH  22  26
ATOM     26  O   UNL     1       3.100   1.060   3.196  1.00  0.00    -0.506 OA
ATOM     27  H   UNL     1       2.202   0.679   3.213  1.00  0.00     0.293 HD
ENDBRANCH  22  26
ENDBRANCH  18  19
ENDBRANCH  17  18
BRANCH  17  28
ATOM     28  O   UNL     1       5.602  -4.257   7.185  1.00  0.00    -0.383 OA
ATOM     29  H   UNL     1       5.753  -5.221   7.052  1.00  0.00     0.211 HD
ENDBRANCH  17  28
ENDBRANCH  14  17
ENDBRANCH  12  13
BRANCH  12  30
ATOM     30  C   UNL     1      11.072  -2.764   6.455  1.00  0.00     0.018 C 
ATOM     31  C   UNL     1      10.421  -1.423   6.830  1.00  0.00     0.010 C 
BRANCH  30  32
ATOM     32  C   UNL     1      12.486  -2.524   5.872  1.00  0.00     0.002 C 
ATOM     33  C   UNL     1      13.507  -3.614   6.172  1.00  0.00     0.004 C 
ENDBRANCH  30  32
ENDBRANCH  12  30
ENDBRANCH  10  12
ENDBRANCH   1  10
BRANCH   5  34
ATOM     34  C   UNL     1       9.082  -5.040   1.545  1.00  0.00     0.242 C 
ATOM     35  O   UNL     1       8.540  -5.874   2.271  1.00  0.00    -0.273 OA
ATOM     36  N   UNL     1       8.476  -4.540   0.414  1.00  0.00    -0.354 N 
ATOM     37  H   UNL     1       9.020  -3.945  -0.213  1.00  0.00     0.163 HD
BRANCH  36  38
ATOM     38  C   UNL     1       7.069  -4.743   0.136  1.00  0.00     0.116 C 
BRANCH  38  39
ATOM     39  C   UNL     1       6.675  -3.983  -1.128  1.00  0.00     0.023 C 
BRANCH  39  40
ATOM     40  C   UNL     1       6.019  -4.883  -2.169  1.00  0.00     0.026 C 
BRANCH  40  41
ATOM     41  C   UNL     1       6.840  -6.155  -2.381  1.00  0.00     0.146 C 
BRANCH  41  42
ATOM     42  N   UNL     1       6.592  -6.685  -3.715  1.00  0.00    -0.254 NA
ATOM     43  C   UNL     1       7.480  -6.546  -4.626  1.00  0.00     0.185 C 
ATOM     44  N   UNL     1       8.690  -5.959  -4.574  1.00  0.00    -0.370 N 
ATOM     45  N   UNL     1       7.230  -7.038  -5.851  1.00  0.00    -0.370 N 
ATOM     46  H   UNL     1       9.175  -5.708  -5.418  1.00  0.00     0.159 HD
ATOM     47  H   UNL     1       9.045  -5.546  -3.717  1.00  0.00     0.159 HD
ATOM     48  H   UNL     1       6.342  -7.505  -5.974  1.00  0.00     0.159 HD
ATOM     49  H   UNL     1       7.950  -7.181  -6.537  1.00  0.00     0.159 HD
ENDBRANCH  41  42
ENDBRANCH  40  41
ENDBRANCH  39  40
ENDBRANCH  38  39
ENDBRANCH  36  38
ENDBRANCH   5  34
BRANCH   8  50
ATOM     50  O   UNL     1      10.575  -8.785   4.052  1.00  0.00    -0.245 OA
BRANCH  50  51
ATOM     51  S   UNL     1       9.216  -9.009   4.917  1.00  0.00     0.397 S 
ATOM     52  O   UNL     1       9.532  -8.788   6.310  1.00  0.00    -0.169 OA
ATOM     53  O   UNL     1       8.549 -10.214   4.471  1.00  0.00    -0.169 OA
BRANCH  51  54
ATOM     54  O   UNL     1       8.321  -7.751   4.467  1.00  0.00    -0.264 OA
ATOM     55  H   UNL     1       7.610  -7.638   5.131  1.00  0.00     0.236 HD
ENDBRANCH  51  54
ENDBRANCH  50  51
ENDBRANCH   8  50
TORSDOF 19
ENDMDL
MODEL 28
REMARK VINA RESULT:    -5.876      4.841      8.599
REMARK INTER + INTRA:         -16.227
REMARK INTER:                 -14.118
REMARK INTRA:                  -2.109
REMARK UNBOUND:                -4.340
REMARK SMILES CC[C@@H](C)[C@@H](NC(=O)[C@@H](O)Cc1ccc(O)c(Cl)c1)C(=O)N1[C@H](C(=O)NCCCCN=C(N)N)C[C@H]2CC[C@H](OS(=O)(=O)O)C[C@@H]21
REMARK SMILES IDX 22 1 36 2 46 3 35 4 23 5 45 6 37 7 39 8 38 9 20 10 21 11
REMARK SMILES IDX 5 12 6 13 7 14 8 15 9 17 11 18 12 19 17 20 19 21 15 22 14 23
REMARK SMILES IDX 13 24 18 25 16 26 10 28 3 30 4 31 2 32 1 33 24 34 25 35
REMARK SMILES IDX 26 36 27 38 28 39 29 40 30 41 31 42 32 43 33 44 34 45 40 50
REMARK SMILES IDX 41 51 42 52 43 53 44 54
REMARK H PARENT 6 16 16 27 10 29 26 37 33 46 33 47 34 48 34 49 44 55
ROOT
ATOM      1  N   UNL     1       4.431  -1.018   4.553  1.00  0.00    -0.326 N 
ATOM      2  C   UNL     1       2.717   0.594   4.491  1.00  0.00     0.014 C 
ATOM      3  C   UNL     1       3.865   0.069   5.357  1.00  0.00     0.091 C 
ATOM      4  C   UNL     1       2.205  -0.667   3.812  1.00  0.00     0.041 C 
ATOM      5  C   UNL     1       3.540  -1.318   3.405  1.00  0.00     0.175 C 
ATOM      6  C   UNL     1       4.768   1.244   5.725  1.00  0.00     0.059 C 
ATOM      7  C   UNL     1       1.760   1.437   5.311  1.00  0.00     0.008 C 
ATOM      8  C   UNL     1       4.017   2.586   5.866  1.00  0.00     0.143 C 
ATOM      9  C   UNL     1       2.537   2.383   6.250  1.00  0.00     0.034 C 
ENDROOT
BRANCH   1  10
ATOM     10  C   UNL     1       5.483  -1.874   4.833  1.00  0.00     0.246 C 
ATOM     11  O   UNL     1       5.341  -2.734   5.708  1.00  0.00    -0.272 OA
BRANCH  10  12
ATOM     12  C   UNL     1       6.801  -1.762   4.013  1.00  0.00     0.174 C 
BRANCH  12  13
ATOM     13  N   UNL     1       7.482  -3.056   3.985  1.00  0.00    -0.342 N 
ATOM     14  C   UNL     1       7.711  -3.805   2.853  1.00  0.00     0.249 C 
ATOM     15  O   UNL     1       7.389  -3.452   1.725  1.00  0.00    -0.272 OA
ATOM     16  H   UNL     1       7.666  -3.547   4.857  1.00  0.00     0.164 HD
BRANCH  14  17
ATOM     17  C   UNL     1       8.438  -5.133   3.153  1.00  0.00     0.207 C 
BRANCH  17  18
ATOM     18  C   UNL     1       9.695  -4.877   3.990  1.00  0.00     0.077 C 
BRANCH  18  19
ATOM     19  C   UNL     1       9.852  -5.899   5.095  1.00  0.00    -0.043 A 
ATOM     20  C   UNL     1      10.148  -8.199   5.805  1.00  0.00     0.083 A 
ATOM     21  C   UNL     1      10.052  -7.253   4.784  1.00  0.00     0.028 A 
ATOM     22  C   UNL     1      10.042  -7.801   7.138  1.00  0.00     0.134 A 
ATOM     23  C   UNL     1       9.845  -6.464   7.460  1.00  0.00     0.048 A 
ATOM     24  C   UNL     1       9.747  -5.514   6.440  1.00  0.00     0.008 A 
ATOM     25  Cl  UNL     1      10.393  -9.858   5.403  1.00  0.00    -0.080 Cl
BRANCH  22  26
ATOM     26  O   UNL     1      10.119  -8.694   8.172  1.00  0.00    -0.506 OA
ATOM     27  H   UNL     1       9.206  -8.976   8.367  1.00  0.00     0.293 HD
ENDBRANCH  22  26
ENDBRANCH  18  19
ENDBRANCH  17  18
BRANCH  17  28
ATOM     28  O   UNL     1       8.802  -5.809   1.940  1.00  0.00    -0.383 OA
ATOM     29  H   UNL     1       8.987  -6.742   2.193  1.00  0.00     0.211 HD
ENDBRANCH  17  28
ENDBRANCH  14  17
ENDBRANCH  12  13
BRANCH  12  30
ATOM     30  C   UNL     1       7.723  -0.618   4.513  1.00  0.00     0.018 C 
ATOM     31  C   UNL     1       9.038  -0.589   3.717  1.00  0.00     0.010 C 
BRANCH  30  32
ATOM     32  C   UNL     1       8.022  -0.678   6.031  1.00  0.00     0.002 C 
ATOM     33  C   UNL     1       9.296   0.029   6.472  1.00  0.00     0.004 C 
ENDBRANCH  30  32
ENDBRANCH  12  30
ENDBRANCH  10  12
ENDBRANCH   1  10
BRANCH   5  34
ATOM     34  C   UNL     1       4.101  -0.702   2.096  1.00  0.00     0.242 C 
ATOM     35  O   UNL     1       4.719   0.362   2.082  1.00  0.00    -0.273 OA
ATOM     36  N   UNL     1       3.812  -1.404   0.948  1.00  0.00    -0.354 N 
ATOM     37  H   UNL     1       3.195  -2.215   1.009  1.00  0.00     0.163 HD
BRANCH  36  38
ATOM     38  C   UNL     1       4.433  -1.095  -0.324  1.00  0.00     0.116 C 
BRANCH  38  39
ATOM     39  C   UNL     1       3.947  -2.075  -1.389  1.00  0.00     0.023 C 
BRANCH  39  40
ATOM     40  C   UNL     1       5.023  -3.076  -1.796  1.00  0.00     0.026 C 
BRANCH  40  41
ATOM     41  C   UNL     1       4.395  -4.340  -2.381  1.00  0.00     0.146 C 
BRANCH  41  42
ATOM     42  N   UNL     1       5.194  -4.814  -3.503  1.00  0.00    -0.254 NA
ATOM     43  C   UNL     1       6.125  -5.668  -3.302  1.00  0.00     0.185 C 
ATOM     44  N   UNL     1       6.530  -6.254  -2.160  1.00  0.00    -0.370 N 
ATOM     45  N   UNL     1       6.854  -6.089  -4.349  1.00  0.00    -0.370 N 
ATOM     46  H   UNL     1       7.423  -6.713  -2.108  1.00  0.00     0.159 HD
ATOM     47  H   UNL     1       6.078  -6.059  -1.272  1.00  0.00     0.159 HD
ATOM     48  H   UNL     1       6.607  -5.702  -5.250  1.00  0.00     0.159 HD
ATOM     49  H   UNL     1       7.427  -6.913  -4.317  1.00  0.00     0.159 HD
ENDBRANCH  41  42
ENDBRANCH  40  41
ENDBRANCH  39  40
ENDBRANCH  38  39
ENDBRANCH  36  38
ENDBRANCH   5  34
BRANCH   8  50
ATOM     50  O   UNL     1       4.071   3.309   4.636  1.00  0.00    -0.245 OA
BRANCH  50  51
ATOM     51  S   UNL     1       4.424   4.897   4.654  1.00  0.00     0.397 S 
ATOM     52  O   UNL     1       3.555   5.557   3.705  1.00  0.00    -0.169 OA
ATOM     53  O   UNL     1       5.860   5.076   4.621  1.00  0.00    -0.169 OA
BRANCH  51  54
ATOM     54  O   UNL     1       3.902   5.341   6.108  1.00  0.00    -0.264 OA
ATOM     55  H   UNL     1       3.411   6.181   6.006  1.00  0.00     0.236 HD
ENDBRANCH  51  54
ENDBRANCH  50  51
ENDBRANCH   8  50
TORSDOF 19
ENDMDL
MODEL 29
REMARK VINA RESULT:    -5.869      3.204      6.348
REMARK INTER + INTRA:         -16.214
REMARK INTER:                 -12.802
REMARK INTRA:                  -3.412
REMARK UNBOUND:                -4.340
REMARK SMILES CC[C@@H](C)[C@@H](NC(=O)[C@@H](O)Cc1ccc(O)c(Cl)c1)C(=O)N1[C@H](C(=O)NCCCCN=C(N)N)C[C@H]2CC[C@H](OS(=O)(=O)O)C[C@@H]21
REMARK SMILES IDX 22 1 36 2 46 3 35 4 23 5 45 6 37 7 39 8 38 9 20 10 21 11
REMARK SMILES IDX 5 12 6 13 7 14 8 15 9 17 11 18 12 19 17 20 19 21 15 22 14 23
REMARK SMILES IDX 13 24 18 25 16 26 10 28 3 30 4 31 2 32 1 33 24 34 25 35
REMARK SMILES IDX 26 36 27 38 28 39 29 40 30 41 31 42 32 43 33 44 34 45 40 50
REMARK SMILES IDX 41 51 42 52 43 53 44 54
REMARK H PARENT 6 16 16 27 10 29 26 37 33 46 33 47 34 48 34 49 44 55
ROOT
ATOM      1  N   UNL     1      11.453  -4.978   3.651  1.00  0.00    -0.326 N 
ATOM      2  C   UNL     1      10.082  -6.672   4.542  1.00  0.00     0.014 C 
ATOM      3  C   UNL     1      11.477  -6.409   3.968  1.00  0.00     0.091 C 
ATOM      4  C   UNL     1       9.204  -5.729   3.733  1.00  0.00     0.041 C 
ATOM      5  C   UNL     1      10.069  -4.456   3.767  1.00  0.00     0.175 C 
ATOM      6  C   UNL     1      12.514  -6.911   4.971  1.00  0.00     0.059 C 
ATOM      7  C   UNL     1       9.770  -8.156   4.549  1.00  0.00     0.008 C 
ATOM      8  C   UNL     1      12.046  -8.133   5.791  1.00  0.00     0.143 C 
ATOM      9  C   UNL     1      10.990  -8.966   5.036  1.00  0.00     0.034 C 
ENDROOT
BRANCH   1  10
ATOM     10  C   UNL     1      12.431  -4.177   3.088  1.00  0.00     0.246 C 
ATOM     11  O   UNL     1      13.274  -3.650   3.823  1.00  0.00    -0.272 OA
BRANCH  10  12
ATOM     12  C   UNL     1      12.476  -3.991   1.543  1.00  0.00     0.174 C 
BRANCH  12  13
ATOM     13  N   UNL     1      11.139  -3.679   1.040  1.00  0.00    -0.342 N 
ATOM     14  C   UNL     1      10.699  -2.421   0.692  1.00  0.00     0.249 C 
ATOM     15  O   UNL     1      11.399  -1.417   0.740  1.00  0.00    -0.272 OA
ATOM     16  H   UNL     1      10.404  -4.379   1.094  1.00  0.00     0.164 HD
BRANCH  14  17
ATOM     17  C   UNL     1       9.232  -2.414   0.212  1.00  0.00     0.207 C 
BRANCH  17  18
ATOM     18  C   UNL     1       8.511  -3.683   0.678  1.00  0.00     0.077 C 
BRANCH  18  19
ATOM     19  C   UNL     1       7.285  -3.972  -0.160  1.00  0.00    -0.043 A 
ATOM     20  C   UNL     1       4.998  -3.463  -0.785  1.00  0.00     0.083 A 
ATOM     21  C   UNL     1       6.143  -3.164  -0.047  1.00  0.00     0.028 A 
ATOM     22  C   UNL     1       4.984  -4.569  -1.636  1.00  0.00     0.134 A 
ATOM     23  C   UNL     1       6.108  -5.377  -1.758  1.00  0.00     0.048 A 
ATOM     24  C   UNL     1       7.256  -5.082  -1.019  1.00  0.00     0.008 A 
ATOM     25  Cl  UNL     1       3.604  -2.458  -0.633  1.00  0.00    -0.080 Cl
BRANCH  22  26
ATOM     26  O   UNL     1       3.881  -4.908  -2.372  1.00  0.00    -0.506 OA
ATOM     27  H   UNL     1       3.401  -4.079  -2.555  1.00  0.00     0.293 HD
ENDBRANCH  22  26
ENDBRANCH  18  19
ENDBRANCH  17  18
BRANCH  17  28
ATOM     28  O   UNL     1       9.156  -2.321  -1.220  1.00  0.00    -0.383 OA
ATOM     29  H   UNL     1       9.316  -3.231  -1.560  1.00  0.00     0.211 HD
ENDBRANCH  17  28
ENDBRANCH  14  17
ENDBRANCH  12  13
BRANCH  12  30
ATOM     30  C   UNL     1      13.116  -5.202   0.812  1.00  0.00     0.018 C 
ATOM     31  C   UNL     1      13.704  -4.774  -0.541  1.00  0.00     0.010 C 
BRANCH  30  32
ATOM     32  C   UNL     1      12.147  -6.394   0.618  1.00  0.00     0.002 C 
ATOM     33  C   UNL     1      12.785  -7.774   0.714  1.00  0.00     0.004 C 
ENDBRANCH  30  32
ENDBRANCH  12  30
ENDBRANCH  10  12
ENDBRANCH   1  10
BRANCH   5  34
ATOM     34  C   UNL     1       9.885  -3.675   5.095  1.00  0.00     0.242 C 
ATOM     35  O   UNL     1      10.745  -3.662   5.976  1.00  0.00    -0.273 OA
ATOM     36  N   UNL     1       8.670  -3.043   5.240  1.00  0.00    -0.354 N 
ATOM     37  H   UNL     1       7.952  -3.190   4.529  1.00  0.00     0.163 HD
BRANCH  36  38
ATOM     38  C   UNL     1       8.411  -2.100   6.308  1.00  0.00     0.116 C 
BRANCH  38  39
ATOM     39  C   UNL     1       6.919  -2.082   6.633  1.00  0.00     0.023 C 
BRANCH  39  40
ATOM     40  C   UNL     1       6.233  -3.402   6.297  1.00  0.00     0.026 C 
BRANCH  40  41
ATOM     41  C   UNL     1       6.310  -4.369   7.478  1.00  0.00     0.146 C 
BRANCH  41  42
ATOM     42  N   UNL     1       7.363  -5.348   7.244  1.00  0.00    -0.254 NA
ATOM     43  C   UNL     1       7.481  -6.351   8.032  1.00  0.00     0.185 C 
ATOM     44  N   UNL     1       6.757  -6.692   9.113  1.00  0.00    -0.370 N 
ATOM     45  N   UNL     1       8.461  -7.240   7.802  1.00  0.00    -0.370 N 
ATOM     46  H   UNL     1       7.108  -7.363   9.775  1.00  0.00     0.159 HD
ATOM     47  H   UNL     1       5.966  -6.135   9.422  1.00  0.00     0.159 HD
ATOM     48  H   UNL     1       9.048  -7.062   6.999  1.00  0.00     0.159 HD
ATOM     49  H   UNL     1       8.473  -8.156   8.215  1.00  0.00     0.159 HD
ENDBRANCH  41  42
ENDBRANCH  40  41
ENDBRANCH  39  40
ENDBRANCH  38  39
ENDBRANCH  36  38
ENDBRANCH   5  34
BRANCH   8  50
ATOM     50  O   UNL     1      11.484  -7.704   7.031  1.00  0.00    -0.245 OA
BRANCH  50  51
ATOM     51  S   UNL     1      11.772  -8.563   8.383  1.00  0.00     0.397 S 
ATOM     52  O   UNL     1      10.682  -9.496   8.560  1.00  0.00    -0.169 OA
ATOM     53  O   UNL     1      12.190  -7.671   9.445  1.00  0.00    -0.169 OA
BRANCH  51  54
ATOM     54  O   UNL     1      13.042  -9.450   7.952  1.00  0.00    -0.264 OA
ATOM     55  H   UNL     1      13.745  -8.838   7.651  1.00  0.00     0.236 HD
ENDBRANCH  51  54
ENDBRANCH  50  51
ENDBRANCH   8  50
TORSDOF 19
ENDMDL
MODEL 30
REMARK VINA RESULT:    -5.869      2.602      3.666
REMARK INTER + INTRA:         -16.213
REMARK INTER:                 -12.483
REMARK INTRA:                  -3.730
REMARK UNBOUND:                -4.340
REMARK SMILES CC[C@@H](C)[C@@H](NC(=O)[C@@H](O)Cc1ccc(O)c(Cl)c1)C(=O)N1[C@H](C(=O)NCCCCN=C(N)N)C[C@H]2CC[C@H](OS(=O)(=O)O)C[C@@H]21
REMARK SMILES IDX 22 1 36 2 46 3 35 4 23 5 45 6 37 7 39 8 38 9 20 10 21 11
REMARK SMILES IDX 5 12 6 13 7 14 8 15 9 17 11 18 12 19 17 20 19 21 15 22 14 23
REMARK SMILES IDX 13 24 18 25 16 26 10 28 3 30 4 31 2 32 1 33 24 34 25 35
REMARK SMILES IDX 26 36 27 38 28 39 29 40 30 41 31 42 32 43 33 44 34 45 40 50
REMARK SMILES IDX 41 51 42 52 43 53 44 54
REMARK H PARENT 6 16 16 27 10 29 26 37 33 46 33 47 34 48 34 49 44 55
ROOT
ATOM      1  N   UNL     1       7.898  -3.583   0.581  1.00  0.00    -0.326 N 
ATOM      2  C   UNL     1       8.222  -1.465   1.557  1.00  0.00     0.014 C 
ATOM      3  C   UNL     1       7.322  -2.704   1.602  1.00  0.00     0.091 C 
ATOM      4  C   UNL     1       8.581  -1.366   0.082  1.00  0.00     0.041 C 
ATOM      5  C   UNL     1       8.905  -2.841  -0.218  1.00  0.00     0.175 C 
ATOM      6  C   UNL     1       7.266  -3.207   3.043  1.00  0.00     0.059 C 
ATOM      7  C   UNL     1       7.556  -0.287   2.240  1.00  0.00     0.008 C 
ATOM      8  C   UNL     1       7.382  -2.086   4.098  1.00  0.00     0.143 C 
ATOM      9  C   UNL     1       6.887  -0.729   3.559  1.00  0.00     0.034 C 
ENDROOT
BRANCH   1  10
ATOM     10  C   UNL     1       7.494  -4.838   0.159  1.00  0.00     0.246 C 
ATOM     11  O   UNL     1       7.825  -5.829   0.819  1.00  0.00    -0.272 OA
BRANCH  10  12
ATOM     12  C   UNL     1       6.599  -4.971  -1.107  1.00  0.00     0.174 C 
BRANCH  12  13
ATOM     13  N   UNL     1       7.430  -5.236  -2.280  1.00  0.00    -0.342 N 
ATOM     14  C   UNL     1       7.340  -6.356  -3.076  1.00  0.00     0.249 C 
ATOM     15  O   UNL     1       6.524  -7.252  -2.902  1.00  0.00    -0.272 OA
ATOM     16  H   UNL     1       8.251  -4.662  -2.456  1.00  0.00     0.164 HD
BRANCH  14  17
ATOM     17  C   UNL     1       8.367  -6.353  -4.228  1.00  0.00     0.207 C 
BRANCH  17  18
ATOM     18  C   UNL     1       8.938  -4.946  -4.433  1.00  0.00     0.077 C 
BRANCH  18  19
ATOM     19  C   UNL     1      10.270  -4.773  -3.739  1.00  0.00    -0.043 A 
ATOM     20  C   UNL     1      12.090  -3.346  -3.007  1.00  0.00     0.083 A 
ATOM     21  C   UNL     1      10.838  -3.496  -3.603  1.00  0.00     0.028 A 
ATOM     22  C   UNL     1      12.783  -4.466  -2.545  1.00  0.00     0.134 A 
ATOM     23  C   UNL     1      12.233  -5.736  -2.674  1.00  0.00     0.048 A 
ATOM     24  C   UNL     1      10.980  -5.890  -3.272  1.00  0.00     0.008 A 
ATOM     25  Cl  UNL     1      12.771  -1.769  -2.848  1.00  0.00    -0.080 Cl
BRANCH  22  26
ATOM     26  O   UNL     1      14.018  -4.370  -1.964  1.00  0.00    -0.506 OA
ATOM     27  H   UNL     1      14.288  -3.435  -2.033  1.00  0.00     0.293 HD
ENDBRANCH  22  26
ENDBRANCH  18  19
ENDBRANCH  17  18
BRANCH  17  28
ATOM     28  O   UNL     1       7.772  -6.809  -5.453  1.00  0.00    -0.383 OA
ATOM     29  H   UNL     1       8.210  -7.664  -5.667  1.00  0.00     0.211 HD
ENDBRANCH  17  28
ENDBRANCH  14  17
ENDBRANCH  12  13
BRANCH  12  30
ATOM     30  C   UNL     1       5.661  -3.750  -1.309  1.00  0.00     0.018 C 
ATOM     31  C   UNL     1       4.199  -4.201  -1.447  1.00  0.00     0.010 C 
BRANCH  30  32
ATOM     32  C   UNL     1       6.057  -2.854  -2.508  1.00  0.00     0.002 C 
ATOM     33  C   UNL     1       5.714  -1.377  -2.359  1.00  0.00     0.004 C 
ENDBRANCH  30  32
ENDBRANCH  12  30
ENDBRANCH  10  12
ENDBRANCH   1  10
BRANCH   5  34
ATOM     34  C   UNL     1      10.344  -3.213   0.227  1.00  0.00     0.242 C 
ATOM     35  O   UNL     1      11.226  -2.368   0.377  1.00  0.00    -0.273 OA
ATOM     36  N   UNL     1      10.577  -4.561   0.390  1.00  0.00    -0.354 N 
ATOM     37  H   UNL     1       9.841  -5.221   0.135  1.00  0.00     0.163 HD
BRANCH  36  38
ATOM     38  C   UNL     1      11.786  -5.068   1.005  1.00  0.00     0.116 C 
BRANCH  38  39
ATOM     39  C   UNL     1      11.536  -6.466   1.566  1.00  0.00     0.023 C 
BRANCH  39  40
ATOM     40  C   UNL     1      12.810  -7.300   1.642  1.00  0.00     0.026 C 
BRANCH  40  41
ATOM     41  C   UNL     1      13.483  -7.388   0.273  1.00  0.00     0.146 C 
BRANCH  41  42
ATOM     42  N   UNL     1      12.902  -8.483  -0.492  1.00  0.00    -0.254 NA
ATOM     43  C   UNL     1      13.533  -9.593  -0.588  1.00  0.00     0.185 C 
ATOM     44  N   UNL     1      14.721  -9.961  -0.072  1.00  0.00    -0.370 N 
ATOM     45  N   UNL     1      12.983 -10.589  -1.301  1.00  0.00    -0.370 N 
ATOM     46  H   UNL     1      15.206 -10.767  -0.426  1.00  0.00     0.159 HD
ATOM     47  H   UNL     1      15.268  -9.331   0.507  1.00  0.00     0.159 HD
ATOM     48  H   UNL     1      12.082 -10.398  -1.717  1.00  0.00     0.159 HD
ATOM     49  H   UNL     1      13.289 -11.543  -1.228  1.00  0.00     0.159 HD
ENDBRANCH  41  42
ENDBRANCH  40  41
ENDBRANCH  39  40
ENDBRANCH  38  39
ENDBRANCH  36  38
ENDBRANCH   5  34
BRANCH   8  50
ATOM     50  O   UNL     1       8.741  -1.941   4.512  1.00  0.00    -0.245 OA
BRANCH  50  51
ATOM     51  S   UNL     1       9.072  -1.404   6.011  1.00  0.00     0.397 S 
ATOM     52  O   UNL     1       7.855  -1.474   6.789  1.00  0.00    -0.169 OA
ATOM     53  O   UNL     1       9.853  -0.187   5.931  1.00  0.00    -0.169 OA
BRANCH  51  54
ATOM     54  O   UNL     1      10.024  -2.568   6.582  1.00  0.00    -0.264 OA
ATOM     55  H   UNL     1      10.609  -2.169   7.258  1.00  0.00     0.236 HD
ENDBRANCH  51  54
ENDBRANCH  50  51
ENDBRANCH   8  50
TORSDOF 19
ENDMDL
MODEL 31
REMARK VINA RESULT:    -5.825      4.241      7.877
REMARK INTER + INTRA:         -16.123
REMARK INTER:                 -12.208
REMARK INTRA:                  -3.916
REMARK UNBOUND:                -4.340
REMARK SMILES CC[C@@H](C)[C@@H](NC(=O)[C@@H](O)Cc1ccc(O)c(Cl)c1)C(=O)N1[C@H](C(=O)NCCCCN=C(N)N)C[C@H]2CC[C@H](OS(=O)(=O)O)C[C@@H]21
REMARK SMILES IDX 22 1 36 2 46 3 35 4 23 5 45 6 37 7 39 8 38 9 20 10 21 11
REMARK SMILES IDX 5 12 6 13 7 14 8 15 9 17 11 18 12 19 17 20 19 21 15 22 14 23
REMARK SMILES IDX 13 24 18 25 16 26 10 28 3 30 4 31 2 32 1 33 24 34 25 35
REMARK SMILES IDX 26 36 27 38 28 39 29 40 30 41 31 42 32 43 33 44 34 45 40 50
REMARK SMILES IDX 41 51 42 52 43 53 44 54
REMARK H PARENT 6 16 16 27 10 29 26 37 33 46 33 47 34 48 34 49 44 55
ROOT
ATOM      1  N   UNL     1       9.994  -5.258   4.360  1.00  0.00    -0.326 N 
ATOM      2  C   UNL     1      11.647  -6.154   5.776  1.00  0.00     0.014 C 
ATOM      3  C   UNL     1      10.377  -6.519   5.001  1.00  0.00     0.091 C 
ATOM      4  C   UNL     1      11.372  -4.724   6.215  1.00  0.00     0.041 C 
ATOM      5  C   UNL     1      10.804  -4.142   4.907  1.00  0.00     0.175 C 
ATOM      6  C   UNL     1      10.684  -7.721   4.110  1.00  0.00     0.059 C 
ATOM      7  C   UNL     1      11.965  -7.205   6.821  1.00  0.00     0.008 C 
ATOM      8  C   UNL     1      11.736  -8.683   4.704  1.00  0.00     0.143 C 
ATOM      9  C   UNL     1      11.771  -8.623   6.244  1.00  0.00     0.034 C 
ENDROOT
BRANCH   1  10
ATOM     10  C   UNL     1       8.912  -4.970   3.545  1.00  0.00     0.246 C 
ATOM     11  O   UNL     1       8.274  -5.900   3.042  1.00  0.00    -0.272 OA
BRANCH  10  12
ATOM     12  C   UNL     1       8.497  -3.487   3.316  1.00  0.00     0.174 C 
BRANCH  12  13
ATOM     13  N   UNL     1       7.192  -3.235   3.924  1.00  0.00    -0.342 N 
ATOM     14  C   UNL     1       6.993  -2.724   5.187  1.00  0.00     0.249 C 
ATOM     15  O   UNL     1       7.902  -2.394   5.940  1.00  0.00    -0.272 OA
ATOM     16  H   UNL     1       6.352  -3.603   3.485  1.00  0.00     0.164 HD
BRANCH  14  17
ATOM     17  C   UNL     1       5.499  -2.590   5.548  1.00  0.00     0.207 C 
BRANCH  17  18
ATOM     18  C   UNL     1       4.985  -1.191   5.192  1.00  0.00     0.077 C 
BRANCH  18  19
ATOM     19  C   UNL     1       4.108  -1.211   3.961  1.00  0.00    -0.043 A 
ATOM     20  C   UNL     1       3.840  -0.932   1.566  1.00  0.00     0.083 A 
ATOM     21  C   UNL     1       4.660  -0.963   2.694  1.00  0.00     0.028 A 
ATOM     22  C   UNL     1       2.468  -1.148   1.694  1.00  0.00     0.134 A 
ATOM     23  C   UNL     1       1.908  -1.395   2.942  1.00  0.00     0.048 A 
ATOM     24  C   UNL     1       2.726  -1.424   4.074  1.00  0.00     0.008 A 
ATOM     25  Cl  UNL     1       4.537  -0.626   0.018  1.00  0.00    -0.080 Cl
BRANCH  22  26
ATOM     26  O   UNL     1       1.622  -1.117   0.618  1.00  0.00    -0.506 OA
ATOM     27  H   UNL     1       0.716  -1.186   0.972  1.00  0.00     0.293 HD
ENDBRANCH  22  26
ENDBRANCH  18  19
ENDBRANCH  17  18
BRANCH  17  28
ATOM     28  O   UNL     1       5.280  -2.837   6.946  1.00  0.00    -0.383 OA
ATOM     29  H   UNL     1       4.356  -2.552   7.131  1.00  0.00     0.211 HD
ENDBRANCH  17  28
ENDBRANCH  14  17
ENDBRANCH  12  13
BRANCH  12  30
ATOM     30  C   UNL     1       8.544  -3.076   1.820  1.00  0.00     0.018 C 
ATOM     31  C   UNL     1       9.360  -1.787   1.633  1.00  0.00     0.010 C 
BRANCH  30  32
ATOM     32  C   UNL     1       7.145  -2.917   1.176  1.00  0.00     0.002 C 
ATOM     33  C   UNL     1       6.646  -4.127   0.397  1.00  0.00     0.004 C 
ENDBRANCH  30  32
ENDBRANCH  12  30
ENDBRANCH  10  12
ENDBRANCH   1  10
BRANCH   5  34
ATOM     34  C   UNL     1      11.933  -3.745   3.919  1.00  0.00     0.242 C 
ATOM     35  O   UNL     1      12.069  -4.288   2.823  1.00  0.00    -0.273 OA
ATOM     36  N   UNL     1      12.803  -2.782   4.380  1.00  0.00    -0.354 N 
ATOM     37  H   UNL     1      12.710  -2.457   5.343  1.00  0.00     0.163 HD
BRANCH  36  38
ATOM     38  C   UNL     1      13.775  -2.143   3.518  1.00  0.00     0.116 C 
BRANCH  38  39
ATOM     39  C   UNL     1      13.880  -0.660   3.866  1.00  0.00     0.023 C 
BRANCH  39  40
ATOM     40  C   UNL     1      12.518   0.023   3.925  1.00  0.00     0.026 C 
BRANCH  40  41
ATOM     41  C   UNL     1      12.270   0.619   5.311  1.00  0.00     0.146 C 
BRANCH  41  42
ATOM     42  N   UNL     1      11.961  -0.446   6.257  1.00  0.00    -0.254 NA
ATOM     43  C   UNL     1      10.765  -0.581   6.691  1.00  0.00     0.185 C 
ATOM     44  N   UNL     1       9.658   0.133   6.413  1.00  0.00    -0.370 N 
ATOM     45  N   UNL     1      10.502  -1.566   7.565  1.00  0.00    -0.370 N 
ATOM     46  H   UNL     1       8.848   0.073   7.005  1.00  0.00     0.159 HD
ATOM     47  H   UNL     1       9.675   0.909   5.758  1.00  0.00     0.159 HD
ATOM     48  H   UNL     1      11.281  -2.157   7.821  1.00  0.00     0.159 HD
ATOM     49  H   UNL     1       9.570  -1.882   7.764  1.00  0.00     0.159 HD
ENDBRANCH  41  42
ENDBRANCH  40  41
ENDBRANCH  39  40
ENDBRANCH  38  39
ENDBRANCH  36  38
ENDBRANCH   5  34
BRANCH   8  50
ATOM     50  O   UNL     1      13.034  -8.355   4.207  1.00  0.00    -0.245 OA
BRANCH  50  51
ATOM     51  S   UNL     1      13.855  -9.447   3.325  1.00  0.00     0.397 S 
ATOM     52  O   UNL     1      14.301 -10.496   4.214  1.00  0.00    -0.169 OA
ATOM     53  O   UNL     1      14.773  -8.763   2.437  1.00  0.00    -0.169 OA
BRANCH  51  54
ATOM     54  O   UNL     1      12.690 -10.098   2.428  1.00  0.00    -0.264 OA
ATOM     55  H   UNL     1      12.271  -9.377   1.915  1.00  0.00     0.236 HD
ENDBRANCH  51  54
ENDBRANCH  50  51
ENDBRANCH   8  50
TORSDOF 19
ENDMDL
MODEL 32
REMARK VINA RESULT:    -5.823      2.870      3.758
REMARK INTER + INTRA:         -16.121
REMARK INTER:                 -12.884
REMARK INTRA:                  -3.237
REMARK UNBOUND:                -4.340
REMARK SMILES CC[C@@H](C)[C@@H](NC(=O)[C@@H](O)Cc1ccc(O)c(Cl)c1)C(=O)N1[C@H](C(=O)NCCCCN=C(N)N)C[C@H]2CC[C@H](OS(=O)(=O)O)C[C@@H]21
REMARK SMILES IDX 22 1 36 2 46 3 35 4 23 5 45 6 37 7 39 8 38 9 20 10 21 11
REMARK SMILES IDX 5 12 6 13 7 14 8 15 9 17 11 18 12 19 17 20 19 21 15 22 14 23
REMARK SMILES IDX 13 24 18 25 16 26 10 28 3 30 4 31 2 32 1 33 24 34 25 35
REMARK SMILES IDX 26 36 27 38 28 39 29 40 30 41 31 42 32 43 33 44 34 45 40 50
REMARK SMILES IDX 41 51 42 52 43 53 44 54
REMARK H PARENT 6 16 16 27 10 29 26 37 33 46 33 47 34 48 34 49 44 55
ROOT
ATOM      1  N   UNL     1       7.004  -2.319   0.674  1.00  0.00    -0.326 N 
ATOM      2  C   UNL     1       5.998  -0.514   1.801  1.00  0.00     0.014 C 
ATOM      3  C   UNL     1       6.118  -2.040   1.808  1.00  0.00     0.091 C 
ATOM      4  C   UNL     1       6.040  -0.181   0.318  1.00  0.00     0.041 C 
ATOM      5  C   UNL     1       7.199  -1.089  -0.132  1.00  0.00     0.175 C 
ATOM      6  C   UNL     1       6.563  -2.483   3.201  1.00  0.00     0.059 C 
ATOM      7  C   UNL     1       4.813  -0.060   2.631  1.00  0.00     0.008 C 
ATOM      8  C   UNL     1       6.049  -1.572   4.336  1.00  0.00     0.143 C 
ATOM      9  C   UNL     1       4.740  -0.852   3.954  1.00  0.00     0.034 C 
ENDROOT
BRANCH   1  10
ATOM     10  C   UNL     1       7.458  -3.530   0.179  1.00  0.00     0.246 C 
ATOM     11  O   UNL     1       8.496  -4.017   0.639  1.00  0.00    -0.272 OA
BRANCH  10  12
ATOM     12  C   UNL     1       6.631  -4.270  -0.912  1.00  0.00     0.174 C 
BRANCH  12  13
ATOM     13  N   UNL     1       7.522  -4.769  -1.959  1.00  0.00    -0.342 N 
ATOM     14  C   UNL     1       7.338  -5.939  -2.661  1.00  0.00     0.249 C 
ATOM     15  O   UNL     1       6.381  -6.687  -2.503  1.00  0.00    -0.272 OA
ATOM     16  H   UNL     1       8.434  -4.340  -2.092  1.00  0.00     0.164 HD
BRANCH  14  17
ATOM     17  C   UNL     1       8.460  -6.200  -3.689  1.00  0.00     0.207 C 
BRANCH  17  18
ATOM     18  C   UNL     1       9.252  -4.915  -3.954  1.00  0.00     0.077 C 
BRANCH  18  19
ATOM     19  C   UNL     1      10.718  -5.080  -3.622  1.00  0.00    -0.043 A 
ATOM     20  C   UNL     1      12.971  -4.184  -3.550  1.00  0.00     0.083 A 
ATOM     21  C   UNL     1      11.611  -4.014  -3.811  1.00  0.00     0.028 A 
ATOM     22  C   UNL     1      13.447  -5.417  -3.101  1.00  0.00     0.134 A 
ATOM     23  C   UNL     1      12.573  -6.481  -2.909  1.00  0.00     0.048 A 
ATOM     24  C   UNL     1      11.212  -6.314  -3.171  1.00  0.00     0.008 A 
ATOM     25  Cl  UNL     1      14.053  -2.863  -3.788  1.00  0.00    -0.080 Cl
BRANCH  22  26
ATOM     26  O   UNL     1      14.773  -5.635  -2.841  1.00  0.00    -0.506 OA
ATOM     27  H   UNL     1      15.179  -4.759  -2.703  1.00  0.00     0.293 HD
ENDBRANCH  22  26
ENDBRANCH  18  19
ENDBRANCH  17  18
BRANCH  17  28
ATOM     28  O   UNL     1       7.924  -6.693  -4.927  1.00  0.00    -0.383 OA
ATOM     29  H   UNL     1       7.012  -6.328  -4.993  1.00  0.00     0.211 HD
ENDBRANCH  17  28
ENDBRANCH  14  17
ENDBRANCH  12  13
BRANCH  12  30
ATOM     30  C   UNL     1       5.476  -3.403  -1.481  1.00  0.00     0.018 C 
ATOM     31  C   UNL     1       4.149  -4.178  -1.459  1.00  0.00     0.010 C 
BRANCH  30  32
ATOM     32  C   UNL     1       5.750  -2.858  -2.904  1.00  0.00     0.002 C 
ATOM     33  C   UNL     1       4.827  -1.735  -3.360  1.00  0.00     0.004 C 
ENDBRANCH  30  32
ENDBRANCH  12  30
ENDBRANCH  10  12
ENDBRANCH   1  10
BRANCH   5  34
ATOM     34  C   UNL     1       8.579  -0.446   0.170  1.00  0.00     0.242 C 
ATOM     35  O   UNL     1       8.798   0.753  -0.001  1.00  0.00    -0.273 OA
ATOM     36  N   UNL     1       9.554  -1.322   0.591  1.00  0.00    -0.354 N 
ATOM     37  H   UNL     1       9.347  -2.322   0.598  1.00  0.00     0.163 HD
BRANCH  36  38
ATOM     38  C   UNL     1      10.825  -0.870   1.119  1.00  0.00     0.116 C 
BRANCH  38  39
ATOM     39  C   UNL     1      11.178  -1.666   2.373  1.00  0.00     0.023 C 
BRANCH  39  40
ATOM     40  C   UNL     1       9.978  -1.867   3.293  1.00  0.00     0.026 C 
BRANCH  40  41
ATOM     41  C   UNL     1      10.412  -2.479   4.624  1.00  0.00     0.146 C 
BRANCH  41  42
ATOM     42  N   UNL     1      11.095  -1.475   5.429  1.00  0.00    -0.254 NA
ATOM     43  C   UNL     1      11.990  -1.838   6.269  1.00  0.00     0.185 C 
ATOM     44  N   UNL     1      12.450  -3.067   6.566  1.00  0.00    -0.370 N 
ATOM     45  N   UNL     1      12.606  -0.897   7.003  1.00  0.00    -0.370 N 
ATOM     46  H   UNL     1      12.972  -3.229   7.410  1.00  0.00     0.159 HD
ATOM     47  H   UNL     1      12.102  -3.895   6.093  1.00  0.00     0.159 HD
ATOM     48  H   UNL     1      12.324   0.059   6.835  1.00  0.00     0.159 HD
ATOM     49  H   UNL     1      13.464  -1.068   7.497  1.00  0.00     0.159 HD
ENDBRANCH  41  42
ENDBRANCH  40  41
ENDBRANCH  39  40
ENDBRANCH  38  39
ENDBRANCH  36  38
ENDBRANCH   5  34
BRANCH   8  50
ATOM     50  O   UNL     1       7.032  -0.586   4.657  1.00  0.00    -0.245 OA
BRANCH  50  51
ATOM     51  S   UNL     1       7.394  -0.290   6.214  1.00  0.00     0.397 S 
ATOM     52  O   UNL     1       7.581  -1.560   6.879  1.00  0.00    -0.169 OA
ATOM     53  O   UNL     1       6.494   0.717   6.739  1.00  0.00    -0.169 OA
BRANCH  51  54
ATOM     54  O   UNL     1       8.858   0.365   6.100  1.00  0.00    -0.264 OA
ATOM     55  H   UNL     1       8.982   0.955   6.871  1.00  0.00     0.236 HD
ENDBRANCH  51  54
ENDBRANCH  50  51
ENDBRANCH   8  50
TORSDOF 19
ENDMDL
MODEL 33
REMARK VINA RESULT:    -5.819      5.726      8.607
REMARK INTER + INTRA:         -16.113
REMARK INTER:                 -12.126
REMARK INTRA:                  -3.987
REMARK UNBOUND:                -4.340
REMARK SMILES CC[C@@H](C)[C@@H](NC(=O)[C@@H](O)Cc1ccc(O)c(Cl)c1)C(=O)N1[C@H](C(=O)NCCCCN=C(N)N)C[C@H]2CC[C@H](OS(=O)(=O)O)C[C@@H]21
REMARK SMILES IDX 22 1 36 2 46 3 35 4 23 5 45 6 37 7 39 8 38 9 20 10 21 11
REMARK SMILES IDX 5 12 6 13 7 14 8 15 9 17 11 18 12 19 17 20 19 21 15 22 14 23
REMARK SMILES IDX 13 24 18 25 16 26 10 28 3 30 4 31 2 32 1 33 24 34 25 35
REMARK SMILES IDX 26 36 27 38 28 39 29 40 30 41 31 42 32 43 33 44 34 45 40 50
REMARK SMILES IDX 41 51 42 52 43 53 44 54
REMARK H PARENT 6 16 16 27 10 29 26 37 33 46 33 47 34 48 34 49 44 55
ROOT
ATOM      1  N   UNL     1       3.392  -0.466   4.570  1.00  0.00    -0.326 N 
ATOM      2  C   UNL     1       1.850   1.312   4.655  1.00  0.00     0.014 C 
ATOM      3  C   UNL     1       2.992   0.650   5.433  1.00  0.00     0.091 C 
ATOM      4  C   UNL     1       1.170   0.127   3.986  1.00  0.00     0.041 C 
ATOM      5  C   UNL     1       2.403  -0.643   3.478  1.00  0.00     0.175 C 
ATOM      6  C   UNL     1       4.033   1.718   5.765  1.00  0.00     0.059 C 
ATOM      7  C   UNL     1       1.040   2.224   5.555  1.00  0.00     0.008 C 
ATOM      8  C   UNL     1       3.433   3.124   5.983  1.00  0.00     0.143 C 
ATOM      9  C   UNL     1       1.968   3.061   6.460  1.00  0.00     0.034 C 
ENDROOT
BRANCH   1  10
ATOM     10  C   UNL     1       4.366  -1.430   4.761  1.00  0.00     0.246 C 
ATOM     11  O   UNL     1       4.025  -2.606   4.923  1.00  0.00    -0.272 OA
BRANCH  10  12
ATOM     12  C   UNL     1       5.868  -1.021   4.727  1.00  0.00     0.174 C 
BRANCH  12  13
ATOM     13  N   UNL     1       6.579  -1.819   3.728  1.00  0.00    -0.342 N 
ATOM     14  C   UNL     1       7.505  -1.326   2.837  1.00  0.00     0.249 C 
ATOM     15  O   UNL     1       7.861  -0.154   2.801  1.00  0.00    -0.272 OA
ATOM     16  H   UNL     1       6.276  -2.770   3.535  1.00  0.00     0.164 HD
BRANCH  14  17
ATOM     17  C   UNL     1       8.067  -2.415   1.898  1.00  0.00     0.207 C 
BRANCH  17  18
ATOM     18  C   UNL     1       6.941  -3.328   1.403  1.00  0.00     0.077 C 
BRANCH  18  19
ATOM     19  C   UNL     1       6.927  -3.437  -0.105  1.00  0.00    -0.043 A 
ATOM     20  C   UNL     1       5.768  -3.990  -2.163  1.00  0.00     0.083 A 
ATOM     21  C   UNL     1       5.763  -3.843  -0.775  1.00  0.00     0.028 A 
ATOM     22  C   UNL     1       6.933  -3.734  -2.888  1.00  0.00     0.134 A 
ATOM     23  C   UNL     1       8.093  -3.332  -2.236  1.00  0.00     0.048 A 
ATOM     24  C   UNL     1       8.091  -3.185  -0.847  1.00  0.00     0.008 A 
ATOM     25  Cl  UNL     1       4.328  -4.490  -2.969  1.00  0.00    -0.080 Cl
BRANCH  22  26
ATOM     26  O   UNL     1       6.990  -3.875  -4.248  1.00  0.00    -0.506 OA
ATOM     27  H   UNL     1       7.069  -4.830  -4.428  1.00  0.00     0.293 HD
ENDBRANCH  22  26
ENDBRANCH  18  19
ENDBRANCH  17  18
BRANCH  17  28
ATOM     28  O   UNL     1       9.065  -3.206   2.563  1.00  0.00    -0.383 OA
ATOM     29  H   UNL     1       9.930  -2.793   2.344  1.00  0.00     0.211 HD
ENDBRANCH  17  28
ENDBRANCH  14  17
ENDBRANCH  12  13
BRANCH  12  30
ATOM     30  C   UNL     1       6.540  -1.086   6.125  1.00  0.00     0.018 C 
ATOM     31  C   UNL     1       7.333   0.199   6.410  1.00  0.00     0.010 C 
BRANCH  30  32
ATOM     32  C   UNL     1       7.446  -2.325   6.322  1.00  0.00     0.002 C 
ATOM     33  C   UNL     1       6.743  -3.569   6.849  1.00  0.00     0.004 C 
ENDBRANCH  30  32
ENDBRANCH  12  30
ENDBRANCH  10  12
ENDBRANCH   1  10
BRANCH   5  34
ATOM     34  C   UNL     1       2.940  -0.051   2.148  1.00  0.00     0.242 C 
ATOM     35  O   UNL     1       3.344   1.108   2.060  1.00  0.00    -0.273 OA
ATOM     36  N   UNL     1       2.879  -0.898   1.064  1.00  0.00    -0.354 N 
ATOM     37  H   UNL     1       2.423  -1.804   1.173  1.00  0.00     0.163 HD
BRANCH  36  38
ATOM     38  C   UNL     1       3.529  -0.591  -0.194  1.00  0.00     0.116 C 
BRANCH  38  39
ATOM     39  C   UNL     1       5.032  -0.435   0.024  1.00  0.00     0.023 C 
BRANCH  39  40
ATOM     40  C   UNL     1       5.752   0.073  -1.221  1.00  0.00     0.026 C 
BRANCH  40  41
ATOM     41  C   UNL     1       6.626   1.281  -0.887  1.00  0.00     0.146 C 
BRANCH  41  42
ATOM     42  N   UNL     1       5.973   2.095   0.130  1.00  0.00    -0.254 NA
ATOM     43  C   UNL     1       6.676   2.644   1.049  1.00  0.00     0.185 C 
ATOM     44  N   UNL     1       8.004   2.606   1.262  1.00  0.00    -0.370 N 
ATOM     45  N   UNL     1       6.054   3.387   1.980  1.00  0.00    -0.370 N 
ATOM     46  H   UNL     1       8.388   2.876   2.151  1.00  0.00     0.159 HD
ATOM     47  H   UNL     1       8.629   2.099   0.643  1.00  0.00     0.159 HD
ATOM     48  H   UNL     1       5.052   3.475   1.887  1.00  0.00     0.159 HD
ATOM     49  H   UNL     1       6.542   4.031   2.576  1.00  0.00     0.159 HD
ENDBRANCH  41  42
ENDBRANCH  40  41
ENDBRANCH  39  40
ENDBRANCH  38  39
ENDBRANCH  36  38
ENDBRANCH   5  34
BRANCH   8  50
ATOM     50  O   UNL     1       3.482   3.872   4.767  1.00  0.00    -0.245 OA
BRANCH  50  51
ATOM     51  S   UNL     1       4.316   5.267   4.716  1.00  0.00     0.397 S 
ATOM     52  O   UNL     1       5.725   4.946   4.747  1.00  0.00    -0.169 OA
ATOM     53  O   UNL     1       3.732   6.217   5.641  1.00  0.00    -0.169 OA
BRANCH  51  54
ATOM     54  O   UNL     1       4.017   5.782   3.223  1.00  0.00    -0.264 OA
ATOM     55  H   UNL     1       4.375   5.117   2.600  1.00  0.00     0.236 HD
ENDBRANCH  51  54
ENDBRANCH  50  51
ENDBRANCH   8  50
TORSDOF 19
ENDMDL
MODEL 34
REMARK VINA RESULT:    -5.795      3.114      5.847
REMARK INTER + INTRA:         -16.064
REMARK INTER:                 -12.249
REMARK INTRA:                  -3.815
REMARK UNBOUND:                -4.340
REMARK SMILES CC[C@@H](C)[C@@H](NC(=O)[C@@H](O)Cc1ccc(O)c(Cl)c1)C(=O)N1[C@H](C(=O)NCCCCN=C(N)N)C[C@H]2CC[C@H](OS(=O)(=O)O)C[C@@H]21
REMARK SMILES IDX 22 1 36 2 46 3 35 4 23 5 45 6 37 7 39 8 38 9 20 10 21 11
REMARK SMILES IDX 5 12 6 13 7 14 8 15 9 17 11 18 12 19 17 20 19 21 15 22 14 23
REMARK SMILES IDX 13 24 18 25 16 26 10 28 3 30 4 31 2 32 1 33 24 34 25 35
REMARK SMILES IDX 26 36 27 38 28 39 29 40 30 41 31 42 32 43 33 44 34 45 40 50
REMARK SMILES IDX 41 51 42 52 43 53 44 54
REMARK H PARENT 6 16 16 27 10 29 26 37 33 46 33 47 34 48 34 49 44 55
ROOT
ATOM      1  N   UNL     1      10.197  -4.237   3.565  1.00  0.00    -0.326 N 
ATOM      2  C   UNL     1      11.907  -4.079   5.176  1.00  0.00     0.014 C 
ATOM      3  C   UNL     1      11.385  -3.440   3.886  1.00  0.00     0.091 C 
ATOM      4  C   UNL     1      11.579  -5.551   4.977  1.00  0.00     0.041 C 
ATOM      5  C   UNL     1      10.143  -5.439   4.434  1.00  0.00     0.175 C 
ATOM      6  C   UNL     1      11.208  -1.942   4.127  1.00  0.00     0.059 C 
ATOM      7  C   UNL     1      13.341  -3.666   5.443  1.00  0.00     0.008 C 
ATOM      8  C   UNL     1      12.220  -1.350   5.131  1.00  0.00     0.143 C 
ATOM      9  C   UNL     1      13.532  -2.158   5.175  1.00  0.00     0.034 C 
ENDROOT
BRANCH   1  10
ATOM     10  C   UNL     1       9.323  -4.137   2.496  1.00  0.00     0.246 C 
ATOM     11  O   UNL     1       8.751  -5.154   2.090  1.00  0.00    -0.272 OA
BRANCH  10  12
ATOM     12  C   UNL     1       9.047  -2.744   1.859  1.00  0.00     0.174 C 
BRANCH  12  13
ATOM     13  N   UNL     1       7.623  -2.606   1.560  1.00  0.00    -0.342 N 
ATOM     14  C   UNL     1       6.813  -1.592   2.020  1.00  0.00     0.249 C 
ATOM     15  O   UNL     1       7.209  -0.666   2.717  1.00  0.00    -0.272 OA
ATOM     16  H   UNL     1       7.122  -3.377   1.125  1.00  0.00     0.164 HD
BRANCH  14  17
ATOM     17  C   UNL     1       5.352  -1.734   1.544  1.00  0.00     0.207 C 
BRANCH  17  18
ATOM     18  C   UNL     1       5.193  -1.172   0.127  1.00  0.00     0.077 C 
BRANCH  18  19
ATOM     19  C   UNL     1       5.168  -2.270  -0.913  1.00  0.00    -0.043 A 
ATOM     20  C   UNL     1       6.088  -3.296  -2.909  1.00  0.00     0.083 A 
ATOM     21  C   UNL     1       6.143  -2.311  -1.922  1.00  0.00     0.028 A 
ATOM     22  C   UNL     1       5.064  -4.243  -2.895  1.00  0.00     0.134 A 
ATOM     23  C   UNL     1       4.093  -4.214  -1.900  1.00  0.00     0.048 A 
ATOM     24  C   UNL     1       4.143  -3.228  -0.912  1.00  0.00     0.008 A 
ATOM     25  Cl  UNL     1       7.294  -3.329  -4.141  1.00  0.00    -0.080 Cl
BRANCH  22  26
ATOM     26  O   UNL     1       4.963  -5.221  -3.847  1.00  0.00    -0.506 OA
ATOM     27  H   UNL     1       4.271  -5.838  -3.543  1.00  0.00     0.293 HD
ENDBRANCH  22  26
ENDBRANCH  18  19
ENDBRANCH  17  18
BRANCH  17  28
ATOM     28  O   UNL     1       4.450  -1.051   2.431  1.00  0.00    -0.383 OA
ATOM     29  H   UNL     1       4.703  -1.328   3.341  1.00  0.00     0.211 HD
ENDBRANCH  17  28
ENDBRANCH  14  17
ENDBRANCH  12  13
BRANCH  12  30
ATOM     30  C   UNL     1       9.943  -2.462   0.622  1.00  0.00     0.018 C 
ATOM     31  C   UNL     1      10.193  -0.955   0.461  1.00  0.00     0.010 C 
BRANCH  30  32
ATOM     32  C   UNL     1       9.386  -3.053  -0.696  1.00  0.00     0.002 C 
ATOM     33  C   UNL     1      10.125  -4.275  -1.225  1.00  0.00     0.004 C 
ENDBRANCH  30  32
ENDBRANCH  12  30
ENDBRANCH  10  12
ENDBRANCH   1  10
BRANCH   5  34
ATOM     34  C   UNL     1       9.112  -5.244   5.578  1.00  0.00     0.242 C 
ATOM     35  O   UNL     1       8.886  -6.118   6.415  1.00  0.00    -0.273 OA
ATOM     36  N   UNL     1       8.433  -4.047   5.557  1.00  0.00    -0.354 N 
ATOM     37  H   UNL     1       8.578  -3.413   4.769  1.00  0.00     0.163 HD
BRANCH  36  38
ATOM     38  C   UNL     1       7.600  -3.611   6.659  1.00  0.00     0.116 C 
BRANCH  38  39
ATOM     39  C   UNL     1       6.887  -2.313   6.287  1.00  0.00     0.023 C 
BRANCH  39  40
ATOM     40  C   UNL     1       7.850  -1.139   6.147  1.00  0.00     0.026 C 
BRANCH  40  41
ATOM     41  C   UNL     1       7.117   0.190   6.336  1.00  0.00     0.146 C 
BRANCH  41  42
ATOM     42  N   UNL     1       5.679  -0.026   6.256  1.00  0.00    -0.254 NA
ATOM     43  C   UNL     1       5.015   0.481   5.286  1.00  0.00     0.185 C 
ATOM     44  N   UNL     1       5.434   1.230   4.249  1.00  0.00    -0.370 N 
ATOM     45  N   UNL     1       3.689   0.274   5.233  1.00  0.00    -0.370 N 
ATOM     46  H   UNL     1       4.778   1.761   3.702  1.00  0.00     0.159 HD
ATOM     47  H   UNL     1       6.412   1.471   4.127  1.00  0.00     0.159 HD
ATOM     48  H   UNL     1       3.293  -0.290   5.973  1.00  0.00     0.159 HD
ATOM     49  H   UNL     1       3.147   0.428   4.401  1.00  0.00     0.159 HD
ENDBRANCH  41  42
ENDBRANCH  40  41
ENDBRANCH  39  40
ENDBRANCH  38  39
ENDBRANCH  36  38
ENDBRANCH   5  34
BRANCH   8  50
ATOM     50  O   UNL     1      11.656  -1.329   6.442  1.00  0.00    -0.245 OA
BRANCH  50  51
ATOM     51  S   UNL     1      11.779   0.016   7.349  1.00  0.00     0.397 S 
ATOM     52  O   UNL     1      10.589   0.116   8.162  1.00  0.00    -0.169 OA
ATOM     53  O   UNL     1      12.232   1.117   6.525  1.00  0.00    -0.169 OA
BRANCH  51  54
ATOM     54  O   UNL     1      12.969  -0.369   8.360  1.00  0.00    -0.264 OA
ATOM     55  H   UNL     1      13.126   0.401   8.943  1.00  0.00     0.236 HD
ENDBRANCH  51  54
ENDBRANCH  50  51
ENDBRANCH   8  50
TORSDOF 19
ENDMDL
MODEL 35
REMARK VINA RESULT:    -5.773      2.854      3.774
REMARK INTER + INTRA:         -16.020
REMARK INTER:                 -12.814
REMARK INTRA:                  -3.206
REMARK UNBOUND:                -4.340
REMARK SMILES CC[C@@H](C)[C@@H](NC(=O)[C@@H](O)Cc1ccc(O)c(Cl)c1)C(=O)N1[C@H](C(=O)NCCCCN=C(N)N)C[C@H]2CC[C@H](OS(=O)(=O)O)C[C@@H]21
REMARK SMILES IDX 22 1 36 2 46 3 35 4 23 5 45 6 37 7 39 8 38 9 20 10 21 11
REMARK SMILES IDX 5 12 6 13 7 14 8 15 9 17 11 18 12 19 17 20 19 21 15 22 14 23
REMARK SMILES IDX 13 24 18 25 16 26 10 28 3 30 4 31 2 32 1 33 24 34 25 35
REMARK SMILES IDX 26 36 27 38 28 39 29 40 30 41 31 42 32 43 33 44 34 45 40 50
REMARK SMILES IDX 41 51 42 52 43 53 44 54
REMARK H PARENT 6 16 16 27 10 29 26 37 33 46 33 47 34 48 34 49 44 55
ROOT
ATOM      1  N   UNL     1       6.163  -2.707  -0.447  1.00  0.00    -0.326 N 
ATOM      2  C   UNL     1       7.099  -1.312   1.203  1.00  0.00     0.014 C 
ATOM      3  C   UNL     1       5.866  -1.488   0.312  1.00  0.00     0.091 C 
ATOM      4  C   UNL     1       8.227  -1.822   0.320  1.00  0.00     0.041 C 
ATOM      5  C   UNL     1       7.578  -3.102  -0.239  1.00  0.00     0.175 C 
ATOM      6  C   UNL     1       4.623  -1.472   1.199  1.00  0.00     0.059 C 
ATOM      7  C   UNL     1       7.169   0.096   1.760  1.00  0.00     0.008 C 
ATOM      8  C   UNL     1       4.763  -0.578   2.450  1.00  0.00     0.143 C 
ATOM      9  C   UNL     1       5.777   0.563   2.235  1.00  0.00     0.034 C 
ENDROOT
BRANCH   1  10
ATOM     10  C   UNL     1       5.420  -3.347  -1.423  1.00  0.00     0.246 C 
ATOM     11  O   UNL     1       4.431  -4.009  -1.089  1.00  0.00    -0.272 OA
BRANCH  10  12
ATOM     12  C   UNL     1       5.819  -3.187  -2.919  1.00  0.00     0.174 C 
BRANCH  12  13
ATOM     13  N   UNL     1       6.894  -4.121  -3.251  1.00  0.00    -0.342 N 
ATOM     14  C   UNL     1       6.717  -5.355  -3.835  1.00  0.00     0.249 C 
ATOM     15  O   UNL     1       5.627  -5.801  -4.170  1.00  0.00    -0.272 OA
ATOM     16  H   UNL     1       7.832  -3.958  -2.892  1.00  0.00     0.164 HD
BRANCH  14  17
ATOM     17  C   UNL     1       8.046  -6.112  -4.043  1.00  0.00     0.207 C 
BRANCH  17  18
ATOM     18  C   UNL     1       9.210  -5.125  -4.173  1.00  0.00     0.077 C 
BRANCH  18  19
ATOM     19  C   UNL     1      10.240  -5.322  -3.083  1.00  0.00    -0.043 A 
ATOM     20  C   UNL     1      12.064  -6.599  -2.121  1.00  0.00     0.083 A 
ATOM     21  C   UNL     1      11.148  -6.391  -3.152  1.00  0.00     0.028 A 
ATOM     22  C   UNL     1      12.078  -5.746  -1.016  1.00  0.00     0.134 A 
ATOM     23  C   UNL     1      11.185  -4.685  -0.935  1.00  0.00     0.048 A 
ATOM     24  C   UNL     1      10.265  -4.474  -1.965  1.00  0.00     0.008 A 
ATOM     25  Cl  UNL     1      13.171  -7.917  -2.223  1.00  0.00    -0.080 Cl
BRANCH  22  26
ATOM     26  O   UNL     1      12.951  -5.918   0.024  1.00  0.00    -0.506 OA
ATOM     27  H   UNL     1      13.843  -5.739  -0.326  1.00  0.00     0.293 HD
ENDBRANCH  22  26
ENDBRANCH  18  19
ENDBRANCH  17  18
BRANCH  17  28
ATOM     28  O   UNL     1       7.991  -6.942  -5.215  1.00  0.00    -0.383 OA
ATOM     29  H   UNL     1       8.160  -6.344  -5.979  1.00  0.00     0.211 HD
ENDBRANCH  17  28
ENDBRANCH  14  17
ENDBRANCH  12  13
BRANCH  12  30
ATOM     30  C   UNL     1       6.170  -1.722  -3.293  1.00  0.00     0.018 C 
ATOM     31  C   UNL     1       4.934  -0.984  -3.832  1.00  0.00     0.010 C 
BRANCH  30  32
ATOM     32  C   UNL     1       7.342  -1.600  -4.297  1.00  0.00     0.002 C 
ATOM     33  C   UNL     1       7.752  -0.177  -4.650  1.00  0.00     0.004 C 
ENDBRANCH  30  32
ENDBRANCH  12  30
ENDBRANCH  10  12
ENDBRANCH   1  10
BRANCH   5  34
ATOM     34  C   UNL     1       7.678  -4.280   0.768  1.00  0.00     0.242 C 
ATOM     35  O   UNL     1       6.861  -5.201   0.785  1.00  0.00    -0.273 OA
ATOM     36  N   UNL     1       8.712  -4.191   1.672  1.00  0.00    -0.354 N 
ATOM     37  H   UNL     1       9.283  -3.345   1.685  1.00  0.00     0.163 HD
BRANCH  36  38
ATOM     38  C   UNL     1       9.082  -5.295   2.534  1.00  0.00     0.116 C 
BRANCH  38  39
ATOM     39  C   UNL     1       8.750  -4.953   3.985  1.00  0.00     0.023 C 
BRANCH  39  40
ATOM     40  C   UNL     1       7.954  -3.659   4.111  1.00  0.00     0.026 C 
BRANCH  40  41
ATOM     41  C   UNL     1       8.741  -2.613   4.902  1.00  0.00     0.146 C 
BRANCH  41  42
ATOM     42  N   UNL     1      10.084  -3.109   5.172  1.00  0.00    -0.254 NA
ATOM     43  C   UNL     1      10.690  -2.746   6.240  1.00  0.00     0.185 C 
ATOM     44  N   UNL     1      10.284  -1.933   7.231  1.00  0.00    -0.370 N 
ATOM     45  N   UNL     1      11.929  -3.211   6.469  1.00  0.00    -0.370 N 
ATOM     46  H   UNL     1      10.947  -1.544   7.880  1.00  0.00     0.159 HD
ATOM     47  H   UNL     1       9.364  -1.503   7.225  1.00  0.00     0.159 HD
ATOM     48  H   UNL     1      12.308  -3.839   5.773  1.00  0.00     0.159 HD
ATOM     49  H   UNL     1      12.368  -3.169   7.371  1.00  0.00     0.159 HD
ENDBRANCH  41  42
ENDBRANCH  40  41
ENDBRANCH  39  40
ENDBRANCH  38  39
ENDBRANCH  36  38
ENDBRANCH   5  34
BRANCH   8  50
ATOM     50  O   UNL     1       5.190  -1.360   3.566  1.00  0.00    -0.245 OA
BRANCH  50  51
ATOM     51  S   UNL     1       4.132  -1.715   4.749  1.00  0.00     0.397 S 
ATOM     52  O   UNL     1       4.641  -2.856   5.476  1.00  0.00    -0.169 OA
ATOM     53  O   UNL     1       2.784  -1.692   4.219  1.00  0.00    -0.169 OA
BRANCH  51  54
ATOM     54  O   UNL     1       4.298  -0.457   5.736  1.00  0.00    -0.264 OA
ATOM     55  H   UNL     1       3.405  -0.093   5.908  1.00  0.00     0.236 HD
ENDBRANCH  51  54
ENDBRANCH  50  51
ENDBRANCH   8  50
TORSDOF 19
ENDMDL
MODEL 36
REMARK VINA RESULT:    -5.772      3.444      8.195
REMARK INTER + INTRA:         -16.017
REMARK INTER:                 -12.532
REMARK INTRA:                  -3.484
REMARK UNBOUND:                -4.340
REMARK SMILES CC[C@@H](C)[C@@H](NC(=O)[C@@H](O)Cc1ccc(O)c(Cl)c1)C(=O)N1[C@H](C(=O)NCCCCN=C(N)N)C[C@H]2CC[C@H](OS(=O)(=O)O)C[C@@H]21
REMARK SMILES IDX 22 1 36 2 46 3 35 4 23 5 45 6 37 7 39 8 38 9 20 10 21 11
REMARK SMILES IDX 5 12 6 13 7 14 8 15 9 17 11 18 12 19 17 20 19 21 15 22 14 23
REMARK SMILES IDX 13 24 18 25 16 26 10 28 3 30 4 31 2 32 1 33 24 34 25 35
REMARK SMILES IDX 26 36 27 38 28 39 29 40 30 41 31 42 32 43 33 44 34 45 40 50
REMARK SMILES IDX 41 51 42 52 43 53 44 54
REMARK H PARENT 6 16 16 27 10 29 26 37 33 46 33 47 34 48 34 49 44 55
ROOT
ATOM      1  N   UNL     1      11.711  -3.891  -1.849  1.00  0.00    -0.326 N 
ATOM      2  C   UNL     1       9.988  -2.926  -3.130  1.00  0.00     0.014 C 
ATOM      3  C   UNL     1      10.983  -4.090  -3.106  1.00  0.00     0.091 C 
ATOM      4  C   UNL     1      10.769  -1.803  -2.465  1.00  0.00     0.041 C 
ATOM      5  C   UNL     1      11.379  -2.564  -1.274  1.00  0.00     0.175 C 
ATOM      6  C   UNL     1      10.208  -5.392  -3.296  1.00  0.00     0.059 C 
ATOM      7  C   UNL     1       9.430  -2.720  -4.525  1.00  0.00     0.008 C 
ATOM      8  C   UNL     1       8.951  -5.244  -4.181  1.00  0.00     0.143 C 
ATOM      9  C   UNL     1       9.079  -4.074  -5.177  1.00  0.00     0.034 C 
ENDROOT
BRANCH   1  10
ATOM     10  C   UNL     1      12.747  -4.625  -1.298  1.00  0.00     0.246 C 
ATOM     11  O   UNL     1      13.894  -4.166  -1.333  1.00  0.00    -0.272 OA
BRANCH  10  12
ATOM     12  C   UNL     1      12.442  -5.988  -0.611  1.00  0.00     0.174 C 
BRANCH  12  13
ATOM     13  N   UNL     1      12.528  -5.844   0.842  1.00  0.00    -0.342 N 
ATOM     14  C   UNL     1      11.450  -5.805   1.698  1.00  0.00     0.249 C 
ATOM     15  O   UNL     1      10.286  -5.916   1.334  1.00  0.00    -0.272 OA
ATOM     16  H   UNL     1      13.414  -5.586   1.271  1.00  0.00     0.164 HD
BRANCH  14  17
ATOM     17  C   UNL     1      11.868  -5.627   3.173  1.00  0.00     0.207 C 
BRANCH  17  18
ATOM     18  C   UNL     1      12.531  -4.262   3.382  1.00  0.00     0.077 C 
BRANCH  18  19
ATOM     19  C   UNL     1      11.915  -3.509   4.540  1.00  0.00    -0.043 A 
ATOM     20  C   UNL     1       9.970  -2.896   5.853  1.00  0.00     0.083 A 
ATOM     21  C   UNL     1      10.544  -3.631   4.815  1.00  0.00     0.028 A 
ATOM     22  C   UNL     1      10.758  -2.038   6.620  1.00  0.00     0.134 A 
ATOM     23  C   UNL     1      12.117  -1.908   6.358  1.00  0.00     0.048 A 
ATOM     24  C   UNL     1      12.695  -2.640   5.319  1.00  0.00     0.008 A 
ATOM     25  Cl  UNL     1       8.284  -3.059   6.175  1.00  0.00    -0.080 Cl
BRANCH  22  26
ATOM     26  O   UNL     1      10.238  -1.289   7.641  1.00  0.00    -0.506 OA
ATOM     27  H   UNL     1       9.268  -1.380   7.589  1.00  0.00     0.293 HD
ENDBRANCH  22  26
ENDBRANCH  18  19
ENDBRANCH  17  18
BRANCH  17  28
ATOM     28  O   UNL     1      12.773  -6.665   3.583  1.00  0.00    -0.383 OA
ATOM     29  H   UNL     1      13.117  -7.069   2.755  1.00  0.00     0.211 HD
ENDBRANCH  17  28
ENDBRANCH  14  17
ENDBRANCH  12  13
BRANCH  12  30
ATOM     30  C   UNL     1      13.331  -7.142  -1.146  1.00  0.00     0.018 C 
ATOM     31  C   UNL     1      13.147  -7.316  -2.661  1.00  0.00     0.010 C 
BRANCH  30  32
ATOM     32  C   UNL     1      13.099  -8.492  -0.423  1.00  0.00     0.002 C 
ATOM     33  C   UNL     1      13.759  -9.701  -1.074  1.00  0.00     0.004 C 
ENDBRANCH  30  32
ENDBRANCH  12  30
ENDBRANCH  10  12
ENDBRANCH   1  10
BRANCH   5  34
ATOM     34  C   UNL     1      10.366  -2.708  -0.107  1.00  0.00     0.242 C 
ATOM     35  O   UNL     1      10.556  -2.196   0.996  1.00  0.00    -0.273 OA
ATOM     36  N   UNL     1       9.267  -3.492  -0.379  1.00  0.00    -0.354 N 
ATOM     37  H   UNL     1       9.224  -3.986  -1.271  1.00  0.00     0.163 HD
BRANCH  36  38
ATOM     38  C   UNL     1       8.126  -3.558   0.510  1.00  0.00     0.116 C 
BRANCH  38  39
ATOM     39  C   UNL     1       6.897  -2.969  -0.178  1.00  0.00     0.023 C 
BRANCH  39  40
ATOM     40  C   UNL     1       7.117  -1.530  -0.632  1.00  0.00     0.026 C 
BRANCH  40  41
ATOM     41  C   UNL     1       6.752  -0.549   0.482  1.00  0.00     0.146 C 
BRANCH  41  42
ATOM     42  N   UNL     1       7.723   0.537   0.520  1.00  0.00    -0.254 NA
ATOM     43  C   UNL     1       8.525   0.634   1.513  1.00  0.00     0.185 C 
ATOM     44  N   UNL     1       8.645  -0.139   2.608  1.00  0.00    -0.370 N 
ATOM     45  N   UNL     1       9.410   1.644   1.532  1.00  0.00    -0.370 N 
ATOM     46  H   UNL     1       9.144   0.190   3.417  1.00  0.00     0.159 HD
ATOM     47  H   UNL     1       8.061  -0.958   2.749  1.00  0.00     0.159 HD
ATOM     48  H   UNL     1       9.392   2.270   0.738  1.00  0.00     0.159 HD
ATOM     49  H   UNL     1      10.212   1.654   2.137  1.00  0.00     0.159 HD
ENDBRANCH  41  42
ENDBRANCH  40  41
ENDBRANCH  39  40
ENDBRANCH  38  39
ENDBRANCH  36  38
ENDBRANCH   5  34
BRANCH   8  50
ATOM     50  O   UNL     1       7.801  -5.022  -3.365  1.00  0.00    -0.245 OA
BRANCH  50  51
ATOM     51  S   UNL     1       6.594  -6.112  -3.364  1.00  0.00     0.397 S 
ATOM     52  O   UNL     1       7.160  -7.405  -3.677  1.00  0.00    -0.169 OA
ATOM     53  O   UNL     1       5.460  -5.583  -4.093  1.00  0.00    -0.169 OA
BRANCH  51  54
ATOM     54  O   UNL     1       6.198  -6.173  -1.807  1.00  0.00    -0.264 OA
ATOM     55  H   UNL     1       5.268  -6.473  -1.747  1.00  0.00     0.236 HD
ENDBRANCH  51  54
ENDBRANCH  50  51
ENDBRANCH   8  50
TORSDOF 19
ENDMDL
MODEL 37
REMARK VINA RESULT:    -5.770      3.741      8.404
REMARK INTER + INTRA:         -16.014
REMARK INTER:                 -12.620
REMARK INTRA:                  -3.394
REMARK UNBOUND:                -4.340
REMARK SMILES CC[C@@H](C)[C@@H](NC(=O)[C@@H](O)Cc1ccc(O)c(Cl)c1)C(=O)N1[C@H](C(=O)NCCCCN=C(N)N)C[C@H]2CC[C@H](OS(=O)(=O)O)C[C@@H]21
REMARK SMILES IDX 22 1 36 2 46 3 35 4 23 5 45 6 37 7 39 8 38 9 20 10 21 11
REMARK SMILES IDX 5 12 6 13 7 14 8 15 9 17 11 18 12 19 17 20 19 21 15 22 14 23
REMARK SMILES IDX 13 24 18 25 16 26 10 28 3 30 4 31 2 32 1 33 24 34 25 35
REMARK SMILES IDX 26 36 27 38 28 39 29 40 30 41 31 42 32 43 33 44 34 45 40 50
REMARK SMILES IDX 41 51 42 52 43 53 44 54
REMARK H PARENT 6 16 16 27 10 29 26 37 33 46 33 47 34 48 34 49 44 55
ROOT
ATOM      1  N   UNL     1      12.302  -4.319  -1.112  1.00  0.00    -0.326 N 
ATOM      2  C   UNL     1      12.410  -6.608  -1.652  1.00  0.00     0.014 C 
ATOM      3  C   UNL     1      13.268  -5.415  -1.219  1.00  0.00     0.091 C 
ATOM      4  C   UNL     1      11.362  -5.960  -2.544  1.00  0.00     0.041 C 
ATOM      5  C   UNL     1      10.999  -4.731  -1.690  1.00  0.00     0.175 C 
ATOM      6  C   UNL     1      14.054  -5.813   0.029  1.00  0.00     0.059 C 
ATOM      7  C   UNL     1      13.273  -7.724  -2.207  1.00  0.00     0.008 C 
ATOM      8  C   UNL     1      14.426  -7.311   0.078  1.00  0.00     0.143 C 
ATOM      9  C   UNL     1      14.527  -7.929  -1.331  1.00  0.00     0.034 C 
ENDROOT
BRANCH   1  10
ATOM     10  C   UNL     1      12.500  -2.991  -0.775  1.00  0.00     0.246 C 
ATOM     11  O   UNL     1      12.374  -2.124  -1.647  1.00  0.00    -0.272 OA
BRANCH  10  12
ATOM     12  C   UNL     1      12.834  -2.614   0.698  1.00  0.00     0.174 C 
BRANCH  12  13
ATOM     13  N   UNL     1      12.233  -3.587   1.610  1.00  0.00    -0.342 N 
ATOM     14  C   UNL     1      12.772  -3.978   2.815  1.00  0.00     0.249 C 
ATOM     15  O   UNL     1      13.814  -3.528   3.274  1.00  0.00    -0.272 OA
ATOM     16  H   UNL     1      11.453  -4.158   1.294  1.00  0.00     0.164 HD
BRANCH  14  17
ATOM     17  C   UNL     1      11.909  -5.034   3.538  1.00  0.00     0.207 C 
BRANCH  17  18
ATOM     18  C   UNL     1      12.314  -5.139   5.012  1.00  0.00     0.077 C 
BRANCH  18  19
ATOM     19  C   UNL     1      11.307  -5.930   5.817  1.00  0.00    -0.043 A 
ATOM     20  C   UNL     1      10.790  -7.763   7.319  1.00  0.00     0.083 A 
ATOM     21  C   UNL     1      11.727  -7.005   6.616  1.00  0.00     0.028 A 
ATOM     22  C   UNL     1       9.432  -7.455   7.227  1.00  0.00     0.134 A 
ATOM     23  C   UNL     1       9.003  -6.394   6.439  1.00  0.00     0.048 A 
ATOM     24  C   UNL     1       9.938  -5.634   5.733  1.00  0.00     0.008 A 
ATOM     25  Cl  UNL     1      11.325  -9.080   8.296  1.00  0.00    -0.080 Cl
BRANCH  22  26
ATOM     26  O   UNL     1       8.476  -8.177   7.889  1.00  0.00    -0.506 OA
ATOM     27  H   UNL     1       7.666  -8.132   7.347  1.00  0.00     0.293 HD
ENDBRANCH  22  26
ENDBRANCH  18  19
ENDBRANCH  17  18
BRANCH  17  28
ATOM     28  O   UNL     1      12.037  -6.322   2.916  1.00  0.00    -0.383 OA
ATOM     29  H   UNL     1      11.222  -6.447   2.378  1.00  0.00     0.211 HD
ENDBRANCH  17  28
ENDBRANCH  14  17
ENDBRANCH  12  13
BRANCH  12  30
ATOM     30  C   UNL     1      12.442  -1.154   1.048  1.00  0.00     0.018 C 
ATOM     31  C   UNL     1      13.590  -0.440   1.779  1.00  0.00     0.010 C 
BRANCH  30  32
ATOM     32  C   UNL     1      11.135  -1.041   1.870  1.00  0.00     0.002 C 
ATOM     33  C   UNL     1      10.794   0.360   2.362  1.00  0.00     0.004 C 
ENDBRANCH  30  32
ENDBRANCH  12  30
ENDBRANCH  10  12
ENDBRANCH   1  10
BRANCH   5  34
ATOM     34  C   UNL     1       9.989  -5.092  -0.569  1.00  0.00     0.242 C 
ATOM     35  O   UNL     1      10.350  -5.482   0.542  1.00  0.00    -0.273 OA
ATOM     36  N   UNL     1       8.662  -4.998  -0.924  1.00  0.00    -0.354 N 
ATOM     37  H   UNL     1       8.426  -4.786  -1.894  1.00  0.00     0.163 HD
BRANCH  36  38
ATOM     38  C   UNL     1       7.593  -5.087   0.050  1.00  0.00     0.116 C 
BRANCH  38  39
ATOM     39  C   UNL     1       6.265  -4.706  -0.602  1.00  0.00     0.023 C 
BRANCH  39  40
ATOM     40  C   UNL     1       6.455  -3.892  -1.877  1.00  0.00     0.026 C 
BRANCH  40  41
ATOM     41  C   UNL     1       5.716  -4.541  -3.048  1.00  0.00     0.146 C 
BRANCH  41  42
ATOM     42  N   UNL     1       6.673  -4.953  -4.066  1.00  0.00    -0.254 NA
ATOM     43  C   UNL     1       7.058  -6.173  -4.116  1.00  0.00     0.185 C 
ATOM     44  N   UNL     1       6.715  -7.221  -3.345  1.00  0.00    -0.370 N 
ATOM     45  N   UNL     1       7.945  -6.532  -5.059  1.00  0.00    -0.370 N 
ATOM     46  H   UNL     1       7.273  -8.058  -3.339  1.00  0.00     0.159 HD
ATOM     47  H   UNL     1       6.043  -7.129  -2.589  1.00  0.00     0.159 HD
ATOM     48  H   UNL     1       8.249  -5.803  -5.689  1.00  0.00     0.159 HD
ATOM     49  H   UNL     1       8.111  -7.490  -5.313  1.00  0.00     0.159 HD
ENDBRANCH  41  42
ENDBRANCH  40  41
ENDBRANCH  39  40
ENDBRANCH  38  39
ENDBRANCH  36  38
ENDBRANCH   5  34
BRANCH   8  50
ATOM     50  O   UNL     1      13.445  -8.036   0.822  1.00  0.00    -0.245 OA
BRANCH  50  51
ATOM     51  S   UNL     1      13.922  -9.160   1.896  1.00  0.00     0.397 S 
ATOM     52  O   UNL     1      14.346  -8.477   3.098  1.00  0.00    -0.169 OA
ATOM     53  O   UNL     1      14.767 -10.134   1.238  1.00  0.00    -0.169 OA
BRANCH  51  54
ATOM     54  O   UNL     1      12.532  -9.879   2.268  1.00  0.00    -0.264 OA
ATOM     55  H   UNL     1      12.466  -9.913   3.244  1.00  0.00     0.236 HD
ENDBRANCH  51  54
ENDBRANCH  50  51
ENDBRANCH   8  50
TORSDOF 19
ENDMDL
MODEL 38
REMARK VINA RESULT:    -5.747      3.172      6.913
REMARK INTER + INTRA:         -15.968
REMARK INTER:                 -10.336
REMARK INTRA:                  -5.631
REMARK UNBOUND:                -4.340
REMARK SMILES CC[C@@H](C)[C@@H](NC(=O)[C@@H](O)Cc1ccc(O)c(Cl)c1)C(=O)N1[C@H](C(=O)NCCCCN=C(N)N)C[C@H]2CC[C@H](OS(=O)(=O)O)C[C@@H]21
REMARK SMILES IDX 22 1 36 2 46 3 35 4 23 5 45 6 37 7 39 8 38 9 20 10 21 11
REMARK SMILES IDX 5 12 6 13 7 14 8 15 9 17 11 18 12 19 17 20 19 21 15 22 14 23
REMARK SMILES IDX 13 24 18 25 16 26 10 28 3 30 4 31 2 32 1 33 24 34 25 35
REMARK SMILES IDX 26 36 27 38 28 39 29 40 30 41 31 42 32 43 33 44 34 45 40 50
REMARK SMILES IDX 41 51 42 52 43 53 44 54
REMARK H PARENT 6 16 16 27 10 29 26 37 33 46 33 47 34 48 34 49 44 55
ROOT
ATOM      1  N   UNL     1      11.050  -4.015   2.442  1.00  0.00    -0.326 N 
ATOM      2  C   UNL     1      10.494  -5.238   0.509  1.00  0.00     0.014 C 
ATOM      3  C   UNL     1      10.864  -3.835   1.000  1.00  0.00     0.091 C 
ATOM      4  C   UNL     1       9.688  -5.798   1.670  1.00  0.00     0.041 C 
ATOM      5  C   UNL     1      10.572  -5.359   2.852  1.00  0.00     0.175 C 
ATOM      6  C   UNL     1      12.046  -3.330   0.174  1.00  0.00     0.059 C 
ATOM      7  C   UNL     1       9.869  -5.182  -0.871  1.00  0.00     0.008 C 
ATOM      8  C   UNL     1      12.060  -3.856  -1.277  1.00  0.00     0.143 C 
ATOM      9  C   UNL     1      10.645  -4.205  -1.781  1.00  0.00     0.034 C 
ENDROOT
BRANCH   1  10
ATOM     10  C   UNL     1      11.376  -3.089   3.418  1.00  0.00     0.246 C 
ATOM     11  O   UNL     1      12.561  -2.779   3.581  1.00  0.00    -0.272 OA
BRANCH  10  12
ATOM     12  C   UNL     1      10.244  -2.427   4.256  1.00  0.00     0.174 C 
BRANCH  12  13
ATOM     13  N   UNL     1       9.058  -2.229   3.423  1.00  0.00    -0.342 N 
ATOM     14  C   UNL     1       7.854  -2.876   3.595  1.00  0.00     0.249 C 
ATOM     15  O   UNL     1       7.634  -3.678   4.494  1.00  0.00    -0.272 OA
ATOM     16  H   UNL     1       9.136  -1.714   2.550  1.00  0.00     0.164 HD
BRANCH  14  17
ATOM     17  C   UNL     1       6.802  -2.465   2.544  1.00  0.00     0.207 C 
BRANCH  17  18
ATOM     18  C   UNL     1       7.483  -2.062   1.232  1.00  0.00     0.077 C 
BRANCH  18  19
ATOM     19  C   UNL     1       7.073  -2.959   0.087  1.00  0.00    -0.043 A 
ATOM     20  C   UNL     1       6.887  -3.375  -2.296  1.00  0.00     0.083 A 
ATOM     21  C   UNL     1       7.312  -2.568  -1.240  1.00  0.00     0.028 A 
ATOM     22  C   UNL     1       6.222  -4.573  -2.035  1.00  0.00     0.134 A 
ATOM     23  C   UNL     1       5.978  -4.973  -0.726  1.00  0.00     0.048 A 
ATOM     24  C   UNL     1       6.400  -4.166   0.333  1.00  0.00     0.008 A 
ATOM     25  Cl  UNL     1       7.191  -2.878  -3.919  1.00  0.00    -0.080 Cl
BRANCH  22  26
ATOM     26  O   UNL     1       5.777  -5.393  -3.037  1.00  0.00    -0.506 OA
ATOM     27  H   UNL     1       4.867  -5.112  -3.246  1.00  0.00     0.293 HD
ENDBRANCH  22  26
ENDBRANCH  18  19
ENDBRANCH  17  18
BRANCH  17  28
ATOM     28  O   UNL     1       5.996  -1.373   3.017  1.00  0.00    -0.383 OA
ATOM     29  H   UNL     1       6.593  -0.591   3.054  1.00  0.00     0.211 HD
ENDBRANCH  17  28
ENDBRANCH  14  17
ENDBRANCH  12  13
BRANCH  12  30
ATOM     30  C   UNL     1      10.701  -1.119   4.955  1.00  0.00     0.018 C 
ATOM     31  C   UNL     1      10.023  -0.966   6.326  1.00  0.00     0.010 C 
BRANCH  30  32
ATOM     32  C   UNL     1      10.473   0.154   4.104  1.00  0.00     0.002 C 
ATOM     33  C   UNL     1      11.732   0.934   3.748  1.00  0.00     0.004 C 
ENDBRANCH  30  32
ENDBRANCH  12  30
ENDBRANCH  10  12
ENDBRANCH   1  10
BRANCH   5  34
ATOM     34  C   UNL     1      11.767  -6.327   3.063  1.00  0.00     0.242 C 
ATOM     35  O   UNL     1      12.905  -6.061   2.678  1.00  0.00    -0.273 OA
ATOM     36  N   UNL     1      11.451  -7.526   3.662  1.00  0.00    -0.354 N 
ATOM     37  H   UNL     1      10.470  -7.738   3.850  1.00  0.00     0.163 HD
BRANCH  36  38
ATOM     38  C   UNL     1      12.466  -8.449   4.128  1.00  0.00     0.116 C 
BRANCH  38  39
ATOM     39  C   UNL     1      12.319  -9.786   3.406  1.00  0.00     0.023 C 
BRANCH  39  40
ATOM     40  C   UNL     1      13.658 -10.343   2.934  1.00  0.00     0.026 C 
BRANCH  40  41
ATOM     41  C   UNL     1      13.801 -10.198   1.418  1.00  0.00     0.146 C 
BRANCH  41  42
ATOM     42  N   UNL     1      14.561  -8.994   1.109  1.00  0.00    -0.254 NA
ATOM     43  C   UNL     1      13.998  -8.036   0.473  1.00  0.00     0.185 C 
ATOM     44  N   UNL     1      12.741  -7.928   0.006  1.00  0.00    -0.370 N 
ATOM     45  N   UNL     1      14.717  -6.936   0.194  1.00  0.00    -0.370 N 
ATOM     46  H   UNL     1      12.507  -7.232  -0.682  1.00  0.00     0.159 HD
ATOM     47  H   UNL     1      12.057  -8.666   0.142  1.00  0.00     0.159 HD
ATOM     48  H   UNL     1      15.674  -6.932   0.519  1.00  0.00     0.159 HD
ATOM     49  H   UNL     1      14.296  -6.066  -0.081  1.00  0.00     0.159 HD
ENDBRANCH  41  42
ENDBRANCH  40  41
ENDBRANCH  39  40
ENDBRANCH  38  39
ENDBRANCH  36  38
ENDBRANCH   5  34
BRANCH   8  50
ATOM     50  O   UNL     1      12.874  -5.025  -1.367  1.00  0.00    -0.245 OA
BRANCH  50  51
ATOM     51  S   UNL     1      13.396  -5.531  -2.822  1.00  0.00     0.397 S 
ATOM     52  O   UNL     1      14.772  -5.950  -2.682  1.00  0.00    -0.169 OA
ATOM     53  O   UNL     1      12.990  -4.584  -3.840  1.00  0.00    -0.169 OA
BRANCH  51  54
ATOM     54  O   UNL     1      12.547  -6.880  -3.033  1.00  0.00    -0.264 OA
ATOM     55  H   UNL     1      11.706  -6.784  -2.541  1.00  0.00     0.236 HD
ENDBRANCH  51  54
ENDBRANCH  50  51
ENDBRANCH   8  50
TORSDOF 19
ENDMDL
MODEL 39
REMARK VINA RESULT:    -5.736      3.611      8.400
REMARK INTER + INTRA:         -15.944
REMARK INTER:                 -11.052
REMARK INTRA:                  -4.891
REMARK UNBOUND:                -4.340
REMARK SMILES CC[C@@H](C)[C@@H](NC(=O)[C@@H](O)Cc1ccc(O)c(Cl)c1)C(=O)N1[C@H](C(=O)NCCCCN=C(N)N)C[C@H]2CC[C@H](OS(=O)(=O)O)C[C@@H]21
REMARK SMILES IDX 22 1 36 2 46 3 35 4 23 5 45 6 37 7 39 8 38 9 20 10 21 11
REMARK SMILES IDX 5 12 6 13 7 14 8 15 9 17 11 18 12 19 17 20 19 21 15 22 14 23
REMARK SMILES IDX 13 24 18 25 16 26 10 28 3 30 4 31 2 32 1 33 24 34 25 35
REMARK SMILES IDX 26 36 27 38 28 39 29 40 30 41 31 42 32 43 33 44 34 45 40 50
REMARK SMILES IDX 41 51 42 52 43 53 44 54
REMARK H PARENT 6 16 16 27 10 29 26 37 33 46 33 47 34 48 34 49 44 55
ROOT
ATOM      1  N   UNL     1      10.515  -3.587   2.470  1.00  0.00    -0.326 N 
ATOM      2  C   UNL     1       9.046  -5.036   1.337  1.00  0.00     0.014 C 
ATOM      3  C   UNL     1       9.167  -3.616   1.896  1.00  0.00     0.091 C 
ATOM      4  C   UNL     1       9.843  -5.859   2.337  1.00  0.00     0.041 C 
ATOM      5  C   UNL     1      11.081  -4.958   2.504  1.00  0.00     0.175 C 
ATOM      6  C   UNL     1       8.834  -2.628   0.780  1.00  0.00     0.059 C 
ATOM      7  C   UNL     1       7.596  -5.392   1.070  1.00  0.00     0.008 C 
ATOM      8  C   UNL     1       7.794  -3.159  -0.231  1.00  0.00     0.143 C 
ATOM      9  C   UNL     1       6.861  -4.213   0.398  1.00  0.00     0.034 C 
ENDROOT
BRANCH   1  10
ATOM     10  C   UNL     1      11.176  -2.567   3.133  1.00  0.00     0.246 C 
ATOM     11  O   UNL     1      11.786  -1.719   2.475  1.00  0.00    -0.272 OA
BRANCH  10  12
ATOM     12  C   UNL     1      11.102  -2.487   4.686  1.00  0.00     0.174 C 
BRANCH  12  13
ATOM     13  N   UNL     1       9.720  -2.668   5.129  1.00  0.00    -0.342 N 
ATOM     14  C   UNL     1       9.214  -3.818   5.691  1.00  0.00     0.249 C 
ATOM     15  O   UNL     1       9.883  -4.821   5.911  1.00  0.00    -0.272 OA
ATOM     16  H   UNL     1       9.014  -1.983   4.870  1.00  0.00     0.164 HD
BRANCH  14  17
ATOM     17  C   UNL     1       7.715  -3.703   6.037  1.00  0.00     0.207 C 
BRANCH  17  18
ATOM     18  C   UNL     1       7.289  -2.232   6.091  1.00  0.00     0.077 C 
BRANCH  18  19
ATOM     19  C   UNL     1       6.173  -1.934   5.115  1.00  0.00    -0.043 A 
ATOM     20  C   UNL     1       5.437  -1.194   2.925  1.00  0.00     0.083 A 
ATOM     21  C   UNL     1       6.468  -1.516   3.808  1.00  0.00     0.028 A 
ATOM     22  C   UNL     1       4.108  -1.286   3.341  1.00  0.00     0.134 A 
ATOM     23  C   UNL     1       3.801  -1.700   4.632  1.00  0.00     0.048 A 
ATOM     24  C   UNL     1       4.832  -2.021   5.519  1.00  0.00     0.008 A 
ATOM     25  Cl  UNL     1       5.820  -0.681   1.324  1.00  0.00    -0.080 Cl
BRANCH  22  26
ATOM     26  O   UNL     1       3.063  -0.971   2.514  1.00  0.00    -0.506 OA
ATOM     27  H   UNL     1       2.268  -1.384   2.899  1.00  0.00     0.293 HD
ENDBRANCH  22  26
ENDBRANCH  18  19
ENDBRANCH  17  18
BRANCH  17  28
ATOM     28  O   UNL     1       7.425  -4.330   7.297  1.00  0.00    -0.383 OA
ATOM     29  H   UNL     1       6.776  -3.744   7.750  1.00  0.00     0.211 HD
ENDBRANCH  17  28
ENDBRANCH  14  17
ENDBRANCH  12  13
BRANCH  12  30
ATOM     30  C   UNL     1      11.740  -1.190   5.251  1.00  0.00     0.018 C 
ATOM     31  C   UNL     1      12.689  -1.510   6.416  1.00  0.00     0.010 C 
BRANCH  30  32
ATOM     32  C   UNL     1      10.703  -0.125   5.686  1.00  0.00     0.002 C 
ATOM     33  C   UNL     1      10.698   0.209   7.172  1.00  0.00     0.004 C 
ENDBRANCH  30  32
ENDBRANCH  12  30
ENDBRANCH  10  12
ENDBRANCH   1  10
BRANCH   5  34
ATOM     34  C   UNL     1      12.097  -5.163   1.349  1.00  0.00     0.242 C 
ATOM     35  O   UNL     1      12.359  -4.274   0.538  1.00  0.00    -0.273 OA
ATOM     36  N   UNL     1      12.643  -6.424   1.265  1.00  0.00    -0.354 N 
ATOM     37  H   UNL     1      12.297  -7.152   1.892  1.00  0.00     0.163 HD
BRANCH  36  38
ATOM     38  C   UNL     1      13.758  -6.728   0.392  1.00  0.00     0.116 C 
BRANCH  38  39
ATOM     39  C   UNL     1      13.721  -8.203  -0.002  1.00  0.00     0.023 C 
BRANCH  39  40
ATOM     40  C   UNL     1      13.134  -8.420  -1.392  1.00  0.00     0.026 C 
BRANCH  40  41
ATOM     41  C   UNL     1      13.154  -7.121  -2.198  1.00  0.00     0.146 C 
BRANCH  41  42
ATOM     42  N   UNL     1      11.990  -7.065  -3.072  1.00  0.00    -0.254 NA
ATOM     43  C   UNL     1      11.102  -6.162  -2.887  1.00  0.00     0.185 C 
ATOM     44  N   UNL     1      11.043  -5.182  -1.967  1.00  0.00    -0.370 N 
ATOM     45  N   UNL     1      10.034  -6.130  -3.700  1.00  0.00    -0.370 N 
ATOM     46  H   UNL     1      10.179  -4.702  -1.783  1.00  0.00     0.159 HD
ATOM     47  H   UNL     1      11.779  -5.052  -1.279  1.00  0.00     0.159 HD
ATOM     48  H   UNL     1      10.004  -6.831  -4.429  1.00  0.00     0.159 HD
ATOM     49  H   UNL     1       9.430  -5.331  -3.774  1.00  0.00     0.159 HD
ENDBRANCH  41  42
ENDBRANCH  40  41
ENDBRANCH  39  40
ENDBRANCH  38  39
ENDBRANCH  36  38
ENDBRANCH   5  34
BRANCH   8  50
ATOM     50  O   UNL     1       8.456  -3.749  -1.350  1.00  0.00    -0.245 OA
BRANCH  50  51
ATOM     51  S   UNL     1       7.938  -3.417  -2.856  1.00  0.00     0.397 S 
ATOM     52  O   UNL     1       9.098  -3.275  -3.706  1.00  0.00    -0.169 OA
ATOM     53  O   UNL     1       6.907  -2.402  -2.802  1.00  0.00    -0.169 OA
BRANCH  51  54
ATOM     54  O   UNL     1       7.247  -4.804  -3.286  1.00  0.00    -0.264 OA
ATOM     55  H   UNL     1       6.689  -5.103  -2.539  1.00  0.00     0.236 HD
ENDBRANCH  51  54
ENDBRANCH  50  51
ENDBRANCH   8  50
TORSDOF 19
ENDMDL
MODEL 40
REMARK VINA RESULT:    -5.728      2.842      5.636
REMARK INTER + INTRA:         -15.929
REMARK INTER:                 -11.859
REMARK INTRA:                  -4.070
REMARK UNBOUND:                -4.340
REMARK SMILES CC[C@@H](C)[C@@H](NC(=O)[C@@H](O)Cc1ccc(O)c(Cl)c1)C(=O)N1[C@H](C(=O)NCCCCN=C(N)N)C[C@H]2CC[C@H](OS(=O)(=O)O)C[C@@H]21
REMARK SMILES IDX 22 1 36 2 46 3 35 4 23 5 45 6 37 7 39 8 38 9 20 10 21 11
REMARK SMILES IDX 5 12 6 13 7 14 8 15 9 17 11 18 12 19 17 20 19 21 15 22 14 23
REMARK SMILES IDX 13 24 18 25 16 26 10 28 3 30 4 31 2 32 1 33 24 34 25 35
REMARK SMILES IDX 26 36 27 38 28 39 29 40 30 41 31 42 32 43 33 44 34 45 40 50
REMARK SMILES IDX 41 51 42 52 43 53 44 54
REMARK H PARENT 6 16 16 27 10 29 26 37 33 46 33 47 34 48 34 49 44 55
ROOT
ATOM      1  N   UNL     1      11.059  -4.053   0.050  1.00  0.00    -0.326 N 
ATOM      2  C   UNL     1       9.035  -3.631   1.176  1.00  0.00     0.014 C 
ATOM      3  C   UNL     1       9.974  -4.759   0.738  1.00  0.00     0.091 C 
ATOM      4  C   UNL     1       9.162  -2.629   0.038  1.00  0.00     0.041 C 
ATOM      5  C   UNL     1      10.689  -2.632  -0.158  1.00  0.00     0.175 C 
ATOM      6  C   UNL     1      10.321  -5.602   1.964  1.00  0.00     0.059 C 
ATOM      7  C   UNL     1       7.667  -4.175   1.539  1.00  0.00     0.008 C 
ATOM      8  C   UNL     1       9.189  -5.669   3.012  1.00  0.00     0.143 C 
ATOM      9  C   UNL     1       7.799  -5.463   2.378  1.00  0.00     0.034 C 
ENDROOT
BRANCH   1  10
ATOM     10  C   UNL     1      12.188  -4.555  -0.575  1.00  0.00     0.246 C 
ATOM     11  O   UNL     1      13.193  -4.796   0.101  1.00  0.00    -0.272 OA
BRANCH  10  12
ATOM     12  C   UNL     1      12.153  -4.845  -2.104  1.00  0.00     0.174 C 
BRANCH  12  13
ATOM     13  N   UNL     1      10.808  -5.259  -2.502  1.00  0.00    -0.342 N 
ATOM     14  C   UNL     1      10.070  -4.683  -3.512  1.00  0.00     0.249 C 
ATOM     15  O   UNL     1      10.476  -3.767  -4.216  1.00  0.00    -0.272 OA
ATOM     16  H   UNL     1      10.282  -5.899  -1.912  1.00  0.00     0.164 HD
BRANCH  14  17
ATOM     17  C   UNL     1       8.680  -5.332  -3.679  1.00  0.00     0.207 C 
BRANCH  17  18
ATOM     18  C   UNL     1       8.004  -5.508  -2.315  1.00  0.00     0.077 C 
BRANCH  18  19
ATOM     19  C   UNL     1       6.805  -4.600  -2.161  1.00  0.00    -0.043 A 
ATOM     20  C   UNL     1       5.699  -2.486  -2.596  1.00  0.00     0.083 A 
ATOM     21  C   UNL     1       6.786  -3.341  -2.781  1.00  0.00     0.028 A 
ATOM     22  C   UNL     1       4.628  -2.880  -1.792  1.00  0.00     0.134 A 
ATOM     23  C   UNL     1       4.634  -4.124  -1.173  1.00  0.00     0.048 A 
ATOM     24  C   UNL     1       5.721  -4.982  -1.355  1.00  0.00     0.008 A 
ATOM     25  Cl  UNL     1       5.694  -0.942  -3.365  1.00  0.00    -0.080 Cl
BRANCH  22  26
ATOM     26  O   UNL     1       3.546  -2.072  -1.573  1.00  0.00    -0.506 OA
ATOM     27  H   UNL     1       2.774  -2.659  -1.472  1.00  0.00     0.293 HD
ENDBRANCH  22  26
ENDBRANCH  18  19
ENDBRANCH  17  18
BRANCH  17  28
ATOM     28  O   UNL     1       8.779  -6.609  -4.330  1.00  0.00    -0.383 OA
ATOM     29  H   UNL     1       9.197  -6.437  -5.204  1.00  0.00     0.211 HD
ENDBRANCH  17  28
ENDBRANCH  14  17
ENDBRANCH  12  13
BRANCH  12  30
ATOM     30  C   UNL     1      13.241  -5.860  -2.547  1.00  0.00     0.018 C 
ATOM     31  C   UNL     1      13.887  -5.424  -3.872  1.00  0.00     0.010 C 
BRANCH  30  32
ATOM     32  C   UNL     1      12.724  -7.315  -2.661  1.00  0.00     0.002 C 
ATOM     33  C   UNL     1      13.189  -8.259  -1.560  1.00  0.00     0.004 C 
ENDBRANCH  30  32
ENDBRANCH  12  30
ENDBRANCH  10  12
ENDBRANCH   1  10
BRANCH   5  34
ATOM     34  C   UNL     1      11.400  -1.721   0.879  1.00  0.00     0.242 C 
ATOM     35  O   UNL     1      12.554  -1.928   1.254  1.00  0.00    -0.273 OA
ATOM     36  N   UNL     1      10.629  -0.699   1.387  1.00  0.00    -0.354 N 
ATOM     37  H   UNL     1       9.643  -0.652   1.127  1.00  0.00     0.163 HD
BRANCH  36  38
ATOM     38  C   UNL     1      11.190   0.365   2.192  1.00  0.00     0.116 C 
BRANCH  38  39
ATOM     39  C   UNL     1      10.902   0.105   3.669  1.00  0.00     0.023 C 
BRANCH  39  40
ATOM     40  C   UNL     1       9.766  -0.891   3.874  1.00  0.00     0.026 C 
BRANCH  40  41
ATOM     41  C   UNL     1       9.073  -0.655   5.216  1.00  0.00     0.146 C 
BRANCH  41  42
ATOM     42  N   UNL     1       9.909   0.187   6.061  1.00  0.00    -0.254 NA
ATOM     43  C   UNL     1      10.543  -0.334   7.043  1.00  0.00     0.185 C 
ATOM     44  N   UNL     1      10.582  -1.610   7.469  1.00  0.00    -0.370 N 
ATOM     45  N   UNL     1      11.306   0.460   7.813  1.00  0.00    -0.370 N 
ATOM     46  H   UNL     1      10.921  -1.833   8.390  1.00  0.00     0.159 HD
ATOM     47  H   UNL     1      10.073  -2.347   6.992  1.00  0.00     0.159 HD
ATOM     48  H   UNL     1      11.339   1.437   7.555  1.00  0.00     0.159 HD
ATOM     49  H   UNL     1      12.005   0.102   8.439  1.00  0.00     0.159 HD
ENDBRANCH  41  42
ENDBRANCH  40  41
ENDBRANCH  39  40
ENDBRANCH  38  39
ENDBRANCH  36  38
ENDBRANCH   5  34
BRANCH   8  50
ATOM     50  O   UNL     1       9.385  -4.667   4.010  1.00  0.00    -0.245 OA
BRANCH  50  51
ATOM     51  S   UNL     1       8.658  -4.821   5.457  1.00  0.00     0.397 S 
ATOM     52  O   UNL     1       8.652  -6.224   5.806  1.00  0.00    -0.169 OA
ATOM     53  O   UNL     1       7.447  -4.027   5.480  1.00  0.00    -0.169 OA
BRANCH  51  54
ATOM     54  O   UNL     1       9.724  -4.130   6.443  1.00  0.00    -0.264 OA
ATOM     55  H   UNL     1       9.676  -4.592   7.305  1.00  0.00     0.236 HD
ENDBRANCH  51  54
ENDBRANCH  50  51
ENDBRANCH   8  50
TORSDOF 19
ENDMDL
MODEL 41
REMARK VINA RESULT:    -5.709      7.387     10.185
REMARK INTER + INTRA:         -15.890
REMARK INTER:                 -11.261
REMARK INTRA:                  -4.629
REMARK UNBOUND:                -4.340
REMARK SMILES CC[C@@H](C)[C@@H](NC(=O)[C@@H](O)Cc1ccc(O)c(Cl)c1)C(=O)N1[C@H](C(=O)NCCCCN=C(N)N)C[C@H]2CC[C@H](OS(=O)(=O)O)C[C@@H]21
REMARK SMILES IDX 22 1 36 2 46 3 35 4 23 5 45 6 37 7 39 8 38 9 20 10 21 11
REMARK SMILES IDX 5 12 6 13 7 14 8 15 9 17 11 18 12 19 17 20 19 21 15 22 14 23
REMARK SMILES IDX 13 24 18 25 16 26 10 28 3 30 4 31 2 32 1 33 24 34 25 35
REMARK SMILES IDX 26 36 27 38 28 39 29 40 30 41 31 42 32 43 33 44 34 45 40 50
REMARK SMILES IDX 41 51 42 52 43 53 44 54
REMARK H PARENT 6 16 16 27 10 29 26 37 33 46 33 47 34 48 34 49 44 55
ROOT
ATOM      1  N   UNL     1       1.232   2.672   2.472  1.00  0.00    -0.326 N 
ATOM      2  C   UNL     1      -1.074   2.195   2.503  1.00  0.00     0.014 C 
ATOM      3  C   UNL     1      -0.015   3.048   1.799  1.00  0.00     0.091 C 
ATOM      4  C   UNL     1      -0.559   2.135   3.933  1.00  0.00     0.041 C 
ATOM      5  C   UNL     1       0.933   1.854   3.673  1.00  0.00     0.175 C 
ATOM      6  C   UNL     1      -0.126   2.811   0.294  1.00  0.00     0.059 C 
ATOM      7  C   UNL     1      -2.467   2.730   2.236  1.00  0.00     0.008 C 
ATOM      8  C   UNL     1      -1.562   2.506  -0.183  1.00  0.00     0.143 C 
ATOM      9  C   UNL     1      -2.625   3.119   0.751  1.00  0.00     0.034 C 
ENDROOT
BRANCH   1  10
ATOM     10  C   UNL     1       2.522   3.132   2.272  1.00  0.00     0.246 C 
ATOM     11  O   UNL     1       3.008   3.928   3.083  1.00  0.00    -0.272 OA
BRANCH  10  12
ATOM     12  C   UNL     1       3.345   2.606   1.061  1.00  0.00     0.174 C 
BRANCH  12  13
ATOM     13  N   UNL     1       3.326   1.144   1.042  1.00  0.00    -0.342 N 
ATOM     14  C   UNL     1       2.898   0.373  -0.016  1.00  0.00     0.249 C 
ATOM     15  O   UNL     1       2.507   0.834  -1.081  1.00  0.00    -0.272 OA
ATOM     16  H   UNL     1       3.472   0.627   1.905  1.00  0.00     0.164 HD
BRANCH  14  17
ATOM     17  C   UNL     1       2.983  -1.140   0.277  1.00  0.00     0.207 C 
BRANCH  17  18
ATOM     18  C   UNL     1       3.752  -1.858  -0.836  1.00  0.00     0.077 C 
BRANCH  18  19
ATOM     19  C   UNL     1       5.000  -2.532  -0.312  1.00  0.00    -0.043 A 
ATOM     20  C   UNL     1       6.694  -4.258  -0.500  1.00  0.00     0.083 A 
ATOM     21  C   UNL     1       5.571  -3.607  -1.011  1.00  0.00     0.028 A 
ATOM     22  C   UNL     1       7.252  -3.842   0.710  1.00  0.00     0.134 A 
ATOM     23  C   UNL     1       6.697  -2.779   1.412  1.00  0.00     0.048 A 
ATOM     24  C   UNL     1       5.571  -2.126   0.904  1.00  0.00     0.008 A 
ATOM     25  Cl  UNL     1       7.382  -5.577  -1.372  1.00  0.00    -0.080 Cl
BRANCH  22  26
ATOM     26  O   UNL     1       8.346  -4.456   1.257  1.00  0.00    -0.506 OA
ATOM     27  H   UNL     1       8.049  -4.870   2.088  1.00  0.00     0.293 HD
ENDBRANCH  22  26
ENDBRANCH  18  19
ENDBRANCH  17  18
BRANCH  17  28
ATOM     28  O   UNL     1       1.673  -1.717   0.401  1.00  0.00    -0.383 OA
ATOM     29  H   UNL     1       1.573  -1.963   1.349  1.00  0.00     0.211 HD
ENDBRANCH  17  28
ENDBRANCH  14  17
ENDBRANCH  12  13
BRANCH  12  30
ATOM     30  C   UNL     1       4.787   3.180   1.021  1.00  0.00     0.018 C 
ATOM     31  C   UNL     1       5.205   3.507  -0.421  1.00  0.00     0.010 C 
BRANCH  30  32
ATOM     32  C   UNL     1       5.841   2.260   1.685  1.00  0.00     0.002 C 
ATOM     33  C   UNL     1       6.841   1.621   0.730  1.00  0.00     0.004 C 
ENDBRANCH  30  32
ENDBRANCH  12  30
ENDBRANCH  10  12
ENDBRANCH   1  10
BRANCH   5  34
ATOM     34  C   UNL     1       1.192   0.350   3.394  1.00  0.00     0.242 C 
ATOM     35  O   UNL     1       0.612  -0.262   2.496  1.00  0.00    -0.273 OA
ATOM     36  N   UNL     1       2.074  -0.263   4.255  1.00  0.00    -0.354 N 
ATOM     37  H   UNL     1       2.430   0.266   5.052  1.00  0.00     0.163 HD
BRANCH  36  38
ATOM     38  C   UNL     1       2.593  -1.593   4.013  1.00  0.00     0.116 C 
BRANCH  38  39
ATOM     39  C   UNL     1       4.036  -1.684   4.505  1.00  0.00     0.023 C 
BRANCH  39  40
ATOM     40  C   UNL     1       4.843  -0.432   4.179  1.00  0.00     0.026 C 
BRANCH  40  41
ATOM     41  C   UNL     1       5.265   0.289   5.459  1.00  0.00     0.146 C 
BRANCH  41  42
ATOM     42  N   UNL     1       4.173   1.128   5.935  1.00  0.00    -0.254 NA
ATOM     43  C   UNL     1       4.251   2.400   5.810  1.00  0.00     0.185 C 
ATOM     44  N   UNL     1       5.228   3.159   5.279  1.00  0.00    -0.370 N 
ATOM     45  N   UNL     1       3.236   3.156   6.259  1.00  0.00    -0.370 N 
ATOM     46  H   UNL     1       5.268   4.146   5.466  1.00  0.00     0.159 HD
ATOM     47  H   UNL     1       6.065   2.747   4.879  1.00  0.00     0.159 HD
ATOM     48  H   UNL     1       2.455   2.661   6.667  1.00  0.00     0.159 HD
ATOM     49  H   UNL     1       3.113   4.116   5.990  1.00  0.00     0.159 HD
ENDBRANCH  41  42
ENDBRANCH  40  41
ENDBRANCH  39  40
ENDBRANCH  38  39
ENDBRANCH  36  38
ENDBRANCH   5  34
BRANCH   8  50
ATOM     50  O   UNL     1      -1.770   1.095  -0.242  1.00  0.00    -0.245 OA
BRANCH  50  51
ATOM     51  S   UNL     1      -2.496   0.444  -1.544  1.00  0.00     0.397 S 
ATOM     52  O   UNL     1      -1.711   0.783  -2.709  1.00  0.00    -0.169 OA
ATOM     53  O   UNL     1      -3.920   0.701  -1.486  1.00  0.00    -0.169 OA
BRANCH  51  54
ATOM     54  O   UNL     1      -2.266  -1.130  -1.304  1.00  0.00    -0.264 OA
ATOM     55  H   UNL     1      -1.713  -1.466  -2.038  1.00  0.00     0.236 HD
ENDBRANCH  51  54
ENDBRANCH  50  51
ENDBRANCH   8  50
TORSDOF 19
ENDMDL
MODEL 42
REMARK VINA RESULT:    -5.701      2.566      3.817
REMARK INTER + INTRA:         -15.874
REMARK INTER:                 -11.952
REMARK INTRA:                  -3.922
REMARK UNBOUND:                -4.340
REMARK SMILES CC[C@@H](C)[C@@H](NC(=O)[C@@H](O)Cc1ccc(O)c(Cl)c1)C(=O)N1[C@H](C(=O)NCCCCN=C(N)N)C[C@H]2CC[C@H](OS(=O)(=O)O)C[C@@H]21
REMARK SMILES IDX 22 1 36 2 46 3 35 4 23 5 45 6 37 7 39 8 38 9 20 10 21 11
REMARK SMILES IDX 5 12 6 13 7 14 8 15 9 17 11 18 12 19 17 20 19 21 15 22 14 23
REMARK SMILES IDX 13 24 18 25 16 26 10 28 3 30 4 31 2 32 1 33 24 34 25 35
REMARK SMILES IDX 26 36 27 38 28 39 29 40 30 41 31 42 32 43 33 44 34 45 40 50
REMARK SMILES IDX 41 51 42 52 43 53 44 54
REMARK H PARENT 6 16 16 27 10 29 26 37 33 46 33 47 34 48 34 49 44 55
ROOT
ATOM      1  N   UNL     1       8.929  -4.456   1.634  1.00  0.00    -0.326 N 
ATOM      2  C   UNL     1       9.595  -3.201   3.511  1.00  0.00     0.014 C 
ATOM      3  C   UNL     1       8.665  -3.174   2.295  1.00  0.00     0.091 C 
ATOM      4  C   UNL     1      10.811  -3.950   2.988  1.00  0.00     0.041 C 
ATOM      5  C   UNL     1      10.118  -5.104   2.241  1.00  0.00     0.175 C 
ATOM      6  C   UNL     1       7.245  -2.887   2.778  1.00  0.00     0.059 C 
ATOM      7  C   UNL     1       9.770  -1.810   4.090  1.00  0.00     0.008 C 
ATOM      8  C   UNL     1       7.185  -1.988   4.031  1.00  0.00     0.143 C 
ATOM      9  C   UNL     1       8.418  -1.069   4.145  1.00  0.00     0.034 C 
ENDROOT
BRANCH   1  10
ATOM     10  C   UNL     1       8.394  -4.982   0.471  1.00  0.00     0.246 C 
ATOM     11  O   UNL     1       7.439  -5.762   0.548  1.00  0.00    -0.272 OA
BRANCH  10  12
ATOM     12  C   UNL     1       8.975  -4.548  -0.906  1.00  0.00     0.174 C 
BRANCH  12  13
ATOM     13  N   UNL     1      10.365  -4.988  -1.021  1.00  0.00    -0.342 N 
ATOM     14  C   UNL     1      10.904  -5.627  -2.116  1.00  0.00     0.249 C 
ATOM     15  O   UNL     1      10.276  -5.875  -3.138  1.00  0.00    -0.272 OA
ATOM     16  H   UNL     1      10.962  -4.992  -0.198  1.00  0.00     0.164 HD
BRANCH  14  17
ATOM     17  C   UNL     1      12.394  -5.980  -1.926  1.00  0.00     0.207 C 
BRANCH  17  18
ATOM     18  C   UNL     1      12.770  -5.936  -0.441  1.00  0.00     0.077 C 
BRANCH  18  19
ATOM     19  C   UNL     1      13.159  -7.301   0.080  1.00  0.00    -0.043 A 
ATOM     20  C   UNL     1      13.710  -9.628  -0.325  1.00  0.00     0.083 A 
ATOM     21  C   UNL     1      13.400  -8.358  -0.811  1.00  0.00     0.028 A 
ATOM     22  C   UNL     1      13.780  -9.851   1.051  1.00  0.00     0.134 A 
ATOM     23  C   UNL     1      13.544  -8.814   1.945  1.00  0.00     0.048 A 
ATOM     24  C   UNL     1      13.231  -7.541   1.461  1.00  0.00     0.008 A 
ATOM     25  Cl  UNL     1      14.003 -10.914  -1.436  1.00  0.00    -0.080 Cl
BRANCH  22  26
ATOM     26  O   UNL     1      14.070 -11.082   1.575  1.00  0.00    -0.506 OA
ATOM     27  H   UNL     1      13.404 -11.257   2.265  1.00  0.00     0.293 HD
ENDBRANCH  22  26
ENDBRANCH  18  19
ENDBRANCH  17  18
BRANCH  17  28
ATOM     28  O   UNL     1      13.237  -5.075  -2.658  1.00  0.00    -0.383 OA
ATOM     29  H   UNL     1      14.070  -5.567  -2.840  1.00  0.00     0.211 HD
ENDBRANCH  17  28
ENDBRANCH  14  17
ENDBRANCH  12  13
BRANCH  12  30
ATOM     30  C   UNL     1       8.811  -3.028  -1.174  1.00  0.00     0.018 C 
ATOM     31  C   UNL     1       8.232  -2.780  -2.576  1.00  0.00     0.010 C 
BRANCH  30  32
ATOM     32  C   UNL     1      10.118  -2.219  -0.988  1.00  0.00     0.002 C 
ATOM     33  C   UNL     1      10.436  -1.229  -2.101  1.00  0.00     0.004 C 
ENDBRANCH  30  32
ENDBRANCH  12  30
ENDBRANCH  10  12
ENDBRANCH   1  10
BRANCH   5  34
ATOM     34  C   UNL     1       9.691  -6.239   3.210  1.00  0.00     0.242 C 
ATOM     35  O   UNL     1       8.510  -6.520   3.414  1.00  0.00    -0.273 OA
ATOM     36  N   UNL     1      10.725  -6.870   3.865  1.00  0.00    -0.354 N 
ATOM     37  H   UNL     1      11.674  -6.512   3.745  1.00  0.00     0.163 HD
BRANCH  36  38
ATOM     38  C   UNL     1      10.529  -8.081   4.633  1.00  0.00     0.116 C 
BRANCH  38  39
ATOM     39  C   UNL     1      11.186  -7.938   6.004  1.00  0.00     0.023 C 
BRANCH  39  40
ATOM     40  C   UNL     1      10.204  -8.168   7.148  1.00  0.00     0.026 C 
BRANCH  40  41
ATOM     41  C   UNL     1       8.762  -8.012   6.664  1.00  0.00     0.146 C 
BRANCH  41  42
ATOM     42  N   UNL     1       7.943  -7.450   7.730  1.00  0.00    -0.254 NA
ATOM     43  C   UNL     1       7.756  -6.185   7.784  1.00  0.00     0.185 C 
ATOM     44  N   UNL     1       8.208  -5.208   6.977  1.00  0.00    -0.370 N 
ATOM     45  N   UNL     1       7.001  -5.686   8.777  1.00  0.00    -0.370 N 
ATOM     46  H   UNL     1       8.188  -4.247   7.274  1.00  0.00     0.159 HD
ATOM     47  H   UNL     1       8.784  -5.410   6.166  1.00  0.00     0.159 HD
ATOM     48  H   UNL     1       6.613  -6.357   9.426  1.00  0.00     0.159 HD
ATOM     49  H   UNL     1       6.617  -4.758   8.755  1.00  0.00     0.159 HD
ENDBRANCH  41  42
ENDBRANCH  40  41
ENDBRANCH  39  40
ENDBRANCH  38  39
ENDBRANCH  36  38
ENDBRANCH   5  34
BRANCH   8  50
ATOM     50  O   UNL     1       7.109  -2.792   5.209  1.00  0.00    -0.245 OA
BRANCH  50  51
ATOM     51  S   UNL     1       6.105  -2.359   6.413  1.00  0.00     0.397 S 
ATOM     52  O   UNL     1       6.771  -1.351   7.208  1.00  0.00    -0.169 OA
ATOM     53  O   UNL     1       5.530  -3.543   7.016  1.00  0.00    -0.169 OA
BRANCH  51  54
ATOM     54  O   UNL     1       4.938  -1.590   5.618  1.00  0.00    -0.264 OA
ATOM     55  H   UNL     1       4.124  -2.129   5.689  1.00  0.00     0.236 HD
ENDBRANCH  51  54
ENDBRANCH  50  51
ENDBRANCH   8  50
TORSDOF 19
ENDMDL
MODEL 43
REMARK VINA RESULT:    -5.672      5.320      9.467
REMARK INTER + INTRA:         -15.815
REMARK INTER:                 -13.514
REMARK INTRA:                  -2.301
REMARK UNBOUND:                -4.340
REMARK SMILES CC[C@@H](C)[C@@H](NC(=O)[C@@H](O)Cc1ccc(O)c(Cl)c1)C(=O)N1[C@H](C(=O)NCCCCN=C(N)N)C[C@H]2CC[C@H](OS(=O)(=O)O)C[C@@H]21
REMARK SMILES IDX 22 1 36 2 46 3 35 4 23 5 45 6 37 7 39 8 38 9 20 10 21 11
REMARK SMILES IDX 5 12 6 13 7 14 8 15 9 17 11 18 12 19 17 20 19 21 15 22 14 23
REMARK SMILES IDX 13 24 18 25 16 26 10 28 3 30 4 31 2 32 1 33 24 34 25 35
REMARK SMILES IDX 26 36 27 38 28 39 29 40 30 41 31 42 32 43 33 44 34 45 40 50
REMARK SMILES IDX 41 51 42 52 43 53 44 54
REMARK H PARENT 6 16 16 27 10 29 26 37 33 46 33 47 34 48 34 49 44 55
ROOT
ATOM      1  N   UNL     1      10.058  -1.336   5.294  1.00  0.00    -0.326 N 
ATOM      2  C   UNL     1      12.072  -1.842   4.184  1.00  0.00     0.014 C 
ATOM      3  C   UNL     1      11.452  -1.690   5.576  1.00  0.00     0.091 C 
ATOM      4  C   UNL     1      11.337  -0.784   3.374  1.00  0.00     0.041 C 
ATOM      5  C   UNL     1       9.894  -1.028   3.852  1.00  0.00     0.175 C 
ATOM      6  C   UNL     1      11.729  -2.966   6.369  1.00  0.00     0.059 C 
ATOM      7  C   UNL     1      13.586  -1.804   4.257  1.00  0.00     0.008 C 
ATOM      8  C   UNL     1      13.062  -3.651   5.999  1.00  0.00     0.143 C 
ATOM      9  C   UNL     1      14.094  -2.649   5.444  1.00  0.00     0.034 C 
ENDROOT
BRANCH   1  10
ATOM     10  C   UNL     1       9.020  -1.056   6.166  1.00  0.00     0.246 C 
ATOM     11  O   UNL     1       9.252  -0.403   7.189  1.00  0.00    -0.272 OA
BRANCH  10  12
ATOM     12  C   UNL     1       7.579  -1.533   5.820  1.00  0.00     0.174 C 
BRANCH  12  13
ATOM     13  N   UNL     1       6.630  -0.438   6.023  1.00  0.00    -0.342 N 
ATOM     14  C   UNL     1       5.859   0.132   5.035  1.00  0.00     0.249 C 
ATOM     15  O   UNL     1       5.863  -0.238   3.868  1.00  0.00    -0.272 OA
ATOM     16  H   UNL     1       6.632   0.074   6.901  1.00  0.00     0.164 HD
BRANCH  14  17
ATOM     17  C   UNL     1       4.970   1.279   5.561  1.00  0.00     0.207 C 
BRANCH  17  18
ATOM     18  C   UNL     1       4.073   1.818   4.442  1.00  0.00     0.077 C 
BRANCH  18  19
ATOM     19  C   UNL     1       2.614   1.511   4.693  1.00  0.00    -0.043 A 
ATOM     20  C   UNL     1       0.655   1.632   6.118  1.00  0.00     0.083 A 
ATOM     21  C   UNL     1       1.988   1.959   5.867  1.00  0.00     0.028 A 
ATOM     22  C   UNL     1      -0.058   0.856   5.204  1.00  0.00     0.134 A 
ATOM     23  C   UNL     1       0.550   0.405   4.038  1.00  0.00     0.048 A 
ATOM     24  C   UNL     1       1.884   0.730   3.784  1.00  0.00     0.008 A 
ATOM     25  Cl  UNL     1      -0.097   2.192   7.566  1.00  0.00    -0.080 Cl
BRANCH  22  26
ATOM     26  O   UNL     1      -1.364   0.501   5.413  1.00  0.00    -0.506 OA
ATOM     27  H   UNL     1      -1.842   1.317   5.648  1.00  0.00     0.293 HD
ENDBRANCH  22  26
ENDBRANCH  18  19
ENDBRANCH  17  18
BRANCH  17  28
ATOM     28  O   UNL     1       5.766   2.350   6.092  1.00  0.00    -0.383 OA
ATOM     29  H   UNL     1       5.831   2.187   7.060  1.00  0.00     0.211 HD
ENDBRANCH  17  28
ENDBRANCH  14  17
ENDBRANCH  12  13
BRANCH  12  30
ATOM     30  C   UNL     1       7.172  -2.819   6.588  1.00  0.00     0.018 C 
ATOM     31  C   UNL     1       8.022  -4.017   6.135  1.00  0.00     0.010 C 
BRANCH  30  32
ATOM     32  C   UNL     1       5.667  -3.161   6.473  1.00  0.00     0.002 C 
ATOM     33  C   UNL     1       5.088  -3.955   7.637  1.00  0.00     0.004 C 
ENDBRANCH  30  32
ENDBRANCH  12  30
ENDBRANCH  10  12
ENDBRANCH   1  10
BRANCH   5  34
ATOM     34  C   UNL     1       9.239  -2.221   3.106  1.00  0.00     0.242 C 
ATOM     35  O   UNL     1       9.760  -3.336   3.062  1.00  0.00    -0.273 OA
ATOM     36  N   UNL     1       8.062  -1.929   2.454  1.00  0.00    -0.354 N 
ATOM     37  H   UNL     1       7.743  -0.960   2.427  1.00  0.00     0.163 HD
BRANCH  36  38
ATOM     38  C   UNL     1       7.211  -2.959   1.895  1.00  0.00     0.116 C 
BRANCH  38  39
ATOM     39  C   UNL     1       7.440  -3.059   0.388  1.00  0.00     0.023 C 
BRANCH  39  40
ATOM     40  C   UNL     1       8.181  -4.332  -0.006  1.00  0.00     0.026 C 
BRANCH  40  41
ATOM     41  C   UNL     1       7.578  -4.940  -1.272  1.00  0.00     0.146 C 
BRANCH  41  42
ATOM     42  N   UNL     1       6.138  -4.714  -1.290  1.00  0.00    -0.254 NA
ATOM     43  C   UNL     1       5.459  -5.040  -2.325  1.00  0.00     0.185 C 
ATOM     44  N   UNL     1       5.860  -5.595  -3.484  1.00  0.00    -0.370 N 
ATOM     45  N   UNL     1       4.134  -4.819  -2.323  1.00  0.00    -0.370 N 
ATOM     46  H   UNL     1       5.267  -5.570  -4.296  1.00  0.00     0.159 HD
ATOM     47  H   UNL     1       6.831  -5.840  -3.649  1.00  0.00     0.159 HD
ATOM     48  H   UNL     1       3.749  -4.411  -1.483  1.00  0.00     0.159 HD
ATOM     49  H   UNL     1       3.510  -5.254  -2.979  1.00  0.00     0.159 HD
ENDBRANCH  41  42
ENDBRANCH  40  41
ENDBRANCH  39  40
ENDBRANCH  38  39
ENDBRANCH  36  38
ENDBRANCH   5  34
BRANCH   8  50
ATOM     50  O   UNL     1      12.837  -4.661   5.015  1.00  0.00    -0.245 OA
BRANCH  50  51
ATOM     51  S   UNL     1      12.436  -6.166   5.486  1.00  0.00     0.397 S 
ATOM     52  O   UNL     1      12.784  -6.304   6.882  1.00  0.00    -0.169 OA
ATOM     53  O   UNL     1      12.882  -7.121   4.493  1.00  0.00    -0.169 OA
BRANCH  51  54
ATOM     54  O   UNL     1      10.830  -6.115   5.438  1.00  0.00    -0.264 OA
ATOM     55  H   UNL     1      10.554  -5.199   5.646  1.00  0.00     0.236 HD
ENDBRANCH  51  54
ENDBRANCH  50  51
ENDBRANCH   8  50
TORSDOF 19
ENDMDL
MODEL 44
REMARK VINA RESULT:    -5.669      6.406      8.533
REMARK INTER + INTRA:         -15.809
REMARK INTER:                 -13.131
REMARK INTRA:                  -2.677
REMARK UNBOUND:                -4.340
REMARK SMILES CC[C@@H](C)[C@@H](NC(=O)[C@@H](O)Cc1ccc(O)c(Cl)c1)C(=O)N1[C@H](C(=O)NCCCCN=C(N)N)C[C@H]2CC[C@H](OS(=O)(=O)O)C[C@@H]21
REMARK SMILES IDX 22 1 36 2 46 3 35 4 23 5 45 6 37 7 39 8 38 9 20 10 21 11
REMARK SMILES IDX 5 12 6 13 7 14 8 15 9 17 11 18 12 19 17 20 19 21 15 22 14 23
REMARK SMILES IDX 13 24 18 25 16 26 10 28 3 30 4 31 2 32 1 33 24 34 25 35
REMARK SMILES IDX 26 36 27 38 28 39 29 40 30 41 31 42 32 43 33 44 34 45 40 50
REMARK SMILES IDX 41 51 42 52 43 53 44 54
REMARK H PARENT 6 16 16 27 10 29 26 37 33 46 33 47 34 48 34 49 44 55
ROOT
ATOM      1  N   UNL     1       3.889  -0.455   2.760  1.00  0.00    -0.326 N 
ATOM      2  C   UNL     1       2.389   0.838   4.034  1.00  0.00     0.014 C 
ATOM      3  C   UNL     1       3.813   0.275   4.029  1.00  0.00     0.091 C 
ATOM      4  C   UNL     1       1.595  -0.254   3.333  1.00  0.00     0.041 C 
ATOM      5  C   UNL     1       2.538  -0.563   2.155  1.00  0.00     0.175 C 
ATOM      6  C   UNL     1       4.789   1.428   4.260  1.00  0.00     0.059 C 
ATOM      7  C   UNL     1       1.983   1.274   5.428  1.00  0.00     0.008 C 
ATOM      8  C   UNL     1       4.221   2.553   5.153  1.00  0.00     0.143 C 
ATOM      9  C   UNL     1       3.135   2.034   6.117  1.00  0.00     0.034 C 
ENDROOT
BRANCH   1  10
ATOM     10  C   UNL     1       4.931  -1.187   2.218  1.00  0.00     0.246 C 
ATOM     11  O   UNL     1       5.638  -1.872   2.966  1.00  0.00    -0.272 OA
BRANCH  10  12
ATOM     12  C   UNL     1       5.165  -1.166   0.680  1.00  0.00     0.174 C 
BRANCH  12  13
ATOM     13  N   UNL     1       5.116  -2.528   0.149  1.00  0.00    -0.342 N 
ATOM     14  C   UNL     1       4.272  -2.957  -0.850  1.00  0.00     0.249 C 
ATOM     15  O   UNL     1       3.478  -2.228  -1.432  1.00  0.00    -0.272 OA
ATOM     16  H   UNL     1       5.603  -3.276   0.636  1.00  0.00     0.164 HD
BRANCH  14  17
ATOM     17  C   UNL     1       4.449  -4.455  -1.177  1.00  0.00     0.207 C 
BRANCH  17  18
ATOM     18  C   UNL     1       5.925  -4.854  -1.080  1.00  0.00     0.077 C 
BRANCH  18  19
ATOM     19  C   UNL     1       6.650  -4.647  -2.391  1.00  0.00    -0.043 A 
ATOM     20  C   UNL     1       7.383  -5.490  -4.544  1.00  0.00     0.083 A 
ATOM     21  C   UNL     1       6.671  -5.665  -3.357  1.00  0.00     0.028 A 
ATOM     22  C   UNL     1       8.076  -4.301  -4.773  1.00  0.00     0.134 A 
ATOM     23  C   UNL     1       8.064  -3.285  -3.825  1.00  0.00     0.048 A 
ATOM     24  C   UNL     1       7.354  -3.458  -2.635  1.00  0.00     0.008 A 
ATOM     25  Cl  UNL     1       7.397  -6.752  -5.719  1.00  0.00    -0.080 Cl
BRANCH  22  26
ATOM     26  O   UNL     1       8.797  -4.087  -5.917  1.00  0.00    -0.506 OA
ATOM     27  H   UNL     1       8.182  -3.697  -6.566  1.00  0.00     0.293 HD
ENDBRANCH  22  26
ENDBRANCH  18  19
ENDBRANCH  17  18
BRANCH  17  28
ATOM     28  O   UNL     1       3.958  -4.760  -2.492  1.00  0.00    -0.383 OA
ATOM     29  H   UNL     1       3.740  -5.719  -2.486  1.00  0.00     0.211 HD
ENDBRANCH  17  28
ENDBRANCH  14  17
ENDBRANCH  12  13
BRANCH  12  30
ATOM     30  C   UNL     1       6.467  -0.421   0.281  1.00  0.00     0.018 C 
ATOM     31  C   UNL     1       6.679   0.820   1.163  1.00  0.00     0.010 C 
BRANCH  30  32
ATOM     32  C   UNL     1       6.523  -0.025  -1.215  1.00  0.00     0.002 C 
ATOM     33  C   UNL     1       7.915  -0.016  -1.834  1.00  0.00     0.004 C 
ENDBRANCH  30  32
ENDBRANCH  12  30
ENDBRANCH  10  12
ENDBRANCH   1  10
BRANCH   5  34
ATOM     34  C   UNL     1       2.369   0.462   1.002  1.00  0.00     0.242 C 
ATOM     35  O   UNL     1       1.649   0.243   0.028  1.00  0.00    -0.273 OA
ATOM     36  N   UNL     1       3.122   1.609   1.122  1.00  0.00    -0.354 N 
ATOM     37  H   UNL     1       3.790   1.680   1.891  1.00  0.00     0.163 HD
BRANCH  36  38
ATOM     38  C   UNL     1       2.927   2.755   0.259  1.00  0.00     0.116 C 
BRANCH  38  39
ATOM     39  C   UNL     1       2.115   3.822   0.990  1.00  0.00     0.023 C 
BRANCH  39  40
ATOM     40  C   UNL     1       0.641   3.800   0.600  1.00  0.00     0.026 C 
BRANCH  40  41
ATOM     41  C   UNL     1      -0.170   2.964   1.590  1.00  0.00     0.146 C 
BRANCH  41  42
ATOM     42  N   UNL     1      -0.103   3.567   2.915  1.00  0.00    -0.254 NA
ATOM     43  C   UNL     1      -0.825   3.098   3.862  1.00  0.00     0.185 C 
ATOM     44  N   UNL     1      -1.698   2.074   3.858  1.00  0.00    -0.370 N 
ATOM     45  N   UNL     1      -0.752   3.671   5.074  1.00  0.00    -0.370 N 
ATOM     46  H   UNL     1      -2.371   1.971   4.598  1.00  0.00     0.159 HD
ATOM     47  H   UNL     1      -1.866   1.519   3.024  1.00  0.00     0.159 HD
ATOM     48  H   UNL     1      -0.109   4.447   5.165  1.00  0.00     0.159 HD
ATOM     49  H   UNL     1      -1.093   3.227   5.908  1.00  0.00     0.159 HD
ENDBRANCH  41  42
ENDBRANCH  40  41
ENDBRANCH  39  40
ENDBRANCH  38  39
ENDBRANCH  36  38
ENDBRANCH   5  34
BRANCH   8  50
ATOM     50  O   UNL     1       3.654   3.582   4.343  1.00  0.00    -0.245 OA
BRANCH  50  51
ATOM     51  S   UNL     1       4.256   5.091   4.423  1.00  0.00     0.397 S 
ATOM     52  O   UNL     1       3.875   5.656   5.699  1.00  0.00    -0.169 OA
ATOM     53  O   UNL     1       3.999   5.785   3.178  1.00  0.00    -0.169 OA
BRANCH  51  54
ATOM     54  O   UNL     1       5.837   4.817   4.521  1.00  0.00    -0.264 OA
ATOM     55  H   UNL     1       6.297   5.671   4.389  1.00  0.00     0.236 HD
ENDBRANCH  51  54
ENDBRANCH  50  51
ENDBRANCH   8  50
TORSDOF 19
ENDMDL
MODEL 45
REMARK VINA RESULT:    -5.650      3.302      8.368
REMARK INTER + INTRA:         -15.771
REMARK INTER:                 -11.806
REMARK INTRA:                  -3.965
REMARK UNBOUND:                -4.340
REMARK SMILES CC[C@@H](C)[C@@H](NC(=O)[C@@H](O)Cc1ccc(O)c(Cl)c1)C(=O)N1[C@H](C(=O)NCCCCN=C(N)N)C[C@H]2CC[C@H](OS(=O)(=O)O)C[C@@H]21
REMARK SMILES IDX 22 1 36 2 46 3 35 4 23 5 45 6 37 7 39 8 38 9 20 10 21 11
REMARK SMILES IDX 5 12 6 13 7 14 8 15 9 17 11 18 12 19 17 20 19 21 15 22 14 23
REMARK SMILES IDX 13 24 18 25 16 26 10 28 3 30 4 31 2 32 1 33 24 34 25 35
REMARK SMILES IDX 26 36 27 38 28 39 29 40 30 41 31 42 32 43 33 44 34 45 40 50
REMARK SMILES IDX 41 51 42 52 43 53 44 54
REMARK H PARENT 6 16 16 27 10 29 26 37 33 46 33 47 34 48 34 49 44 55
ROOT
ATOM      1  N   UNL     1       9.953  -4.663   2.505  1.00  0.00    -0.326 N 
ATOM      2  C   UNL     1      11.680  -3.803   1.156  1.00  0.00     0.014 C 
ATOM      3  C   UNL     1      11.267  -5.033   1.968  1.00  0.00     0.091 C 
ATOM      4  C   UNL     1      11.094  -2.655   1.964  1.00  0.00     0.041 C 
ATOM      5  C   UNL     1       9.695  -3.222   2.267  1.00  0.00     0.175 C 
ATOM      6  C   UNL     1      11.361  -6.262   1.066  1.00  0.00     0.059 C 
ATOM      7  C   UNL     1      13.167  -3.822   0.862  1.00  0.00     0.008 C 
ATOM      8  C   UNL     1      12.473  -6.165  -0.001  1.00  0.00     0.143 C 
ATOM      9  C   UNL     1      13.621  -5.235   0.441  1.00  0.00     0.034 C 
ENDROOT
BRANCH   1  10
ATOM     10  C   UNL     1       9.100  -5.375   3.331  1.00  0.00     0.246 C 
ATOM     11  O   UNL     1       8.157  -5.996   2.830  1.00  0.00    -0.272 OA
BRANCH  10  12
ATOM     12  C   UNL     1       9.370  -5.411   4.863  1.00  0.00     0.174 C 
BRANCH  12  13
ATOM     13  N   UNL     1       9.974  -4.151   5.293  1.00  0.00    -0.342 N 
ATOM     14  C   UNL     1       9.356  -3.207   6.083  1.00  0.00     0.249 C 
ATOM     15  O   UNL     1       8.228  -3.334   6.541  1.00  0.00    -0.272 OA
ATOM     16  H   UNL     1      10.842  -3.837   4.867  1.00  0.00     0.164 HD
BRANCH  14  17
ATOM     17  C   UNL     1      10.249  -1.976   6.349  1.00  0.00     0.207 C 
BRANCH  17  18
ATOM     18  C   UNL     1      11.720  -2.391   6.443  1.00  0.00     0.077 C 
BRANCH  18  19
ATOM     19  C   UNL     1      12.553  -1.762   5.348  1.00  0.00    -0.043 A 
ATOM     20  C   UNL     1      13.018   0.103   3.869  1.00  0.00     0.083 A 
ATOM     21  C   UNL     1      12.280  -0.456   4.913  1.00  0.00     0.028 A 
ATOM     22  C   UNL     1      14.030  -0.637   3.254  1.00  0.00     0.134 A 
ATOM     23  C   UNL     1      14.310  -1.931   3.676  1.00  0.00     0.048 A 
ATOM     24  C   UNL     1      13.572  -2.494   4.719  1.00  0.00     0.008 A 
ATOM     25  Cl  UNL     1      12.668   1.709   3.347  1.00  0.00    -0.080 Cl
BRANCH  22  26
ATOM     26  O   UNL     1      14.773  -0.135   2.220  1.00  0.00    -0.506 OA
ATOM     27  H   UNL     1      15.016  -0.893   1.657  1.00  0.00     0.293 HD
ENDBRANCH  22  26
ENDBRANCH  18  19
ENDBRANCH  17  18
BRANCH  17  28
ATOM     28  O   UNL     1       9.863  -1.309   7.561  1.00  0.00    -0.383 OA
ATOM     29  H   UNL     1      10.513  -1.591   8.245  1.00  0.00     0.211 HD
ENDBRANCH  17  28
ENDBRANCH  14  17
ENDBRANCH  12  13
BRANCH  12  30
ATOM     30  C   UNL     1      10.205  -6.646   5.296  1.00  0.00     0.018 C 
ATOM     31  C   UNL     1      11.702  -6.301   5.353  1.00  0.00     0.010 C 
BRANCH  30  32
ATOM     32  C   UNL     1       9.980  -7.892   4.405  1.00  0.00     0.002 C 
ATOM     33  C   UNL     1       8.934  -8.876   4.914  1.00  0.00     0.004 C 
ENDBRANCH  30  32
ENDBRANCH  12  30
ENDBRANCH  10  12
ENDBRANCH   1  10
BRANCH   5  34
ATOM     34  C   UNL     1       8.727  -3.027   1.069  1.00  0.00     0.242 C 
ATOM     35  O   UNL     1       8.509  -1.922   0.572  1.00  0.00    -0.273 OA
ATOM     36  N   UNL     1       8.089  -4.169   0.639  1.00  0.00    -0.354 N 
ATOM     37  H   UNL     1       8.219  -5.033   1.168  1.00  0.00     0.163 HD
BRANCH  36  38
ATOM     38  C   UNL     1       7.326  -4.212  -0.590  1.00  0.00     0.116 C 
BRANCH  38  39
ATOM     39  C   UNL     1       5.912  -4.715  -0.305  1.00  0.00     0.023 C 
BRANCH  39  40
ATOM     40  C   UNL     1       5.033  -4.720  -1.551  1.00  0.00     0.026 C 
BRANCH  40  41
ATOM     41  C   UNL     1       5.841  -4.321  -2.786  1.00  0.00     0.146 C 
BRANCH  41  42
ATOM     42  N   UNL     1       5.771  -5.380  -3.784  1.00  0.00    -0.254 NA
ATOM     43  C   UNL     1       6.838  -5.998  -4.128  1.00  0.00     0.185 C 
ATOM     44  N   UNL     1       8.105  -5.838  -3.704  1.00  0.00    -0.370 N 
ATOM     45  N   UNL     1       6.752  -6.968  -5.053  1.00  0.00    -0.370 N 
ATOM     46  H   UNL     1       8.873  -6.218  -4.231  1.00  0.00     0.159 HD
ATOM     47  H   UNL     1       8.347  -5.154  -2.994  1.00  0.00     0.159 HD
ATOM     48  H   UNL     1       5.829  -7.159  -5.418  1.00  0.00     0.159 HD
ATOM     49  H   UNL     1       7.479  -7.646  -5.199  1.00  0.00     0.159 HD
ENDBRANCH  41  42
ENDBRANCH  40  41
ENDBRANCH  39  40
ENDBRANCH  38  39
ENDBRANCH  36  38
ENDBRANCH   5  34
BRANCH   8  50
ATOM     50  O   UNL     1      11.934  -5.670  -1.227  1.00  0.00    -0.245 OA
BRANCH  50  51
ATOM     51  S   UNL     1      12.381  -6.352  -2.634  1.00  0.00     0.397 S 
ATOM     52  O   UNL     1      12.886  -7.676  -2.348  1.00  0.00    -0.169 OA
ATOM     53  O   UNL     1      13.143  -5.400  -3.415  1.00  0.00    -0.169 OA
BRANCH  51  54
ATOM     54  O   UNL     1      10.965  -6.572  -3.365  1.00  0.00    -0.264 OA
ATOM     55  H   UNL     1      11.145  -6.834  -4.291  1.00  0.00     0.236 HD
ENDBRANCH  51  54
ENDBRANCH  50  51
ENDBRANCH   8  50
TORSDOF 19
ENDMDL
MODEL 46
REMARK VINA RESULT:    -5.605      4.428      8.815
REMARK INTER + INTRA:         -15.680
REMARK INTER:                 -12.457
REMARK INTRA:                  -3.223
REMARK UNBOUND:                -4.340
REMARK SMILES CC[C@@H](C)[C@@H](NC(=O)[C@@H](O)Cc1ccc(O)c(Cl)c1)C(=O)N1[C@H](C(=O)NCCCCN=C(N)N)C[C@H]2CC[C@H](OS(=O)(=O)O)C[C@@H]21
REMARK SMILES IDX 22 1 36 2 46 3 35 4 23 5 45 6 37 7 39 8 38 9 20 10 21 11
REMARK SMILES IDX 5 12 6 13 7 14 8 15 9 17 11 18 12 19 17 20 19 21 15 22 14 23
REMARK SMILES IDX 13 24 18 25 16 26 10 28 3 30 4 31 2 32 1 33 24 34 25 35
REMARK SMILES IDX 26 36 27 38 28 39 29 40 30 41 31 42 32 43 33 44 34 45 40 50
REMARK SMILES IDX 41 51 42 52 43 53 44 54
REMARK H PARENT 6 16 16 27 10 29 26 37 33 46 33 47 34 48 34 49 44 55
ROOT
ATOM      1  N   UNL     1      10.507  -3.674   3.304  1.00  0.00    -0.326 N 
ATOM      2  C   UNL     1      10.287  -6.016   3.391  1.00  0.00     0.014 C 
ATOM      3  C   UNL     1      10.887  -4.820   4.135  1.00  0.00     0.091 C 
ATOM      4  C   UNL     1      10.428  -5.607   1.932  1.00  0.00     0.041 C 
ATOM      5  C   UNL     1       9.951  -4.146   2.012  1.00  0.00     0.175 C 
ATOM      6  C   UNL     1      10.400  -4.858   5.583  1.00  0.00     0.059 C 
ATOM      7  C   UNL     1      10.910  -7.315   3.862  1.00  0.00     0.008 C 
ATOM      8  C   UNL     1      10.168  -6.286   6.122  1.00  0.00     0.143 C 
ATOM      9  C   UNL     1      11.044  -7.329   5.399  1.00  0.00     0.034 C 
ENDROOT
BRANCH   1  10
ATOM     10  C   UNL     1      10.787  -2.328   3.467  1.00  0.00     0.246 C 
ATOM     11  O   UNL     1      11.205  -1.679   2.502  1.00  0.00    -0.272 OA
BRANCH  10  12
ATOM     12  C   UNL     1      10.528  -1.652   4.845  1.00  0.00     0.174 C 
BRANCH  12  13
ATOM     13  N   UNL     1       9.099  -1.392   5.013  1.00  0.00    -0.342 N 
ATOM     14  C   UNL     1       8.374  -1.665   6.151  1.00  0.00     0.249 C 
ATOM     15  O   UNL     1       8.859  -2.136   7.172  1.00  0.00    -0.272 OA
ATOM     16  H   UNL     1       8.533  -1.149   4.203  1.00  0.00     0.164 HD
BRANCH  14  17
ATOM     17  C   UNL     1       6.883  -1.292   6.011  1.00  0.00     0.207 C 
BRANCH  17  18
ATOM     18  C   UNL     1       6.604  -0.710   4.622  1.00  0.00     0.077 C 
BRANCH  18  19
ATOM     19  C   UNL     1       5.121  -0.592   4.349  1.00  0.00    -0.043 A 
ATOM     20  C   UNL     1       3.168   0.774   3.898  1.00  0.00     0.083 A 
ATOM     21  C   UNL     1       4.544   0.663   4.101  1.00  0.00     0.028 A 
ATOM     22  C   UNL     1       2.362  -0.364   3.943  1.00  0.00     0.134 A 
ATOM     23  C   UNL     1       2.920  -1.613   4.187  1.00  0.00     0.048 A 
ATOM     24  C   UNL     1       4.297  -1.727   4.392  1.00  0.00     0.008 A 
ATOM     25  Cl  UNL     1       2.477   2.325   3.595  1.00  0.00    -0.080 Cl
BRANCH  22  26
ATOM     26  O   UNL     1       1.007  -0.304   3.761  1.00  0.00    -0.506 OA
ATOM     27  H   UNL     1       0.663  -1.203   3.913  1.00  0.00     0.293 HD
ENDBRANCH  22  26
ENDBRANCH  18  19
ENDBRANCH  17  18
BRANCH  17  28
ATOM     28  O   UNL     1       6.491  -0.341   7.014  1.00  0.00    -0.383 OA
ATOM     29  H   UNL     1       6.318   0.502   6.536  1.00  0.00     0.211 HD
ENDBRANCH  17  28
ENDBRANCH  14  17
ENDBRANCH  12  13
BRANCH  12  30
ATOM     30  C   UNL     1      11.391  -0.380   5.061  1.00  0.00     0.018 C 
ATOM     31  C   UNL     1      12.841  -0.755   5.404  1.00  0.00     0.010 C 
BRANCH  30  32
ATOM     32  C   UNL     1      10.823   0.583   6.132  1.00  0.00     0.002 C 
ATOM     33  C   UNL     1      11.343   0.362   7.547  1.00  0.00     0.004 C 
ENDBRANCH  30  32
ENDBRANCH  12  30
ENDBRANCH  10  12
ENDBRANCH   1  10
BRANCH   5  34
ATOM     34  C   UNL     1       8.402  -4.048   2.011  1.00  0.00     0.242 C 
ATOM     35  O   UNL     1       7.760  -3.772   3.024  1.00  0.00    -0.273 OA
ATOM     36  N   UNL     1       7.797  -4.346   0.810  1.00  0.00    -0.354 N 
ATOM     37  H   UNL     1       8.375  -4.685   0.040  1.00  0.00     0.163 HD
BRANCH  36  38
ATOM     38  C   UNL     1       6.390  -4.099   0.571  1.00  0.00     0.116 C 
BRANCH  38  39
ATOM     39  C   UNL     1       5.947  -4.819  -0.700  1.00  0.00     0.023 C 
BRANCH  39  40
ATOM     40  C   UNL     1       4.539  -4.423  -1.133  1.00  0.00     0.026 C 
BRANCH  40  41
ATOM     41  C   UNL     1       4.430  -2.908  -1.303  1.00  0.00     0.146 C 
BRANCH  41  42
ATOM     42  N   UNL     1       3.159  -2.442  -0.766  1.00  0.00    -0.254 NA
ATOM     43  C   UNL     1       3.149  -1.585   0.185  1.00  0.00     0.185 C 
ATOM     44  N   UNL     1       4.173  -0.991   0.825  1.00  0.00    -0.370 N 
ATOM     45  N   UNL     1       1.967  -1.172   0.670  1.00  0.00    -0.370 N 
ATOM     46  H   UNL     1       4.028  -0.530   1.707  1.00  0.00     0.159 HD
ATOM     47  H   UNL     1       5.139  -1.180   0.575  1.00  0.00     0.159 HD
ATOM     48  H   UNL     1       1.142  -1.565   0.236  1.00  0.00     0.159 HD
ATOM     49  H   UNL     1       1.868  -0.347   1.234  1.00  0.00     0.159 HD
ENDBRANCH  41  42
ENDBRANCH  40  41
ENDBRANCH  39  40
ENDBRANCH  38  39
ENDBRANCH  36  38
ENDBRANCH   5  34
BRANCH   8  50
ATOM     50  O   UNL     1       8.798  -6.655   5.960  1.00  0.00    -0.245 OA
BRANCH  50  51
ATOM     51  S   UNL     1       7.994  -7.328   7.203  1.00  0.00     0.397 S 
ATOM     52  O   UNL     1       8.890  -7.382   8.337  1.00  0.00    -0.169 OA
ATOM     53  O   UNL     1       7.281  -8.501   6.743  1.00  0.00    -0.169 OA
BRANCH  51  54
ATOM     54  O   UNL     1       6.910  -6.195   7.556  1.00  0.00    -0.264 OA
ATOM     55  H   UNL     1       7.372  -5.479   8.038  1.00  0.00     0.236 HD
ENDBRANCH  51  54
ENDBRANCH  50  51
ENDBRANCH   8  50
TORSDOF 19
ENDMDL
MODEL 47
REMARK VINA RESULT:    -5.563      4.799      8.562
REMARK INTER + INTRA:         -15.595
REMARK INTER:                 -12.272
REMARK INTRA:                  -3.323
REMARK UNBOUND:                -4.340
REMARK SMILES CC[C@@H](C)[C@@H](NC(=O)[C@@H](O)Cc1ccc(O)c(Cl)c1)C(=O)N1[C@H](C(=O)NCCCCN=C(N)N)C[C@H]2CC[C@H](OS(=O)(=O)O)C[C@@H]21
REMARK SMILES IDX 22 1 36 2 46 3 35 4 23 5 45 6 37 7 39 8 38 9 20 10 21 11
REMARK SMILES IDX 5 12 6 13 7 14 8 15 9 17 11 18 12 19 17 20 19 21 15 22 14 23
REMARK SMILES IDX 13 24 18 25 16 26 10 28 3 30 4 31 2 32 1 33 24 34 25 35
REMARK SMILES IDX 26 36 27 38 28 39 29 40 30 41 31 42 32 43 33 44 34 45 40 50
REMARK SMILES IDX 41 51 42 52 43 53 44 54
REMARK H PARENT 6 16 16 27 10 29 26 37 33 46 33 47 34 48 34 49 44 55
ROOT
ATOM      1  N   UNL     1      10.217  -5.547   4.537  1.00  0.00    -0.326 N 
ATOM      2  C   UNL     1      11.807  -6.521   5.973  1.00  0.00     0.014 C 
ATOM      3  C   UNL     1      10.546  -6.831   5.162  1.00  0.00     0.091 C 
ATOM      4  C   UNL     1      11.566  -5.092   6.434  1.00  0.00     0.041 C 
ATOM      5  C   UNL     1      11.048  -4.468   5.125  1.00  0.00     0.175 C 
ATOM      6  C   UNL     1      10.836  -8.025   4.254  1.00  0.00     0.059 C 
ATOM      7  C   UNL     1      12.067  -7.601   7.005  1.00  0.00     0.008 C 
ATOM      8  C   UNL     1      11.844  -9.030   4.853  1.00  0.00     0.143 C 
ATOM      9  C   UNL     1      11.844  -9.001   6.395  1.00  0.00     0.034 C 
ENDROOT
BRANCH   1  10
ATOM     10  C   UNL     1       9.164  -5.210   3.703  1.00  0.00     0.246 C 
ATOM     11  O   UNL     1       8.507  -6.110   3.170  1.00  0.00    -0.272 OA
BRANCH  10  12
ATOM     12  C   UNL     1       8.805  -3.711   3.489  1.00  0.00     0.174 C 
BRANCH  12  13
ATOM     13  N   UNL     1       7.461  -3.442   4.000  1.00  0.00    -0.342 N 
ATOM     14  C   UNL     1       7.176  -2.945   5.252  1.00  0.00     0.249 C 
ATOM     15  O   UNL     1       8.030  -2.644   6.077  1.00  0.00    -0.272 OA
ATOM     16  H   UNL     1       6.651  -3.788   3.492  1.00  0.00     0.164 HD
BRANCH  14  17
ATOM     17  C   UNL     1       5.661  -2.788   5.500  1.00  0.00     0.207 C 
BRANCH  17  18
ATOM     18  C   UNL     1       5.049  -1.819   4.483  1.00  0.00     0.077 C 
BRANCH  18  19
ATOM     19  C   UNL     1       4.736  -0.477   5.105  1.00  0.00    -0.043 A 
ATOM     20  C   UNL     1       3.137   1.260   5.664  1.00  0.00     0.083 A 
ATOM     21  C   UNL     1       3.416  -0.000   5.134  1.00  0.00     0.028 A 
ATOM     22  C   UNL     1       4.172   2.051   6.165  1.00  0.00     0.134 A 
ATOM     23  C   UNL     1       5.483   1.592   6.142  1.00  0.00     0.048 A 
ATOM     24  C   UNL     1       5.766   0.331   5.611  1.00  0.00     0.008 A 
ATOM     25  Cl  UNL     1       1.509   1.828   5.690  1.00  0.00    -0.080 Cl
BRANCH  22  26
ATOM     26  O   UNL     1       3.949   3.298   6.684  1.00  0.00    -0.506 OA
ATOM     27  H   UNL     1       4.051   3.930   5.949  1.00  0.00     0.293 HD
ENDBRANCH  22  26
ENDBRANCH  18  19
ENDBRANCH  17  18
BRANCH  17  28
ATOM     28  O   UNL     1       5.400  -2.311   6.830  1.00  0.00    -0.383 OA
ATOM     29  H   UNL     1       5.056  -3.083   7.333  1.00  0.00     0.211 HD
ENDBRANCH  17  28
ENDBRANCH  14  17
ENDBRANCH  12  13
BRANCH  12  30
ATOM     30  C   UNL     1       8.980  -3.256   2.015  1.00  0.00     0.018 C 
ATOM     31  C   UNL     1      10.114  -2.227   1.892  1.00  0.00     0.010 C 
BRANCH  30  32
ATOM     32  C   UNL     1       7.684  -2.698   1.379  1.00  0.00     0.002 C 
ATOM     33  C   UNL     1       7.593  -1.179   1.311  1.00  0.00     0.004 C 
ENDBRANCH  30  32
ENDBRANCH  12  30
ENDBRANCH  10  12
ENDBRANCH   1  10
BRANCH   5  34
ATOM     34  C   UNL     1      12.212  -4.088   4.172  1.00  0.00     0.242 C 
ATOM     35  O   UNL     1      12.434  -4.701   3.128  1.00  0.00    -0.273 OA
ATOM     36  N   UNL     1      13.008  -3.051   4.604  1.00  0.00    -0.354 N 
ATOM     37  H   UNL     1      12.846  -2.662   5.534  1.00  0.00     0.163 HD
BRANCH  36  38
ATOM     38  C   UNL     1      13.998  -2.428   3.750  1.00  0.00     0.116 C 
BRANCH  38  39
ATOM     39  C   UNL     1      14.116  -0.944   4.090  1.00  0.00     0.023 C 
BRANCH  39  40
ATOM     40  C   UNL     1      12.771  -0.227   4.046  1.00  0.00     0.026 C 
BRANCH  40  41
ATOM     41  C   UNL     1      12.452   0.410   5.399  1.00  0.00     0.146 C 
BRANCH  41  42
ATOM     42  N   UNL     1      12.074  -0.624   6.354  1.00  0.00    -0.254 NA
ATOM     43  C   UNL     1      10.841  -0.788   6.655  1.00  0.00     0.185 C 
ATOM     44  N   UNL     1       9.749  -0.133   6.219  1.00  0.00    -0.370 N 
ATOM     45  N   UNL     1      10.514  -1.743   7.540  1.00  0.00    -0.370 N 
ATOM     46  H   UNL     1       8.878  -0.199   6.717  1.00  0.00     0.159 HD
ATOM     47  H   UNL     1       9.814   0.614   5.533  1.00  0.00     0.159 HD
ATOM     48  H   UNL     1      11.278  -2.291   7.912  1.00  0.00     0.159 HD
ATOM     49  H   UNL     1       9.577  -2.088   7.647  1.00  0.00     0.159 HD
ENDBRANCH  41  42
ENDBRANCH  40  41
ENDBRANCH  39  40
ENDBRANCH  38  39
ENDBRANCH  36  38
ENDBRANCH   5  34
BRANCH   8  50
ATOM     50  O   UNL     1      13.163  -8.734   4.394  1.00  0.00    -0.245 OA
BRANCH  50  51
ATOM     51  S   UNL     1      13.847  -9.674   3.256  1.00  0.00     0.397 S 
ATOM     52  O   UNL     1      14.261 -10.908   3.885  1.00  0.00    -0.169 OA
ATOM     53  O   UNL     1      14.762  -8.883   2.459  1.00  0.00    -0.169 OA
BRANCH  51  54
ATOM     54  O   UNL     1      12.587 -10.053   2.333  1.00  0.00    -0.264 OA
ATOM     55  H   UNL     1      12.367 -10.993   2.499  1.00  0.00     0.236 HD
ENDBRANCH  51  54
ENDBRANCH  50  51
ENDBRANCH   8  50
TORSDOF 19
ENDMDL
MODEL 48
REMARK VINA RESULT:    -5.554      3.257      5.837
REMARK INTER + INTRA:         -15.576
REMARK INTER:                 -12.851
REMARK INTRA:                  -2.725
REMARK UNBOUND:                -4.340
REMARK SMILES CC[C@@H](C)[C@@H](NC(=O)[C@@H](O)Cc1ccc(O)c(Cl)c1)C(=O)N1[C@H](C(=O)NCCCCN=C(N)N)C[C@H]2CC[C@H](OS(=O)(=O)O)C[C@@H]21
REMARK SMILES IDX 22 1 36 2 46 3 35 4 23 5 45 6 37 7 39 8 38 9 20 10 21 11
REMARK SMILES IDX 5 12 6 13 7 14 8 15 9 17 11 18 12 19 17 20 19 21 15 22 14 23
REMARK SMILES IDX 13 24 18 25 16 26 10 28 3 30 4 31 2 32 1 33 24 34 25 35
REMARK SMILES IDX 26 36 27 38 28 39 29 40 30 41 31 42 32 43 33 44 34 45 40 50
REMARK SMILES IDX 41 51 42 52 43 53 44 54
REMARK H PARENT 6 16 16 27 10 29 26 37 33 46 33 47 34 48 34 49 44 55
ROOT
ATOM      1  N   UNL     1      10.495  -5.267   3.557  1.00  0.00    -0.326 N 
ATOM      2  C   UNL     1       9.943  -6.457   5.512  1.00  0.00     0.014 C 
ATOM      3  C   UNL     1      10.690  -6.579   4.181  1.00  0.00     0.091 C 
ATOM      4  C   UNL     1       8.766  -5.562   5.154  1.00  0.00     0.041 C 
ATOM      5  C   UNL     1       9.484  -4.489   4.316  1.00  0.00     0.175 C 
ATOM      6  C   UNL     1      12.118  -7.038   4.470  1.00  0.00     0.059 C 
ATOM      7  C   UNL     1       9.682  -7.823   6.115  1.00  0.00     0.008 C 
ATOM      8  C   UNL     1      12.239  -7.953   5.708  1.00  0.00     0.143 C 
ATOM      9  C   UNL     1      10.931  -8.720   5.990  1.00  0.00     0.034 C 
ENDROOT
BRANCH   1  10
ATOM     10  C   UNL     1      10.928  -4.795   2.330  1.00  0.00     0.246 C 
ATOM     11  O   UNL     1      11.916  -4.055   2.286  1.00  0.00    -0.272 OA
BRANCH  10  12
ATOM     12  C   UNL     1      10.190  -5.238   1.033  1.00  0.00     0.174 C 
BRANCH  12  13
ATOM     13  N   UNL     1      11.054  -5.028  -0.128  1.00  0.00    -0.342 N 
ATOM     14  C   UNL     1      11.980  -5.931  -0.598  1.00  0.00     0.249 C 
ATOM     15  O   UNL     1      12.166  -7.037  -0.104  1.00  0.00    -0.272 OA
ATOM     16  H   UNL     1      11.124  -4.102  -0.543  1.00  0.00     0.164 HD
BRANCH  14  17
ATOM     17  C   UNL     1      12.749  -5.410  -1.831  1.00  0.00     0.207 C 
BRANCH  17  18
ATOM     18  C   UNL     1      12.213  -6.061  -3.110  1.00  0.00     0.077 C 
BRANCH  18  19
ATOM     19  C   UNL     1      10.874  -5.488  -3.515  1.00  0.00    -0.043 A 
ATOM     20  C   UNL     1       8.541  -5.805  -4.100  1.00  0.00     0.083 A 
ATOM     21  C   UNL     1       9.763  -6.330  -3.679  1.00  0.00     0.028 A 
ATOM     22  C   UNL     1       8.421  -4.439  -4.360  1.00  0.00     0.134 A 
ATOM     23  C   UNL     1       9.512  -3.593  -4.201  1.00  0.00     0.048 A 
ATOM     24  C   UNL     1      10.737  -4.117  -3.782  1.00  0.00     0.008 A 
ATOM     25  Cl  UNL     1       7.188  -6.856  -4.297  1.00  0.00    -0.080 Cl
BRANCH  22  26
ATOM     26  O   UNL     1       7.246  -3.880  -4.785  1.00  0.00    -0.506 OA
ATOM     27  H   UNL     1       6.797  -4.552  -5.331  1.00  0.00     0.293 HD
ENDBRANCH  22  26
ENDBRANCH  18  19
ENDBRANCH  17  18
BRANCH  17  28
ATOM     28  O   UNL     1      14.156  -5.675  -1.714  1.00  0.00    -0.383 OA
ATOM     29  H   UNL     1      14.239  -6.647  -1.579  1.00  0.00     0.211 HD
ENDBRANCH  17  28
ENDBRANCH  14  17
ENDBRANCH  12  13
BRANCH  12  30
ATOM     30  C   UNL     1       8.803  -4.560   0.871  1.00  0.00     0.018 C 
ATOM     31  C   UNL     1       7.690  -5.449   1.448  1.00  0.00     0.010 C 
BRANCH  30  32
ATOM     32  C   UNL     1       8.469  -4.170  -0.590  1.00  0.00     0.002 C 
ATOM     33  C   UNL     1       7.033  -4.436  -1.023  1.00  0.00     0.004 C 
ENDBRANCH  30  32
ENDBRANCH  12  30
ENDBRANCH  10  12
ENDBRANCH   1  10
BRANCH   5  34
ATOM     34  C   UNL     1      10.169  -3.425   5.214  1.00  0.00     0.242 C 
ATOM     35  O   UNL     1      11.384  -3.414   5.411  1.00  0.00    -0.273 OA
ATOM     36  N   UNL     1       9.315  -2.529   5.817  1.00  0.00    -0.354 N 
ATOM     37  H   UNL     1       8.308  -2.663   5.711  1.00  0.00     0.163 HD
BRANCH  36  38
ATOM     38  C   UNL     1       9.793  -1.350   6.507  1.00  0.00     0.116 C 
BRANCH  38  39
ATOM     39  C   UNL     1       8.748  -0.240   6.421  1.00  0.00     0.023 C 
BRANCH  39  40
ATOM     40  C   UNL     1       7.322  -0.776   6.481  1.00  0.00     0.026 C 
BRANCH  40  41
ATOM     41  C   UNL     1       6.464  -0.161   5.375  1.00  0.00     0.146 C 
BRANCH  41  42
ATOM     42  N   UNL     1       5.230   0.365   5.943  1.00  0.00    -0.254 NA
ATOM     43  C   UNL     1       4.704   1.420   5.445  1.00  0.00     0.185 C 
ATOM     44  N   UNL     1       5.110   2.188   4.417  1.00  0.00    -0.370 N 
ATOM     45  N   UNL     1       3.569   1.892   5.987  1.00  0.00    -0.370 N 
ATOM     46  H   UNL     1       4.740   3.115   4.292  1.00  0.00     0.159 HD
ATOM     47  H   UNL     1       5.945   1.967   3.885  1.00  0.00     0.159 HD
ATOM     48  H   UNL     1       3.189   1.367   6.762  1.00  0.00     0.159 HD
ATOM     49  H   UNL     1       2.977   2.556   5.518  1.00  0.00     0.159 HD
ENDBRANCH  41  42
ENDBRANCH  40  41
ENDBRANCH  39  40
ENDBRANCH  38  39
ENDBRANCH  36  38
ENDBRANCH   5  34
BRANCH   8  50
ATOM     50  O   UNL     1      12.567  -7.178   6.861  1.00  0.00    -0.245 OA
BRANCH  50  51
ATOM     51  S   UNL     1      13.098  -7.923   8.205  1.00  0.00     0.397 S 
ATOM     52  O   UNL     1      13.620  -9.216   7.823  1.00  0.00    -0.169 OA
ATOM     53  O   UNL     1      12.114  -7.784   9.259  1.00  0.00    -0.169 OA
BRANCH  51  54
ATOM     54  O   UNL     1      14.377  -7.033   8.601  1.00  0.00    -0.264 OA
ATOM     55  H   UNL     1      14.866  -6.831   7.777  1.00  0.00     0.236 HD
ENDBRANCH  51  54
ENDBRANCH  50  51
ENDBRANCH   8  50
TORSDOF 19
ENDMDL
MODEL 49
REMARK VINA RESULT:    -5.535      5.332      9.061
REMARK INTER + INTRA:         -15.537
REMARK INTER:                 -11.927
REMARK INTRA:                  -3.610
REMARK UNBOUND:                -4.340
REMARK SMILES CC[C@@H](C)[C@@H](NC(=O)[C@@H](O)Cc1ccc(O)c(Cl)c1)C(=O)N1[C@H](C(=O)NCCCCN=C(N)N)C[C@H]2CC[C@H](OS(=O)(=O)O)C[C@@H]21
REMARK SMILES IDX 22 1 36 2 46 3 35 4 23 5 45 6 37 7 39 8 38 9 20 10 21 11
REMARK SMILES IDX 5 12 6 13 7 14 8 15 9 17 11 18 12 19 17 20 19 21 15 22 14 23
REMARK SMILES IDX 13 24 18 25 16 26 10 28 3 30 4 31 2 32 1 33 24 34 25 35
REMARK SMILES IDX 26 36 27 38 28 39 29 40 30 41 31 42 32 43 33 44 34 45 40 50
REMARK SMILES IDX 41 51 42 52 43 53 44 54
REMARK H PARENT 6 16 16 27 10 29 26 37 33 46 33 47 34 48 34 49 44 55
ROOT
ATOM      1  N   UNL     1       8.113  -0.661   4.793  1.00  0.00    -0.326 N 
ATOM      2  C   UNL     1      10.262  -1.447   4.240  1.00  0.00     0.014 C 
ATOM      3  C   UNL     1       9.357  -1.107   5.428  1.00  0.00     0.091 C 
ATOM      4  C   UNL     1       9.855  -0.413   3.202  1.00  0.00     0.041 C 
ATOM      5  C   UNL     1       8.322  -0.482   3.335  1.00  0.00     0.175 C 
ATOM      6  C   UNL     1       9.303  -2.319   6.356  1.00  0.00     0.059 C 
ATOM      7  C   UNL     1      11.713  -1.535   4.672  1.00  0.00     0.008 C 
ATOM      8  C   UNL     1      10.603  -3.151   6.368  1.00  0.00     0.143 C 
ATOM      9  C   UNL     1      11.838  -2.302   6.006  1.00  0.00     0.034 C 
ENDROOT
BRANCH   1  10
ATOM     10  C   UNL     1       6.937  -0.209   5.367  1.00  0.00     0.246 C 
ATOM     11  O   UNL     1       6.945   0.157   6.547  1.00  0.00    -0.272 OA
BRANCH  10  12
ATOM     12  C   UNL     1       5.644  -0.131   4.504  1.00  0.00     0.174 C 
BRANCH  12  13
ATOM     13  N   UNL     1       5.411   1.249   4.078  1.00  0.00    -0.342 N 
ATOM     14  C   UNL     1       5.383   1.678   2.770  1.00  0.00     0.249 C 
ATOM     15  O   UNL     1       5.524   0.936   1.806  1.00  0.00    -0.272 OA
ATOM     16  H   UNL     1       5.434   1.999   4.765  1.00  0.00     0.164 HD
BRANCH  14  17
ATOM     17  C   UNL     1       5.133   3.196   2.647  1.00  0.00     0.207 C 
BRANCH  17  18
ATOM     18  C   UNL     1       4.004   3.473   1.648  1.00  0.00     0.077 C 
BRANCH  18  19
ATOM     19  C   UNL     1       2.680   2.923   2.130  1.00  0.00    -0.043 A 
ATOM     20  C   UNL     1       0.617   1.725   1.692  1.00  0.00     0.083 A 
ATOM     21  C   UNL     1       1.860   2.189   1.260  1.00  0.00     0.028 A 
ATOM     22  C   UNL     1       0.186   1.992   2.992  1.00  0.00     0.134 A 
ATOM     23  C   UNL     1       0.988   2.718   3.865  1.00  0.00     0.048 A 
ATOM     24  C   UNL     1       2.232   3.185   3.434  1.00  0.00     0.008 A 
ATOM     25  Cl  UNL     1      -0.377   0.824   0.608  1.00  0.00    -0.080 Cl
BRANCH  22  26
ATOM     26  O   UNL     1      -1.029   1.567   3.458  1.00  0.00    -0.506 OA
ATOM     27  H   UNL     1      -1.606   1.463   2.679  1.00  0.00     0.293 HD
ENDBRANCH  22  26
ENDBRANCH  18  19
ENDBRANCH  17  18
BRANCH  17  28
ATOM     28  O   UNL     1       6.322   3.884   2.225  1.00  0.00    -0.383 OA
ATOM     29  H   UNL     1       6.086   4.347   1.389  1.00  0.00     0.211 HD
ENDBRANCH  17  28
ENDBRANCH  14  17
ENDBRANCH  12  13
BRANCH  12  30
ATOM     30  C   UNL     1       4.409  -0.747   5.217  1.00  0.00     0.018 C 
ATOM     31  C   UNL     1       4.530  -2.277   5.293  1.00  0.00     0.010 C 
BRANCH  30  32
ATOM     32  C   UNL     1       3.058  -0.351   4.573  1.00  0.00     0.002 C 
ATOM     33  C   UNL     1       2.763  -1.000   3.227  1.00  0.00     0.004 C 
ENDBRANCH  30  32
ENDBRANCH  12  30
ENDBRANCH  10  12
ENDBRANCH   1  10
BRANCH   5  34
ATOM     34  C   UNL     1       7.733  -1.680   2.544  1.00  0.00     0.242 C 
ATOM     35  O   UNL     1       7.554  -2.784   3.058  1.00  0.00    -0.273 OA
ATOM     36  N   UNL     1       7.476  -1.434   1.214  1.00  0.00    -0.354 N 
ATOM     37  H   UNL     1       7.757  -0.536   0.817  1.00  0.00     0.163 HD
BRANCH  36  38
ATOM     38  C   UNL     1       6.731  -2.359   0.386  1.00  0.00     0.116 C 
BRANCH  38  39
ATOM     39  C   UNL     1       5.240  -2.245   0.692  1.00  0.00     0.023 C 
BRANCH  39  40
ATOM     40  C   UNL     1       4.443  -1.696  -0.486  1.00  0.00     0.026 C 
BRANCH  40  41
ATOM     41  C   UNL     1       3.606  -2.798  -1.136  1.00  0.00     0.146 C 
BRANCH  41  42
ATOM     42  N   UNL     1       4.351  -3.399  -2.234  1.00  0.00    -0.254 NA
ATOM     43  C   UNL     1       4.780  -4.600  -2.126  1.00  0.00     0.185 C 
ATOM     44  N   UNL     1       4.660  -5.474  -1.109  1.00  0.00    -0.370 N 
ATOM     45  N   UNL     1       5.469  -5.134  -3.148  1.00  0.00    -0.370 N 
ATOM     46  H   UNL     1       5.250  -6.287  -1.059  1.00  0.00     0.159 HD
ATOM     47  H   UNL     1       4.156  -5.237  -0.260  1.00  0.00     0.159 HD
ATOM     48  H   UNL     1       5.597  -4.545  -3.959  1.00  0.00     0.159 HD
ATOM     49  H   UNL     1       5.628  -6.122  -3.239  1.00  0.00     0.159 HD
ENDBRANCH  41  42
ENDBRANCH  40  41
ENDBRANCH  39  40
ENDBRANCH  38  39
ENDBRANCH  36  38
ENDBRANCH   5  34
BRANCH   8  50
ATOM     50  O   UNL     1      10.505  -4.229   5.436  1.00  0.00    -0.245 OA
BRANCH  50  51
ATOM     51  S   UNL     1      11.211  -5.653   5.778  1.00  0.00     0.397 S 
ATOM     52  O   UNL     1      10.436  -6.698   5.148  1.00  0.00    -0.169 OA
ATOM     53  O   UNL     1      11.550  -5.702   7.185  1.00  0.00    -0.169 OA
BRANCH  51  54
ATOM     54  O   UNL     1      12.581  -5.559   4.941  1.00  0.00    -0.264 OA
ATOM     55  H   UNL     1      12.836  -6.468   4.683  1.00  0.00     0.236 HD
ENDBRANCH  51  54
ENDBRANCH  50  51
ENDBRANCH   8  50
TORSDOF 19
ENDMDL
MODEL 50
REMARK VINA RESULT:    -5.487      3.320      8.708
REMARK INTER + INTRA:         -15.441
REMARK INTER:                 -12.309
REMARK INTRA:                  -3.132
REMARK UNBOUND:                -4.340
REMARK SMILES CC[C@@H](C)[C@@H](NC(=O)[C@@H](O)Cc1ccc(O)c(Cl)c1)C(=O)N1[C@H](C(=O)NCCCCN=C(N)N)C[C@H]2CC[C@H](OS(=O)(=O)O)C[C@@H]21
REMARK SMILES IDX 22 1 36 2 46 3 35 4 23 5 45 6 37 7 39 8 38 9 20 10 21 11
REMARK SMILES IDX 5 12 6 13 7 14 8 15 9 17 11 18 12 19 17 20 19 21 15 22 14 23
REMARK SMILES IDX 13 24 18 25 16 26 10 28 3 30 4 31 2 32 1 33 24 34 25 35
REMARK SMILES IDX 26 36 27 38 28 39 29 40 30 41 31 42 32 43 33 44 34 45 40 50
REMARK SMILES IDX 41 51 42 52 43 53 44 54
REMARK H PARENT 6 16 16 27 10 29 26 37 33 46 33 47 34 48 34 49 44 55
ROOT
ATOM      1  N   UNL     1       9.599  -4.933   2.907  1.00  0.00    -0.326 N 
ATOM      2  C   UNL     1      10.482  -3.492   1.268  1.00  0.00     0.014 C 
ATOM      3  C   UNL     1      10.880  -4.535   2.317  1.00  0.00     0.091 C 
ATOM      4  C   UNL     1       9.297  -2.797   1.920  1.00  0.00     0.041 C 
ATOM      5  C   UNL     1       8.523  -4.017   2.452  1.00  0.00     0.175 C 
ATOM      6  C   UNL     1      11.727  -5.607   1.634  1.00  0.00     0.059 C 
ATOM      7  C   UNL     1      11.682  -2.671   0.838  1.00  0.00     0.008 C 
ATOM      8  C   UNL     1      12.580  -5.073   0.463  1.00  0.00     0.143 C 
ATOM      9  C   UNL     1      12.913  -3.576   0.624  1.00  0.00     0.034 C 
ENDROOT
BRANCH   1  10
ATOM     10  C   UNL     1       9.331  -5.835   3.923  1.00  0.00     0.246 C 
ATOM     11  O   UNL     1       8.903  -6.957   3.633  1.00  0.00    -0.272 OA
BRANCH  10  12
ATOM     12  C   UNL     1       9.616  -5.433   5.400  1.00  0.00     0.174 C 
BRANCH  12  13
ATOM     13  N   UNL     1       9.130  -4.077   5.650  1.00  0.00    -0.342 N 
ATOM     14  C   UNL     1       7.922  -3.765   6.234  1.00  0.00     0.249 C 
ATOM     15  O   UNL     1       7.124  -4.602   6.638  1.00  0.00    -0.272 OA
ATOM     16  H   UNL     1       9.609  -3.285   5.230  1.00  0.00     0.164 HD
BRANCH  14  17
ATOM     17  C   UNL     1       7.690  -2.244   6.345  1.00  0.00     0.207 C 
BRANCH  17  18
ATOM     18  C   UNL     1       7.657  -1.604   4.953  1.00  0.00     0.077 C 
BRANCH  18  19
ATOM     19  C   UNL     1       6.250  -1.530   4.402  1.00  0.00    -0.043 A 
ATOM     20  C   UNL     1       4.740  -1.240   2.526  1.00  0.00     0.083 A 
ATOM     21  C   UNL     1       6.037  -1.357   3.025  1.00  0.00     0.028 A 
ATOM     22  C   UNL     1       3.650  -1.293   3.396  1.00  0.00     0.134 A 
ATOM     23  C   UNL     1       3.846  -1.464   4.761  1.00  0.00     0.048 A 
ATOM     24  C   UNL     1       5.144  -1.580   5.264  1.00  0.00     0.008 A 
ATOM     25  Cl  UNL     1       4.498  -1.027   0.832  1.00  0.00    -0.080 Cl
BRANCH  22  26
ATOM     26  O   UNL     1       2.360  -1.172   2.954  1.00  0.00    -0.506 OA
ATOM     27  H   UNL     1       1.847  -0.786   3.689  1.00  0.00     0.293 HD
ENDBRANCH  22  26
ENDBRANCH  18  19
ENDBRANCH  17  18
BRANCH  17  28
ATOM     28  O   UNL     1       8.716  -1.619   7.132  1.00  0.00    -0.383 OA
ATOM     29  H   UNL     1       9.371  -2.326   7.335  1.00  0.00     0.211 HD
ENDBRANCH  17  28
ENDBRANCH  14  17
ENDBRANCH  12  13
BRANCH  12  30
ATOM     30  C   UNL     1      11.107  -5.610   5.793  1.00  0.00     0.018 C 
ATOM     31  C   UNL     1      11.885  -4.300   5.591  1.00  0.00     0.010 C 
BRANCH  30  32
ATOM     32  C   UNL     1      11.813  -6.769   5.047  1.00  0.00     0.002 C 
ATOM     33  C   UNL     1      12.877  -7.507   5.849  1.00  0.00     0.004 C 
ENDBRANCH  30  32
ENDBRANCH  12  30
ENDBRANCH  10  12
ENDBRANCH   1  10
BRANCH   5  34
ATOM     34  C   UNL     1       7.670  -4.682   1.339  1.00  0.00     0.242 C 
ATOM     35  O   UNL     1       7.689  -5.895   1.131  1.00  0.00    -0.273 OA
ATOM     36  N   UNL     1       6.933  -3.812   0.567  1.00  0.00    -0.354 N 
ATOM     37  H   UNL     1       7.051  -2.808   0.710  1.00  0.00     0.163 HD
BRANCH  36  38
ATOM     38  C   UNL     1       5.924  -4.270  -0.365  1.00  0.00     0.116 C 
BRANCH  38  39
ATOM     39  C   UNL     1       6.508  -4.328  -1.774  1.00  0.00     0.023 C 
BRANCH  39  40
ATOM     40  C   UNL     1       7.859  -3.626  -1.874  1.00  0.00     0.026 C 
BRANCH  40  41
ATOM     41  C   UNL     1       8.771  -4.345  -2.869  1.00  0.00     0.146 C 
BRANCH  41  42
ATOM     42  N   UNL     1       8.163  -5.606  -3.272  1.00  0.00    -0.254 NA
ATOM     43  C   UNL     1       8.065  -5.893  -4.515  1.00  0.00     0.185 C 
ATOM     44  N   UNL     1       8.449  -5.192  -5.598  1.00  0.00    -0.370 N 
ATOM     45  N   UNL     1       7.497  -7.059  -4.866  1.00  0.00    -0.370 N 
ATOM     46  H   UNL     1       8.093  -5.421  -6.510  1.00  0.00     0.159 HD
ATOM     47  H   UNL     1       8.909  -4.291  -5.514  1.00  0.00     0.159 HD
ATOM     48  H   UNL     1       7.187  -7.652  -4.109  1.00  0.00     0.159 HD
ATOM     49  H   UNL     1       7.596  -7.457  -5.783  1.00  0.00     0.159 HD
ENDBRANCH  41  42
ENDBRANCH  40  41
ENDBRANCH  39  40
ENDBRANCH  38  39
ENDBRANCH  36  38
ENDBRANCH   5  34
BRANCH   8  50
ATOM     50  O   UNL     1      11.885  -5.253  -0.771  1.00  0.00    -0.245 OA
BRANCH  50  51
ATOM     51  S   UNL     1      12.728  -5.379  -2.157  1.00  0.00     0.397 S 
ATOM     52  O   UNL     1      14.114  -5.606  -1.816  1.00  0.00    -0.169 OA
ATOM     53  O   UNL     1      12.332  -4.322  -3.064  1.00  0.00    -0.169 OA
BRANCH  51  54
ATOM     54  O   UNL     1      12.189  -6.772  -2.752  1.00  0.00    -0.264 OA
ATOM     55  H   UNL     1      11.792  -7.278  -2.014  1.00  0.00     0.236 HD
ENDBRANCH  51  54
ENDBRANCH  50  51
ENDBRANCH   8  50
TORSDOF 19
ENDMDL
