MODEL 1
REMARK VINA RESULT:    -4.310      0.000      0.000
REMARK INTER + INTRA:          -9.282
REMARK INTER:                  -7.333
REMARK INTRA:                  -1.949
REMARK UNBOUND:                -1.949
REMARK SMILES CC[C@H](C)[C@@H]1NC(=O)[C@H]2CSC(=N2)[C@@H]([C@@H](C)CC)NC(=O)c2csc(n2)CNC(=O)[C@H]2N=C1O[C@@H]2C
REMARK SMILES IDX 27 1 25 2 22 3 26 4 23 5 24 6 20 7 19 8 21 9 14 11 12 12
REMARK SMILES IDX 11 13 10 14 13 15 9 16 15 18 16 19 17 20 18 21 28 22 29 23
REMARK SMILES IDX 30 24 31 26 32 27 35 28 33 29 34 30 36 31 5 32 6 33 7 34
REMARK SMILES IDX 8 35 3 38 4 39 2 40 1 41
REMARK H PARENT 19 10 28 25 6 36
REMARK Flexibility Score:   91.900
ROOT
ATOM      1  C   UNL     1       4.002  11.082   8.742  1.00  0.00     0.183 C 
ENDROOT
BRANCH   1   2
ATOM      2  C   UNL     1       4.925  11.715   7.741  1.00  0.00     0.113 A 
ATOM      3  C   UNL     1       6.730  12.020   6.470  1.00  0.00     0.139 A 
ATOM      4  N   UNL     1       6.030  11.142   7.300  1.00  0.00    -0.234 NA
ATOM      5  C   UNL     1       6.099  13.230   6.255  1.00  0.00     0.101 A 
ATOM      6  S   UNL     1       4.619  13.287   7.122  1.00  0.00    -0.125 S 
BRANCH   3   7
ATOM      7  C   UNL     1       8.041  11.639   5.939  1.00  0.00     0.271 C 
ATOM      8  N   UNL     1       7.928  10.731   4.915  1.00  0.00    -0.341 N 
ATOM      9  O   UNL     1       9.102  12.057   6.384  1.00  0.00    -0.267 OA
ATOM     10  H   UNL     1       6.976  10.495   4.639  1.00  0.00     0.164 HD
BRANCH   8  11
ATOM     11  C   UNL     1       9.052  10.030   4.317  1.00  0.00     0.140 C 
BRANCH  11  12
ATOM     12  C   UNL     1       8.764   8.528   4.395  1.00  0.00     0.091 C 
ATOM     13  S   UNL     1       7.233   7.888   3.845  1.00  0.00    -0.106 SA
ATOM     14  C   UNL     1       7.885   6.208   3.943  1.00  0.00     0.113 C 
ATOM     15  N   UNL     1       9.600   7.695   4.931  1.00  0.00    -0.267 NA
ATOM     16  C   UNL     1       9.007   6.321   4.964  1.00  0.00     0.205 CG0
ATOM     17  G   UNL     1       8.497   5.977   6.372  1.00  0.00     0.000 G0
ENDBRANCH  11  12
BRANCH  11  18
ATOM     18  C   UNL     1       9.473  10.580   2.930  1.00  0.00     0.015 C 
ATOM     19  C   UNL     1       8.289  11.281   2.252  1.00  0.00     0.010 C 
BRANCH  18  20
ATOM     20  C   UNL     1      10.726  11.478   2.946  1.00  0.00     0.002 C 
ATOM     21  C   UNL     1      10.994  12.150   1.604  1.00  0.00     0.004 C 
ENDBRANCH  18  20
ENDBRANCH  11  18
ENDBRANCH   8  11
ENDBRANCH   3   7
ENDBRANCH   1   2
BRANCH   1  22
ATOM     22  N   UNL     1       4.278   9.663   8.748  1.00  0.00    -0.348 N 
ATOM     23  C   UNL     1       3.689   8.751   7.916  1.00  0.00     0.249 C 
ATOM     24  O   UNL     1       2.919   9.062   7.014  1.00  0.00    -0.272 OA
ATOM     25  H   UNL     1       4.890   9.291   9.474  1.00  0.00     0.163 HD
BRANCH  23  26
ATOM     26  C   UNL     1       4.142   7.310   8.196  1.00  0.00     0.238 C 
ATOM     27  N   UNL     1       5.484   7.090   7.589  1.00  0.00    -0.236 NA
ATOM     28  C   UNL     1       4.320   7.048   9.682  1.00  0.00     0.206 C 
ATOM     29  C   UNL     1       6.263   6.978   8.623  1.00  0.00     0.208 C 
ATOM     30  O   UNL     1       5.734   7.058   9.868  1.00  0.00    -0.474 OA
ATOM     31  C   UNL     1       3.783   5.686  10.103  1.00  0.00     0.056 C 
BRANCH  29  32
ATOM     32  C   UNL     1       7.780   6.812   8.598  1.00  0.00     0.171 C 
BRANCH  32  33
ATOM     33  N   UNL     1       8.300   6.982   7.250  1.00  0.00    -0.342 N 
ATOM     34  C   UNL     1       8.488   5.927   6.390  1.00  0.00     0.246 CG0
ATOM     35  O   UNL     1       8.258   4.761   6.699  1.00  0.00    -0.273 OA
ATOM     36  H   UNL     1       8.579   7.895   6.908  1.00  0.00     0.164 HD
ATOM     37  G   UNL     1       8.989   6.326   4.992  1.00  0.00     0.000 G0
ENDBRANCH  32  33
BRANCH  32  38
ATOM     38  C   UNL     1       8.448   7.771   9.618  1.00  0.00     0.017 C 
ATOM     39  C   UNL     1       9.844   7.255   9.991  1.00  0.00     0.010 C 
BRANCH  38  40
ATOM     40  C   UNL     1       8.496   9.236   9.127  1.00  0.00     0.002 C 
ATOM     41  C   UNL     1       7.770  10.210  10.045  1.00  0.00     0.004 C 
ENDBRANCH  38  40
ENDBRANCH  32  38
ENDBRANCH  29  32
ENDBRANCH  23  26
ENDBRANCH   1  22
TORSDOF 4
ENDMDL
MODEL 2
REMARK VINA RESULT:    -4.103     18.452     21.120
REMARK INTER + INTRA:          -8.931
REMARK INTER:                  -7.315
REMARK INTRA:                  -1.617
REMARK UNBOUND:                -1.949
REMARK SMILES CC[C@H](C)[C@@H]1NC(=O)[C@H]2CSC(=N2)[C@@H]([C@@H](C)CC)NC(=O)c2csc(n2)CNC(=O)[C@H]2N=C1O[C@@H]2C
REMARK SMILES IDX 27 1 25 2 22 3 26 4 23 5 24 6 20 7 19 8 21 9 14 11 12 12
REMARK SMILES IDX 11 13 10 14 13 15 9 16 15 18 16 19 17 20 18 21 28 22 29 23
REMARK SMILES IDX 30 24 31 26 32 27 35 28 33 29 34 30 36 31 5 32 6 33 7 34
REMARK SMILES IDX 8 35 3 38 4 39 2 40 1 41
REMARK H PARENT 19 10 28 25 6 36
REMARK Flexibility Score:   91.900
ROOT
ATOM      1  C   UNL     1     -11.779   2.258   1.584  1.00  0.00     0.183 C 
ENDROOT
BRANCH   1   2
ATOM      2  C   UNL     1     -10.940   1.728   2.712  1.00  0.00     0.113 A 
ATOM      3  C   UNL     1      -9.537   0.398   3.820  1.00  0.00     0.139 A 
ATOM      4  N   UNL     1     -10.076   0.739   2.578  1.00  0.00    -0.234 NA
ATOM      5  C   UNL     1      -9.970   1.187   4.867  1.00  0.00     0.101 A 
ATOM      6  S   UNL     1     -11.088   2.360   4.301  1.00  0.00    -0.125 S 
BRANCH   3   7
ATOM      7  C   UNL     1      -8.625  -0.742   3.935  1.00  0.00     0.271 C 
ATOM      8  N   UNL     1      -7.823  -0.863   2.827  1.00  0.00    -0.341 N 
ATOM      9  O   UNL     1      -8.611  -1.508   4.891  1.00  0.00    -0.267 OA
ATOM     10  H   UNL     1      -7.933  -0.135   2.122  1.00  0.00     0.164 HD
BRANCH   8  11
ATOM     11  C   UNL     1      -6.953  -1.998   2.568  1.00  0.00     0.140 C 
BRANCH  11  12
ATOM     12  C   UNL     1      -7.090  -2.367   1.088  1.00  0.00     0.091 C 
ATOM     13  S   UNL     1      -7.085  -1.123  -0.140  1.00  0.00    -0.106 SA
ATOM     14  C   UNL     1      -6.913  -2.378  -1.428  1.00  0.00     0.113 C 
ATOM     15  N   UNL     1      -7.286  -3.588   0.700  1.00  0.00    -0.267 NA
ATOM     16  C   UNL     1      -7.488  -3.629  -0.783  1.00  0.00     0.205 CG0
ATOM     17  G   UNL     1      -8.978  -3.784  -1.129  1.00  0.00     0.000 G0
ENDBRANCH  11  12
BRANCH  11  18
ATOM     18  C   UNL     1      -5.509  -1.820   3.103  1.00  0.00     0.015 C 
ATOM     19  C   UNL     1      -5.409  -2.319   4.551  1.00  0.00     0.010 C 
BRANCH  18  20
ATOM     20  C   UNL     1      -4.411  -2.443   2.217  1.00  0.00     0.002 C 
ATOM     21  C   UNL     1      -3.027  -1.866   2.490  1.00  0.00     0.004 C 
ENDBRANCH  18  20
ENDBRANCH  11  18
ENDBRANCH   8  11
ENDBRANCH   3   7
ENDBRANCH   1   2
BRANCH   1  22
ATOM     22  N   UNL     1     -11.624   1.353   0.467  1.00  0.00    -0.348 N 
ATOM     23  C   UNL     1     -12.658   0.773  -0.216  1.00  0.00     0.249 C 
ATOM     24  O   UNL     1     -13.836   1.032   0.001  1.00  0.00    -0.272 OA
ATOM     25  H   UNL     1     -10.683   1.052   0.215  1.00  0.00     0.163 HD
BRANCH  23  26
ATOM     26  C   UNL     1     -12.180  -0.185  -1.318  1.00  0.00     0.238 C 
ATOM     27  N   UNL     1     -11.183  -1.132  -0.747  1.00  0.00    -0.236 NA
ATOM     28  C   UNL     1     -13.310  -1.053  -1.845  1.00  0.00     0.206 C 
ATOM     29  C   UNL     1     -11.811  -2.269  -0.759  1.00  0.00     0.208 C 
ATOM     30  O   UNL     1     -13.073  -2.328  -1.250  1.00  0.00    -0.474 OA
ATOM     31  C   UNL     1     -13.270  -1.208  -3.359  1.00  0.00     0.056 C 
BRANCH  29  32
ATOM     32  C   UNL     1     -11.290  -3.597  -0.215  1.00  0.00     0.171 C 
BRANCH  32  33
ATOM     33  N   UNL     1      -9.841  -3.572  -0.086  1.00  0.00    -0.342 N 
ATOM     34  C   UNL     1      -8.999  -3.781  -1.153  1.00  0.00     0.246 CG0
ATOM     35  O   UNL     1      -9.402  -4.029  -2.286  1.00  0.00    -0.273 OA
ATOM     36  H   UNL     1      -9.397  -3.435   0.815  1.00  0.00     0.164 HD
ATOM     37  G   UNL     1      -7.504  -3.655  -0.818  1.00  0.00     0.000 G0
ENDBRANCH  32  33
BRANCH  32  38
ATOM     38  C   UNL     1     -11.999  -3.952   1.119  1.00  0.00     0.017 C 
ATOM     39  C   UNL     1     -11.910  -5.462   1.376  1.00  0.00     0.010 C 
BRANCH  38  40
ATOM     40  C   UNL     1     -11.467  -3.138   2.320  1.00  0.00     0.002 C 
ATOM     41  C   UNL     1     -11.401  -3.936   3.616  1.00  0.00     0.004 C 
ENDBRANCH  38  40
ENDBRANCH  32  38
ENDBRANCH  29  32
ENDBRANCH  23  26
ENDBRANCH   1  22
TORSDOF 4
ENDMDL
MODEL 3
REMARK VINA RESULT:    -3.946     15.867     18.418
REMARK INTER + INTRA:          -8.664
REMARK INTER:                  -7.941
REMARK INTRA:                  -0.723
REMARK UNBOUND:                -1.949
REMARK SMILES CC[C@H](C)[C@@H]1NC(=O)[C@H]2CSC(=N2)[C@@H]([C@@H](C)CC)NC(=O)c2csc(n2)CNC(=O)[C@H]2N=C1O[C@@H]2C
REMARK SMILES IDX 27 1 25 2 22 3 26 4 23 5 24 6 20 7 19 8 21 9 14 11 12 12
REMARK SMILES IDX 11 13 10 14 13 15 9 16 15 18 16 19 17 20 18 21 28 22 29 23
REMARK SMILES IDX 30 24 31 26 32 27 35 28 33 29 34 30 36 31 5 32 6 33 7 34
REMARK SMILES IDX 8 35 3 38 4 39 2 40 1 41
REMARK H PARENT 19 10 28 25 6 36
REMARK Flexibility Score:   91.900
ROOT
ATOM      1  C   UNL     1      -6.301  -4.283  -4.363  1.00  0.00     0.183 C 
ENDROOT
BRANCH   1   2
ATOM      2  C   UNL     1      -5.106  -3.376  -4.429  1.00  0.00     0.113 A 
ATOM      3  C   UNL     1      -3.656  -1.790  -3.837  1.00  0.00     0.139 A 
ATOM      4  N   UNL     1      -4.725  -2.595  -3.435  1.00  0.00    -0.234 NA
ATOM      5  C   UNL     1      -3.213  -2.028  -5.123  1.00  0.00     0.101 A 
ATOM      6  S   UNL     1      -4.160  -3.258  -5.856  1.00  0.00    -0.125 S 
BRANCH   3   7
ATOM      7  C   UNL     1      -3.126  -0.769  -2.930  1.00  0.00     0.271 C 
ATOM      8  N   UNL     1      -2.369  -1.326  -1.929  1.00  0.00    -0.341 N 
ATOM      9  O   UNL     1      -3.364   0.427  -3.040  1.00  0.00    -0.267 OA
ATOM     10  H   UNL     1      -2.241  -2.336  -1.983  1.00  0.00     0.164 HD
BRANCH   8  11
ATOM     11  C   UNL     1      -1.868  -0.591  -0.779  1.00  0.00     0.140 C 
BRANCH  11  12
ATOM     12  C   UNL     1      -2.457  -1.232   0.481  1.00  0.00     0.091 C 
ATOM     13  S   UNL     1      -2.577  -2.970   0.619  1.00  0.00    -0.106 SA
ATOM     14  C   UNL     1      -2.967  -2.817   2.375  1.00  0.00     0.113 C 
ATOM     15  N   UNL     1      -2.949  -0.522   1.447  1.00  0.00    -0.267 NA
ATOM     16  C   UNL     1      -3.546  -1.415   2.489  1.00  0.00     0.205 CG0
ATOM     17  G   UNL     1      -5.078  -1.449   2.370  1.00  0.00     0.000 G0
ENDBRANCH  11  12
BRANCH  11  18
ATOM     18  C   UNL     1      -0.333  -0.374  -0.790  1.00  0.00     0.015 C 
ATOM     19  C   UNL     1       0.371  -1.568  -1.449  1.00  0.00     0.010 C 
BRANCH  18  20
ATOM     20  C   UNL     1       0.125   0.962  -1.408  1.00  0.00     0.002 C 
ATOM     21  C   UNL     1      -0.908   2.073  -1.257  1.00  0.00     0.004 C 
ENDBRANCH  18  20
ENDBRANCH  11  18
ENDBRANCH   8  11
ENDBRANCH   3   7
ENDBRANCH   1   2
BRANCH   1  22
ATOM     22  N   UNL     1      -7.140  -3.815  -3.282  1.00  0.00    -0.348 N 
ATOM     23  C   UNL     1      -7.213  -4.396  -2.045  1.00  0.00     0.249 C 
ATOM     24  O   UNL     1      -6.502  -5.333  -1.699  1.00  0.00    -0.272 OA
ATOM     25  H   UNL     1      -7.790  -3.053  -3.468  1.00  0.00     0.163 HD
BRANCH  23  26
ATOM     26  C   UNL     1      -8.234  -3.710  -1.125  1.00  0.00     0.238 C 
ATOM     27  N   UNL     1      -7.996  -4.141   0.281  1.00  0.00    -0.236 NA
ATOM     28  C   UNL     1      -8.069  -2.199  -1.119  1.00  0.00     0.206 C 
ATOM     29  C   UNL     1      -7.545  -3.064   0.851  1.00  0.00     0.208 C 
ATOM     30  O   UNL     1      -7.428  -1.925   0.125  1.00  0.00    -0.474 OA
ATOM     31  C   UNL     1      -9.403  -1.466  -1.151  1.00  0.00     0.056 C 
BRANCH  29  32
ATOM     32  C   UNL     1      -7.062  -2.939   2.293  1.00  0.00     0.171 C 
BRANCH  32  33
ATOM     33  N   UNL     1      -5.628  -2.702   2.342  1.00  0.00    -0.342 N 
ATOM     34  C   UNL     1      -5.085  -1.440   2.364  1.00  0.00     0.246 CG0
ATOM     35  O   UNL     1      -5.764  -0.417   2.319  1.00  0.00    -0.273 OA
ATOM     36  H   UNL     1      -4.968  -3.473   2.324  1.00  0.00     0.164 HD
ATOM     37  G   UNL     1      -3.552  -1.407   2.476  1.00  0.00     0.000 G0
ENDBRANCH  32  33
BRANCH  32  38
ATOM     38  C   UNL     1      -7.870  -1.847   3.043  1.00  0.00     0.017 C 
ATOM     39  C   UNL     1      -9.332  -1.860   2.577  1.00  0.00     0.010 C 
BRANCH  38  40
ATOM     40  C   UNL     1      -7.762  -1.966   4.581  1.00  0.00     0.002 C 
ATOM     41  C   UNL     1      -8.600  -0.940   5.332  1.00  0.00     0.004 C 
ENDBRANCH  38  40
ENDBRANCH  32  38
ENDBRANCH  29  32
ENDBRANCH  23  26
ENDBRANCH   1  22
TORSDOF 4
ENDMDL
MODEL 4
REMARK VINA RESULT:    -3.892     17.712     20.133
REMARK INTER + INTRA:          -8.571
REMARK INTER:                  -7.107
REMARK INTRA:                  -1.464
REMARK UNBOUND:                -1.949
REMARK SMILES CC[C@H](C)[C@@H]1NC(=O)[C@H]2CSC(=N2)[C@@H]([C@@H](C)CC)NC(=O)c2csc(n2)CNC(=O)[C@H]2N=C1O[C@@H]2C
REMARK SMILES IDX 27 1 25 2 22 3 26 4 23 5 24 6 20 7 19 8 21 9 14 11 12 12
REMARK SMILES IDX 11 13 10 14 13 15 9 16 15 18 16 19 17 20 18 21 28 22 29 23
REMARK SMILES IDX 30 24 31 26 32 27 35 28 33 29 34 30 36 31 5 32 6 33 7 34
REMARK SMILES IDX 8 35 3 38 4 39 2 40 1 41
REMARK H PARENT 19 10 28 25 6 36
REMARK Flexibility Score:   91.900
ROOT
ATOM      1  C   UNL     1     -10.483  -3.205  -2.434  1.00  0.00     0.183 C 
ENDROOT
BRANCH   1   2
ATOM      2  C   UNL     1     -10.616  -1.896  -1.711  1.00  0.00     0.113 A 
ATOM      3  C   UNL     1     -10.020   0.017  -0.734  1.00  0.00     0.139 A 
ATOM      4  N   UNL     1      -9.617  -1.050  -1.539  1.00  0.00    -0.234 NA
ATOM      5  C   UNL     1     -11.350  -0.020  -0.360  1.00  0.00     0.101 A 
ATOM      6  S   UNL     1     -12.106  -1.421  -1.002  1.00  0.00    -0.125 S 
BRANCH   3   7
ATOM      7  C   UNL     1      -9.050   1.033  -0.323  1.00  0.00     0.271 C 
ATOM      8  N   UNL     1      -8.752   1.893  -1.352  1.00  0.00    -0.341 N 
ATOM      9  O   UNL     1      -8.545   1.082   0.791  1.00  0.00    -0.267 OA
ATOM     10  H   UNL     1      -9.270   1.742  -2.217  1.00  0.00     0.164 HD
BRANCH   8  11
ATOM     11  C   UNL     1      -7.690   2.885  -1.306  1.00  0.00     0.140 C 
BRANCH  11  12
ATOM     12  C   UNL     1      -6.731   2.601  -2.466  1.00  0.00     0.091 C 
ATOM     13  S   UNL     1      -6.993   3.330  -4.033  1.00  0.00    -0.106 SA
ATOM     14  C   UNL     1      -5.352   2.802  -4.567  1.00  0.00     0.113 C 
ATOM     15  N   UNL     1      -5.748   1.765  -2.355  1.00  0.00    -0.267 NA
ATOM     16  C   UNL     1      -5.053   1.610  -3.671  1.00  0.00     0.205 CG0
ATOM     17  G   UNL     1      -5.465   0.297  -4.357  1.00  0.00     0.000 G0
ENDBRANCH  11  12
BRANCH  11  18
ATOM     18  C   UNL     1      -8.197   4.344  -1.172  1.00  0.00     0.015 C 
ATOM     19  C   UNL     1      -9.631   4.464  -1.704  1.00  0.00     0.010 C 
BRANCH  18  20
ATOM     20  C   UNL     1      -8.068   4.944   0.243  1.00  0.00     0.002 C 
ATOM     21  C   UNL     1      -9.273   4.646   1.128  1.00  0.00     0.004 C 
ENDBRANCH  18  20
ENDBRANCH  11  18
ENDBRANCH   8  11
ENDBRANCH   3   7
ENDBRANCH   1   2
BRANCH   1  22
ATOM     22  N   UNL     1      -9.086  -3.575  -2.405  1.00  0.00    -0.348 N 
ATOM     23  C   UNL     1      -8.474  -4.232  -1.373  1.00  0.00     0.249 C 
ATOM     24  O   UNL     1      -9.078  -4.653  -0.392  1.00  0.00    -0.272 OA
ATOM     25  H   UNL     1      -8.484  -3.255  -3.164  1.00  0.00     0.163 HD
BRANCH  23  26
ATOM     26  C   UNL     1      -6.970  -4.437  -1.605  1.00  0.00     0.238 C 
ATOM     27  N   UNL     1      -6.644  -4.116  -3.023  1.00  0.00    -0.236 NA
ATOM     28  C   UNL     1      -6.130  -3.487  -0.769  1.00  0.00     0.206 C 
ATOM     29  C   UNL     1      -5.946  -3.024  -2.927  1.00  0.00     0.208 C 
ATOM     30  O   UNL     1      -5.689  -2.502  -1.703  1.00  0.00    -0.474 OA
ATOM     31  C   UNL     1      -4.908  -4.164  -0.164  1.00  0.00     0.056 C 
BRANCH  29  32
ATOM     32  C   UNL     1      -5.400  -2.195  -4.087  1.00  0.00     0.171 C 
BRANCH  32  33
ATOM     33  N   UNL     1      -5.080  -0.844  -3.654  1.00  0.00    -0.342 N 
ATOM     34  C   UNL     1      -5.461   0.271  -4.362  1.00  0.00     0.246 CG0
ATOM     35  O   UNL     1      -6.077   0.213  -5.423  1.00  0.00    -0.273 OA
ATOM     36  H   UNL     1      -4.524  -0.678  -2.822  1.00  0.00     0.164 HD
ATOM     37  G   UNL     1      -5.076   1.606  -3.704  1.00  0.00     0.000 G0
ENDBRANCH  32  33
BRANCH  32  38
ATOM     38  C   UNL     1      -4.191  -2.911  -4.744  1.00  0.00     0.017 C 
ATOM     39  C   UNL     1      -4.651  -3.693  -5.981  1.00  0.00     0.010 C 
BRANCH  38  40
ATOM     40  C   UNL     1      -3.029  -1.947  -5.079  1.00  0.00     0.002 C 
ATOM     41  C   UNL     1      -2.728  -1.851  -6.569  1.00  0.00     0.004 C 
ENDBRANCH  38  40
ENDBRANCH  32  38
ENDBRANCH  29  32
ENDBRANCH  23  26
ENDBRANCH   1  22
TORSDOF 4
ENDMDL
MODEL 5
REMARK VINA RESULT:    -3.886     16.581     19.357
REMARK INTER + INTRA:          -8.561
REMARK INTER:                  -7.086
REMARK INTRA:                  -1.475
REMARK UNBOUND:                -1.949
REMARK SMILES CC[C@H](C)[C@@H]1NC(=O)[C@H]2CSC(=N2)[C@@H]([C@@H](C)CC)NC(=O)c2csc(n2)CNC(=O)[C@H]2N=C1O[C@@H]2C
REMARK SMILES IDX 27 1 25 2 22 3 26 4 23 5 24 6 20 7 19 8 21 9 14 11 12 12
REMARK SMILES IDX 11 13 10 14 13 15 9 16 15 18 16 19 17 20 18 21 28 22 29 23
REMARK SMILES IDX 30 24 31 26 32 27 35 28 33 29 34 30 36 31 5 32 6 33 7 34
REMARK SMILES IDX 8 35 3 38 4 39 2 40 1 41
REMARK H PARENT 19 10 28 25 6 36
REMARK Flexibility Score:   91.900
ROOT
ATOM      1  C   UNL     1      -4.052  -3.139   3.413  1.00  0.00     0.183 C 
ENDROOT
BRANCH   1   2
ATOM      2  C   UNL     1      -5.440  -2.575   3.307  1.00  0.00     0.113 A 
ATOM      3  C   UNL     1      -7.337  -1.865   2.377  1.00  0.00     0.139 A 
ATOM      4  N   UNL     1      -6.136  -2.551   2.185  1.00  0.00    -0.234 NA
ATOM      5  C   UNL     1      -7.548  -1.432   3.671  1.00  0.00     0.101 A 
ATOM      6  S   UNL     1      -6.215  -1.864   4.664  1.00  0.00    -0.125 S 
BRANCH   3   7
ATOM      7  C   UNL     1      -8.233  -1.624   1.244  1.00  0.00     0.271 C 
ATOM      8  N   UNL     1      -8.135  -2.618   0.301  1.00  0.00    -0.341 N 
ATOM      9  O   UNL     1      -8.951  -0.638   1.142  1.00  0.00    -0.267 OA
ATOM     10  H   UNL     1      -7.510  -3.388   0.536  1.00  0.00     0.164 HD
BRANCH   8  11
ATOM     11  C   UNL     1      -8.756  -2.563  -1.012  1.00  0.00     0.140 C 
BRANCH  11  12
ATOM     12  C   UNL     1      -7.719  -3.018  -2.042  1.00  0.00     0.091 C 
ATOM     13  S   UNL     1      -6.748  -4.443  -1.754  1.00  0.00    -0.106 SA
ATOM     14  C   UNL     1      -6.179  -4.418  -3.467  1.00  0.00     0.113 C 
ATOM     15  N   UNL     1      -7.472  -2.336  -3.116  1.00  0.00    -0.267 NA
ATOM     16  C   UNL     1      -6.343  -2.962  -3.874  1.00  0.00     0.205 CG0
ATOM     17  G   UNL     1      -5.036  -2.184  -3.652  1.00  0.00     0.000 G0
ENDBRANCH  11  12
BRANCH  11  18
ATOM     18  C   UNL     1     -10.144  -3.250  -1.081  1.00  0.00     0.015 C 
ATOM     19  C   UNL     1     -10.563  -3.751   0.307  1.00  0.00     0.010 C 
BRANCH  18  20
ATOM     20  C   UNL     1     -11.254  -2.398  -1.731  1.00  0.00     0.002 C 
ATOM     21  C   UNL     1     -11.823  -1.343  -0.788  1.00  0.00     0.004 C 
ENDBRANCH  18  20
ENDBRANCH  11  18
ENDBRANCH   8  11
ENDBRANCH   3   7
ENDBRANCH   1   2
BRANCH   1  22
ATOM     22  N   UNL     1      -3.499  -3.179   2.078  1.00  0.00    -0.348 N 
ATOM     23  C   UNL     1      -2.471  -2.391   1.636  1.00  0.00     0.249 C 
ATOM     24  O   UNL     1      -1.853  -1.621   2.363  1.00  0.00    -0.272 OA
ATOM     25  H   UNL     1      -3.952  -3.771   1.383  1.00  0.00     0.163 HD
BRANCH  23  26
ATOM     26  C   UNL     1      -2.139  -2.621   0.154  1.00  0.00     0.238 C 
ATOM     27  N   UNL     1      -3.349  -2.345  -0.669  1.00  0.00    -0.236 NA
ATOM     28  C   UNL     1      -1.077  -1.657  -0.348  1.00  0.00     0.206 C 
ATOM     29  C   UNL     1      -3.032  -1.260  -1.309  1.00  0.00     0.208 C 
ATOM     30  O   UNL     1      -1.810  -0.705  -1.118  1.00  0.00    -0.474 OA
ATOM     31  C   UNL     1      -0.056  -2.332  -1.253  1.00  0.00     0.056 C 
BRANCH  29  32
ATOM     32  C   UNL     1      -3.934  -0.471  -2.255  1.00  0.00     0.171 C 
BRANCH  32  33
ATOM     33  N   UNL     1      -5.084  -1.266  -2.659  1.00  0.00    -0.342 N 
ATOM     34  C   UNL     1      -5.027  -2.187  -3.677  1.00  0.00     0.246 CG0
ATOM     35  O   UNL     1      -4.014  -2.391  -4.340  1.00  0.00    -0.273 OA
ATOM     36  H   UNL     1      -5.989  -1.138  -2.220  1.00  0.00     0.164 HD
ATOM     37  G   UNL     1      -6.334  -2.963  -3.907  1.00  0.00     0.000 G0
ENDBRANCH  32  33
BRANCH  32  38
ATOM     38  C   UNL     1      -4.342   0.882  -1.615  1.00  0.00     0.017 C 
ATOM     39  C   UNL     1      -3.423   2.001  -2.120  1.00  0.00     0.010 C 
BRANCH  38  40
ATOM     40  C   UNL     1      -5.833   1.227  -1.832  1.00  0.00     0.002 C 
ATOM     41  C   UNL     1      -6.178   2.673  -1.502  1.00  0.00     0.004 C 
ENDBRANCH  38  40
ENDBRANCH  32  38
ENDBRANCH  29  32
ENDBRANCH  23  26
ENDBRANCH   1  22
TORSDOF 4
ENDMDL
MODEL 6
REMARK VINA RESULT:    -3.772     15.998     18.540
REMARK INTER + INTRA:          -8.368
REMARK INTER:                  -6.387
REMARK INTRA:                  -1.981
REMARK UNBOUND:                -1.949
REMARK SMILES CC[C@H](C)[C@@H]1NC(=O)[C@H]2CSC(=N2)[C@@H]([C@@H](C)CC)NC(=O)c2csc(n2)CNC(=O)[C@H]2N=C1O[C@@H]2C
REMARK SMILES IDX 27 1 25 2 22 3 26 4 23 5 24 6 20 7 19 8 21 9 14 11 12 12
REMARK SMILES IDX 11 13 10 14 13 15 9 16 15 18 16 19 17 20 18 21 28 22 29 23
REMARK SMILES IDX 30 24 31 26 32 27 35 28 33 29 34 30 36 31 5 32 6 33 7 34
REMARK SMILES IDX 8 35 3 38 4 39 2 40 1 41
REMARK H PARENT 19 10 28 25 6 36
REMARK Flexibility Score:   91.900
ROOT
ATOM      1  C   UNL     1      -4.478   1.417  -4.966  1.00  0.00     0.183 C 
ENDROOT
BRANCH   1   2
ATOM      2  C   UNL     1      -5.360   1.957  -3.877  1.00  0.00     0.113 A 
ATOM      3  C   UNL     1      -6.331   2.141  -1.880  1.00  0.00     0.139 A 
ATOM      4  N   UNL     1      -5.318   1.535  -2.627  1.00  0.00    -0.234 NA
ATOM      5  C   UNL     1      -7.086   3.061  -2.581  1.00  0.00     0.101 A 
ATOM      6  S   UNL     1      -6.543   3.156  -4.206  1.00  0.00    -0.125 S 
BRANCH   3   7
ATOM      7  C   UNL     1      -6.545   1.752  -0.484  1.00  0.00     0.271 C 
ATOM      8  N   UNL     1      -5.369   1.392   0.126  1.00  0.00    -0.341 N 
ATOM      9  O   UNL     1      -7.645   1.723   0.053  1.00  0.00    -0.267 OA
ATOM     10  H   UNL     1      -4.529   1.490  -0.443  1.00  0.00     0.164 HD
BRANCH   8  11
ATOM     11  C   UNL     1      -5.285   0.785   1.445  1.00  0.00     0.140 C 
BRANCH  11  12
ATOM     12  C   UNL     1      -4.556  -0.554   1.301  1.00  0.00     0.091 C 
ATOM     13  S   UNL     1      -2.987  -0.632   0.533  1.00  0.00    -0.106 SA
ATOM     14  C   UNL     1      -2.775  -2.329   1.111  1.00  0.00     0.113 C 
ATOM     15  N   UNL     1      -5.096  -1.673   1.669  1.00  0.00    -0.267 NA
ATOM     16  C   UNL     1      -4.201  -2.818   1.309  1.00  0.00     0.205 CG0
ATOM     17  G   UNL     1      -4.710  -3.537   0.049  1.00  0.00     0.000 G0
ENDBRANCH  11  12
BRANCH  11  18
ATOM     18  C   UNL     1      -4.759   1.741   2.546  1.00  0.00     0.015 C 
ATOM     19  C   UNL     1      -4.033   0.948   3.641  1.00  0.00     0.010 C 
BRANCH  18  20
ATOM     20  C   UNL     1      -3.893   2.908   2.027  1.00  0.00     0.002 C 
ATOM     21  C   UNL     1      -4.488   4.276   2.341  1.00  0.00     0.004 C 
ENDBRANCH  18  20
ENDBRANCH  11  18
ENDBRANCH   8  11
ENDBRANCH   3   7
ENDBRANCH   1   2
BRANCH   1  22
ATOM     22  N   UNL     1      -4.453  -0.022  -4.830  1.00  0.00    -0.348 N 
ATOM     23  C   UNL     1      -3.320  -0.769  -4.653  1.00  0.00     0.249 C 
ATOM     24  O   UNL     1      -2.206  -0.277  -4.506  1.00  0.00    -0.272 OA
ATOM     25  H   UNL     1      -5.324  -0.536  -4.958  1.00  0.00     0.163 HD
BRANCH  23  26
ATOM     26  C   UNL     1      -3.604  -2.277  -4.597  1.00  0.00     0.238 C 
ATOM     27  N   UNL     1      -3.899  -2.670  -3.191  1.00  0.00    -0.236 NA
ATOM     28  C   UNL     1      -4.842  -2.653  -5.393  1.00  0.00     0.206 C 
ATOM     29  C   UNL     1      -5.164  -2.966  -3.224  1.00  0.00     0.208 C 
ATOM     30  O   UNL     1      -5.838  -2.878  -4.397  1.00  0.00    -0.474 OA
ATOM     31  C   UNL     1      -4.655  -3.935  -6.193  1.00  0.00     0.056 C 
BRANCH  29  32
ATOM     32  C   UNL     1      -6.030  -3.369  -2.034  1.00  0.00     0.171 C 
BRANCH  32  33
ATOM     33  N   UNL     1      -5.491  -2.832  -0.794  1.00  0.00    -0.342 N 
ATOM     34  C   UNL     1      -4.724  -3.582   0.066  1.00  0.00     0.246 CG0
ATOM     35  O   UNL     1      -4.457  -4.764  -0.132  1.00  0.00    -0.273 OA
ATOM     36  H   UNL     1      -5.697  -1.884  -0.500  1.00  0.00     0.164 HD
ATOM     37  G   UNL     1      -4.203  -2.811   1.290  1.00  0.00     0.000 G0
ENDBRANCH  32  33
BRANCH  32  38
ATOM     38  C   UNL     1      -7.506  -2.952  -2.271  1.00  0.00     0.017 C 
ATOM     39  C   UNL     1      -8.448  -4.091  -1.860  1.00  0.00     0.010 C 
BRANCH  38  40
ATOM     40  C   UNL     1      -7.877  -1.625  -1.568  1.00  0.00     0.002 C 
ATOM     41  C   UNL     1      -9.313  -1.184  -1.819  1.00  0.00     0.004 C 
ENDBRANCH  38  40
ENDBRANCH  32  38
ENDBRANCH  29  32
ENDBRANCH  23  26
ENDBRANCH   1  22
TORSDOF 4
ENDMDL
MODEL 7
REMARK VINA RESULT:    -3.565     15.393     17.582
REMARK INTER + INTRA:          -8.015
REMARK INTER:                  -6.445
REMARK INTRA:                  -1.570
REMARK UNBOUND:                -1.949
REMARK SMILES CC[C@H](C)[C@@H]1NC(=O)[C@H]2CSC(=N2)[C@@H]([C@@H](C)CC)NC(=O)c2csc(n2)CNC(=O)[C@H]2N=C1O[C@@H]2C
REMARK SMILES IDX 27 1 25 2 22 3 26 4 23 5 24 6 20 7 19 8 21 9 14 11 12 12
REMARK SMILES IDX 11 13 10 14 13 15 9 16 15 18 16 19 17 20 18 21 28 22 29 23
REMARK SMILES IDX 30 24 31 26 32 27 35 28 33 29 34 30 36 31 5 32 6 33 7 34
REMARK SMILES IDX 8 35 3 38 4 39 2 40 1 41
REMARK H PARENT 19 10 28 25 6 36
REMARK Flexibility Score:   91.900
ROOT
ATOM      1  C   UNL     1      -8.949  -1.973  -0.477  1.00  0.00     0.183 C 
ENDROOT
BRANCH   1   2
ATOM      2  C   UNL     1      -8.078  -2.364  -1.637  1.00  0.00     0.113 A 
ATOM      3  C   UNL     1      -6.612  -2.166  -3.304  1.00  0.00     0.139 A 
ATOM      4  N   UNL     1      -7.177  -1.564  -2.178  1.00  0.00    -0.234 NA
ATOM      5  C   UNL     1      -7.065  -3.446  -3.556  1.00  0.00     0.101 A 
ATOM      6  S   UNL     1      -8.234  -3.901  -2.385  1.00  0.00    -0.125 S 
BRANCH   3   7
ATOM      7  C   UNL     1      -5.656  -1.425  -4.129  1.00  0.00     0.271 C 
ATOM      8  N   UNL     1      -4.426  -2.035  -4.148  1.00  0.00    -0.341 N 
ATOM      9  O   UNL     1      -5.919  -0.374  -4.698  1.00  0.00    -0.267 OA
ATOM     10  H   UNL     1      -4.364  -2.919  -3.644  1.00  0.00     0.164 HD
BRANCH   8  11
ATOM     11  C   UNL     1      -3.229  -1.443  -4.723  1.00  0.00     0.140 C 
BRANCH  11  12
ATOM     12  C   UNL     1      -2.281  -1.089  -3.574  1.00  0.00     0.091 C 
ATOM     13  S   UNL     1      -0.695  -1.816  -3.475  1.00  0.00    -0.106 SA
ATOM     14  C   UNL     1      -0.222  -0.642  -2.188  1.00  0.00     0.113 C 
ATOM     15  N   UNL     1      -2.639  -0.306  -2.605  1.00  0.00    -0.267 NA
ATOM     16  C   UNL     1      -1.553  -0.229  -1.578  1.00  0.00     0.205 CG0
ATOM     17  G   UNL     1      -1.887  -1.104  -0.359  1.00  0.00     0.000 G0
ENDBRANCH  11  12
BRANCH  11  18
ATOM     18  C   UNL     1      -2.620  -2.261  -5.891  1.00  0.00     0.015 C 
ATOM     19  C   UNL     1      -3.635  -3.288  -6.412  1.00  0.00     0.010 C 
BRANCH  18  20
ATOM     20  C   UNL     1      -2.039  -1.411  -7.040  1.00  0.00     0.002 C 
ATOM     21  C   UNL     1      -1.498  -2.253  -8.189  1.00  0.00     0.004 C 
ENDBRANCH  18  20
ENDBRANCH  11  18
ENDBRANCH   8  11
ENDBRANCH   3   7
ENDBRANCH   1   2
BRANCH   1  22
ATOM     22  N   UNL     1      -8.093  -1.374   0.523  1.00  0.00    -0.348 N 
ATOM     23  C   UNL     1      -7.403  -2.072   1.477  1.00  0.00     0.249 C 
ATOM     24  O   UNL     1      -7.376  -3.297   1.526  1.00  0.00    -0.272 OA
ATOM     25  H   UNL     1      -8.060  -0.358   0.587  1.00  0.00     0.163 HD
BRANCH  23  26
ATOM     26  C   UNL     1      -6.624  -1.159   2.435  1.00  0.00     0.238 C 
ATOM     27  N   UNL     1      -5.266  -1.727   2.660  1.00  0.00    -0.236 NA
ATOM     28  C   UNL     1      -6.394   0.222   1.844  1.00  0.00     0.206 C 
ATOM     29  C   UNL     1      -4.485  -0.881   2.057  1.00  0.00     0.208 C 
ATOM     30  O   UNL     1      -5.022   0.206   1.451  1.00  0.00    -0.474 OA
ATOM     31  C   UNL     1      -6.595   1.335   2.863  1.00  0.00     0.056 C 
BRANCH  29  32
ATOM     32  C   UNL     1      -2.972  -1.000   1.900  1.00  0.00     0.171 C 
BRANCH  32  33
ATOM     33  N   UNL     1      -2.527  -0.376   0.664  1.00  0.00    -0.342 N 
ATOM     34  C   UNL     1      -1.901  -1.079  -0.338  1.00  0.00     0.246 CG0
ATOM     35  O   UNL     1      -1.647  -2.278  -0.257  1.00  0.00    -0.273 OA
ATOM     36  H   UNL     1      -2.633   0.622   0.513  1.00  0.00     0.164 HD
ATOM     37  G   UNL     1      -1.565  -0.246  -1.586  1.00  0.00     0.000 G0
ENDBRANCH  32  33
BRANCH  32  38
ATOM     38  C   UNL     1      -2.250  -0.428   3.148  1.00  0.00     0.017 C 
ATOM     39  C   UNL     1      -0.769  -0.182   2.834  1.00  0.00     0.010 C 
BRANCH  38  40
ATOM     40  C   UNL     1      -2.931   0.842   3.709  1.00  0.00     0.002 C 
ATOM     41  C   UNL     1      -2.376   2.137   3.131  1.00  0.00     0.004 C 
ENDBRANCH  38  40
ENDBRANCH  32  38
ENDBRANCH  29  32
ENDBRANCH  23  26
ENDBRANCH   1  22
TORSDOF 4
ENDMDL
MODEL 8
REMARK VINA RESULT:    -3.562     15.903     18.242
REMARK INTER + INTRA:          -8.011
REMARK INTER:                  -6.462
REMARK INTRA:                  -1.549
REMARK UNBOUND:                -1.949
REMARK SMILES CC[C@H](C)[C@@H]1NC(=O)[C@H]2CSC(=N2)[C@@H]([C@@H](C)CC)NC(=O)c2csc(n2)CNC(=O)[C@H]2N=C1O[C@@H]2C
REMARK SMILES IDX 27 1 25 2 22 3 26 4 23 5 24 6 20 7 19 8 21 9 14 11 12 12
REMARK SMILES IDX 11 13 10 14 13 15 9 16 15 18 16 19 17 20 18 21 28 22 29 23
REMARK SMILES IDX 30 24 31 26 32 27 35 28 33 29 34 30 36 31 5 32 6 33 7 34
REMARK SMILES IDX 8 35 3 38 4 39 2 40 1 41
REMARK H PARENT 19 10 28 25 6 36
REMARK Flexibility Score:   91.900
ROOT
ATOM      1  C   UNL     1      -6.281   1.330  -4.846  1.00  0.00     0.183 C 
ENDROOT
BRANCH   1   2
ATOM      2  C   UNL     1      -5.930   2.155  -3.642  1.00  0.00     0.113 A 
ATOM      3  C   UNL     1      -5.018   2.704  -1.684  1.00  0.00     0.139 A 
ATOM      4  N   UNL     1      -5.041   1.788  -2.738  1.00  0.00    -0.234 NA
ATOM      5  C   UNL     1      -5.861   3.786  -1.848  1.00  0.00     0.101 A 
ATOM      6  S   UNL     1      -6.717   3.649  -3.330  1.00  0.00    -0.125 S 
BRANCH   3   7
ATOM      7  C   UNL     1      -4.176   2.453  -0.512  1.00  0.00     0.271 C 
ATOM      8  N   UNL     1      -3.407   1.327  -0.674  1.00  0.00    -0.341 N 
ATOM      9  O   UNL     1      -4.190   3.146   0.497  1.00  0.00    -0.267 OA
ATOM     10  H   UNL     1      -3.486   0.866  -1.580  1.00  0.00     0.164 HD
BRANCH   8  11
ATOM     11  C   UNL     1      -2.614   0.720   0.382  1.00  0.00     0.140 C 
BRANCH  11  12
ATOM     12  C   UNL     1      -3.457  -0.384   1.027  1.00  0.00     0.091 C 
ATOM     13  S   UNL     1      -2.704  -1.611   2.019  1.00  0.00    -0.106 SA
ATOM     14  C   UNL     1      -4.325  -2.161   2.591  1.00  0.00     0.113 C 
ATOM     15  N   UNL     1      -4.729  -0.493   0.807  1.00  0.00    -0.267 NA
ATOM     16  C   UNL     1      -5.263  -1.720   1.479  1.00  0.00     0.205 CG0
ATOM     17  G   UNL     1      -5.473  -2.854   0.463  1.00  0.00     0.000 G0
ENDBRANCH  11  12
BRANCH  11  18
ATOM     18  C   UNL     1      -1.179   0.325  -0.054  1.00  0.00     0.015 C 
ATOM     19  C   UNL     1      -1.040   0.416  -1.579  1.00  0.00     0.010 C 
BRANCH  18  20
ATOM     20  C   UNL     1      -0.052   1.098   0.662  1.00  0.00     0.002 C 
ATOM     21  C   UNL     1       0.646   0.271   1.736  1.00  0.00     0.004 C 
ENDBRANCH  18  20
ENDBRANCH  11  18
ENDBRANCH   8  11
ENDBRANCH   3   7
ENDBRANCH   1   2
BRANCH   1  22
ATOM     22  N   UNL     1      -5.768  -0.003  -4.622  1.00  0.00    -0.348 N 
ATOM     23  C   UNL     1      -4.503  -0.415  -4.941  1.00  0.00     0.249 C 
ATOM     24  O   UNL     1      -3.640   0.338  -5.378  1.00  0.00    -0.272 OA
ATOM     25  H   UNL     1      -6.410  -0.718  -4.281  1.00  0.00     0.163 HD
BRANCH  23  26
ATOM     26  C   UNL     1      -4.267  -1.902  -4.636  1.00  0.00     0.238 C 
ATOM     27  N   UNL     1      -4.457  -2.141  -3.178  1.00  0.00    -0.236 NA
ATOM     28  C   UNL     1      -5.282  -2.794  -5.330  1.00  0.00     0.206 C 
ATOM     29  C   UNL     1      -5.548  -2.845  -3.132  1.00  0.00     0.208 C 
ATOM     30  O   UNL     1      -6.176  -3.178  -4.286  1.00  0.00    -0.474 OA
ATOM     31  C   UNL     1      -4.652  -4.049  -5.918  1.00  0.00     0.056 C 
BRANCH  29  32
ATOM     32  C   UNL     1      -6.266  -3.319  -1.871  1.00  0.00     0.171 C 
BRANCH  32  33
ATOM     33  N   UNL     1      -6.003  -2.424  -0.756  1.00  0.00    -0.342 N 
ATOM     34  C   UNL     1      -5.515  -2.867   0.451  1.00  0.00     0.246 CG0
ATOM     35  O   UNL     1      -5.289  -4.050   0.689  1.00  0.00    -0.273 OA
ATOM     36  H   UNL     1      -6.209  -1.433  -0.819  1.00  0.00     0.164 HD
ATOM     37  G   UNL     1      -5.250  -1.753   1.478  1.00  0.00     0.000 G0
ENDBRANCH  32  33
BRANCH  32  38
ATOM     38  C   UNL     1      -7.783  -3.499  -2.145  1.00  0.00     0.017 C 
ATOM     39  C   UNL     1      -8.405  -4.413  -1.082  1.00  0.00     0.010 C 
BRANCH  38  40
ATOM     40  C   UNL     1      -8.539  -2.154  -2.253  1.00  0.00     0.002 C 
ATOM     41  C   UNL     1     -10.040  -2.279  -2.027  1.00  0.00     0.004 C 
ENDBRANCH  38  40
ENDBRANCH  32  38
ENDBRANCH  29  32
ENDBRANCH  23  26
ENDBRANCH   1  22
TORSDOF 4
ENDMDL
MODEL 9
REMARK VINA RESULT:    -3.417      2.011      2.325
REMARK INTER + INTRA:          -7.764
REMARK INTER:                  -6.182
REMARK INTRA:                  -1.581
REMARK UNBOUND:                -1.949
REMARK SMILES CC[C@H](C)[C@@H]1NC(=O)[C@H]2CSC(=N2)[C@@H]([C@@H](C)CC)NC(=O)c2csc(n2)CNC(=O)[C@H]2N=C1O[C@@H]2C
REMARK SMILES IDX 27 1 25 2 22 3 26 4 23 5 24 6 20 7 19 8 21 9 14 11 12 12
REMARK SMILES IDX 11 13 10 14 13 15 9 16 15 18 16 19 17 20 18 21 28 22 29 23
REMARK SMILES IDX 30 24 31 26 32 27 35 28 33 29 34 30 36 31 5 32 6 33 7 34
REMARK SMILES IDX 8 35 3 38 4 39 2 40 1 41
REMARK H PARENT 19 10 28 25 6 36
REMARK Flexibility Score:   91.900
ROOT
ATOM      1  C   UNL     1       4.078  10.172   7.679  1.00  0.00     0.183 C 
ENDROOT
BRANCH   1   2
ATOM      2  C   UNL     1       5.122  10.936   6.916  1.00  0.00     0.113 A 
ATOM      3  C   UNL     1       6.994  11.339   5.776  1.00  0.00     0.139 A 
ATOM      4  N   UNL     1       6.137  10.365   6.294  1.00  0.00    -0.234 NA
ATOM      5  C   UNL     1       6.568  12.638   5.971  1.00  0.00     0.101 A 
ATOM      6  S   UNL     1       5.087  12.650   6.838  1.00  0.00    -0.125 S 
BRANCH   3   7
ATOM      7  C   UNL     1       8.246  10.943   5.127  1.00  0.00     0.271 C 
ATOM      8  N   UNL     1       8.020  10.347   3.911  1.00  0.00    -0.341 N 
ATOM      9  O   UNL     1       9.352  11.097   5.631  1.00  0.00    -0.267 OA
ATOM     10  H   UNL     1       7.046  10.310   3.613  1.00  0.00     0.164 HD
BRANCH   8  11
ATOM     11  C   UNL     1       9.046   9.685   3.122  1.00  0.00     0.140 C 
BRANCH  11  12
ATOM     12  C   UNL     1       8.516   8.303   2.728  1.00  0.00     0.091 C 
ATOM     13  S   UNL     1       6.902   8.122   2.083  1.00  0.00    -0.106 SA
ATOM     14  C   UNL     1       7.271   6.422   1.600  1.00  0.00     0.113 C 
ATOM     15  N   UNL     1       9.205   7.223   2.923  1.00  0.00    -0.267 NA
ATOM     16  C   UNL     1       8.396   6.022   2.543  1.00  0.00     0.205 CG0
ATOM     17  G   UNL     1       7.836   5.321   3.791  1.00  0.00     0.000 G0
ENDBRANCH  11  12
BRANCH  11  18
ATOM     18  C   UNL     1       9.619  10.556   1.975  1.00  0.00     0.015 C 
ATOM     19  C   UNL     1       8.494  11.340   1.285  1.00  0.00     0.010 C 
BRANCH  18  20
ATOM     20  C   UNL     1      10.780  11.483   2.388  1.00  0.00     0.002 C 
ATOM     21  C   UNL     1      11.279  12.359   1.244  1.00  0.00     0.004 C 
ENDBRANCH  18  20
ENDBRANCH  11  18
ENDBRANCH   8  11
ENDBRANCH   3   7
ENDBRANCH   1   2
BRANCH   1  22
ATOM     22  N   UNL     1       4.032   8.835   7.128  1.00  0.00    -0.348 N 
ATOM     23  C   UNL     1       3.117   8.403   6.207  1.00  0.00     0.249 C 
ATOM     24  O   UNL     1       2.286   9.140   5.688  1.00  0.00    -0.272 OA
ATOM     25  H   UNL     1       4.666   8.133   7.507  1.00  0.00     0.163 HD
BRANCH  23  26
ATOM     26  C   UNL     1       3.284   6.917   5.854  1.00  0.00     0.238 C 
ATOM     27  N   UNL     1       4.609   6.713   5.205  1.00  0.00    -0.236 NA
ATOM     28  C   UNL     1       3.297   6.036   7.091  1.00  0.00     0.206 C 
ATOM     29  C   UNL     1       5.274   6.036   6.092  1.00  0.00     0.208 C 
ATOM     30  O   UNL     1       4.673   5.695   7.258  1.00  0.00    -0.474 OA
ATOM     31  C   UNL     1       2.497   4.754   6.905  1.00  0.00     0.056 C 
BRANCH  29  32
ATOM     32  C   UNL     1       6.735   5.604   5.993  1.00  0.00     0.171 C 
BRANCH  32  33
ATOM     33  N   UNL     1       7.346   6.117   4.777  1.00  0.00    -0.342 N 
ATOM     34  C   UNL     1       7.838   5.294   3.792  1.00  0.00     0.246 CG0
ATOM     35  O   UNL     1       7.824   4.068   3.873  1.00  0.00    -0.273 OA
ATOM     36  H   UNL     1       7.464   7.113   4.629  1.00  0.00     0.164 HD
ATOM     37  G   UNL     1       8.390   6.033   2.561  1.00  0.00     0.000 G0
ENDBRANCH  32  33
BRANCH  32  38
ATOM     38  C   UNL     1       7.512   6.021   7.270  1.00  0.00     0.017 C 
ATOM     39  C   UNL     1       8.121   4.784   7.942  1.00  0.00     0.010 C 
BRANCH  38  40
ATOM     40  C   UNL     1       8.579   7.105   6.999  1.00  0.00     0.002 C 
ATOM     41  C   UNL     1      10.009   6.587   7.079  1.00  0.00     0.004 C 
ENDBRANCH  38  40
ENDBRANCH  32  38
ENDBRANCH  29  32
ENDBRANCH  23  26
ENDBRANCH   1  22
TORSDOF 4
ENDMDL
MODEL 10
REMARK VINA RESULT:    -3.378     15.176     17.990
REMARK INTER + INTRA:          -7.697
REMARK INTER:                  -5.955
REMARK INTRA:                  -1.742
REMARK UNBOUND:                -1.949
REMARK SMILES CC[C@H](C)[C@@H]1NC(=O)[C@H]2CSC(=N2)[C@@H]([C@@H](C)CC)NC(=O)c2csc(n2)CNC(=O)[C@H]2N=C1O[C@@H]2C
REMARK SMILES IDX 27 1 25 2 22 3 26 4 23 5 24 6 20 7 19 8 21 9 14 11 12 12
REMARK SMILES IDX 11 13 10 14 13 15 9 16 15 18 16 19 17 20 18 21 28 22 29 23
REMARK SMILES IDX 30 24 31 26 32 27 35 28 33 29 34 30 36 31 5 32 6 33 7 34
REMARK SMILES IDX 8 35 3 38 4 39 2 40 1 41
REMARK H PARENT 19 10 28 25 6 36
REMARK Flexibility Score:   91.900
ROOT
ATOM      1  C   UNL     1      -2.658   0.109  -4.841  1.00  0.00     0.183 C 
ENDROOT
BRANCH   1   2
ATOM      2  C   UNL     1      -3.439  -1.172  -4.902  1.00  0.00     0.113 A 
ATOM      3  C   UNL     1      -4.830  -2.798  -4.279  1.00  0.00     0.139 A 
ATOM      4  N   UNL     1      -4.366  -1.506  -4.023  1.00  0.00    -0.234 NA
ATOM      5  C   UNL     1      -4.276  -3.394  -5.395  1.00  0.00     0.101 A 
ATOM      6  S   UNL     1      -3.138  -2.338  -6.126  1.00  0.00    -0.125 S 
BRANCH   3   7
ATOM      7  C   UNL     1      -5.794  -3.423  -3.371  1.00  0.00     0.271 C 
ATOM      8  N   UNL     1      -5.903  -2.729  -2.192  1.00  0.00    -0.341 N 
ATOM      9  O   UNL     1      -6.399  -4.457  -3.628  1.00  0.00    -0.267 OA
ATOM     10  H   UNL     1      -5.354  -1.872  -2.133  1.00  0.00     0.164 HD
BRANCH   8  11
ATOM     11  C   UNL     1      -6.635  -3.203  -1.029  1.00  0.00     0.140 C 
BRANCH  11  12
ATOM     12  C   UNL     1      -5.779  -2.927   0.210  1.00  0.00     0.091 C 
ATOM     13  S   UNL     1      -6.468  -3.055   1.812  1.00  0.00    -0.106 SA
ATOM     14  C   UNL     1      -4.819  -2.957   2.542  1.00  0.00     0.113 C 
ATOM     15  N   UNL     1      -4.551  -2.521   0.120  1.00  0.00    -0.267 NA
ATOM     16  C   UNL     1      -4.004  -2.232   1.483  1.00  0.00     0.205 CG0
ATOM     17  G   UNL     1      -3.982  -0.719   1.755  1.00  0.00     0.000 G0
ENDBRANCH  11  12
BRANCH  11  18
ATOM     18  C   UNL     1      -8.107  -2.719  -0.971  1.00  0.00     0.015 C 
ATOM     19  C   UNL     1      -8.278  -1.425  -1.778  1.00  0.00     0.010 C 
BRANCH  18  20
ATOM     20  C   UNL     1      -9.150  -3.779  -1.379  1.00  0.00     0.002 C 
ATOM     21  C   UNL     1      -9.833  -4.433  -0.183  1.00  0.00     0.004 C 
ENDBRANCH  18  20
ENDBRANCH  11  18
ENDBRANCH   8  11
ENDBRANCH   3   7
ENDBRANCH   1   2
BRANCH   1  22
ATOM     22  N   UNL     1      -3.226   0.912  -3.781  1.00  0.00    -0.348 N 
ATOM     23  C   UNL     1      -2.601   1.976  -3.189  1.00  0.00     0.249 C 
ATOM     24  O   UNL     1      -1.517   2.411  -3.561  1.00  0.00    -0.272 OA
ATOM     25  H   UNL     1      -4.118   0.624  -3.380  1.00  0.00     0.163 HD
BRANCH  23  26
ATOM     26  C   UNL     1      -3.430   2.597  -2.055  1.00  0.00     0.238 C 
ATOM     27  N   UNL     1      -3.623   1.587  -0.977  1.00  0.00    -0.236 NA
ATOM     28  C   UNL     1      -2.711   3.762  -1.396  1.00  0.00     0.206 C 
ATOM     29  C   UNL     1      -2.906   2.054   0.000  1.00  0.00     0.208 C 
ATOM     30  O   UNL     1      -2.242   3.225  -0.160  1.00  0.00    -0.474 OA
ATOM     31  C   UNL     1      -3.641   4.930  -1.098  1.00  0.00     0.056 C 
BRANCH  29  32
ATOM     32  C   UNL     1      -2.672   1.384   1.351  1.00  0.00     0.171 C 
BRANCH  32  33
ATOM     33  N   UNL     1      -2.858  -0.056   1.256  1.00  0.00    -0.342 N 
ATOM     34  C   UNL     1      -3.974  -0.693   1.743  1.00  0.00     0.246 CG0
ATOM     35  O   UNL     1      -4.885  -0.102   2.318  1.00  0.00    -0.273 OA
ATOM     36  H   UNL     1      -2.142  -0.651   0.852  1.00  0.00     0.164 HD
ATOM     37  G   UNL     1      -4.004  -2.209   1.489  1.00  0.00     0.000 G0
ENDBRANCH  32  33
BRANCH  32  38
ATOM     38  C   UNL     1      -1.277   1.767   1.913  1.00  0.00     0.017 C 
ATOM     39  C   UNL     1      -1.394   2.153   3.393  1.00  0.00     0.010 C 
BRANCH  38  40
ATOM     40  C   UNL     1      -0.216   0.665   1.694  1.00  0.00     0.002 C 
ATOM     41  C   UNL     1       0.299   0.048   2.988  1.00  0.00     0.004 C 
ENDBRANCH  38  40
ENDBRANCH  32  38
ENDBRANCH  29  32
ENDBRANCH  23  26
ENDBRANCH   1  22
TORSDOF 4
ENDMDL
