MODEL 1
REMARK VINA RESULT:    -6.569      0.000      0.000
REMARK INTER + INTRA:         -26.906
REMARK INTER:                 -19.625
REMARK INTRA:                  -7.281
REMARK UNBOUND:                -7.281
REMARK SMILES C=C1C(=O)N[C@H](C)C(=O)N[C@@H](CC(C)C)C(=O)N[C@@H](C(=O)O)[C@H](C)C(=O)N[C@@H](CCCN=C(N)N)C(=O)N[C@@H](/C=C/C(C)=C/[C@H](C)[C@H](Cc2ccccc2)OC)[C@H](C)C(=O)N[C@@H](C(=O)O)CCC(=O)N1C
REMARK SMILES IDX 39 1 38 2 37 3 36 4 28 6 27 7 25 8 26 9 23 11 24 12 19 13
REMARK SMILES IDX 18 14 16 15 17 16 11 18 10 19 8 20 9 21 12 24 13 25 14 26
REMARK SMILES IDX 15 27 20 28 21 29 22 30 29 32 30 33 31 34 32 35 33 36 34 37
REMARK SMILES IDX 35 38 57 43 58 44 59 45 60 46 61 47 62 49 66 50 67 51 68 52
REMARK SMILES IDX 69 53 70 54 71 55 2 56 1 57 3 58 4 59 5 60 6 62 7 63 63 65
REMARK SMILES IDX 64 66 65 67 40 69 41 70 42 71 44 72 43 73 45 74 46 75 47 76
REMARK SMILES IDX 55 77 56 78 48 79 49 80 50 81 54 82 51 83 53 84 52 85
REMARK H PARENT 38 5 27 10 18 17 10 22 22 31 34 39 34 40 35 41 35 42 61 48
REMARK H PARENT 5 61 65 68
REMARK Flexibility Score:  369.900
ROOT
ATOM      1  C   UNL     1       5.897   1.437  -1.665  1.00  0.00     0.117 C 
ENDROOT
BRANCH   1   2
ATOM      2  N   UNL     1       5.280   1.033  -2.929  1.00  0.00    -0.347 N 
ATOM      3  O   UNL     1       5.659   2.972  -4.097  1.00  0.00    -0.273 OA
ATOM      4  C   UNL     1       5.291   1.802  -4.076  1.00  0.00     0.243 C 
ATOM      5  H   UNL     1       4.857   0.120  -3.003  1.00  0.00     0.164 HD
BRANCH   4   6
ATOM      6  C   UNL     1       4.643   1.106  -5.300  1.00  0.00     0.171 C 
BRANCH   6   7
ATOM      7  N   UNL     1       5.661   0.381  -6.078  1.00  0.00    -0.344 N 
ATOM      8  C   UNL     1       5.611   0.362  -7.455  1.00  0.00     0.226 C 
ATOM      9  O   UNL     1       4.723   0.916  -8.091  1.00  0.00    -0.275 OA
ATOM     10  H   UNL     1       6.372  -0.145  -5.585  1.00  0.00     0.164 HD
BRANCH   8  11
ATOM     11  C   UNL     1       6.761  -0.382  -8.112  1.00  0.00     0.109 C 
ATOM     12  C   UNL     1       8.004  -0.319  -7.224  1.00  0.00     0.021 C 
BRANCH  11  13
ATOM     13  C   UNL     1       6.310  -1.805  -8.496  1.00  0.00     0.204 C 
BRANCH  13  14
ATOM     14  N   UNL     1       7.183  -2.405  -9.510  1.00  0.00    -0.340 N 
ATOM     15  C   UNL     1       6.701  -3.118 -10.586  1.00  0.00     0.243 C 
ATOM     16  O   UNL     1       5.498  -3.250 -10.805  1.00  0.00    -0.273 OA
ATOM     17  H   UNL     1       8.185  -2.464  -9.307  1.00  0.00     0.164 HD
BRANCH  15  18
ATOM     18  C   UNL     1       7.807  -3.831 -11.401  1.00  0.00     0.171 C 
BRANCH  18  19
ATOM     19  N   UNL     1       7.129  -4.753 -12.311  1.00  0.00    -0.343 N 
ATOM     20  C   UNL     1       7.771  -5.852 -12.847  1.00  0.00     0.242 CG0
ATOM     21  O   UNL     1       8.976  -6.033 -12.692  1.00  0.00    -0.273 OA
ATOM     22  H   UNL     1       6.162  -4.581 -12.563  1.00  0.00     0.164 HD
ATOM     23  G   UNL     1       6.871  -6.751 -13.721  1.00  0.00     0.000 G0
ENDBRANCH  18  19
BRANCH  18  24
ATOM     24  C   UNL     1       8.658  -2.811 -12.167  1.00  0.00     0.038 C 
BRANCH  24  25
ATOM     25  C   UNL     1      10.003  -2.460 -11.496  1.00  0.00    -0.015 C 
ATOM     26  C   UNL     1      10.113  -0.976 -11.146  1.00  0.00     0.007 C 
ATOM     27  C   UNL     1      11.158  -2.859 -12.418  1.00  0.00     0.007 C 
ENDBRANCH  24  25
ENDBRANCH  18  24
ENDBRANCH  15  18
ENDBRANCH  13  14
BRANCH  13  28
ATOM     28  C   UNL     1       6.268  -2.767  -7.305  1.00  0.00     0.327 C 
ATOM     29  O   UNL     1       5.615  -2.623  -6.283  1.00  0.00    -0.250 OA
BRANCH  28  30
ATOM     30  O   UNL     1       7.138  -3.790  -7.421  1.00  0.00    -0.480 OA
ATOM     31  H   UNL     1       6.691  -4.539  -6.976  1.00  0.00     0.296 HD
ENDBRANCH  28  30
ENDBRANCH  13  28
ENDBRANCH  11  13
ENDBRANCH   8  11
ENDBRANCH   6   7
BRANCH   6  32
ATOM     32  C   UNL     1       3.545   0.154  -4.815  1.00  0.00     0.037 C 
BRANCH  32  33
ATOM     33  C   UNL     1       2.320   0.163  -5.741  1.00  0.00     0.026 C 
BRANCH  33  34
ATOM     34  C   UNL     1       1.347  -0.977  -5.435  1.00  0.00     0.146 C 
BRANCH  34  35
ATOM     35  N   UNL     1       1.450  -1.977  -6.489  1.00  0.00    -0.254 NA
ATOM     36  C   UNL     1       2.150  -3.028  -6.273  1.00  0.00     0.185 C 
ATOM     37  N   UNL     1       2.247  -3.958  -7.235  1.00  0.00    -0.370 N 
ATOM     38  N   UNL     1       2.844  -3.369  -5.172  1.00  0.00    -0.370 N 
ATOM     39  H   UNL     1       1.742  -3.778  -8.093  1.00  0.00     0.159 HD
ATOM     40  H   UNL     1       2.626  -4.877  -7.084  1.00  0.00     0.159 HD
ATOM     41  H   UNL     1       3.470  -4.157  -5.175  1.00  0.00     0.159 HD
ATOM     42  H   UNL     1       2.874  -2.754  -4.374  1.00  0.00     0.159 HD
ENDBRANCH  34  35
ENDBRANCH  33  34
ENDBRANCH  32  33
ENDBRANCH   6  32
ENDBRANCH   4   6
ENDBRANCH   1   2
BRANCH   1  43
ATOM     43  C   UNL     1       6.852   0.301  -1.196  1.00  0.00     0.102 C 
ATOM     44  C   UNL     1       7.542   0.598   0.146  1.00  0.00     0.020 C 
BRANCH  43  45
ATOM     45  C   UNL     1       7.817  -0.104  -2.314  1.00  0.00     0.225 C 
ATOM     46  O   UNL     1       7.893  -1.248  -2.752  1.00  0.00    -0.275 OA
ATOM     47  N   UNL     1       8.674   0.883  -2.744  1.00  0.00    -0.342 N 
ATOM     48  H   UNL     1       8.498   1.845  -2.487  1.00  0.00     0.164 HD
BRANCH  47  49
ATOM     49  C   UNL     1       9.627   0.650  -3.833  1.00  0.00     0.192 C 
BRANCH  49  50
ATOM     50  C   UNL     1      11.018   0.388  -3.251  1.00  0.00     0.047 C 
BRANCH  50  51
ATOM     51  C   UNL     1      11.614   1.634  -2.583  1.00  0.00     0.103 C 
BRANCH  51  52
ATOM     52  C   UNL     1      11.117   1.810  -1.149  1.00  0.00     0.226 C 
ATOM     53  O   UNL     1      10.906   0.816  -0.451  1.00  0.00    -0.275 OA
BRANCH  52  54
ATOM     54  N   UNL     1      11.000   3.133  -0.684  1.00  0.00    -0.311 N 
ATOM     55  C   UNL     1      12.119   4.078  -0.803  1.00  0.00     0.153 C 
BRANCH  54  56
ATOM     56  C   UNL     1       9.813   3.600  -0.095  1.00  0.00     0.102 C 
ATOM     57  C   UNL     1       8.708   3.953  -0.770  1.00  0.00     0.043 C 
BRANCH  56  58
ATOM     58  C   UNL     1       9.680   3.699   1.406  1.00  0.00     0.268 C 
ATOM     59  O   UNL     1      10.130   2.860   2.175  1.00  0.00    -0.268 OA
ATOM     60  N   UNL     1       9.063   4.856   1.819  1.00  0.00    -0.339 N 
ATOM     61  H   UNL     1       8.709   5.495   1.118  1.00  0.00     0.164 HD
BRANCH  60  62
ATOM     62  C   UNL     1       8.886   5.183   3.233  1.00  0.00     0.168 CG0
ATOM     63  C   UNL     1       8.326   6.589   3.403  1.00  0.00     0.041 C 
ATOM     64  G   UNL     1      10.234   5.040   3.969  1.00  0.00     0.000 G0
ENDBRANCH  60  62
ENDBRANCH  56  58
ENDBRANCH  54  56
ENDBRANCH  52  54
ENDBRANCH  51  52
ENDBRANCH  50  51
ENDBRANCH  49  50
BRANCH  49  65
ATOM     65  C   UNL     1       9.695   1.847  -4.794  1.00  0.00     0.326 C 
ATOM     66  O   UNL     1      10.503   1.986  -5.700  1.00  0.00    -0.250 OA
BRANCH  65  67
ATOM     67  O   UNL     1       8.799   2.826  -4.538  1.00  0.00    -0.480 OA
ATOM     68  H   UNL     1       8.921   3.008  -3.582  1.00  0.00     0.296 HD
ENDBRANCH  65  67
ENDBRANCH  49  65
ENDBRANCH  47  49
ENDBRANCH  43  45
ENDBRANCH   1  43
BRANCH   1  69
ATOM     69  C   UNL     1       4.760   1.862  -0.755  1.00  0.00    -0.001 C 
ATOM     70  C   UNL     1       4.672   2.993  -0.032  1.00  0.00     0.001 C 
BRANCH  70  71
ATOM     71  C   UNL     1       3.559   3.403   0.827  1.00  0.00    -0.055 C 
ATOM     72  C   UNL     1       2.439   2.650   0.805  1.00  0.00    -0.018 C 
ATOM     73  C   UNL     1       3.746   4.630   1.680  1.00  0.00     0.044 C 
BRANCH  72  74
ATOM     74  C   UNL     1       1.143   2.829   1.582  1.00  0.00     0.038 C 
ATOM     75  C   UNL     1       1.280   2.028   2.883  1.00  0.00     0.015 C 
BRANCH  74  76
ATOM     76  C   UNL     1      -0.049   2.402   0.675  1.00  0.00     0.128 C 
BRANCH  76  77
ATOM     77  O   UNL     1      -1.075   3.409   0.706  1.00  0.00    -0.381 OA
ATOM     78  C   UNL     1      -2.387   2.882   0.853  1.00  0.00     0.195 C 
ENDBRANCH  76  77
BRANCH  76  79
ATOM     79  C   UNL     1       0.365   2.013  -0.766  1.00  0.00     0.068 C 
BRANCH  79  80
ATOM     80  C   UNL     1       0.195   0.573  -1.186  1.00  0.00    -0.045 A 
ATOM     81  C   UNL     1       1.306  -0.245  -1.428  1.00  0.00     0.004 A 
ATOM     82  C   UNL     1      -1.089   0.038  -1.370  1.00  0.00     0.004 A 
ATOM     83  C   UNL     1       1.140  -1.572  -1.830  1.00  0.00     0.000 A 
ATOM     84  C   UNL     1      -1.255  -1.289  -1.773  1.00  0.00     0.000 A 
ATOM     85  C   UNL     1      -0.141  -2.094  -2.001  1.00  0.00     0.000 A 
ENDBRANCH  79  80
ENDBRANCH  76  79
ENDBRANCH  74  76
ENDBRANCH  72  74
ENDBRANCH  70  71
ENDBRANCH   1  69
TORSDOF 17
ENDMDL
MODEL 2
REMARK VINA RESULT:    -6.448      4.987     12.058
REMARK INTER + INTRA:         -26.545
REMARK INTER:                 -19.910
REMARK INTRA:                  -6.635
REMARK UNBOUND:                -7.281
REMARK SMILES C=C1C(=O)N[C@H](C)C(=O)N[C@@H](CC(C)C)C(=O)N[C@@H](C(=O)O)[C@H](C)C(=O)N[C@@H](CCCN=C(N)N)C(=O)N[C@@H](/C=C/C(C)=C/[C@H](C)[C@H](Cc2ccccc2)OC)[C@H](C)C(=O)N[C@@H](C(=O)O)CCC(=O)N1C
REMARK SMILES IDX 39 1 38 2 37 3 36 4 28 6 27 7 25 8 26 9 23 11 24 12 19 13
REMARK SMILES IDX 18 14 16 15 17 16 11 18 10 19 8 20 9 21 12 24 13 25 14 26
REMARK SMILES IDX 15 27 20 28 21 29 22 30 29 32 30 33 31 34 32 35 33 36 34 37
REMARK SMILES IDX 35 38 57 43 58 44 59 45 60 46 61 47 62 49 66 50 67 51 68 52
REMARK SMILES IDX 69 53 70 54 71 55 2 56 1 57 3 58 4 59 5 60 6 62 7 63 63 65
REMARK SMILES IDX 64 66 65 67 40 69 41 70 42 71 44 72 43 73 45 74 46 75 47 76
REMARK SMILES IDX 55 77 56 78 48 79 49 80 50 81 54 82 51 83 53 84 52 85
REMARK H PARENT 38 5 27 10 18 17 10 22 22 31 34 39 34 40 35 41 35 42 61 48
REMARK H PARENT 5 61 65 68
REMARK Flexibility Score:  369.900
ROOT
ATOM      1  C   UNL     1       1.658   1.112  -1.973  1.00  0.00     0.117 C 
ENDROOT
BRANCH   1   2
ATOM      2  N   UNL     1       2.820   1.827  -1.445  1.00  0.00    -0.347 N 
ATOM      3  O   UNL     1       3.769   0.079  -0.298  1.00  0.00    -0.273 OA
ATOM      4  C   UNL     1       3.834   1.228  -0.723  1.00  0.00     0.243 C 
ATOM      5  H   UNL     1       2.933   2.808  -1.652  1.00  0.00     0.164 HD
BRANCH   4   6
ATOM      6  C   UNL     1       4.991   2.192  -0.356  1.00  0.00     0.171 C 
BRANCH   6   7
ATOM      7  N   UNL     1       6.115   2.026  -1.292  1.00  0.00    -0.344 N 
ATOM      8  C   UNL     1       7.108   1.103  -1.041  1.00  0.00     0.226 C 
ATOM      9  O   UNL     1       7.120   0.403  -0.036  1.00  0.00    -0.275 OA
ATOM     10  H   UNL     1       6.175   2.634  -2.099  1.00  0.00     0.164 HD
BRANCH   8  11
ATOM     11  C   UNL     1       8.166   1.014  -2.126  1.00  0.00     0.109 C 
ATOM     12  C   UNL     1       7.776   1.890  -3.316  1.00  0.00     0.021 C 
BRANCH  11  13
ATOM     13  C   UNL     1       9.554   1.315  -1.527  1.00  0.00     0.204 C 
BRANCH  13  14
ATOM     14  N   UNL     1       9.466   2.145  -0.322  1.00  0.00    -0.340 N 
ATOM     15  C   UNL     1       9.748   3.494  -0.320  1.00  0.00     0.243 C 
ATOM     16  O   UNL     1      10.034   4.110  -1.344  1.00  0.00    -0.273 OA
ATOM     17  H   UNL     1       9.383   1.672   0.582  1.00  0.00     0.164 HD
BRANCH  15  18
ATOM     18  C   UNL     1       9.790   4.115   1.098  1.00  0.00     0.171 C 
BRANCH  18  19
ATOM     19  N   UNL     1      10.136   3.034   2.019  1.00  0.00    -0.343 N 
ATOM     20  C   UNL     1       9.666   3.003   3.317  1.00  0.00     0.242 CG0
ATOM     21  O   UNL     1       9.046   3.949   3.799  1.00  0.00    -0.273 OA
ATOM     22  H   UNL     1      10.743   2.286   1.702  1.00  0.00     0.164 HD
ATOM     23  G   UNL     1      10.072   1.745   4.113  1.00  0.00     0.000 G0
ENDBRANCH  18  19
BRANCH  18  24
ATOM     24  C   UNL     1      10.815   5.255   1.160  1.00  0.00     0.038 C 
BRANCH  24  25
ATOM     25  C   UNL     1      10.233   6.623   1.574  1.00  0.00    -0.015 C 
ATOM     26  C   UNL     1      10.643   7.746   0.621  1.00  0.00     0.007 C 
ATOM     27  C   UNL     1      10.684   6.964   2.997  1.00  0.00     0.007 C 
ENDBRANCH  24  25
ENDBRANCH  18  24
ENDBRANCH  15  18
ENDBRANCH  13  14
BRANCH  13  28
ATOM     28  C   UNL     1      10.337   0.053  -1.153  1.00  0.00     0.327 C 
ATOM     29  O   UNL     1      10.408  -0.975  -1.809  1.00  0.00    -0.250 OA
BRANCH  28  30
ATOM     30  O   UNL     1      10.887   0.117   0.077  1.00  0.00    -0.480 OA
ATOM     31  H   UNL     1      11.824   0.347  -0.089  1.00  0.00     0.296 HD
ENDBRANCH  28  30
ENDBRANCH  13  28
ENDBRANCH  11  13
ENDBRANCH   8  11
ENDBRANCH   6   7
BRANCH   6  32
ATOM     32  C   UNL     1       4.471   3.633  -0.376  1.00  0.00     0.037 C 
BRANCH  32  33
ATOM     33  C   UNL     1       5.524   4.622  -0.895  1.00  0.00     0.026 C 
BRANCH  33  34
ATOM     34  C   UNL     1       5.663   5.853   0.001  1.00  0.00     0.146 C 
BRANCH  34  35
ATOM     35  N   UNL     1       6.125   5.428   1.315  1.00  0.00    -0.254 NA
ATOM     36  C   UNL     1       6.567   6.315   2.128  1.00  0.00     0.185 C 
ATOM     37  N   UNL     1       6.990   5.935   3.343  1.00  0.00    -0.370 N 
ATOM     38  N   UNL     1       6.679   7.643   1.949  1.00  0.00    -0.370 N 
ATOM     39  H   UNL     1       6.927   4.948   3.558  1.00  0.00     0.159 HD
ATOM     40  H   UNL     1       7.183   6.578   4.091  1.00  0.00     0.159 HD
ATOM     41  H   UNL     1       7.172   8.217   2.613  1.00  0.00     0.159 HD
ATOM     42  H   UNL     1       6.413   8.067   1.074  1.00  0.00     0.159 HD
ENDBRANCH  34  35
ENDBRANCH  33  34
ENDBRANCH  32  33
ENDBRANCH   6  32
ENDBRANCH   4   6
ENDBRANCH   1   2
BRANCH   1  43
ATOM     43  C   UNL     1       1.867   0.886  -3.498  1.00  0.00     0.102 C 
ATOM     44  C   UNL     1       1.087   1.879  -4.377  1.00  0.00     0.020 C 
BRANCH  43  45
ATOM     45  C   UNL     1       1.642  -0.583  -3.873  1.00  0.00     0.225 C 
ATOM     46  O   UNL     1       2.309  -1.168  -4.721  1.00  0.00    -0.275 OA
ATOM     47  N   UNL     1       0.572  -1.193  -3.260  1.00  0.00    -0.342 N 
ATOM     48  H   UNL     1       0.134  -0.753  -2.463  1.00  0.00     0.164 HD
BRANCH  47  49
ATOM     49  C   UNL     1       0.258  -2.606  -3.495  1.00  0.00     0.192 C 
BRANCH  49  50
ATOM     50  C   UNL     1      -1.237  -2.844  -3.273  1.00  0.00     0.047 C 
BRANCH  50  51
ATOM     51  C   UNL     1      -2.052  -2.669  -4.562  1.00  0.00     0.103 C 
BRANCH  51  52
ATOM     52  C   UNL     1      -2.259  -3.994  -5.295  1.00  0.00     0.226 C 
ATOM     53  O   UNL     1      -1.439  -4.357  -6.140  1.00  0.00    -0.275 OA
BRANCH  52  54
ATOM     54  N   UNL     1      -3.362  -4.768  -4.890  1.00  0.00    -0.311 N 
ATOM     55  C   UNL     1      -4.232  -4.328  -3.792  1.00  0.00     0.153 C 
BRANCH  54  56
ATOM     56  C   UNL     1      -3.675  -5.983  -5.522  1.00  0.00     0.102 C 
ATOM     57  C   UNL     1      -3.308  -7.197  -5.079  1.00  0.00     0.043 C 
BRANCH  56  58
ATOM     58  C   UNL     1      -4.520  -6.010  -6.774  1.00  0.00     0.268 C 
ATOM     59  O   UNL     1      -5.086  -5.022  -7.221  1.00  0.00    -0.268 OA
ATOM     60  N   UNL     1      -4.533  -7.238  -7.390  1.00  0.00    -0.339 N 
ATOM     61  H   UNL     1      -4.047  -8.010  -6.950  1.00  0.00     0.164 HD
BRANCH  60  62
ATOM     62  C   UNL     1      -5.239  -7.470  -8.650  1.00  0.00     0.168 CG0
ATOM     63  C   UNL     1      -4.862  -8.820  -9.248  1.00  0.00     0.041 C 
ATOM     64  G   UNL     1      -4.922  -6.328  -9.638  1.00  0.00     0.000 G0
ENDBRANCH  60  62
ENDBRANCH  56  58
ENDBRANCH  54  56
ENDBRANCH  52  54
ENDBRANCH  51  52
ENDBRANCH  50  51
ENDBRANCH  49  50
BRANCH  49  65
ATOM     65  C   UNL     1       1.064  -3.527  -2.565  1.00  0.00     0.326 C 
ATOM     66  O   UNL     1       1.886  -4.357  -2.926  1.00  0.00    -0.250 OA
BRANCH  65  67
ATOM     67  O   UNL     1       0.761  -3.409  -1.254  1.00  0.00    -0.480 OA
ATOM     68  H   UNL     1       0.372  -2.511  -1.186  1.00  0.00     0.296 HD
ENDBRANCH  65  67
ENDBRANCH  49  65
ENDBRANCH  47  49
ENDBRANCH  43  45
ENDBRANCH   1  43
BRANCH   1  69
ATOM     69  C   UNL     1       0.437   1.884  -1.506  1.00  0.00    -0.001 C 
ATOM     70  C   UNL     1      -0.716   1.380  -1.033  1.00  0.00     0.001 C 
BRANCH  70  71
ATOM     71  C   UNL     1      -1.880   2.136  -0.565  1.00  0.00    -0.055 C 
ATOM     72  C   UNL     1      -1.739   3.468  -0.404  1.00  0.00    -0.018 C 
ATOM     73  C   UNL     1      -3.153   1.374  -0.305  1.00  0.00     0.044 C 
BRANCH  72  74
ATOM     74  C   UNL     1      -2.762   4.495   0.060  1.00  0.00     0.038 C 
ATOM     75  C   UNL     1      -2.874   5.553  -1.045  1.00  0.00     0.015 C 
BRANCH  74  76
ATOM     76  C   UNL     1      -2.324   5.046   1.449  1.00  0.00     0.128 C 
BRANCH  76  77
ATOM     77  O   UNL     1      -3.419   5.743   2.068  1.00  0.00    -0.381 OA
ATOM     78  C   UNL     1      -4.571   4.935   2.267  1.00  0.00     0.195 C 
ENDBRANCH  76  77
BRANCH  76  79
ATOM     79  C   UNL     1      -1.690   3.980   2.378  1.00  0.00     0.068 C 
BRANCH  79  80
ATOM     80  C   UNL     1      -0.184   3.916   2.455  1.00  0.00    -0.045 A 
ATOM     81  C   UNL     1       0.493   2.695   2.333  1.00  0.00     0.004 A 
ATOM     82  C   UNL     1       0.563   5.082   2.680  1.00  0.00     0.004 A 
ATOM     83  C   UNL     1       1.886   2.642   2.420  1.00  0.00     0.000 A 
ATOM     84  C   UNL     1       1.956   5.027   2.767  1.00  0.00     0.000 A 
ATOM     85  C   UNL     1       2.617   3.808   2.636  1.00  0.00     0.000 A 
ENDBRANCH  79  80
ENDBRANCH  76  79
ENDBRANCH  74  76
ENDBRANCH  72  74
ENDBRANCH  70  71
ENDBRANCH   1  69
TORSDOF 17
ENDMDL
MODEL 3
REMARK VINA RESULT:    -6.423      3.955     10.723
REMARK INTER + INTRA:         -26.470
REMARK INTER:                 -18.271
REMARK INTRA:                  -8.200
REMARK UNBOUND:                -7.281
REMARK SMILES C=C1C(=O)N[C@H](C)C(=O)N[C@@H](CC(C)C)C(=O)N[C@@H](C(=O)O)[C@H](C)C(=O)N[C@@H](CCCN=C(N)N)C(=O)N[C@@H](/C=C/C(C)=C/[C@H](C)[C@H](Cc2ccccc2)OC)[C@H](C)C(=O)N[C@@H](C(=O)O)CCC(=O)N1C
REMARK SMILES IDX 39 1 38 2 37 3 36 4 28 6 27 7 25 8 26 9 23 11 24 12 19 13
REMARK SMILES IDX 18 14 16 15 17 16 11 18 10 19 8 20 9 21 12 24 13 25 14 26
REMARK SMILES IDX 15 27 20 28 21 29 22 30 29 32 30 33 31 34 32 35 33 36 34 37
REMARK SMILES IDX 35 38 57 43 58 44 59 45 60 46 61 47 62 49 66 50 67 51 68 52
REMARK SMILES IDX 69 53 70 54 71 55 2 56 1 57 3 58 4 59 5 60 6 62 7 63 63 65
REMARK SMILES IDX 64 66 65 67 40 69 41 70 42 71 44 72 43 73 45 74 46 75 47 76
REMARK SMILES IDX 55 77 56 78 48 79 49 80 50 81 54 82 51 83 53 84 52 85
REMARK H PARENT 38 5 27 10 18 17 10 22 22 31 34 39 34 40 35 41 35 42 61 48
REMARK H PARENT 5 61 65 68
REMARK Flexibility Score:  369.900
ROOT
ATOM      1  C   UNL     1       1.535  -0.341  -1.721  1.00  0.00     0.117 C 
ENDROOT
BRANCH   1   2
ATOM      2  N   UNL     1       2.671   0.387  -2.287  1.00  0.00    -0.347 N 
ATOM      3  O   UNL     1       3.748   0.869  -0.318  1.00  0.00    -0.273 OA
ATOM      4  C   UNL     1       3.737   0.856  -1.545  1.00  0.00     0.243 C 
ATOM      5  H   UNL     1       2.723   0.523  -3.286  1.00  0.00     0.164 HD
BRANCH   4   6
ATOM      6  C   UNL     1       4.849   1.516  -2.399  1.00  0.00     0.171 C 
BRANCH   6   7
ATOM      7  N   UNL     1       6.113   0.776  -2.259  1.00  0.00    -0.344 N 
ATOM      8  C   UNL     1       7.125   1.258  -1.457  1.00  0.00     0.226 C 
ATOM      9  O   UNL     1       7.037   2.317  -0.848  1.00  0.00    -0.275 OA
ATOM     10  H   UNL     1       6.249  -0.070  -2.799  1.00  0.00     0.164 HD
BRANCH   8  11
ATOM     11  C   UNL     1       8.342   0.353  -1.373  1.00  0.00     0.109 C 
ATOM     12  C   UNL     1       8.218  -0.789  -2.381  1.00  0.00     0.021 C 
BRANCH  11  13
ATOM     13  C   UNL     1       9.627   1.195  -1.501  1.00  0.00     0.204 C 
BRANCH  13  14
ATOM     14  N   UNL     1       9.745   2.189  -0.430  1.00  0.00    -0.340 N 
ATOM     15  C   UNL     1      10.178   3.478  -0.650  1.00  0.00     0.243 C 
ATOM     16  O   UNL     1      10.439   3.905  -1.773  1.00  0.00    -0.273 OA
ATOM     17  H   UNL     1       9.691   1.861   0.538  1.00  0.00     0.164 HD
BRANCH  15  18
ATOM     18  C   UNL     1      10.421   4.280   0.652  1.00  0.00     0.171 C 
BRANCH  18  19
ATOM     19  N   UNL     1      11.580   5.136   0.408  1.00  0.00    -0.343 N 
ATOM     20  C   UNL     1      12.649   5.183   1.282  1.00  0.00     0.242 CG0
ATOM     21  O   UNL     1      12.616   4.612   2.369  1.00  0.00    -0.273 OA
ATOM     22  H   UNL     1      11.603   5.717  -0.423  1.00  0.00     0.164 HD
ATOM     23  G   UNL     1      13.813   6.082   0.817  1.00  0.00     0.000 G0
ENDBRANCH  18  19
BRANCH  18  24
ATOM     24  C   UNL     1       9.181   5.105   1.019  1.00  0.00     0.038 C 
BRANCH  24  25
ATOM     25  C   UNL     1       8.736   4.979   2.492  1.00  0.00    -0.015 C 
ATOM     26  C   UNL     1       9.198   3.671   3.133  1.00  0.00     0.007 C 
ATOM     27  C   UNL     1       7.212   5.087   2.580  1.00  0.00     0.007 C 
ENDBRANCH  24  25
ENDBRANCH  18  24
ENDBRANCH  15  18
ENDBRANCH  13  14
BRANCH  13  28
ATOM     28  C   UNL     1      10.906   0.352  -1.481  1.00  0.00     0.327 C 
ATOM     29  O   UNL     1      11.632   0.117  -2.434  1.00  0.00    -0.250 OA
BRANCH  28  30
ATOM     30  O   UNL     1      11.128  -0.242  -0.290  1.00  0.00    -0.480 OA
ATOM     31  H   UNL     1      11.676  -1.024  -0.510  1.00  0.00     0.296 HD
ENDBRANCH  28  30
ENDBRANCH  13  28
ENDBRANCH  11  13
ENDBRANCH   8  11
ENDBRANCH   6   7
BRANCH   6  32
ATOM     32  C   UNL     1       4.400   1.560  -3.864  1.00  0.00     0.037 C 
BRANCH  32  33
ATOM     33  C   UNL     1       5.554   1.263  -4.832  1.00  0.00     0.026 C 
BRANCH  33  34
ATOM     34  C   UNL     1       6.135   2.533  -5.456  1.00  0.00     0.146 C 
BRANCH  34  35
ATOM     35  N   UNL     1       6.361   3.513  -4.403  1.00  0.00    -0.254 NA
ATOM     36  C   UNL     1       7.553   3.678  -3.963  1.00  0.00     0.185 C 
ATOM     37  N   UNL     1       7.774   4.582  -2.996  1.00  0.00    -0.370 N 
ATOM     38  N   UNL     1       8.685   3.056  -4.338  1.00  0.00    -0.370 N 
ATOM     39  H   UNL     1       6.969   5.101  -2.667  1.00  0.00     0.159 HD
ATOM     40  H   UNL     1       8.691   4.892  -2.724  1.00  0.00     0.159 HD
ATOM     41  H   UNL     1       9.540   3.174  -3.819  1.00  0.00     0.159 HD
ATOM     42  H   UNL     1       8.666   2.339  -5.046  1.00  0.00     0.159 HD
ENDBRANCH  34  35
ENDBRANCH  33  34
ENDBRANCH  32  33
ENDBRANCH   6  32
ENDBRANCH   4   6
ENDBRANCH   1   2
BRANCH   1  43
ATOM     43  C   UNL     1       1.096  -1.439  -2.732  1.00  0.00     0.102 C 
ATOM     44  C   UNL     1       1.431  -2.867  -2.268  1.00  0.00     0.020 C 
BRANCH  43  45
ATOM     45  C   UNL     1       1.588  -1.113  -4.145  1.00  0.00     0.225 C 
ATOM     46  O   UNL     1       1.371  -0.040  -4.701  1.00  0.00    -0.275 OA
ATOM     47  N   UNL     1       2.219  -2.143  -4.805  1.00  0.00    -0.342 N 
ATOM     48  H   UNL     1       2.522  -2.957  -4.288  1.00  0.00     0.164 HD
BRANCH  47  49
ATOM     49  C   UNL     1       2.774  -1.966  -6.150  1.00  0.00     0.192 C 
BRANCH  49  50
ATOM     50  C   UNL     1       1.711  -2.314  -7.195  1.00  0.00     0.047 C 
BRANCH  50  51
ATOM     51  C   UNL     1       0.772  -3.431  -6.720  1.00  0.00     0.103 C 
BRANCH  51  52
ATOM     52  C   UNL     1      -0.687  -3.138  -7.062  1.00  0.00     0.226 C 
ATOM     53  O   UNL     1      -1.305  -3.903  -7.806  1.00  0.00    -0.275 OA
BRANCH  52  54
ATOM     54  N   UNL     1      -1.268  -2.024  -6.428  1.00  0.00    -0.311 N 
ATOM     55  C   UNL     1      -1.298  -0.711  -7.085  1.00  0.00     0.153 C 
BRANCH  54  56
ATOM     56  C   UNL     1      -1.845  -2.127  -5.151  1.00  0.00     0.102 C 
ATOM     57  C   UNL     1      -2.164  -1.085  -4.366  1.00  0.00     0.043 C 
BRANCH  56  58
ATOM     58  C   UNL     1      -2.201  -3.474  -4.567  1.00  0.00     0.268 C 
ATOM     59  O   UNL     1      -1.578  -3.992  -3.651  1.00  0.00    -0.268 OA
ATOM     60  N   UNL     1      -3.331  -4.022  -5.125  1.00  0.00    -0.339 N 
ATOM     61  H   UNL     1      -3.784  -3.534  -5.888  1.00  0.00     0.164 HD
BRANCH  60  62
ATOM     62  C   UNL     1      -3.889  -5.293  -4.664  1.00  0.00     0.168 CG0
ATOM     63  C   UNL     1      -3.416  -6.447  -5.539  1.00  0.00     0.041 C 
ATOM     64  G   UNL     1      -5.429  -5.209  -4.656  1.00  0.00     0.000 G0
ENDBRANCH  60  62
ENDBRANCH  56  58
ENDBRANCH  54  56
ENDBRANCH  52  54
ENDBRANCH  51  52
ENDBRANCH  50  51
ENDBRANCH  49  50
BRANCH  49  65
ATOM     65  C   UNL     1       4.014  -2.846  -6.372  1.00  0.00     0.326 C 
ATOM     66  O   UNL     1       4.850  -2.686  -7.250  1.00  0.00    -0.250 OA
BRANCH  65  67
ATOM     67  O   UNL     1       4.112  -3.903  -5.536  1.00  0.00    -0.480 OA
ATOM     68  H   UNL     1       5.009  -4.259  -5.718  1.00  0.00     0.296 HD
ENDBRANCH  65  67
ENDBRANCH  49  65
ENDBRANCH  47  49
ENDBRANCH  43  45
ENDBRANCH   1  43
BRANCH   1  69
ATOM     69  C   UNL     1       0.526   0.711  -1.297  1.00  0.00    -0.001 C 
ATOM     70  C   UNL     1      -0.779   0.530  -1.028  1.00  0.00     0.001 C 
BRANCH  70  71
ATOM     71  C   UNL     1      -1.738   1.550  -0.598  1.00  0.00    -0.055 C 
ATOM     72  C   UNL     1      -1.247   2.695  -0.081  1.00  0.00    -0.018 C 
ATOM     73  C   UNL     1      -3.204   1.252  -0.772  1.00  0.00     0.044 C 
BRANCH  72  74
ATOM     74  C   UNL     1      -1.993   3.916   0.439  1.00  0.00     0.038 C 
ATOM     75  C   UNL     1      -1.673   5.079  -0.507  1.00  0.00     0.015 C 
BRANCH  74  76
ATOM     76  C   UNL     1      -1.593   4.153   1.925  1.00  0.00     0.128 C 
BRANCH  76  77
ATOM     77  O   UNL     1      -2.738   3.977   2.776  1.00  0.00    -0.381 OA
ATOM     78  C   UNL     1      -3.932   3.666   2.070  1.00  0.00     0.195 C 
ENDBRANCH  76  77
BRANCH  76  79
ATOM     79  C   UNL     1      -0.369   3.323   2.387  1.00  0.00     0.068 C 
BRANCH  79  80
ATOM     80  C   UNL     1       0.995   3.964   2.301  1.00  0.00    -0.045 A 
ATOM     81  C   UNL     1       1.224   5.245   2.822  1.00  0.00     0.004 A 
ATOM     82  C   UNL     1       2.053   3.295   1.668  1.00  0.00     0.004 A 
ATOM     83  C   UNL     1       2.485   5.837   2.725  1.00  0.00     0.000 A 
ATOM     84  C   UNL     1       3.313   3.889   1.571  1.00  0.00     0.000 A 
ATOM     85  C   UNL     1       3.529   5.158   2.101  1.00  0.00     0.000 A 
ENDBRANCH  79  80
ENDBRANCH  76  79
ENDBRANCH  74  76
ENDBRANCH  72  74
ENDBRANCH  70  71
ENDBRANCH   1  69
TORSDOF 17
ENDMDL
MODEL 4
REMARK VINA RESULT:    -6.403      1.860      3.167
REMARK INTER + INTRA:         -26.410
REMARK INTER:                 -20.753
REMARK INTRA:                  -5.656
REMARK UNBOUND:                -7.281
REMARK SMILES C=C1C(=O)N[C@H](C)C(=O)N[C@@H](CC(C)C)C(=O)N[C@@H](C(=O)O)[C@H](C)C(=O)N[C@@H](CCCN=C(N)N)C(=O)N[C@@H](/C=C/C(C)=C/[C@H](C)[C@H](Cc2ccccc2)OC)[C@H](C)C(=O)N[C@@H](C(=O)O)CCC(=O)N1C
REMARK SMILES IDX 39 1 38 2 37 3 36 4 28 6 27 7 25 8 26 9 23 11 24 12 19 13
REMARK SMILES IDX 18 14 16 15 17 16 11 18 10 19 8 20 9 21 12 24 13 25 14 26
REMARK SMILES IDX 15 27 20 28 21 29 22 30 29 32 30 33 31 34 32 35 33 36 34 37
REMARK SMILES IDX 35 38 57 43 58 44 59 45 60 46 61 47 62 49 66 50 67 51 68 52
REMARK SMILES IDX 69 53 70 54 71 55 2 56 1 57 3 58 4 59 5 60 6 62 7 63 63 65
REMARK SMILES IDX 64 66 65 67 40 69 41 70 42 71 44 72 43 73 45 74 46 75 47 76
REMARK SMILES IDX 55 77 56 78 48 79 49 80 50 81 54 82 51 83 53 84 52 85
REMARK H PARENT 38 5 27 10 18 17 10 22 22 31 34 39 34 40 35 41 35 42 61 48
REMARK H PARENT 5 61 65 68
REMARK Flexibility Score:  369.900
ROOT
ATOM      1  C   UNL     1       5.964   1.630  -1.597  1.00  0.00     0.117 C 
ENDROOT
BRANCH   1   2
ATOM      2  N   UNL     1       5.181   1.147  -2.735  1.00  0.00    -0.347 N 
ATOM      3  O   UNL     1       4.341   3.171  -3.419  1.00  0.00    -0.273 OA
ATOM      4  C   UNL     1       4.503   1.971  -3.612  1.00  0.00     0.243 C 
ATOM      5  H   UNL     1       5.161   0.159  -2.937  1.00  0.00     0.164 HD
BRANCH   4   6
ATOM      6  C   UNL     1       3.824   1.212  -4.781  1.00  0.00     0.171 C 
BRANCH   6   7
ATOM      7  N   UNL     1       4.836   0.568  -5.633  1.00  0.00    -0.344 N 
ATOM      8  C   UNL     1       4.642   0.456  -6.993  1.00  0.00     0.226 C 
ATOM      9  O   UNL     1       3.627   0.858  -7.550  1.00  0.00    -0.275 OA
ATOM     10  H   UNL     1       5.657   0.164  -5.200  1.00  0.00     0.164 HD
BRANCH   8  11
ATOM     11  C   UNL     1       5.799  -0.182  -7.740  1.00  0.00     0.109 C 
ATOM     12  C   UNL     1       7.078  -0.091  -6.906  1.00  0.00     0.021 C 
BRANCH  11  13
ATOM     13  C   UNL     1       5.413  -1.608  -8.180  1.00  0.00     0.204 C 
BRANCH  13  14
ATOM     14  N   UNL     1       6.389  -2.181  -9.113  1.00  0.00    -0.340 N 
ATOM     15  C   UNL     1       6.026  -2.948 -10.199  1.00  0.00     0.243 C 
ATOM     16  O   UNL     1       4.851  -3.156 -10.497  1.00  0.00    -0.273 OA
ATOM     17  H   UNL     1       7.375  -2.175  -8.840  1.00  0.00     0.164 HD
BRANCH  15  18
ATOM     18  C   UNL     1       7.226  -3.615 -10.915  1.00  0.00     0.171 C 
BRANCH  18  19
ATOM     19  N   UNL     1       6.716  -4.152 -12.175  1.00  0.00    -0.343 N 
ATOM     20  C   UNL     1       7.321  -5.219 -12.810  1.00  0.00     0.242 CG0
ATOM     21  O   UNL     1       8.390  -5.681 -12.416  1.00  0.00    -0.273 OA
ATOM     22  H   UNL     1       5.900  -3.729 -12.602  1.00  0.00     0.164 HD
ATOM     23  G   UNL     1       6.595  -5.696 -14.085  1.00  0.00     0.000 G0
ENDBRANCH  18  19
BRANCH  18  24
ATOM     24  C   UNL     1       8.349  -2.597 -11.151  1.00  0.00     0.038 C 
BRANCH  24  25
ATOM     25  C   UNL     1       9.715  -2.994 -10.554  1.00  0.00    -0.015 C 
ATOM     26  C   UNL     1       9.746  -2.871  -9.030  1.00  0.00     0.007 C 
ATOM     27  C   UNL     1      10.816  -2.123 -11.164  1.00  0.00     0.007 C 
ENDBRANCH  24  25
ENDBRANCH  18  24
ENDBRANCH  15  18
ENDBRANCH  13  14
BRANCH  13  28
ATOM     28  C   UNL     1       5.277  -2.586  -7.009  1.00  0.00     0.327 C 
ATOM     29  O   UNL     1       4.401  -2.575  -6.157  1.00  0.00    -0.250 OA
BRANCH  28  30
ATOM     30  O   UNL     1       6.313  -3.442  -6.911  1.00  0.00    -0.480 OA
ATOM     31  H   UNL     1       7.077  -2.937  -7.261  1.00  0.00     0.296 HD
ENDBRANCH  28  30
ENDBRANCH  13  28
ENDBRANCH  11  13
ENDBRANCH   8  11
ENDBRANCH   6   7
BRANCH   6  32
ATOM     32  C   UNL     1       2.850   0.176  -4.210  1.00  0.00     0.037 C 
BRANCH  32  33
ATOM     33  C   UNL     1       1.806   0.812  -3.281  1.00  0.00     0.026 C 
BRANCH  33  34
ATOM     34  C   UNL     1       1.662   0.057  -1.959  1.00  0.00     0.146 C 
BRANCH  34  35
ATOM     35  N   UNL     1       0.264  -0.306  -1.775  1.00  0.00    -0.254 NA
ATOM     36  C   UNL     1      -0.032  -1.538  -1.587  1.00  0.00     0.185 C 
ATOM     37  N   UNL     1      -1.317  -1.883  -1.412  1.00  0.00    -0.370 N 
ATOM     38  N   UNL     1       0.786  -2.604  -1.533  1.00  0.00    -0.370 N 
ATOM     39  H   UNL     1      -1.995  -1.132  -1.429  1.00  0.00     0.159 HD
ATOM     40  H   UNL     1      -1.610  -2.789  -1.089  1.00  0.00     0.159 HD
ATOM     41  H   UNL     1       0.419  -3.542  -1.519  1.00  0.00     0.159 HD
ATOM     42  H   UNL     1       1.780  -2.495  -1.665  1.00  0.00     0.159 HD
ENDBRANCH  34  35
ENDBRANCH  33  34
ENDBRANCH  32  33
ENDBRANCH   6  32
ENDBRANCH   4   6
ENDBRANCH   1   2
BRANCH   1  43
ATOM     43  C   UNL     1       6.979   0.523  -1.189  1.00  0.00     0.102 C 
ATOM     44  C   UNL     1       7.784   0.868   0.076  1.00  0.00     0.020 C 
BRANCH  43  45
ATOM     45  C   UNL     1       7.844   0.104  -2.381  1.00  0.00     0.225 C 
ATOM     46  O   UNL     1       7.781  -1.009  -2.897  1.00  0.00    -0.275 OA
ATOM     47  N   UNL     1       8.778   1.028  -2.790  1.00  0.00    -0.342 N 
ATOM     48  H   UNL     1       8.716   1.981  -2.461  1.00  0.00     0.164 HD
BRANCH  47  49
ATOM     49  C   UNL     1       9.651   0.777  -3.941  1.00  0.00     0.192 C 
BRANCH  49  50
ATOM     50  C   UNL     1      11.082   0.530  -3.457  1.00  0.00     0.047 C 
BRANCH  50  51
ATOM     51  C   UNL     1      11.710   1.783  -2.831  1.00  0.00     0.103 C 
BRANCH  51  52
ATOM     52  C   UNL     1      11.298   1.963  -1.372  1.00  0.00     0.226 C 
ATOM     53  O   UNL     1      11.106   0.972  -0.665  1.00  0.00    -0.275 OA
BRANCH  52  54
ATOM     54  N   UNL     1      11.237   3.287  -0.897  1.00  0.00    -0.311 N 
ATOM     55  C   UNL     1      12.404   4.175  -0.980  1.00  0.00     0.153 C 
BRANCH  54  56
ATOM     56  C   UNL     1      10.061   3.808  -0.333  1.00  0.00     0.102 C 
ATOM     57  C   UNL     1       8.980   4.196  -1.030  1.00  0.00     0.043 C 
BRANCH  56  58
ATOM     58  C   UNL     1       9.909   3.932   1.165  1.00  0.00     0.268 C 
ATOM     59  O   UNL     1      10.437   3.164   1.958  1.00  0.00    -0.268 OA
ATOM     60  N   UNL     1       9.174   5.030   1.545  1.00  0.00    -0.339 N 
ATOM     61  H   UNL     1       8.760   5.612   0.826  1.00  0.00     0.164 HD
BRANCH  60  62
ATOM     62  C   UNL     1       8.956   5.374   2.949  1.00  0.00     0.168 CG0
ATOM     63  C   UNL     1       7.845   6.407   3.093  1.00  0.00     0.041 C 
ATOM     64  G   UNL     1      10.271   5.897   3.563  1.00  0.00     0.000 G0
ENDBRANCH  60  62
ENDBRANCH  56  58
ENDBRANCH  54  56
ENDBRANCH  52  54
ENDBRANCH  51  52
ENDBRANCH  50  51
ENDBRANCH  49  50
BRANCH  49  65
ATOM     65  C   UNL     1       9.644   1.958  -4.925  1.00  0.00     0.326 C 
ATOM     66  O   UNL     1      10.283   2.020  -5.965  1.00  0.00    -0.250 OA
BRANCH  65  67
ATOM     67  O   UNL     1       8.895   3.012  -4.535  1.00  0.00    -0.480 OA
ATOM     68  H   UNL     1       9.541   3.750  -4.487  1.00  0.00     0.296 HD
ENDBRANCH  65  67
ENDBRANCH  49  65
ENDBRANCH  47  49
ENDBRANCH  43  45
ENDBRANCH   1  43
BRANCH   1  69
ATOM     69  C   UNL     1       4.961   2.120  -0.569  1.00  0.00    -0.001 C 
ATOM     70  C   UNL     1       4.917   3.330   0.017  1.00  0.00     0.001 C 
BRANCH  70  71
ATOM     71  C   UNL     1       3.930   3.799   0.993  1.00  0.00    -0.055 C 
ATOM     72  C   UNL     1       2.781   3.100   1.109  1.00  0.00    -0.018 C 
ATOM     73  C   UNL     1       4.271   5.022   1.803  1.00  0.00     0.044 C 
BRANCH  72  74
ATOM     74  C   UNL     1       1.593   3.347   2.027  1.00  0.00     0.038 C 
ATOM     75  C   UNL     1       1.375   2.065   2.840  1.00  0.00     0.015 C 
BRANCH  74  76
ATOM     76  C   UNL     1       0.374   3.787   1.162  1.00  0.00     0.128 C 
BRANCH  76  77
ATOM     77  O   UNL     1      -0.121   2.669   0.407  1.00  0.00    -0.381 OA
ATOM     78  C   UNL     1      -1.514   2.440   0.571  1.00  0.00     0.195 C 
ENDBRANCH  76  77
BRANCH  76  79
ATOM     79  C   UNL     1      -0.738   4.509   1.964  1.00  0.00     0.068 C 
BRANCH  79  80
ATOM     80  C   UNL     1      -0.336   5.661   2.853  1.00  0.00    -0.045 A 
ATOM     81  C   UNL     1       0.964   6.183   2.813  1.00  0.00     0.004 A 
ATOM     82  C   UNL     1      -1.256   6.211   3.757  1.00  0.00     0.004 A 
ATOM     83  C   UNL     1       1.332   7.239   3.649  1.00  0.00     0.000 A 
ATOM     84  C   UNL     1      -0.887   7.267   4.593  1.00  0.00     0.000 A 
ATOM     85  C   UNL     1       0.406   7.782   4.537  1.00  0.00     0.000 A 
ENDBRANCH  79  80
ENDBRANCH  76  79
ENDBRANCH  74  76
ENDBRANCH  72  74
ENDBRANCH  70  71
ENDBRANCH   1  69
TORSDOF 17
ENDMDL
MODEL 5
REMARK VINA RESULT:    -6.402      5.099     11.675
REMARK INTER + INTRA:         -26.407
REMARK INTER:                 -19.701
REMARK INTRA:                  -6.706
REMARK UNBOUND:                -7.281
REMARK SMILES C=C1C(=O)N[C@H](C)C(=O)N[C@@H](CC(C)C)C(=O)N[C@@H](C(=O)O)[C@H](C)C(=O)N[C@@H](CCCN=C(N)N)C(=O)N[C@@H](/C=C/C(C)=C/[C@H](C)[C@H](Cc2ccccc2)OC)[C@H](C)C(=O)N[C@@H](C(=O)O)CCC(=O)N1C
REMARK SMILES IDX 39 1 38 2 37 3 36 4 28 6 27 7 25 8 26 9 23 11 24 12 19 13
REMARK SMILES IDX 18 14 16 15 17 16 11 18 10 19 8 20 9 21 12 24 13 25 14 26
REMARK SMILES IDX 15 27 20 28 21 29 22 30 29 32 30 33 31 34 32 35 33 36 34 37
REMARK SMILES IDX 35 38 57 43 58 44 59 45 60 46 61 47 62 49 66 50 67 51 68 52
REMARK SMILES IDX 69 53 70 54 71 55 2 56 1 57 3 58 4 59 5 60 6 62 7 63 63 65
REMARK SMILES IDX 64 66 65 67 40 69 41 70 42 71 44 72 43 73 45 74 46 75 47 76
REMARK SMILES IDX 55 77 56 78 48 79 49 80 50 81 54 82 51 83 53 84 52 85
REMARK H PARENT 38 5 27 10 18 17 10 22 22 31 34 39 34 40 35 41 35 42 61 48
REMARK H PARENT 5 61 65 68
REMARK Flexibility Score:  369.900
ROOT
ATOM      1  C   UNL     1       1.315   1.347  -1.068  1.00  0.00     0.117 C 
ENDROOT
BRANCH   1   2
ATOM      2  N   UNL     1       2.607   1.945  -0.728  1.00  0.00    -0.347 N 
ATOM      3  O   UNL     1       3.845   0.013  -0.683  1.00  0.00    -0.273 OA
ATOM      4  C   UNL     1       3.791   1.238  -0.653  1.00  0.00     0.243 C 
ATOM      5  H   UNL     1       2.668   2.942  -0.584  1.00  0.00     0.164 HD
BRANCH   4   6
ATOM      6  C   UNL     1       5.029   2.123  -0.360  1.00  0.00     0.171 C 
BRANCH   6   7
ATOM      7  N   UNL     1       6.110   1.827  -1.313  1.00  0.00    -0.344 N 
ATOM      8  C   UNL     1       7.095   0.915  -0.998  1.00  0.00     0.226 C 
ATOM      9  O   UNL     1       7.134   0.332   0.079  1.00  0.00    -0.275 OA
ATOM     10  H   UNL     1       6.149   2.339  -2.185  1.00  0.00     0.164 HD
BRANCH   8  11
ATOM     11  C   UNL     1       8.107   0.680  -2.105  1.00  0.00     0.109 C 
ATOM     12  C   UNL     1       7.669   1.401  -3.380  1.00  0.00     0.021 C 
BRANCH  11  13
ATOM     13  C   UNL     1       9.519   1.043  -1.607  1.00  0.00     0.204 C 
BRANCH  13  14
ATOM     14  N   UNL     1       9.481   1.896  -0.415  1.00  0.00    -0.340 N 
ATOM     15  C   UNL     1      10.069   3.142  -0.367  1.00  0.00     0.243 C 
ATOM     16  O   UNL     1      10.616   3.652  -1.343  1.00  0.00    -0.273 OA
ATOM     17  H   UNL     1       9.179   1.475   0.468  1.00  0.00     0.164 HD
BRANCH  15  18
ATOM     18  C   UNL     1      10.082   3.765   1.051  1.00  0.00     0.171 C 
BRANCH  18  19
ATOM     19  N   UNL     1      11.032   4.876   1.011  1.00  0.00    -0.343 N 
ATOM     20  C   UNL     1      12.040   5.006   1.946  1.00  0.00     0.242 CG0
ATOM     21  O   UNL     1      12.105   4.271   2.929  1.00  0.00    -0.273 OA
ATOM     22  H   UNL     1      10.948   5.576   0.282  1.00  0.00     0.164 HD
ATOM     23  G   UNL     1      12.991   6.195   1.695  1.00  0.00     0.000 G0
ENDBRANCH  18  19
BRANCH  18  24
ATOM     24  C   UNL     1       8.678   4.240   1.446  1.00  0.00     0.038 C 
BRANCH  24  25
ATOM     25  C   UNL     1       8.450   5.761   1.309  1.00  0.00    -0.015 C 
ATOM     26  C   UNL     1       7.582   6.326   2.434  1.00  0.00     0.007 C 
ATOM     27  C   UNL     1       7.802   6.064  -0.044  1.00  0.00     0.007 C 
ENDBRANCH  24  25
ENDBRANCH  18  24
ENDBRANCH  15  18
ENDBRANCH  13  14
BRANCH  13  28
ATOM     28  C   UNL     1      10.372  -0.182  -1.261  1.00  0.00     0.327 C 
ATOM     29  O   UNL     1      11.260  -0.231  -0.424  1.00  0.00    -0.250 OA
BRANCH  28  30
ATOM     30  O   UNL     1      10.136  -1.235  -2.070  1.00  0.00    -0.480 OA
ATOM     31  H   UNL     1       9.548  -1.816  -1.544  1.00  0.00     0.296 HD
ENDBRANCH  28  30
ENDBRANCH  13  28
ENDBRANCH  11  13
ENDBRANCH   8  11
ENDBRANCH   6   7
BRANCH   6  32
ATOM     32  C   UNL     1       4.621   3.599  -0.436  1.00  0.00     0.037 C 
BRANCH  32  33
ATOM     33  C   UNL     1       4.765   4.310   0.917  1.00  0.00     0.026 C 
BRANCH  33  34
ATOM     34  C   UNL     1       3.415   4.580   1.582  1.00  0.00     0.146 C 
BRANCH  34  35
ATOM     35  N   UNL     1       3.517   4.260   2.999  1.00  0.00    -0.254 NA
ATOM     36  C   UNL     1       3.671   5.218   3.836  1.00  0.00     0.185 C 
ATOM     37  N   UNL     1       3.761   4.935   5.145  1.00  0.00    -0.370 N 
ATOM     38  N   UNL     1       3.760   6.539   3.600  1.00  0.00    -0.370 N 
ATOM     39  H   UNL     1       3.691   3.959   5.404  1.00  0.00     0.159 HD
ATOM     40  H   UNL     1       3.707   5.630   5.869  1.00  0.00     0.159 HD
ATOM     41  H   UNL     1       4.021   7.181   4.331  1.00  0.00     0.159 HD
ATOM     42  H   UNL     1       3.724   6.895   2.658  1.00  0.00     0.159 HD
ENDBRANCH  34  35
ENDBRANCH  33  34
ENDBRANCH  32  33
ENDBRANCH   6  32
ENDBRANCH   4   6
ENDBRANCH   1   2
BRANCH   1  43
ATOM     43  C   UNL     1       1.162   1.347  -2.617  1.00  0.00     0.102 C 
ATOM     44  C   UNL     1      -0.207   1.857  -3.096  1.00  0.00     0.020 C 
BRANCH  43  45
ATOM     45  C   UNL     1       1.562  -0.008  -3.209  1.00  0.00     0.225 C 
ATOM     46  O   UNL     1       2.480  -0.144  -4.013  1.00  0.00    -0.275 OA
ATOM     47  N   UNL     1       0.762  -1.069  -2.853  1.00  0.00    -0.342 N 
ATOM     48  H   UNL     1       0.116  -0.973  -2.083  1.00  0.00     0.164 HD
BRANCH  47  49
ATOM     49  C   UNL     1       1.046  -2.431  -3.316  1.00  0.00     0.192 C 
BRANCH  49  50
ATOM     50  C   UNL     1       0.005  -2.848  -4.358  1.00  0.00     0.047 C 
BRANCH  50  51
ATOM     51  C   UNL     1      -1.395  -2.313  -4.028  1.00  0.00     0.103 C 
BRANCH  51  52
ATOM     52  C   UNL     1      -2.376  -3.436  -3.700  1.00  0.00     0.226 C 
ATOM     53  O   UNL     1      -1.981  -4.603  -3.674  1.00  0.00    -0.275 OA
BRANCH  52  54
ATOM     54  N   UNL     1      -3.686  -3.046  -3.365  1.00  0.00    -0.311 N 
ATOM     55  C   UNL     1      -4.360  -1.959  -4.088  1.00  0.00     0.153 C 
BRANCH  54  56
ATOM     56  C   UNL     1      -4.399  -3.682  -2.335  1.00  0.00     0.102 C 
ATOM     57  C   UNL     1      -4.333  -3.350  -1.036  1.00  0.00     0.043 C 
BRANCH  56  58
ATOM     58  C   UNL     1      -5.365  -4.803  -2.639  1.00  0.00     0.268 C 
ATOM     59  O   UNL     1      -6.487  -4.871  -2.154  1.00  0.00    -0.268 OA
ATOM     60  N   UNL     1      -4.881  -5.698  -3.564  1.00  0.00    -0.339 N 
ATOM     61  H   UNL     1      -3.937  -5.577  -3.910  1.00  0.00     0.164 HD
BRANCH  60  62
ATOM     62  C   UNL     1      -5.677  -6.825  -4.048  1.00  0.00     0.168 CG0
ATOM     63  C   UNL     1      -4.860  -8.111  -4.049  1.00  0.00     0.041 C 
ATOM     64  G   UNL     1      -6.205  -6.513  -5.464  1.00  0.00     0.000 G0
ENDBRANCH  60  62
ENDBRANCH  56  58
ENDBRANCH  54  56
ENDBRANCH  52  54
ENDBRANCH  51  52
ENDBRANCH  50  51
ENDBRANCH  49  50
BRANCH  49  65
ATOM     65  C   UNL     1       1.035  -3.438  -2.154  1.00  0.00     0.326 C 
ATOM     66  O   UNL     1       1.511  -4.563  -2.185  1.00  0.00    -0.250 OA
BRANCH  65  67
ATOM     67  O   UNL     1       0.385  -3.015  -1.048  1.00  0.00    -0.480 OA
ATOM     68  H   UNL     1       0.221  -2.064  -1.225  1.00  0.00     0.296 HD
ENDBRANCH  65  67
ENDBRANCH  49  65
ENDBRANCH  47  49
ENDBRANCH  43  45
ENDBRANCH   1  43
BRANCH   1  69
ATOM     69  C   UNL     1       0.279   2.071  -0.229  1.00  0.00    -0.001 C 
ATOM     70  C   UNL     1       0.462   2.661   0.965  1.00  0.00     0.001 C 
BRANCH  70  71
ATOM     71  C   UNL     1      -0.542   3.376   1.757  1.00  0.00    -0.055 C 
ATOM     72  C   UNL     1      -1.834   3.019   1.601  1.00  0.00    -0.018 C 
ATOM     73  C   UNL     1      -0.061   4.453   2.694  1.00  0.00     0.044 C 
BRANCH  72  74
ATOM     74  C   UNL     1      -3.076   3.575   2.283  1.00  0.00     0.038 C 
ATOM     75  C   UNL     1      -4.021   2.394   2.537  1.00  0.00     0.015 C 
BRANCH  74  76
ATOM     76  C   UNL     1      -3.670   4.708   1.395  1.00  0.00     0.128 C 
BRANCH  76  77
ATOM     77  O   UNL     1      -3.079   5.970   1.748  1.00  0.00    -0.381 OA
ATOM     78  C   UNL     1      -3.258   6.322   3.113  1.00  0.00     0.195 C 
ENDBRANCH  76  77
BRANCH  76  79
ATOM     79  C   UNL     1      -3.600   4.417  -0.125  1.00  0.00     0.068 C 
BRANCH  79  80
ATOM     80  C   UNL     1      -3.159   5.535  -1.039  1.00  0.00    -0.045 A 
ATOM     81  C   UNL     1      -4.004   6.618  -1.315  1.00  0.00     0.004 A 
ATOM     82  C   UNL     1      -1.898   5.491  -1.652  1.00  0.00     0.004 A 
ATOM     83  C   UNL     1      -3.594   7.641  -2.172  1.00  0.00     0.000 A 
ATOM     84  C   UNL     1      -1.489   6.514  -2.510  1.00  0.00     0.000 A 
ATOM     85  C   UNL     1      -2.336   7.589  -2.769  1.00  0.00     0.000 A 
ENDBRANCH  79  80
ENDBRANCH  76  79
ENDBRANCH  74  76
ENDBRANCH  72  74
ENDBRANCH  70  71
ENDBRANCH   1  69
TORSDOF 17
ENDMDL
MODEL 6
REMARK VINA RESULT:    -6.337      3.064      8.632
REMARK INTER + INTRA:         -26.214
REMARK INTER:                 -18.291
REMARK INTRA:                  -7.923
REMARK UNBOUND:                -7.281
REMARK SMILES C=C1C(=O)N[C@H](C)C(=O)N[C@@H](CC(C)C)C(=O)N[C@@H](C(=O)O)[C@H](C)C(=O)N[C@@H](CCCN=C(N)N)C(=O)N[C@@H](/C=C/C(C)=C/[C@H](C)[C@H](Cc2ccccc2)OC)[C@H](C)C(=O)N[C@@H](C(=O)O)CCC(=O)N1C
REMARK SMILES IDX 39 1 38 2 37 3 36 4 28 6 27 7 25 8 26 9 23 11 24 12 19 13
REMARK SMILES IDX 18 14 16 15 17 16 11 18 10 19 8 20 9 21 12 24 13 25 14 26
REMARK SMILES IDX 15 27 20 28 21 29 22 30 29 32 30 33 31 34 32 35 33 36 34 37
REMARK SMILES IDX 35 38 57 43 58 44 59 45 60 46 61 47 62 49 66 50 67 51 68 52
REMARK SMILES IDX 69 53 70 54 71 55 2 56 1 57 3 58 4 59 5 60 6 62 7 63 63 65
REMARK SMILES IDX 64 66 65 67 40 69 41 70 42 71 44 72 43 73 45 74 46 75 47 76
REMARK SMILES IDX 55 77 56 78 48 79 49 80 50 81 54 82 51 83 53 84 52 85
REMARK H PARENT 38 5 27 10 18 17 10 22 22 31 34 39 34 40 35 41 35 42 61 48
REMARK H PARENT 5 61 65 68
REMARK Flexibility Score:  369.900
ROOT
ATOM      1  C   UNL     1       7.447  -0.010  -5.715  1.00  0.00     0.117 C 
ENDROOT
BRANCH   1   2
ATOM      2  N   UNL     1       5.988   0.020  -5.602  1.00  0.00    -0.347 N 
ATOM      3  O   UNL     1       5.672   2.209  -6.216  1.00  0.00    -0.273 OA
ATOM      4  C   UNL     1       5.208   1.105  -5.951  1.00  0.00     0.243 C 
ATOM      5  H   UNL     1       5.499  -0.809  -5.300  1.00  0.00     0.164 HD
BRANCH   4   6
ATOM      6  C   UNL     1       3.686   0.847  -5.818  1.00  0.00     0.171 C 
BRANCH   6   7
ATOM      7  N   UNL     1       3.430  -0.565  -5.493  1.00  0.00    -0.344 N 
ATOM      8  C   UNL     1       2.299  -1.200  -5.959  1.00  0.00     0.226 C 
ATOM      9  O   UNL     1       1.452  -0.629  -6.635  1.00  0.00    -0.275 OA
ATOM     10  H   UNL     1       4.073  -1.052  -4.881  1.00  0.00     0.164 HD
BRANCH   8  11
ATOM     11  C   UNL     1       2.207  -2.669  -5.584  1.00  0.00     0.109 C 
ATOM     12  C   UNL     1       1.240  -2.853  -4.414  1.00  0.00     0.021 C 
BRANCH  11  13
ATOM     13  C   UNL     1       1.878  -3.507  -6.835  1.00  0.00     0.204 C 
BRANCH  13  14
ATOM     14  N   UNL     1       2.622  -3.053  -8.014  1.00  0.00    -0.340 N 
ATOM     15  C   UNL     1       2.032  -2.873  -9.247  1.00  0.00     0.243 C 
ATOM     16  O   UNL     1       0.826  -3.023  -9.431  1.00  0.00    -0.273 OA
ATOM     17  H   UNL     1       3.644  -3.057  -7.969  1.00  0.00     0.164 HD
BRANCH  15  18
ATOM     18  C   UNL     1       3.047  -2.593 -10.383  1.00  0.00     0.171 C 
BRANCH  18  19
ATOM     19  N   UNL     1       2.314  -2.720 -11.641  1.00  0.00    -0.343 N 
ATOM     20  C   UNL     1       2.356  -3.877 -12.396  1.00  0.00     0.242 CG0
ATOM     21  O   UNL     1       3.116  -4.801 -12.115  1.00  0.00    -0.273 OA
ATOM     22  H   UNL     1       1.761  -1.939 -11.975  1.00  0.00     0.164 HD
ATOM     23  G   UNL     1       1.456  -3.853 -13.648  1.00  0.00     0.000 G0
ENDBRANCH  18  19
BRANCH  18  24
ATOM     24  C   UNL     1       3.661  -1.196 -10.229  1.00  0.00     0.038 C 
BRANCH  24  25
ATOM     25  C   UNL     1       5.190  -1.138 -10.433  1.00  0.00    -0.015 C 
ATOM     26  C   UNL     1       5.575  -0.797 -11.873  1.00  0.00     0.007 C 
ATOM     27  C   UNL     1       5.814  -2.479 -10.037  1.00  0.00     0.007 C 
ENDBRANCH  24  25
ENDBRANCH  18  24
ENDBRANCH  15  18
ENDBRANCH  13  14
BRANCH  13  28
ATOM     28  C   UNL     1       2.176  -4.999  -6.658  1.00  0.00     0.327 C 
ATOM     29  O   UNL     1       3.079  -5.482  -5.992  1.00  0.00    -0.250 OA
BRANCH  28  30
ATOM     30  O   UNL     1       1.395  -5.789  -7.423  1.00  0.00    -0.480 OA
ATOM     31  H   UNL     1       0.695  -5.188  -7.754  1.00  0.00     0.296 HD
ENDBRANCH  28  30
ENDBRANCH  13  28
ENDBRANCH  11  13
ENDBRANCH   8  11
ENDBRANCH   6   7
BRANCH   6  32
ATOM     32  C   UNL     1       3.111   1.770  -4.738  1.00  0.00     0.037 C 
BRANCH  32  33
ATOM     33  C   UNL     1       3.213   1.154  -3.336  1.00  0.00     0.026 C 
BRANCH  33  34
ATOM     34  C   UNL     1       3.994   2.039  -2.364  1.00  0.00     0.146 C 
BRANCH  34  35
ATOM     35  N   UNL     1       5.241   2.446  -2.997  1.00  0.00    -0.254 NA
ATOM     36  C   UNL     1       5.557   3.688  -2.990  1.00  0.00     0.185 C 
ATOM     37  N   UNL     1       6.706   4.073  -3.566  1.00  0.00    -0.370 N 
ATOM     38  N   UNL     1       4.884   4.728  -2.467  1.00  0.00    -0.370 N 
ATOM     39  H   UNL     1       7.277   3.344  -3.975  1.00  0.00     0.159 HD
ATOM     40  H   UNL     1       7.106   4.989  -3.452  1.00  0.00     0.159 HD
ATOM     41  H   UNL     1       5.169   5.677  -2.648  1.00  0.00     0.159 HD
ATOM     42  H   UNL     1       3.994   4.588  -2.016  1.00  0.00     0.159 HD
ENDBRANCH  34  35
ENDBRANCH  33  34
ENDBRANCH  32  33
ENDBRANCH   6  32
ENDBRANCH   4   6
ENDBRANCH   1   2
BRANCH   1  43
ATOM     43  C   UNL     1       8.043   1.014  -4.707  1.00  0.00     0.102 C 
ATOM     44  C   UNL     1       9.302   1.726  -5.230  1.00  0.00     0.020 C 
BRANCH  43  45
ATOM     45  C   UNL     1       8.215   0.386  -3.321  1.00  0.00     0.225 C 
ATOM     46  O   UNL     1       7.887  -0.769  -3.062  1.00  0.00    -0.275 OA
ATOM     47  N   UNL     1       8.680   1.232  -2.340  1.00  0.00    -0.342 N 
ATOM     48  H   UNL     1       9.084   2.121  -2.597  1.00  0.00     0.164 HD
BRANCH  47  49
ATOM     49  C   UNL     1       8.927   0.759  -0.974  1.00  0.00     0.192 C 
BRANCH  49  50
ATOM     50  C   UNL     1       8.119   1.603   0.016  1.00  0.00     0.047 C 
BRANCH  50  51
ATOM     51  C   UNL     1       8.037   3.076  -0.406  1.00  0.00     0.103 C 
BRANCH  51  52
ATOM     52  C   UNL     1       7.014   3.853   0.420  1.00  0.00     0.226 C 
ATOM     53  O   UNL     1       5.835   3.496   0.424  1.00  0.00    -0.275 OA
BRANCH  52  54
ATOM     54  N   UNL     1       7.514   4.910   1.204  1.00  0.00    -0.311 N 
ATOM     55  C   UNL     1       8.336   4.647   2.392  1.00  0.00     0.153 C 
BRANCH  54  56
ATOM     56  C   UNL     1       7.252   6.251   0.877  1.00  0.00     0.102 C 
ATOM     57  C   UNL     1       7.190   6.740  -0.372  1.00  0.00     0.043 C 
BRANCH  56  58
ATOM     58  C   UNL     1       6.964   7.269   1.956  1.00  0.00     0.268 C 
ATOM     59  O   UNL     1       5.995   7.200   2.700  1.00  0.00    -0.268 OA
ATOM     60  N   UNL     1       7.934   8.237   2.057  1.00  0.00    -0.339 N 
ATOM     61  H   UNL     1       8.701   8.230   1.395  1.00  0.00     0.164 HD
BRANCH  60  62
ATOM     62  C   UNL     1       7.885   9.285   3.076  1.00  0.00     0.168 CG0
ATOM     63  C   UNL     1       9.009  10.295   2.876  1.00  0.00     0.041 C 
ATOM     64  G   UNL     1       7.968   8.647   4.478  1.00  0.00     0.000 G0
ENDBRANCH  60  62
ENDBRANCH  56  58
ENDBRANCH  54  56
ENDBRANCH  52  54
ENDBRANCH  51  52
ENDBRANCH  50  51
ENDBRANCH  49  50
BRANCH  49  65
ATOM     65  C   UNL     1      10.418   0.835  -0.609  1.00  0.00     0.326 C 
ATOM     66  O   UNL     1      11.182   1.734  -0.928  1.00  0.00    -0.250 OA
BRANCH  65  67
ATOM     67  O   UNL     1      10.886  -0.232   0.074  1.00  0.00    -0.480 OA
ATOM     68  H   UNL     1      11.585   0.149   0.648  1.00  0.00     0.296 HD
ENDBRANCH  65  67
ENDBRANCH  49  65
ENDBRANCH  47  49
ENDBRANCH  43  45
ENDBRANCH   1  43
BRANCH   1  69
ATOM     69  C   UNL     1       7.762   0.146  -7.191  1.00  0.00    -0.001 C 
ATOM     70  C   UNL     1       8.526  -0.657  -7.953  1.00  0.00     0.001 C 
BRANCH  70  71
ATOM     71  C   UNL     1       8.805  -0.508  -9.383  1.00  0.00    -0.055 C 
ATOM     72  C   UNL     1       9.389  -1.544 -10.020  1.00  0.00    -0.018 C 
ATOM     73  C   UNL     1       8.412   0.788 -10.044  1.00  0.00     0.044 C 
BRANCH  72  74
ATOM     74  C   UNL     1       9.789  -1.674 -11.483  1.00  0.00     0.038 C 
ATOM     75  C   UNL     1       8.815  -2.664 -12.132  1.00  0.00     0.015 C 
BRANCH  74  76
ATOM     76  C   UNL     1      11.289  -2.089 -11.557  1.00  0.00     0.128 C 
BRANCH  76  77
ATOM     77  O   UNL     1      11.421  -3.323 -12.282  1.00  0.00    -0.381 OA
ATOM     78  C   UNL     1      12.356  -3.261 -13.350  1.00  0.00     0.195 C 
ENDBRANCH  76  77
BRANCH  76  79
ATOM     79  C   UNL     1      12.224  -0.976 -12.093  1.00  0.00     0.068 C 
BRANCH  79  80
ATOM     80  C   UNL     1      11.927   0.450 -11.694  1.00  0.00    -0.045 A 
ATOM     81  C   UNL     1      11.323   1.340 -12.592  1.00  0.00     0.004 A 
ATOM     82  C   UNL     1      12.280   0.915 -10.418  1.00  0.00     0.004 A 
ATOM     83  C   UNL     1      11.065   2.661 -12.220  1.00  0.00     0.000 A 
ATOM     84  C   UNL     1      12.023   2.237 -10.047  1.00  0.00     0.000 A 
ATOM     85  C   UNL     1      11.414   3.109 -10.947  1.00  0.00     0.000 A 
ENDBRANCH  79  80
ENDBRANCH  76  79
ENDBRANCH  74  76
ENDBRANCH  72  74
ENDBRANCH  70  71
ENDBRANCH   1  69
TORSDOF 17
ENDMDL
MODEL 7
REMARK VINA RESULT:    -6.306      3.084      8.682
REMARK INTER + INTRA:         -26.120
REMARK INTER:                 -18.029
REMARK INTRA:                  -8.091
REMARK UNBOUND:                -7.281
REMARK SMILES C=C1C(=O)N[C@H](C)C(=O)N[C@@H](CC(C)C)C(=O)N[C@@H](C(=O)O)[C@H](C)C(=O)N[C@@H](CCCN=C(N)N)C(=O)N[C@@H](/C=C/C(C)=C/[C@H](C)[C@H](Cc2ccccc2)OC)[C@H](C)C(=O)N[C@@H](C(=O)O)CCC(=O)N1C
REMARK SMILES IDX 39 1 38 2 37 3 36 4 28 6 27 7 25 8 26 9 23 11 24 12 19 13
REMARK SMILES IDX 18 14 16 15 17 16 11 18 10 19 8 20 9 21 12 24 13 25 14 26
REMARK SMILES IDX 15 27 20 28 21 29 22 30 29 32 30 33 31 34 32 35 33 36 34 37
REMARK SMILES IDX 35 38 57 43 58 44 59 45 60 46 61 47 62 49 66 50 67 51 68 52
REMARK SMILES IDX 69 53 70 54 71 55 2 56 1 57 3 58 4 59 5 60 6 62 7 63 63 65
REMARK SMILES IDX 64 66 65 67 40 69 41 70 42 71 44 72 43 73 45 74 46 75 47 76
REMARK SMILES IDX 55 77 56 78 48 79 49 80 50 81 54 82 51 83 53 84 52 85
REMARK H PARENT 38 5 27 10 18 17 10 22 22 31 34 39 34 40 35 41 35 42 61 48
REMARK H PARENT 5 61 65 68
REMARK Flexibility Score:  369.900
ROOT
ATOM      1  C   UNL     1       6.401  -0.434  -6.541  1.00  0.00     0.117 C 
ENDROOT
BRANCH   1   2
ATOM      2  N   UNL     1       5.225  -0.171  -5.711  1.00  0.00    -0.347 N 
ATOM      3  O   UNL     1       4.952   2.044  -6.247  1.00  0.00    -0.273 OA
ATOM      4  C   UNL     1       4.537   1.027  -5.701  1.00  0.00     0.243 C 
ATOM      5  H   UNL     1       4.847  -0.912  -5.140  1.00  0.00     0.164 HD
BRANCH   4   6
ATOM      6  C   UNL     1       3.277   1.015  -4.799  1.00  0.00     0.171 C 
BRANCH   6   7
ATOM      7  N   UNL     1       2.926  -0.364  -4.424  1.00  0.00    -0.344 N 
ATOM      8  C   UNL     1       1.640  -0.831  -4.590  1.00  0.00     0.226 C 
ATOM      9  O   UNL     1       0.734  -0.131  -5.028  1.00  0.00    -0.275 OA
ATOM     10  H   UNL     1       3.631  -0.952  -3.997  1.00  0.00     0.164 HD
BRANCH   8  11
ATOM     11  C   UNL     1       1.450  -2.289  -4.210  1.00  0.00     0.109 C 
ATOM     12  C   UNL     1       0.114  -2.475  -3.489  1.00  0.00     0.021 C 
BRANCH  11  13
ATOM     13  C   UNL     1       1.647  -3.182  -5.451  1.00  0.00     0.204 C 
BRANCH  13  14
ATOM     14  N   UNL     1       1.394  -2.456  -6.699  1.00  0.00    -0.340 N 
ATOM     15  C   UNL     1       0.566  -2.937  -7.690  1.00  0.00     0.243 C 
ATOM     16  O   UNL     1      -0.068  -3.983  -7.571  1.00  0.00    -0.273 OA
ATOM     17  H   UNL     1       2.001  -1.663  -6.925  1.00  0.00     0.164 HD
BRANCH  15  18
ATOM     18  C   UNL     1       0.616  -2.105  -8.995  1.00  0.00     0.171 C 
BRANCH  18  19
ATOM     19  N   UNL     1      -0.753  -2.038  -9.502  1.00  0.00    -0.343 N 
ATOM     20  C   UNL     1      -1.133  -2.684 -10.663  1.00  0.00     0.242 CG0
ATOM     21  O   UNL     1      -0.310  -3.232 -11.393  1.00  0.00    -0.273 OA
ATOM     22  H   UNL     1      -1.446  -1.500  -8.994  1.00  0.00     0.164 HD
ATOM     23  G   UNL     1      -2.634  -2.565 -10.996  1.00  0.00     0.000 G0
ENDBRANCH  18  19
BRANCH  18  24
ATOM     24  C   UNL     1       1.184  -0.706  -8.725  1.00  0.00     0.038 C 
BRANCH  24  25
ATOM     25  C   UNL     1       2.419  -0.336  -9.573  1.00  0.00    -0.015 C 
ATOM     26  C   UNL     1       2.931   1.074  -9.278  1.00  0.00     0.007 C 
ATOM     27  C   UNL     1       2.077  -0.460 -11.060  1.00  0.00     0.007 C 
ENDBRANCH  24  25
ENDBRANCH  18  24
ENDBRANCH  15  18
ENDBRANCH  13  14
BRANCH  13  28
ATOM     28  C   UNL     1       3.055  -3.777  -5.549  1.00  0.00     0.327 C 
ATOM     29  O   UNL     1       4.066  -3.187  -5.897  1.00  0.00    -0.250 OA
BRANCH  28  30
ATOM     30  O   UNL     1       3.085  -5.106  -5.318  1.00  0.00    -0.480 OA
ATOM     31  H   UNL     1       3.717  -5.451  -5.983  1.00  0.00     0.296 HD
ENDBRANCH  28  30
ENDBRANCH  13  28
ENDBRANCH  11  13
ENDBRANCH   8  11
ENDBRANCH   6   7
BRANCH   6  32
ATOM     32  C   UNL     1       3.541   1.869  -3.554  1.00  0.00     0.037 C 
BRANCH  32  33
ATOM     33  C   UNL     1       4.898   1.552  -2.910  1.00  0.00     0.026 C 
BRANCH  33  34
ATOM     34  C   UNL     1       4.789   1.306  -1.405  1.00  0.00     0.146 C 
BRANCH  34  35
ATOM     35  N   UNL     1       5.880   0.434  -0.991  1.00  0.00    -0.254 NA
ATOM     36  C   UNL     1       6.849   0.938  -0.322  1.00  0.00     0.185 C 
ATOM     37  N   UNL     1       7.857   0.143   0.069  1.00  0.00    -0.370 N 
ATOM     38  N   UNL     1       7.029   2.210   0.076  1.00  0.00    -0.370 N 
ATOM     39  H   UNL     1       7.789  -0.835  -0.184  1.00  0.00     0.159 HD
ATOM     40  H   UNL     1       8.556   0.419   0.736  1.00  0.00     0.159 HD
ATOM     41  H   UNL     1       7.902   2.511   0.477  1.00  0.00     0.159 HD
ATOM     42  H   UNL     1       6.356   2.922  -0.162  1.00  0.00     0.159 HD
ENDBRANCH  34  35
ENDBRANCH  33  34
ENDBRANCH  32  33
ENDBRANCH   6  32
ENDBRANCH   4   6
ENDBRANCH   1   2
BRANCH   1  43
ATOM     43  C   UNL     1       7.478   0.645  -6.230  1.00  0.00     0.102 C 
ATOM     44  C   UNL     1       8.562   0.758  -7.315  1.00  0.00     0.020 C 
BRANCH  43  45
ATOM     45  C   UNL     1       8.032   0.476  -4.813  1.00  0.00     0.225 C 
ATOM     46  O   UNL     1       7.510  -0.247  -3.969  1.00  0.00    -0.275 OA
ATOM     47  N   UNL     1       9.116   1.266  -4.503  1.00  0.00    -0.342 N 
ATOM     48  H   UNL     1       9.622   1.734  -5.241  1.00  0.00     0.164 HD
BRANCH  47  49
ATOM     49  C   UNL     1       9.774   1.184  -3.195  1.00  0.00     0.192 C 
BRANCH  49  50
ATOM     50  C   UNL     1      10.846   2.272  -3.090  1.00  0.00     0.047 C 
BRANCH  50  51
ATOM     51  C   UNL     1      11.505   2.308  -1.704  1.00  0.00     0.103 C 
BRANCH  51  52
ATOM     52  C   UNL     1      10.571   2.881  -0.640  1.00  0.00     0.226 C 
ATOM     53  O   UNL     1      10.136   2.147   0.249  1.00  0.00    -0.275 OA
BRANCH  52  54
ATOM     54  N   UNL     1      10.322   4.265  -0.704  1.00  0.00    -0.311 N 
ATOM     55  C   UNL     1       9.151   4.790  -1.418  1.00  0.00     0.153 C 
BRANCH  54  56
ATOM     56  C   UNL     1      11.177   5.192  -0.085  1.00  0.00     0.102 C 
ATOM     57  C   UNL     1      11.996   6.035  -0.734  1.00  0.00     0.043 C 
BRANCH  56  58
ATOM     58  C   UNL     1      11.200   5.341   1.419  1.00  0.00     0.268 C 
ATOM     59  O   UNL     1      12.172   5.756   2.035  1.00  0.00    -0.268 OA
ATOM     60  N   UNL     1      10.000   5.027   2.011  1.00  0.00    -0.339 N 
ATOM     61  H   UNL     1       9.246   4.680   1.431  1.00  0.00     0.164 HD
BRANCH  60  62
ATOM     62  C   UNL     1       9.784   5.161   3.451  1.00  0.00     0.168 CG0
ATOM     63  C   UNL     1       8.636   6.118   3.745  1.00  0.00     0.041 C 
ATOM     64  G   UNL     1      11.085   5.645   4.126  1.00  0.00     0.000 G0
ENDBRANCH  60  62
ENDBRANCH  56  58
ENDBRANCH  54  56
ENDBRANCH  52  54
ENDBRANCH  51  52
ENDBRANCH  50  51
ENDBRANCH  49  50
BRANCH  49  65
ATOM     65  C   UNL     1      10.422  -0.191  -2.971  1.00  0.00     0.326 C 
ATOM     66  O   UNL     1      11.420  -0.608  -3.540  1.00  0.00    -0.250 OA
BRANCH  65  67
ATOM     67  O   UNL     1       9.763  -0.990  -2.103  1.00  0.00    -0.480 OA
ATOM     68  H   UNL     1      10.331  -1.788  -2.045  1.00  0.00     0.296 HD
ENDBRANCH  65  67
ENDBRANCH  49  65
ENDBRANCH  47  49
ENDBRANCH  43  45
ENDBRANCH   1  43
BRANCH   1  69
ATOM     69  C   UNL     1       5.892  -0.574  -7.964  1.00  0.00    -0.001 C 
ATOM     70  C   UNL     1       6.235  -1.511  -8.866  1.00  0.00     0.001 C 
BRANCH  70  71
ATOM     71  C   UNL     1       5.720  -1.648 -10.230  1.00  0.00    -0.055 C 
ATOM     72  C   UNL     1       5.166  -2.829 -10.576  1.00  0.00    -0.018 C 
ATOM     73  C   UNL     1       5.839  -0.460 -11.149  1.00  0.00     0.044 C 
BRANCH  72  74
ATOM     74  C   UNL     1       4.554  -3.254 -11.903  1.00  0.00     0.038 C 
ATOM     75  C   UNL     1       3.233  -3.966 -11.586  1.00  0.00     0.015 C 
BRANCH  74  76
ATOM     76  C   UNL     1       5.592  -4.118 -12.679  1.00  0.00     0.128 C 
BRANCH  76  77
ATOM     77  O   UNL     1       5.573  -3.772 -14.075  1.00  0.00    -0.381 OA
ATOM     78  C   UNL     1       5.348  -2.390 -14.317  1.00  0.00     0.195 C 
ENDBRANCH  76  77
BRANCH  76  79
ATOM     79  C   UNL     1       7.017  -4.085 -12.073  1.00  0.00     0.068 C 
BRANCH  79  80
ATOM     80  C   UNL     1       8.168  -4.519 -12.947  1.00  0.00    -0.045 A 
ATOM     81  C   UNL     1       8.314  -5.857 -13.337  1.00  0.00     0.004 A 
ATOM     82  C   UNL     1       9.131  -3.587 -13.364  1.00  0.00     0.004 A 
ATOM     83  C   UNL     1       9.390  -6.254 -14.134  1.00  0.00     0.000 A 
ATOM     84  C   UNL     1      10.206  -3.985 -14.161  1.00  0.00     0.000 A 
ATOM     85  C   UNL     1      10.335  -5.317 -14.547  1.00  0.00     0.000 A 
ENDBRANCH  79  80
ENDBRANCH  76  79
ENDBRANCH  74  76
ENDBRANCH  72  74
ENDBRANCH  70  71
ENDBRANCH   1  69
TORSDOF 17
ENDMDL
MODEL 8
REMARK VINA RESULT:    -6.275      3.342      9.017
REMARK INTER + INTRA:         -26.030
REMARK INTER:                 -21.390
REMARK INTRA:                  -4.640
REMARK UNBOUND:                -7.281
REMARK SMILES C=C1C(=O)N[C@H](C)C(=O)N[C@@H](CC(C)C)C(=O)N[C@@H](C(=O)O)[C@H](C)C(=O)N[C@@H](CCCN=C(N)N)C(=O)N[C@@H](/C=C/C(C)=C/[C@H](C)[C@H](Cc2ccccc2)OC)[C@H](C)C(=O)N[C@@H](C(=O)O)CCC(=O)N1C
REMARK SMILES IDX 39 1 38 2 37 3 36 4 28 6 27 7 25 8 26 9 23 11 24 12 19 13
REMARK SMILES IDX 18 14 16 15 17 16 11 18 10 19 8 20 9 21 12 24 13 25 14 26
REMARK SMILES IDX 15 27 20 28 21 29 22 30 29 32 30 33 31 34 32 35 33 36 34 37
REMARK SMILES IDX 35 38 57 43 58 44 59 45 60 46 61 47 62 49 66 50 67 51 68 52
REMARK SMILES IDX 69 53 70 54 71 55 2 56 1 57 3 58 4 59 5 60 6 62 7 63 63 65
REMARK SMILES IDX 64 66 65 67 40 69 41 70 42 71 44 72 43 73 45 74 46 75 47 76
REMARK SMILES IDX 55 77 56 78 48 79 49 80 50 81 54 82 51 83 53 84 52 85
REMARK H PARENT 38 5 27 10 18 17 10 22 22 31 34 39 34 40 35 41 35 42 61 48
REMARK H PARENT 5 61 65 68
REMARK Flexibility Score:  369.900
ROOT
ATOM      1  C   UNL     1       7.164   2.482  -0.310  1.00  0.00     0.117 C 
ENDROOT
BRANCH   1   2
ATOM      2  N   UNL     1       7.517   2.009  -1.649  1.00  0.00    -0.347 N 
ATOM      3  O   UNL     1       6.054   0.243  -1.753  1.00  0.00    -0.273 OA
ATOM      4  C   UNL     1       6.867   0.979  -2.301  1.00  0.00     0.243 C 
ATOM      5  H   UNL     1       8.244   2.482  -2.165  1.00  0.00     0.164 HD
BRANCH   4   6
ATOM      6  C   UNL     1       7.380   0.734  -3.743  1.00  0.00     0.171 C 
BRANCH   6   7
ATOM      7  N   UNL     1       6.249   0.541  -4.665  1.00  0.00    -0.344 N 
ATOM      8  C   UNL     1       6.438  -0.051  -5.895  1.00  0.00     0.226 C 
ATOM      9  O   UNL     1       7.538  -0.422  -6.287  1.00  0.00    -0.275 OA
ATOM     10  H   UNL     1       5.337   0.895  -4.404  1.00  0.00     0.164 HD
BRANCH   8  11
ATOM     11  C   UNL     1       5.166  -0.228  -6.706  1.00  0.00     0.109 C 
ATOM     12  C   UNL     1       4.987   0.950  -7.665  1.00  0.00     0.021 C 
BRANCH  11  13
ATOM     13  C   UNL     1       5.164  -1.616  -7.377  1.00  0.00     0.204 C 
BRANCH  13  14
ATOM     14  N   UNL     1       6.396  -1.867  -8.131  1.00  0.00    -0.340 N 
ATOM     15  C   UNL     1       6.410  -2.507  -9.351  1.00  0.00     0.243 C 
ATOM     16  O   UNL     1       5.380  -2.860  -9.923  1.00  0.00    -0.273 OA
ATOM     17  H   UNL     1       7.289  -1.738  -7.648  1.00  0.00     0.164 HD
BRANCH  15  18
ATOM     18  C   UNL     1       7.834  -2.844  -9.857  1.00  0.00     0.171 C 
BRANCH  18  19
ATOM     19  N   UNL     1       7.777  -2.819 -11.317  1.00  0.00    -0.343 N 
ATOM     20  C   UNL     1       7.934  -3.965 -12.072  1.00  0.00     0.242 CG0
ATOM     21  O   UNL     1       8.261  -5.033 -11.560  1.00  0.00    -0.273 OA
ATOM     22  H   UNL     1       7.623  -1.937 -11.793  1.00  0.00     0.164 HD
ATOM     23  G   UNL     1       7.763  -3.755 -13.591  1.00  0.00     0.000 G0
ENDBRANCH  18  19
BRANCH  18  24
ATOM     24  C   UNL     1       8.854  -1.834  -9.317  1.00  0.00     0.038 C 
BRANCH  24  25
ATOM     25  C   UNL     1       9.074  -0.598 -10.214  1.00  0.00    -0.015 C 
ATOM     26  C   UNL     1      10.513  -0.491 -10.720  1.00  0.00     0.007 C 
ATOM     27  C   UNL     1       8.703   0.671  -9.443  1.00  0.00     0.007 C 
ENDBRANCH  24  25
ENDBRANCH  18  24
ENDBRANCH  15  18
ENDBRANCH  13  14
BRANCH  13  28
ATOM     28  C   UNL     1       4.999  -2.767  -6.380  1.00  0.00     0.327 C 
ATOM     29  O   UNL     1       5.843  -3.604  -6.096  1.00  0.00    -0.250 OA
BRANCH  28  30
ATOM     30  O   UNL     1       3.747  -2.868  -5.891  1.00  0.00    -0.480 OA
ATOM     31  H   UNL     1       3.174  -2.595  -6.637  1.00  0.00     0.296 HD
ENDBRANCH  28  30
ENDBRANCH  13  28
ENDBRANCH  11  13
ENDBRANCH   8  11
ENDBRANCH   6   7
BRANCH   6  32
ATOM     32  C   UNL     1       8.245   1.921  -4.179  1.00  0.00     0.037 C 
BRANCH  32  33
ATOM     33  C   UNL     1       9.746   1.620  -4.056  1.00  0.00     0.026 C 
BRANCH  33  34
ATOM     34  C   UNL     1      10.021   0.171  -3.651  1.00  0.00     0.146 C 
BRANCH  34  35
ATOM     35  N   UNL     1       9.917   0.060  -2.203  1.00  0.00    -0.254 NA
ATOM     36  C   UNL     1      10.971   0.237  -1.496  1.00  0.00     0.185 C 
ATOM     37  N   UNL     1      10.886   0.142  -0.160  1.00  0.00    -0.370 N 
ATOM     38  N   UNL     1      12.222   0.519  -1.901  1.00  0.00    -0.370 N 
ATOM     39  H   UNL     1       9.971  -0.059   0.223  1.00  0.00     0.159 HD
ATOM     40  H   UNL     1      11.616   0.434   0.466  1.00  0.00     0.159 HD
ATOM     41  H   UNL     1      12.995   0.497  -1.257  1.00  0.00     0.159 HD
ATOM     42  H   UNL     1      12.436   0.604  -2.882  1.00  0.00     0.159 HD
ENDBRANCH  34  35
ENDBRANCH  33  34
ENDBRANCH  32  33
ENDBRANCH   6  32
ENDBRANCH   4   6
ENDBRANCH   1   2
BRANCH   1  43
ATOM     43  C   UNL     1       5.972   3.475  -0.434  1.00  0.00     0.102 C 
ATOM     44  C   UNL     1       6.067   4.395  -1.663  1.00  0.00     0.020 C 
BRANCH  43  45
ATOM     45  C   UNL     1       5.737   4.220   0.883  1.00  0.00     0.225 C 
ATOM     46  O   UNL     1       6.649   4.651   1.582  1.00  0.00    -0.275 OA
ATOM     47  N   UNL     1       4.425   4.299   1.294  1.00  0.00    -0.342 N 
ATOM     48  H   UNL     1       3.684   4.078   0.644  1.00  0.00     0.164 HD
BRANCH  47  49
ATOM     49  C   UNL     1       4.047   5.013   2.517  1.00  0.00     0.192 C 
BRANCH  49  50
ATOM     50  C   UNL     1       2.737   4.439   3.063  1.00  0.00     0.047 C 
BRANCH  50  51
ATOM     51  C   UNL     1       1.718   4.155   1.951  1.00  0.00     0.103 C 
BRANCH  51  52
ATOM     52  C   UNL     1       0.390   4.870   2.194  1.00  0.00     0.226 C 
ATOM     53  O   UNL     1       0.310   5.724   3.079  1.00  0.00    -0.275 OA
BRANCH  52  54
ATOM     54  N   UNL     1      -0.664   4.550   1.318  1.00  0.00    -0.311 N 
ATOM     55  C   UNL     1      -1.188   5.543   0.371  1.00  0.00     0.153 C 
BRANCH  54  56
ATOM     56  C   UNL     1      -1.249   3.273   1.312  1.00  0.00     0.102 C 
ATOM     57  C   UNL     1      -0.888   2.266   0.498  1.00  0.00     0.043 C 
BRANCH  56  58
ATOM     58  C   UNL     1      -2.340   2.915   2.292  1.00  0.00     0.268 C 
ATOM     59  O   UNL     1      -3.531   2.958   2.014  1.00  0.00    -0.268 OA
ATOM     60  N   UNL     1      -1.857   2.474   3.501  1.00  0.00    -0.339 N 
ATOM     61  H   UNL     1      -0.856   2.478   3.657  1.00  0.00     0.164 HD
BRANCH  60  62
ATOM     62  C   UNL     1      -2.741   2.018   4.574  1.00  0.00     0.168 CG0
ATOM     63  C   UNL     1      -3.153   3.176   5.474  1.00  0.00     0.041 C 
ATOM     64  G   UNL     1      -2.035   0.916   5.391  1.00  0.00     0.000 G0
ENDBRANCH  60  62
ENDBRANCH  56  58
ENDBRANCH  54  56
ENDBRANCH  52  54
ENDBRANCH  51  52
ENDBRANCH  50  51
ENDBRANCH  49  50
BRANCH  49  65
ATOM     65  C   UNL     1       3.876   6.519   2.263  1.00  0.00     0.326 C 
ATOM     66  O   UNL     1       4.508   7.179   1.451  1.00  0.00    -0.250 OA
BRANCH  65  67
ATOM     67  O   UNL     1       2.980   7.128   3.070  1.00  0.00    -0.480 OA
ATOM     68  H   UNL     1       2.144   7.089   2.559  1.00  0.00     0.296 HD
ENDBRANCH  65  67
ENDBRANCH  49  65
ENDBRANCH  47  49
ENDBRANCH  43  45
ENDBRANCH   1  43
BRANCH   1  69
ATOM     69  C   UNL     1       8.456   2.964   0.324  1.00  0.00    -0.001 C 
ATOM     70  C   UNL     1       9.502   3.542  -0.292  1.00  0.00     0.001 C 
BRANCH  70  71
ATOM     71  C   UNL     1      10.736   4.023   0.334  1.00  0.00    -0.055 C 
ATOM     72  C   UNL     1      10.647   4.547   1.575  1.00  0.00    -0.018 C 
ATOM     73  C   UNL     1      12.017   3.891  -0.446  1.00  0.00     0.044 C 
BRANCH  72  74
ATOM     74  C   UNL     1      11.746   5.115   2.461  1.00  0.00     0.038 C 
ATOM     75  C   UNL     1      11.625   4.429   3.828  1.00  0.00     0.015 C 
BRANCH  74  76
ATOM     76  C   UNL     1      11.612   6.666   2.495  1.00  0.00     0.128 C 
BRANCH  76  77
ATOM     77  O   UNL     1      12.753   7.271   1.863  1.00  0.00    -0.381 OA
ATOM     78  C   UNL     1      12.627   7.394   0.453  1.00  0.00     0.195 C 
ENDBRANCH  76  77
BRANCH  76  79
ATOM     79  C   UNL     1      10.267   7.193   1.935  1.00  0.00     0.068 C 
BRANCH  79  80
ATOM     80  C   UNL     1       9.770   8.530   2.430  1.00  0.00    -0.045 A 
ATOM     81  C   UNL     1       9.835   9.670   1.619  1.00  0.00     0.004 A 
ATOM     82  C   UNL     1       9.258   8.656   3.731  1.00  0.00     0.004 A 
ATOM     83  C   UNL     1       9.386  10.906   2.091  1.00  0.00     0.000 A 
ATOM     84  C   UNL     1       8.810   9.892   4.201  1.00  0.00     0.000 A 
ATOM     85  C   UNL     1       8.873  11.016   3.381  1.00  0.00     0.000 A 
ENDBRANCH  79  80
ENDBRANCH  76  79
ENDBRANCH  74  76
ENDBRANCH  72  74
ENDBRANCH  70  71
ENDBRANCH   1  69
TORSDOF 17
ENDMDL
MODEL 9
REMARK VINA RESULT:    -6.251      2.791     11.286
REMARK INTER + INTRA:         -25.956
REMARK INTER:                 -18.465
REMARK INTRA:                  -7.492
REMARK UNBOUND:                -7.281
REMARK SMILES C=C1C(=O)N[C@H](C)C(=O)N[C@@H](CC(C)C)C(=O)N[C@@H](C(=O)O)[C@H](C)C(=O)N[C@@H](CCCN=C(N)N)C(=O)N[C@@H](/C=C/C(C)=C/[C@H](C)[C@H](Cc2ccccc2)OC)[C@H](C)C(=O)N[C@@H](C(=O)O)CCC(=O)N1C
REMARK SMILES IDX 39 1 38 2 37 3 36 4 28 6 27 7 25 8 26 9 23 11 24 12 19 13
REMARK SMILES IDX 18 14 16 15 17 16 11 18 10 19 8 20 9 21 12 24 13 25 14 26
REMARK SMILES IDX 15 27 20 28 21 29 22 30 29 32 30 33 31 34 32 35 33 36 34 37
REMARK SMILES IDX 35 38 57 43 58 44 59 45 60 46 61 47 62 49 66 50 67 51 68 52
REMARK SMILES IDX 69 53 70 54 71 55 2 56 1 57 3 58 4 59 5 60 6 62 7 63 63 65
REMARK SMILES IDX 64 66 65 67 40 69 41 70 42 71 44 72 43 73 45 74 46 75 47 76
REMARK SMILES IDX 55 77 56 78 48 79 49 80 50 81 54 82 51 83 53 84 52 85
REMARK H PARENT 38 5 27 10 18 17 10 22 22 31 34 39 34 40 35 41 35 42 61 48
REMARK H PARENT 5 61 65 68
REMARK Flexibility Score:  369.900
ROOT
ATOM      1  C   UNL     1       3.364   1.332  -1.915  1.00  0.00     0.117 C 
ENDROOT
BRANCH   1   2
ATOM      2  N   UNL     1       4.649   1.898  -2.328  1.00  0.00    -0.347 N 
ATOM      3  O   UNL     1       5.979   0.788  -0.822  1.00  0.00    -0.273 OA
ATOM      4  C   UNL     1       5.868   1.510  -1.808  1.00  0.00     0.243 C 
ATOM      5  H   UNL     1       4.673   2.578  -3.073  1.00  0.00     0.164 HD
BRANCH   4   6
ATOM      6  C   UNL     1       7.082   2.201  -2.479  1.00  0.00     0.171 C 
BRANCH   6   7
ATOM      7  N   UNL     1       8.224   2.249  -1.553  1.00  0.00    -0.344 N 
ATOM      8  C   UNL     1       9.052   3.350  -1.515  1.00  0.00     0.226 C 
ATOM      9  O   UNL     1       8.898   4.318  -2.250  1.00  0.00    -0.275 OA
ATOM     10  H   UNL     1       8.424   1.440  -0.978  1.00  0.00     0.164 HD
BRANCH   8  11
ATOM     11  C   UNL     1      10.151   3.269  -0.470  1.00  0.00     0.109 C 
ATOM     12  C   UNL     1      11.472   3.768  -1.056  1.00  0.00     0.021 C 
BRANCH  11  13
ATOM     13  C   UNL     1       9.701   3.989   0.817  1.00  0.00     0.204 C 
BRANCH  13  14
ATOM     14  N   UNL     1       9.089   5.291   0.536  1.00  0.00    -0.340 N 
ATOM     15  C   UNL     1       9.584   6.475   1.040  1.00  0.00     0.243 C 
ATOM     16  O   UNL     1      10.612   6.527   1.713  1.00  0.00    -0.273 OA
ATOM     17  H   UNL     1       8.157   5.303   0.115  1.00  0.00     0.164 HD
BRANCH  15  18
ATOM     18  C   UNL     1       8.660   7.690   0.784  1.00  0.00     0.171 C 
BRANCH  18  19
ATOM     19  N   UNL     1       8.920   8.648   1.857  1.00  0.00    -0.343 N 
ATOM     20  C   UNL     1       8.124   8.713   2.984  1.00  0.00     0.242 CG0
ATOM     21  O   UNL     1       7.085   8.064   3.076  1.00  0.00    -0.273 OA
ATOM     22  H   UNL     1       9.702   9.287   1.774  1.00  0.00     0.164 HD
ATOM     23  G   UNL     1       8.601   9.729   4.042  1.00  0.00     0.000 G0
ENDBRANCH  18  19
BRANCH  18  24
ATOM     24  C   UNL     1       8.939   8.302  -0.595  1.00  0.00     0.038 C 
BRANCH  24  25
ATOM     25  C   UNL     1       9.995   9.428  -0.598  1.00  0.00    -0.015 C 
ATOM     26  C   UNL     1       9.382  10.803  -0.868  1.00  0.00     0.007 C 
ATOM     27  C   UNL     1      11.066   9.127  -1.649  1.00  0.00     0.007 C 
ENDBRANCH  24  25
ENDBRANCH  18  24
ENDBRANCH  15  18
ENDBRANCH  13  14
BRANCH  13  28
ATOM     28  C   UNL     1       8.691   3.181   1.638  1.00  0.00     0.327 C 
ATOM     29  O   UNL     1       7.520   2.984   1.352  1.00  0.00    -0.250 OA
BRANCH  28  30
ATOM     30  O   UNL     1       9.182   2.771   2.825  1.00  0.00    -0.480 OA
ATOM     31  H   UNL     1       9.100   3.557   3.404  1.00  0.00     0.296 HD
ENDBRANCH  28  30
ENDBRANCH  13  28
ENDBRANCH  11  13
ENDBRANCH   8  11
ENDBRANCH   6   7
BRANCH   6  32
ATOM     32  C   UNL     1       7.447   1.443  -3.761  1.00  0.00     0.037 C 
BRANCH  32  33
ATOM     33  C   UNL     1       7.798  -0.025  -3.485  1.00  0.00     0.026 C 
BRANCH  33  34
ATOM     34  C   UNL     1       9.290  -0.231  -3.223  1.00  0.00     0.146 C 
BRANCH  34  35
ATOM     35  N   UNL     1       9.504  -0.344  -1.787  1.00  0.00    -0.254 NA
ATOM     36  C   UNL     1      10.680  -0.136  -1.323  1.00  0.00     0.185 C 
ATOM     37  N   UNL     1      10.887  -0.233  -0.000  1.00  0.00    -0.370 N 
ATOM     38  N   UNL     1      11.805   0.184  -1.985  1.00  0.00    -0.370 N 
ATOM     39  H   UNL     1      10.082  -0.461   0.570  1.00  0.00     0.159 HD
ATOM     40  H   UNL     1      11.726   0.082   0.456  1.00  0.00     0.159 HD
ATOM     41  H   UNL     1      12.700   0.185  -1.522  1.00  0.00     0.159 HD
ATOM     42  H   UNL     1      11.801   0.275  -2.989  1.00  0.00     0.159 HD
ENDBRANCH  34  35
ENDBRANCH  33  34
ENDBRANCH  32  33
ENDBRANCH   6  32
ENDBRANCH   4   6
ENDBRANCH   1   2
BRANCH   1  43
ATOM     43  C   UNL     1       2.414   1.310  -3.147  1.00  0.00     0.102 C 
ATOM     44  C   UNL     1       0.923   1.261  -2.769  1.00  0.00     0.020 C 
BRANCH  43  45
ATOM     45  C   UNL     1       2.836   0.231  -4.148  1.00  0.00     0.225 C 
ATOM     46  O   UNL     1       3.904   0.258  -4.753  1.00  0.00    -0.275 OA
ATOM     47  N   UNL     1       1.895  -0.739  -4.406  1.00  0.00    -0.342 N 
ATOM     48  H   UNL     1       1.094  -0.834  -3.797  1.00  0.00     0.164 HD
BRANCH  47  49
ATOM     49  C   UNL     1       2.173  -1.855  -5.315  1.00  0.00     0.192 C 
BRANCH  49  50
ATOM     50  C   UNL     1       1.322  -1.713  -6.579  1.00  0.00     0.047 C 
BRANCH  50  51
ATOM     51  C   UNL     1       2.164  -1.357  -7.812  1.00  0.00     0.103 C 
BRANCH  51  52
ATOM     52  C   UNL     1       3.123  -2.482  -8.195  1.00  0.00     0.226 C 
ATOM     53  O   UNL     1       2.690  -3.625  -8.355  1.00  0.00    -0.275 OA
BRANCH  52  54
ATOM     54  N   UNL     1       4.463  -2.114  -8.420  1.00  0.00    -0.311 N 
ATOM     55  C   UNL     1       5.426  -2.051  -7.313  1.00  0.00     0.153 C 
BRANCH  54  56
ATOM     56  C   UNL     1       4.930  -1.800  -9.707  1.00  0.00     0.102 C 
ATOM     57  C   UNL     1       5.156  -0.557 -10.161  1.00  0.00     0.043 C 
BRANCH  56  58
ATOM     58  C   UNL     1       5.267  -2.891 -10.697  1.00  0.00     0.268 C 
ATOM     59  O   UNL     1       4.422  -3.605 -11.220  1.00  0.00    -0.268 OA
ATOM     60  N   UNL     1       6.607  -2.954 -10.996  1.00  0.00    -0.339 N 
ATOM     61  H   UNL     1       7.244  -2.334 -10.511  1.00  0.00     0.164 HD
BRANCH  60  62
ATOM     62  C   UNL     1       7.142  -3.896 -11.978  1.00  0.00     0.168 CG0
ATOM     63  C   UNL     1       8.618  -3.629 -12.244  1.00  0.00     0.041 C 
ATOM     64  G   UNL     1       6.326  -3.802 -13.283  1.00  0.00     0.000 G0
ENDBRANCH  60  62
ENDBRANCH  56  58
ENDBRANCH  54  56
ENDBRANCH  52  54
ENDBRANCH  51  52
ENDBRANCH  50  51
ENDBRANCH  49  50
BRANCH  49  65
ATOM     65  C   UNL     1       1.882  -3.211  -4.655  1.00  0.00     0.326 C 
ATOM     66  O   UNL     1       2.489  -4.250  -4.868  1.00  0.00    -0.250 OA
BRANCH  65  67
ATOM     67  O   UNL     1       0.821  -3.214  -3.818  1.00  0.00    -0.480 OA
ATOM     68  H   UNL     1       0.297  -2.435  -4.105  1.00  0.00     0.296 HD
ENDBRANCH  65  67
ENDBRANCH  49  65
ENDBRANCH  47  49
ENDBRANCH  43  45
ENDBRANCH   1  43
BRANCH   1  69
ATOM     69  C   UNL     1       2.942   2.101  -0.676  1.00  0.00    -0.001 C 
ATOM     70  C   UNL     1       2.297   1.622   0.402  1.00  0.00     0.001 C 
BRANCH  70  71
ATOM     71  C   UNL     1       1.913   2.370   1.602  1.00  0.00    -0.055 C 
ATOM     72  C   UNL     1       2.237   3.679   1.655  1.00  0.00    -0.018 C 
ATOM     73  C   UNL     1       1.178   1.627   2.686  1.00  0.00     0.044 C 
BRANCH  72  74
ATOM     74  C   UNL     1       1.969   4.693   2.758  1.00  0.00     0.038 C 
ATOM     75  C   UNL     1       0.634   5.374   2.432  1.00  0.00     0.015 C 
BRANCH  74  76
ATOM     76  C   UNL     1       3.186   5.658   2.859  1.00  0.00     0.128 C 
BRANCH  76  77
ATOM     77  O   UNL     1       3.379   6.064   4.224  1.00  0.00    -0.381 OA
ATOM     78  C   UNL     1       3.762   5.002   5.088  1.00  0.00     0.195 C 
ENDBRANCH  76  77
BRANCH  76  79
ATOM     79  C   UNL     1       4.481   5.108   2.208  1.00  0.00     0.068 C 
BRANCH  79  80
ATOM     80  C   UNL     1       4.891   5.668   0.868  1.00  0.00    -0.045 A 
ATOM     81  C   UNL     1       4.891   7.049   0.632  1.00  0.00     0.004 A 
ATOM     82  C   UNL     1       5.254   4.805  -0.178  1.00  0.00     0.004 A 
ATOM     83  C   UNL     1       5.259   7.558  -0.616  1.00  0.00     0.000 A 
ATOM     84  C   UNL     1       5.621   5.315  -1.425  1.00  0.00     0.000 A 
ATOM     85  C   UNL     1       5.625   6.691  -1.643  1.00  0.00     0.000 A 
ENDBRANCH  79  80
ENDBRANCH  76  79
ENDBRANCH  74  76
ENDBRANCH  72  74
ENDBRANCH  70  71
ENDBRANCH   1  69
TORSDOF 17
ENDMDL
MODEL 10
REMARK VINA RESULT:    -6.161      5.140     12.049
REMARK INTER + INTRA:         -25.688
REMARK INTER:                 -18.425
REMARK INTRA:                  -7.264
REMARK UNBOUND:                -7.281
REMARK SMILES C=C1C(=O)N[C@H](C)C(=O)N[C@@H](CC(C)C)C(=O)N[C@@H](C(=O)O)[C@H](C)C(=O)N[C@@H](CCCN=C(N)N)C(=O)N[C@@H](/C=C/C(C)=C/[C@H](C)[C@H](Cc2ccccc2)OC)[C@H](C)C(=O)N[C@@H](C(=O)O)CCC(=O)N1C
REMARK SMILES IDX 39 1 38 2 37 3 36 4 28 6 27 7 25 8 26 9 23 11 24 12 19 13
REMARK SMILES IDX 18 14 16 15 17 16 11 18 10 19 8 20 9 21 12 24 13 25 14 26
REMARK SMILES IDX 15 27 20 28 21 29 22 30 29 32 30 33 31 34 32 35 33 36 34 37
REMARK SMILES IDX 35 38 57 43 58 44 59 45 60 46 61 47 62 49 66 50 67 51 68 52
REMARK SMILES IDX 69 53 70 54 71 55 2 56 1 57 3 58 4 59 5 60 6 62 7 63 63 65
REMARK SMILES IDX 64 66 65 67 40 69 41 70 42 71 44 72 43 73 45 74 46 75 47 76
REMARK SMILES IDX 55 77 56 78 48 79 49 80 50 81 54 82 51 83 53 84 52 85
REMARK H PARENT 38 5 27 10 18 17 10 22 22 31 34 39 34 40 35 41 35 42 61 48
REMARK H PARENT 5 61 65 68
REMARK Flexibility Score:  369.900
ROOT
ATOM      1  C   UNL     1       4.104   1.596  -0.651  1.00  0.00     0.117 C 
ENDROOT
BRANCH   1   2
ATOM      2  N   UNL     1       5.256   2.430  -0.996  1.00  0.00    -0.347 N 
ATOM      3  O   UNL     1       6.875   1.165   0.027  1.00  0.00    -0.273 OA
ATOM      4  C   UNL     1       6.565   2.098  -0.706  1.00  0.00     0.243 C 
ATOM      5  H   UNL     1       5.112   3.279  -1.521  1.00  0.00     0.164 HD
BRANCH   4   6
ATOM      6  C   UNL     1       7.601   3.110  -1.258  1.00  0.00     0.171 C 
BRANCH   6   7
ATOM      7  N   UNL     1       8.848   3.045  -0.479  1.00  0.00    -0.344 N 
ATOM      8  C   UNL     1       9.712   4.119  -0.444  1.00  0.00     0.226 C 
ATOM      9  O   UNL     1       9.503   5.154  -1.066  1.00  0.00    -0.275 OA
ATOM     10  H   UNL     1       9.088   2.182  -0.007  1.00  0.00     0.164 HD
BRANCH   8  11
ATOM     11  C   UNL     1      10.926   3.917   0.446  1.00  0.00     0.109 C 
ATOM     12  C   UNL     1      12.202   4.270  -0.317  1.00  0.00     0.021 C 
BRANCH  11  13
ATOM     13  C   UNL     1      10.732   4.678   1.772  1.00  0.00     0.204 C 
BRANCH  13  14
ATOM     14  N   UNL     1      10.059   5.966   1.576  1.00  0.00    -0.340 N 
ATOM     15  C   UNL     1      10.706   7.176   1.704  1.00  0.00     0.243 C 
ATOM     16  O   UNL     1      11.911   7.259   1.933  1.00  0.00    -0.273 OA
ATOM     17  H   UNL     1       9.036   5.972   1.535  1.00  0.00     0.164 HD
BRANCH  15  18
ATOM     18  C   UNL     1       9.752   8.395   1.659  1.00  0.00     0.171 C 
BRANCH  18  19
ATOM     19  N   UNL     1       9.591   8.852   3.038  1.00  0.00    -0.343 N 
ATOM     20  C   UNL     1       8.366   8.826   3.676  1.00  0.00     0.242 CG0
ATOM     21  O   UNL     1       7.333   8.543   3.073  1.00  0.00    -0.273 OA
ATOM     22  H   UNL     1      10.397   9.205   3.542  1.00  0.00     0.164 HD
ATOM     23  G   UNL     1       8.407   9.273   5.152  1.00  0.00     0.000 G0
ENDBRANCH  18  19
BRANCH  18  24
ATOM     24  C   UNL     1      10.328   9.500   0.764  1.00  0.00     0.038 C 
BRANCH  24  25
ATOM     25  C   UNL     1      10.013   9.342  -0.738  1.00  0.00    -0.015 C 
ATOM     26  C   UNL     1      11.252   8.989  -1.562  1.00  0.00     0.007 C 
ATOM     27  C   UNL     1       9.391  10.634  -1.272  1.00  0.00     0.007 C 
ENDBRANCH  24  25
ENDBRANCH  18  24
ENDBRANCH  15  18
ENDBRANCH  13  14
BRANCH  13  28
ATOM     28  C   UNL     1       9.917   3.893   2.805  1.00  0.00     0.327 C 
ATOM     29  O   UNL     1       9.363   4.355   3.791  1.00  0.00    -0.250 OA
BRANCH  28  30
ATOM     30  O   UNL     1       9.949   2.561   2.601  1.00  0.00    -0.480 OA
ATOM     31  H   UNL     1       9.007   2.291   2.624  1.00  0.00     0.296 HD
ENDBRANCH  28  30
ENDBRANCH  13  28
ENDBRANCH  11  13
ENDBRANCH   8  11
ENDBRANCH   6   7
BRANCH   6  32
ATOM     32  C   UNL     1       7.864   2.806  -2.737  1.00  0.00     0.037 C 
BRANCH  32  33
ATOM     33  C   UNL     1       7.565   1.342  -3.089  1.00  0.00     0.026 C 
BRANCH  33  34
ATOM     34  C   UNL     1       8.836   0.536  -3.362  1.00  0.00     0.146 C 
BRANCH  34  35
ATOM     35  N   UNL     1       9.587   0.409  -2.121  1.00  0.00    -0.254 NA
ATOM     36  C   UNL     1      10.857   0.256  -2.185  1.00  0.00     0.185 C 
ATOM     37  N   UNL     1      11.560   0.143  -1.047  1.00  0.00    -0.370 N 
ATOM     38  N   UNL     1      11.647   0.189  -3.272  1.00  0.00    -0.370 N 
ATOM     39  H   UNL     1      11.037   0.195  -0.183  1.00  0.00     0.159 HD
ATOM     40  H   UNL     1      12.563   0.196  -1.006  1.00  0.00     0.159 HD
ATOM     41  H   UNL     1      12.616  -0.073  -3.196  1.00  0.00     0.159 HD
ATOM     42  H   UNL     1      11.251   0.243  -4.197  1.00  0.00     0.159 HD
ENDBRANCH  34  35
ENDBRANCH  33  34
ENDBRANCH  32  33
ENDBRANCH   6  32
ENDBRANCH   4   6
ENDBRANCH   1   2
BRANCH   1  43
ATOM     43  C   UNL     1       3.512   1.002  -1.961  1.00  0.00     0.102 C 
ATOM     44  C   UNL     1       3.699   1.914  -3.186  1.00  0.00     0.020 C 
BRANCH  43  45
ATOM     45  C   UNL     1       2.070   0.532  -1.750  1.00  0.00     0.225 C 
ATOM     46  O   UNL     1       1.782  -0.592  -1.348  1.00  0.00    -0.275 OA
ATOM     47  N   UNL     1       1.094   1.425  -2.132  1.00  0.00    -0.342 N 
ATOM     48  H   UNL     1       1.341   2.388  -2.313  1.00  0.00     0.164 HD
BRANCH  47  49
ATOM     49  C   UNL     1      -0.330   1.125  -1.955  1.00  0.00     0.192 C 
BRANCH  49  50
ATOM     50  C   UNL     1      -1.078   1.390  -3.264  1.00  0.00     0.047 C 
BRANCH  50  51
ATOM     51  C   UNL     1      -0.511   0.573  -4.433  1.00  0.00     0.103 C 
BRANCH  51  52
ATOM     52  C   UNL     1      -0.716  -0.928  -4.237  1.00  0.00     0.226 C 
ATOM     53  O   UNL     1       0.261  -1.662  -4.085  1.00  0.00    -0.275 OA
BRANCH  52  54
ATOM     54  N   UNL     1      -2.049  -1.374  -4.166  1.00  0.00    -0.311 N 
ATOM     55  C   UNL     1      -3.027  -1.001  -5.196  1.00  0.00     0.153 C 
BRANCH  54  56
ATOM     56  C   UNL     1      -2.492  -2.194  -3.115  1.00  0.00     0.102 C 
ATOM     57  C   UNL     1      -2.561  -1.822  -1.826  1.00  0.00     0.043 C 
BRANCH  56  58
ATOM     58  C   UNL     1      -2.984  -3.598  -3.382  1.00  0.00     0.268 C 
ATOM     59  O   UNL     1      -2.239  -4.524  -3.673  1.00  0.00    -0.268 OA
ATOM     60  N   UNL     1      -4.339  -3.739  -3.198  1.00  0.00    -0.339 N 
ATOM     61  H   UNL     1      -4.887  -2.919  -2.967  1.00  0.00     0.164 HD
BRANCH  60  62
ATOM     62  C   UNL     1      -5.014  -5.028  -3.343  1.00  0.00     0.168 CG0
ATOM     63  C   UNL     1      -6.017  -5.249  -2.217  1.00  0.00     0.041 C 
ATOM     64  G   UNL     1      -3.966  -6.160  -3.371  1.00  0.00     0.000 G0
ENDBRANCH  60  62
ENDBRANCH  56  58
ENDBRANCH  54  56
ENDBRANCH  52  54
ENDBRANCH  51  52
ENDBRANCH  50  51
ENDBRANCH  49  50
BRANCH  49  65
ATOM     65  C   UNL     1      -0.952   1.972  -0.833  1.00  0.00     0.326 C 
ATOM     66  O   UNL     1      -0.817   3.179  -0.696  1.00  0.00    -0.250 OA
BRANCH  65  67
ATOM     67  O   UNL     1      -1.652   1.268   0.083  1.00  0.00    -0.480 OA
ATOM     68  H   UNL     1      -2.424   0.933  -0.422  1.00  0.00     0.296 HD
ENDBRANCH  65  67
ENDBRANCH  49  65
ENDBRANCH  47  49
ENDBRANCH  43  45
ENDBRANCH   1  43
BRANCH   1  69
ATOM     69  C   UNL     1       3.214   2.449   0.235  1.00  0.00    -0.001 C 
ATOM     70  C   UNL     1       2.261   2.026   1.084  1.00  0.00     0.001 C 
BRANCH  70  71
ATOM     71  C   UNL     1       1.422   2.857   1.950  1.00  0.00    -0.055 C 
ATOM     72  C   UNL     1       1.622   4.192   1.923  1.00  0.00    -0.018 C 
ATOM     73  C   UNL     1       0.391   2.166   2.803  1.00  0.00     0.044 C 
BRANCH  72  74
ATOM     74  C   UNL     1       0.909   5.288   2.702  1.00  0.00     0.038 C 
ATOM     75  C   UNL     1      -0.450   5.511   2.027  1.00  0.00     0.015 C 
BRANCH  74  76
ATOM     76  C   UNL     1       1.827   6.545   2.752  1.00  0.00     0.128 C 
BRANCH  76  77
ATOM     77  O   UNL     1       1.122   7.644   3.355  1.00  0.00    -0.381 OA
ATOM     78  C   UNL     1       1.512   7.905   4.696  1.00  0.00     0.195 C 
ENDBRANCH  76  77
BRANCH  76  79
ATOM     79  C   UNL     1       3.209   6.289   3.404  1.00  0.00     0.068 C 
BRANCH  79  80
ATOM     80  C   UNL     1       4.402   6.131   2.493  1.00  0.00    -0.045 A 
ATOM     81  C   UNL     1       4.525   6.896   1.325  1.00  0.00     0.004 A 
ATOM     82  C   UNL     1       5.399   5.190   2.790  1.00  0.00     0.004 A 
ATOM     83  C   UNL     1       5.625   6.734   0.480  1.00  0.00     0.000 A 
ATOM     84  C   UNL     1       6.498   5.028   1.944  1.00  0.00     0.000 A 
ATOM     85  C   UNL     1       6.612   5.801   0.791  1.00  0.00     0.000 A 
ENDBRANCH  79  80
ENDBRANCH  76  79
ENDBRANCH  74  76
ENDBRANCH  72  74
ENDBRANCH  70  71
ENDBRANCH   1  69
TORSDOF 17
ENDMDL
MODEL 11
REMARK VINA RESULT:    -6.151      3.554     11.338
REMARK INTER + INTRA:         -25.657
REMARK INTER:                 -19.176
REMARK INTRA:                  -6.481
REMARK UNBOUND:                -7.281
REMARK SMILES C=C1C(=O)N[C@H](C)C(=O)N[C@@H](CC(C)C)C(=O)N[C@@H](C(=O)O)[C@H](C)C(=O)N[C@@H](CCCN=C(N)N)C(=O)N[C@@H](/C=C/C(C)=C/[C@H](C)[C@H](Cc2ccccc2)OC)[C@H](C)C(=O)N[C@@H](C(=O)O)CCC(=O)N1C
REMARK SMILES IDX 39 1 38 2 37 3 36 4 28 6 27 7 25 8 26 9 23 11 24 12 19 13
REMARK SMILES IDX 18 14 16 15 17 16 11 18 10 19 8 20 9 21 12 24 13 25 14 26
REMARK SMILES IDX 15 27 20 28 21 29 22 30 29 32 30 33 31 34 32 35 33 36 34 37
REMARK SMILES IDX 35 38 57 43 58 44 59 45 60 46 61 47 62 49 66 50 67 51 68 52
REMARK SMILES IDX 69 53 70 54 71 55 2 56 1 57 3 58 4 59 5 60 6 62 7 63 63 65
REMARK SMILES IDX 64 66 65 67 40 69 41 70 42 71 44 72 43 73 45 74 46 75 47 76
REMARK SMILES IDX 55 77 56 78 48 79 49 80 50 81 54 82 51 83 53 84 52 85
REMARK H PARENT 38 5 27 10 18 17 10 22 22 31 34 39 34 40 35 41 35 42 61 48
REMARK H PARENT 5 61 65 68
REMARK Flexibility Score:  369.900
ROOT
ATOM      1  C   UNL     1       2.253   0.706  -3.421  1.00  0.00     0.117 C 
ENDROOT
BRANCH   1   2
ATOM      2  N   UNL     1       3.372   1.351  -2.733  1.00  0.00    -0.347 N 
ATOM      3  O   UNL     1       3.304   0.115  -0.799  1.00  0.00    -0.273 OA
ATOM      4  C   UNL     1       3.868   0.941  -1.510  1.00  0.00     0.243 C 
ATOM      5  H   UNL     1       3.857   2.112  -3.184  1.00  0.00     0.164 HD
BRANCH   4   6
ATOM      6  C   UNL     1       5.112   1.738  -1.043  1.00  0.00     0.171 C 
BRANCH   6   7
ATOM      7  N   UNL     1       6.308   1.305  -1.783  1.00  0.00    -0.344 N 
ATOM      8  C   UNL     1       7.331   0.642  -1.140  1.00  0.00     0.226 C 
ATOM      9  O   UNL     1       7.310   0.403   0.061  1.00  0.00    -0.275 OA
ATOM     10  H   UNL     1       6.392   1.543  -2.764  1.00  0.00     0.164 HD
BRANCH   8  11
ATOM     11  C   UNL     1       8.468   0.213  -2.050  1.00  0.00     0.109 C 
ATOM     12  C   UNL     1       8.029   0.288  -3.512  1.00  0.00     0.021 C 
BRANCH  11  13
ATOM     13  C   UNL     1       9.738   1.020  -1.713  1.00  0.00     0.204 C 
BRANCH  13  14
ATOM     14  N   UNL     1       9.503   1.997  -0.645  1.00  0.00    -0.340 N 
ATOM     15  C   UNL     1      10.361   3.044  -0.388  1.00  0.00     0.243 C 
ATOM     16  O   UNL     1      11.355   3.269  -1.076  1.00  0.00    -0.273 OA
ATOM     17  H   UNL     1       8.786   1.783   0.053  1.00  0.00     0.164 HD
BRANCH  15  18
ATOM     18  C   UNL     1      10.021   3.817   0.910  1.00  0.00     0.171 C 
BRANCH  18  19
ATOM     19  N   UNL     1       9.756   2.813   1.938  1.00  0.00    -0.343 N 
ATOM     20  C   UNL     1       9.011   3.103   3.066  1.00  0.00     0.242 CG0
ATOM     21  O   UNL     1       8.651   4.250   3.321  1.00  0.00    -0.273 OA
ATOM     22  H   UNL     1      10.132   1.878   1.829  1.00  0.00     0.164 HD
ATOM     23  G   UNL     1       8.771   1.897   3.997  1.00  0.00     0.000 G0
ENDBRANCH  18  19
BRANCH  18  24
ATOM     24  C   UNL     1      11.180   4.739   1.311  1.00  0.00     0.038 C 
BRANCH  24  25
ATOM     25  C   UNL     1      11.114   6.157   0.705  1.00  0.00    -0.015 C 
ATOM     26  C   UNL     1      12.256   7.053   1.186  1.00  0.00     0.007 C 
ATOM     27  C   UNL     1       9.771   6.804   1.054  1.00  0.00     0.007 C 
ENDBRANCH  24  25
ENDBRANCH  18  24
ENDBRANCH  15  18
ENDBRANCH  13  14
BRANCH  13  28
ATOM     28  C   UNL     1      10.913   0.140  -1.273  1.00  0.00     0.327 C 
ATOM     29  O   UNL     1      10.935  -0.605  -0.305  1.00  0.00    -0.250 OA
BRANCH  28  30
ATOM     30  O   UNL     1      12.026   0.340  -2.006  1.00  0.00    -0.480 OA
ATOM     31  H   UNL     1      12.760   0.212  -1.370  1.00  0.00     0.296 HD
ENDBRANCH  28  30
ENDBRANCH  13  28
ENDBRANCH  11  13
ENDBRANCH   8  11
ENDBRANCH   6   7
BRANCH   6  32
ATOM     32  C   UNL     1       4.856   3.235  -1.246  1.00  0.00     0.037 C 
BRANCH  32  33
ATOM     33  C   UNL     1       4.753   3.991   0.086  1.00  0.00     0.026 C 
BRANCH  33  34
ATOM     34  C   UNL     1       6.123   4.283   0.700  1.00  0.00     0.146 C 
BRANCH  34  35
ATOM     35  N   UNL     1       6.314   5.725   0.760  1.00  0.00    -0.254 NA
ATOM     36  C   UNL     1       6.204   6.313   1.893  1.00  0.00     0.185 C 
ATOM     37  N   UNL     1       6.383   7.641   1.960  1.00  0.00    -0.370 N 
ATOM     38  N   UNL     1       5.924   5.782   3.096  1.00  0.00    -0.370 N 
ATOM     39  H   UNL     1       6.608   8.114   1.094  1.00  0.00     0.159 HD
ATOM     40  H   UNL     1       6.486   8.145   2.824  1.00  0.00     0.159 HD
ATOM     41  H   UNL     1       5.727   6.368   3.891  1.00  0.00     0.159 HD
ATOM     42  H   UNL     1       5.750   4.794   3.193  1.00  0.00     0.159 HD
ENDBRANCH  34  35
ENDBRANCH  33  34
ENDBRANCH  32  33
ENDBRANCH   6  32
ENDBRANCH   4   6
ENDBRANCH   1   2
BRANCH   1  43
ATOM     43  C   UNL     1       2.497   0.795  -4.955  1.00  0.00     0.102 C 
ATOM     44  C   UNL     1       1.251   1.223  -5.749  1.00  0.00     0.020 C 
BRANCH  43  45
ATOM     45  C   UNL     1       3.161  -0.480  -5.481  1.00  0.00     0.225 C 
ATOM     46  O   UNL     1       4.309  -0.508  -5.917  1.00  0.00    -0.275 OA
ATOM     47  N   UNL     1       2.354  -1.594  -5.525  1.00  0.00    -0.342 N 
ATOM     48  H   UNL     1       1.475  -1.594  -5.029  1.00  0.00     0.164 HD
BRANCH  47  49
ATOM     49  C   UNL     1       2.865  -2.893  -5.973  1.00  0.00     0.192 C 
BRANCH  49  50
ATOM     50  C   UNL     1       2.204  -3.277  -7.299  1.00  0.00     0.047 C 
BRANCH  50  51
ATOM     51  C   UNL     1       3.014  -2.801  -8.512  1.00  0.00     0.103 C 
BRANCH  51  52
ATOM     52  C   UNL     1       2.333  -3.156  -9.832  1.00  0.00     0.226 C 
ATOM     53  O   UNL     1       2.261  -4.335 -10.184  1.00  0.00    -0.275 OA
BRANCH  52  54
ATOM     54  N   UNL     1       1.749  -2.091 -10.543  1.00  0.00    -0.311 N 
ATOM     55  C   UNL     1       2.530  -1.313 -11.515  1.00  0.00     0.153 C 
BRANCH  54  56
ATOM     56  C   UNL     1       0.403  -1.736 -10.356  1.00  0.00     0.102 C 
ATOM     57  C   UNL     1      -0.021  -0.692  -9.624  1.00  0.00     0.043 C 
BRANCH  56  58
ATOM     58  C   UNL     1      -0.704  -2.510 -11.031  1.00  0.00     0.268 C 
ATOM     59  O   UNL     1      -1.489  -3.225 -10.422  1.00  0.00    -0.268 OA
ATOM     60  N   UNL     1      -0.779  -2.278 -12.383  1.00  0.00    -0.339 N 
ATOM     61  H   UNL     1      -0.084  -1.680 -12.814  1.00  0.00     0.164 HD
BRANCH  60  62
ATOM     62  C   UNL     1      -1.817  -2.878 -13.220  1.00  0.00     0.168 CG0
ATOM     63  C   UNL     1      -1.319  -4.163 -13.872  1.00  0.00     0.041 C 
ATOM     64  G   UNL     1      -2.269  -1.863 -14.290  1.00  0.00     0.000 G0
ENDBRANCH  60  62
ENDBRANCH  56  58
ENDBRANCH  54  56
ENDBRANCH  52  54
ENDBRANCH  51  52
ENDBRANCH  50  51
ENDBRANCH  49  50
BRANCH  49  65
ATOM     65  C   UNL     1       2.600  -3.994  -4.934  1.00  0.00     0.326 C 
ATOM     66  O   UNL     1       3.070  -5.123  -4.959  1.00  0.00    -0.250 OA
BRANCH  65  67
ATOM     67  O   UNL     1       1.725  -3.654  -3.963  1.00  0.00    -0.480 OA
ATOM     68  H   UNL     1       1.420  -4.519  -3.613  1.00  0.00     0.296 HD
ENDBRANCH  65  67
ENDBRANCH  49  65
ENDBRANCH  47  49
ENDBRANCH  43  45
ENDBRANCH   1  43
BRANCH   1  69
ATOM     69  C   UNL     1       0.990   1.318  -2.842  1.00  0.00    -0.001 C 
ATOM     70  C   UNL     1       0.112   0.740  -2.004  1.00  0.00     0.001 C 
BRANCH  70  71
ATOM     71  C   UNL     1      -1.092   1.349  -1.435  1.00  0.00    -0.055 C 
ATOM     72  C   UNL     1      -1.271   2.674  -1.615  1.00  0.00    -0.018 C 
ATOM     73  C   UNL     1      -2.051   0.451  -0.696  1.00  0.00     0.044 C 
BRANCH  72  74
ATOM     74  C   UNL     1      -2.412   3.565  -1.146  1.00  0.00     0.038 C 
ATOM     75  C   UNL     1      -2.966   4.281  -2.384  1.00  0.00     0.015 C 
BRANCH  74  76
ATOM     76  C   UNL     1      -1.883   4.510  -0.027  1.00  0.00     0.128 C 
BRANCH  76  77
ATOM     77  O   UNL     1      -2.759   5.642   0.114  1.00  0.00    -0.381 OA
ATOM     78  C   UNL     1      -2.094   6.894   0.008  1.00  0.00     0.195 C 
ENDBRANCH  76  77
BRANCH  76  79
ATOM     79  C   UNL     1      -1.605   3.797   1.320  1.00  0.00     0.068 C 
BRANCH  79  80
ATOM     80  C   UNL     1      -0.183   3.775   1.828  1.00  0.00    -0.045 A 
ATOM     81  C   UNL     1       0.561   2.588   1.841  1.00  0.00     0.004 A 
ATOM     82  C   UNL     1       0.408   4.947   2.323  1.00  0.00     0.004 A 
ATOM     83  C   UNL     1       1.870   2.573   2.326  1.00  0.00     0.000 A 
ATOM     84  C   UNL     1       1.718   4.931   2.808  1.00  0.00     0.000 A 
ATOM     85  C   UNL     1       2.449   3.745   2.808  1.00  0.00     0.000 A 
ENDBRANCH  79  80
ENDBRANCH  76  79
ENDBRANCH  74  76
ENDBRANCH  72  74
ENDBRANCH  70  71
ENDBRANCH   1  69
TORSDOF 17
ENDMDL
MODEL 12
REMARK VINA RESULT:    -6.127      4.891     11.500
REMARK INTER + INTRA:         -25.585
REMARK INTER:                 -19.471
REMARK INTRA:                  -6.114
REMARK UNBOUND:                -7.281
REMARK SMILES C=C1C(=O)N[C@H](C)C(=O)N[C@@H](CC(C)C)C(=O)N[C@@H](C(=O)O)[C@H](C)C(=O)N[C@@H](CCCN=C(N)N)C(=O)N[C@@H](/C=C/C(C)=C/[C@H](C)[C@H](Cc2ccccc2)OC)[C@H](C)C(=O)N[C@@H](C(=O)O)CCC(=O)N1C
REMARK SMILES IDX 39 1 38 2 37 3 36 4 28 6 27 7 25 8 26 9 23 11 24 12 19 13
REMARK SMILES IDX 18 14 16 15 17 16 11 18 10 19 8 20 9 21 12 24 13 25 14 26
REMARK SMILES IDX 15 27 20 28 21 29 22 30 29 32 30 33 31 34 32 35 33 36 34 37
REMARK SMILES IDX 35 38 57 43 58 44 59 45 60 46 61 47 62 49 66 50 67 51 68 52
REMARK SMILES IDX 69 53 70 54 71 55 2 56 1 57 3 58 4 59 5 60 6 62 7 63 63 65
REMARK SMILES IDX 64 66 65 67 40 69 41 70 42 71 44 72 43 73 45 74 46 75 47 76
REMARK SMILES IDX 55 77 56 78 48 79 49 80 50 81 54 82 51 83 53 84 52 85
REMARK H PARENT 38 5 27 10 18 17 10 22 22 31 34 39 34 40 35 41 35 42 61 48
REMARK H PARENT 5 61 65 68
REMARK Flexibility Score:  369.900
ROOT
ATOM      1  C   UNL     1       1.638   1.407  -1.181  1.00  0.00     0.117 C 
ENDROOT
BRANCH   1   2
ATOM      2  N   UNL     1       2.933   2.013  -0.868  1.00  0.00    -0.347 N 
ATOM      3  O   UNL     1       4.134   0.073  -0.617  1.00  0.00    -0.273 OA
ATOM      4  C   UNL     1       4.102   1.296  -0.701  1.00  0.00     0.243 C 
ATOM      5  H   UNL     1       3.009   3.017  -0.816  1.00  0.00     0.164 HD
BRANCH   4   6
ATOM      6  C   UNL     1       5.349   2.184  -0.464  1.00  0.00     0.171 C 
BRANCH   6   7
ATOM      7  N   UNL     1       6.458   1.756  -1.331  1.00  0.00    -0.344 N 
ATOM      8  C   UNL     1       7.474   0.968  -0.835  1.00  0.00     0.226 C 
ATOM      9  O   UNL     1       7.519   0.608   0.335  1.00  0.00    -0.275 OA
ATOM     10  H   UNL     1       6.491   2.089  -2.286  1.00  0.00     0.164 HD
BRANCH   8  11
ATOM     11  C   UNL     1       8.514   0.565  -1.867  1.00  0.00     0.109 C 
ATOM     12  C   UNL     1       7.956   0.756  -3.277  1.00  0.00     0.021 C 
BRANCH  11  13
ATOM     13  C   UNL     1       9.838   1.304  -1.587  1.00  0.00     0.204 C 
BRANCH  13  14
ATOM     14  N   UNL     1       9.740   2.193  -0.426  1.00  0.00    -0.340 N 
ATOM     15  C   UNL     1       9.700   3.566  -0.536  1.00  0.00     0.243 C 
ATOM     16  O   UNL     1       9.682   4.141  -1.622  1.00  0.00    -0.273 OA
ATOM     17  H   UNL     1       9.902   1.791   0.502  1.00  0.00     0.164 HD
BRANCH  15  18
ATOM     18  C   UNL     1       9.807   4.299   0.824  1.00  0.00     0.171 C 
BRANCH  18  19
ATOM     19  N   UNL     1      11.226   4.332   1.171  1.00  0.00    -0.343 N 
ATOM     20  C   UNL     1      11.658   4.649   2.445  1.00  0.00     0.242 CG0
ATOM     21  O   UNL     1      10.878   5.046   3.308  1.00  0.00    -0.273 OA
ATOM     22  H   UNL     1      11.917   4.124   0.460  1.00  0.00     0.164 HD
ATOM     23  G   UNL     1      13.185   4.555   2.642  1.00  0.00     0.000 G0
ENDBRANCH  18  19
BRANCH  18  24
ATOM     24  C   UNL     1       9.219   5.712   0.726  1.00  0.00     0.038 C 
BRANCH  24  25
ATOM     25  C   UNL     1       7.743   5.828   1.162  1.00  0.00    -0.015 C 
ATOM     26  C   UNL     1       7.442   7.153   1.864  1.00  0.00     0.007 C 
ATOM     27  C   UNL     1       7.387   4.662   2.089  1.00  0.00     0.007 C 
ENDBRANCH  24  25
ENDBRANCH  18  24
ENDBRANCH  15  18
ENDBRANCH  13  14
BRANCH  13  28
ATOM     28  C   UNL     1      11.016   0.357  -1.336  1.00  0.00     0.327 C 
ATOM     29  O   UNL     1      11.260  -0.231  -0.293  1.00  0.00    -0.250 OA
BRANCH  28  30
ATOM     30  O   UNL     1      11.878   0.300  -2.371  1.00  0.00    -0.480 OA
ATOM     31  H   UNL     1      11.722  -0.583  -2.767  1.00  0.00     0.296 HD
ENDBRANCH  28  30
ENDBRANCH  13  28
ENDBRANCH  11  13
ENDBRANCH   8  11
ENDBRANCH   6   7
BRANCH   6  32
ATOM     32  C   UNL     1       4.982   3.649  -0.728  1.00  0.00     0.037 C 
BRANCH  32  33
ATOM     33  C   UNL     1       6.065   4.382  -1.531  1.00  0.00     0.026 C 
BRANCH  33  34
ATOM     34  C   UNL     1       5.574   4.820  -2.912  1.00  0.00     0.146 C 
BRANCH  34  35
ATOM     35  N   UNL     1       5.532   3.656  -3.786  1.00  0.00    -0.254 NA
ATOM     36  C   UNL     1       4.407   3.307  -4.290  1.00  0.00     0.185 C 
ATOM     37  N   UNL     1       4.357   2.239  -5.102  1.00  0.00    -0.370 N 
ATOM     38  N   UNL     1       3.197   3.872  -4.129  1.00  0.00    -0.370 N 
ATOM     39  H   UNL     1       5.233   1.764  -5.282  1.00  0.00     0.159 HD
ATOM     40  H   UNL     1       3.559   2.008  -5.668  1.00  0.00     0.159 HD
ATOM     41  H   UNL     1       2.363   3.422  -4.467  1.00  0.00     0.159 HD
ATOM     42  H   UNL     1       3.082   4.676  -3.531  1.00  0.00     0.159 HD
ENDBRANCH  34  35
ENDBRANCH  33  34
ENDBRANCH  32  33
ENDBRANCH   6  32
ENDBRANCH   4   6
ENDBRANCH   1   2
BRANCH   1  43
ATOM     43  C   UNL     1       1.462   1.384  -2.727  1.00  0.00     0.102 C 
ATOM     44  C   UNL     1       0.117   1.961  -3.198  1.00  0.00     0.020 C 
BRANCH  43  45
ATOM     45  C   UNL     1       1.777  -0.003  -3.295  1.00  0.00     0.225 C 
ATOM     46  O   UNL     1       2.682  -0.209  -4.099  1.00  0.00    -0.275 OA
ATOM     47  N   UNL     1       0.914  -1.007  -2.919  1.00  0.00    -0.342 N 
ATOM     48  H   UNL     1       0.277  -0.857  -2.150  1.00  0.00     0.164 HD
BRANCH  47  49
ATOM     49  C   UNL     1       1.113  -2.392  -3.358  1.00  0.00     0.192 C 
BRANCH  49  50
ATOM     50  C   UNL     1       0.037  -2.768  -4.380  1.00  0.00     0.047 C 
BRANCH  50  51
ATOM     51  C   UNL     1      -1.369  -2.352  -3.924  1.00  0.00     0.103 C 
BRANCH  51  52
ATOM     52  C   UNL     1      -2.314  -3.547  -3.818  1.00  0.00     0.226 C 
ATOM     53  O   UNL     1      -1.852  -4.679  -3.664  1.00  0.00    -0.275 OA
BRANCH  52  54
ATOM     54  N   UNL     1      -3.692  -3.259  -3.829  1.00  0.00    -0.311 N 
ATOM     55  C   UNL     1      -4.180  -1.908  -4.137  1.00  0.00     0.153 C 
BRANCH  54  56
ATOM     56  C   UNL     1      -4.649  -4.250  -3.552  1.00  0.00     0.102 C 
ATOM     57  C   UNL     1      -5.467  -4.252  -2.487  1.00  0.00     0.043 C 
BRANCH  56  58
ATOM     58  C   UNL     1      -4.863  -5.407  -4.499  1.00  0.00     0.268 C 
ATOM     59  O   UNL     1      -5.412  -5.289  -5.586  1.00  0.00    -0.268 OA
ATOM     60  N   UNL     1      -4.320  -6.585  -4.045  1.00  0.00    -0.339 N 
ATOM     61  H   UNL     1      -3.890  -6.601  -3.128  1.00  0.00     0.164 HD
BRANCH  60  62
ATOM     62  C   UNL     1      -4.359  -7.816  -4.833  1.00  0.00     0.168 CG0
ATOM     63  C   UNL     1      -3.034  -8.048  -5.550  1.00  0.00     0.041 C 
ATOM     64  G   UNL     1      -5.522  -7.746  -5.844  1.00  0.00     0.000 G0
ENDBRANCH  60  62
ENDBRANCH  56  58
ENDBRANCH  54  56
ENDBRANCH  52  54
ENDBRANCH  51  52
ENDBRANCH  50  51
ENDBRANCH  49  50
BRANCH  49  65
ATOM     65  C   UNL     1       1.058  -3.374  -2.177  1.00  0.00     0.326 C 
ATOM     66  O   UNL     1       1.510  -4.509  -2.175  1.00  0.00    -0.250 OA
BRANCH  65  67
ATOM     67  O   UNL     1       0.394  -2.915  -1.092  1.00  0.00    -0.480 OA
ATOM     68  H   UNL     1      -0.072  -3.709  -0.753  1.00  0.00     0.296 HD
ENDBRANCH  65  67
ENDBRANCH  49  65
ENDBRANCH  47  49
ENDBRANCH  43  45
ENDBRANCH   1  43
BRANCH   1  69
ATOM     69  C   UNL     1       0.612   2.141  -0.337  1.00  0.00    -0.001 C 
ATOM     70  C   UNL     1      -0.585   1.686   0.073  1.00  0.00     0.001 C 
BRANCH  70  71
ATOM     71  C   UNL     1      -1.558   2.396   0.905  1.00  0.00    -0.055 C 
ATOM     72  C   UNL     1      -1.178   2.750   2.151  1.00  0.00    -0.018 C 
ATOM     73  C   UNL     1      -2.911   2.688   0.310  1.00  0.00     0.044 C 
BRANCH  72  74
ATOM     74  C   UNL     1      -1.965   3.489   3.225  1.00  0.00     0.038 C 
ATOM     75  C   UNL     1      -3.328   2.796   3.344  1.00  0.00     0.015 C 
BRANCH  74  76
ATOM     76  C   UNL     1      -2.031   4.998   2.848  1.00  0.00     0.128 C 
BRANCH  76  77
ATOM     77  O   UNL     1      -2.188   5.794   4.035  1.00  0.00    -0.381 OA
ATOM     78  C   UNL     1      -3.119   6.857   3.891  1.00  0.00     0.195 C 
ENDBRANCH  76  77
BRANCH  76  79
ATOM     79  C   UNL     1      -0.857   5.476   1.957  1.00  0.00     0.068 C 
BRANCH  79  80
ATOM     80  C   UNL     1       0.484   5.699   2.614  1.00  0.00    -0.045 A 
ATOM     81  C   UNL     1       0.776   6.903   3.269  1.00  0.00     0.004 A 
ATOM     82  C   UNL     1       1.475   4.707   2.554  1.00  0.00     0.004 A 
ATOM     83  C   UNL     1       2.024   7.107   3.861  1.00  0.00     0.000 A 
ATOM     84  C   UNL     1       2.723   4.913   3.147  1.00  0.00     0.000 A 
ATOM     85  C   UNL     1       2.996   6.111   3.801  1.00  0.00     0.000 A 
ENDBRANCH  79  80
ENDBRANCH  76  79
ENDBRANCH  74  76
ENDBRANCH  72  74
ENDBRANCH  70  71
ENDBRANCH   1  69
TORSDOF 17
ENDMDL
MODEL 13
REMARK VINA RESULT:    -6.124      2.979      8.319
REMARK INTER + INTRA:         -25.576
REMARK INTER:                 -18.187
REMARK INTRA:                  -7.389
REMARK UNBOUND:                -7.281
REMARK SMILES C=C1C(=O)N[C@H](C)C(=O)N[C@@H](CC(C)C)C(=O)N[C@@H](C(=O)O)[C@H](C)C(=O)N[C@@H](CCCN=C(N)N)C(=O)N[C@@H](/C=C/C(C)=C/[C@H](C)[C@H](Cc2ccccc2)OC)[C@H](C)C(=O)N[C@@H](C(=O)O)CCC(=O)N1C
REMARK SMILES IDX 39 1 38 2 37 3 36 4 28 6 27 7 25 8 26 9 23 11 24 12 19 13
REMARK SMILES IDX 18 14 16 15 17 16 11 18 10 19 8 20 9 21 12 24 13 25 14 26
REMARK SMILES IDX 15 27 20 28 21 29 22 30 29 32 30 33 31 34 32 35 33 36 34 37
REMARK SMILES IDX 35 38 57 43 58 44 59 45 60 46 61 47 62 49 66 50 67 51 68 52
REMARK SMILES IDX 69 53 70 54 71 55 2 56 1 57 3 58 4 59 5 60 6 62 7 63 63 65
REMARK SMILES IDX 64 66 65 67 40 69 41 70 42 71 44 72 43 73 45 74 46 75 47 76
REMARK SMILES IDX 55 77 56 78 48 79 49 80 50 81 54 82 51 83 53 84 52 85
REMARK H PARENT 38 5 27 10 18 17 10 22 22 31 34 39 34 40 35 41 35 42 61 48
REMARK H PARENT 5 61 65 68
REMARK Flexibility Score:  369.900
ROOT
ATOM      1  C   UNL     1       8.116   0.879  -6.218  1.00  0.00     0.117 C 
ENDROOT
BRANCH   1   2
ATOM      2  N   UNL     1       6.667   1.054  -6.109  1.00  0.00    -0.347 N 
ATOM      3  O   UNL     1       6.091  -1.167  -6.015  1.00  0.00    -0.273 OA
ATOM      4  C   UNL     1       5.775   0.015  -5.923  1.00  0.00     0.243 C 
ATOM      5  H   UNL     1       6.279   1.985  -6.117  1.00  0.00     0.164 HD
BRANCH   4   6
ATOM      6  C   UNL     1       4.306   0.478  -5.752  1.00  0.00     0.171 C 
BRANCH   6   7
ATOM      7  N   UNL     1       3.443  -0.664  -5.411  1.00  0.00    -0.344 N 
ATOM      8  C   UNL     1       2.366  -0.992  -6.205  1.00  0.00     0.226 C 
ATOM      9  O   UNL     1       2.061  -0.350  -7.203  1.00  0.00    -0.275 OA
ATOM     10  H   UNL     1       3.623  -1.177  -4.557  1.00  0.00     0.164 HD
BRANCH   8  11
ATOM     11  C   UNL     1       1.607  -2.227  -5.751  1.00  0.00     0.109 C 
ATOM     12  C   UNL     1       0.107  -2.034  -5.972  1.00  0.00     0.021 C 
BRANCH  11  13
ATOM     13  C   UNL     1       2.205  -3.481  -6.419  1.00  0.00     0.204 C 
BRANCH  13  14
ATOM     14  N   UNL     1       2.861  -3.168  -7.692  1.00  0.00    -0.340 N 
ATOM     15  C   UNL     1       2.225  -3.284  -8.909  1.00  0.00     0.243 C 
ATOM     16  O   UNL     1       1.041  -3.601  -9.008  1.00  0.00    -0.273 OA
ATOM     17  H   UNL     1       3.877  -3.048  -7.692  1.00  0.00     0.164 HD
BRANCH  15  18
ATOM     18  C   UNL     1       3.172  -3.103 -10.121  1.00  0.00     0.171 C 
BRANCH  18  19
ATOM     19  N   UNL     1       2.569  -3.831 -11.236  1.00  0.00    -0.343 N 
ATOM     20  C   UNL     1       3.330  -4.344 -12.268  1.00  0.00     0.242 CG0
ATOM     21  O   UNL     1       4.530  -4.098 -12.367  1.00  0.00    -0.273 OA
ATOM     22  H   UNL     1       1.564  -3.961 -11.259  1.00  0.00     0.164 HD
ATOM     23  G   UNL     1       2.528  -5.149 -13.312  1.00  0.00     0.000 G0
ENDBRANCH  18  19
BRANCH  18  24
ATOM     24  C   UNL     1       3.350  -1.616 -10.452  1.00  0.00     0.038 C 
BRANCH  24  25
ATOM     25  C   UNL     1       4.794  -1.092 -10.308  1.00  0.00    -0.015 C 
ATOM     26  C   UNL     1       5.728  -2.119  -9.668  1.00  0.00     0.007 C 
ATOM     27  C   UNL     1       4.795   0.193  -9.477  1.00  0.00     0.007 C 
ENDBRANCH  24  25
ENDBRANCH  18  24
ENDBRANCH  15  18
ENDBRANCH  13  14
BRANCH  13  28
ATOM     28  C   UNL     1       3.236  -4.198  -5.542  1.00  0.00     0.327 C 
ATOM     29  O   UNL     1       3.010  -5.104  -4.754  1.00  0.00    -0.250 OA
BRANCH  28  30
ATOM     30  O   UNL     1       4.467  -3.654  -5.620  1.00  0.00    -0.480 OA
ATOM     31  H   UNL     1       5.047  -4.304  -5.172  1.00  0.00     0.296 HD
ENDBRANCH  28  30
ENDBRANCH  13  28
ENDBRANCH  11  13
ENDBRANCH   8  11
ENDBRANCH   6   7
BRANCH   6  32
ATOM     32  C   UNL     1       4.242   1.557  -4.665  1.00  0.00     0.037 C 
BRANCH  32  33
ATOM     33  C   UNL     1       2.807   2.035  -4.408  1.00  0.00     0.026 C 
BRANCH  33  34
ATOM     34  C   UNL     1       2.348   1.765  -2.974  1.00  0.00     0.146 C 
BRANCH  34  35
ATOM     35  N   UNL     1       1.773   0.428  -2.909  1.00  0.00    -0.254 NA
ATOM     36  C   UNL     1       1.877  -0.233  -1.816  1.00  0.00     0.185 C 
ATOM     37  N   UNL     1       1.346  -1.463  -1.744  1.00  0.00    -0.370 N 
ATOM     38  N   UNL     1       2.465   0.130  -0.663  1.00  0.00    -0.370 N 
ATOM     39  H   UNL     1       0.875  -1.805  -2.572  1.00  0.00     0.159 HD
ATOM     40  H   UNL     1       1.233  -1.970  -0.883  1.00  0.00     0.159 HD
ATOM     41  H   UNL     1       2.603  -0.533   0.082  1.00  0.00     0.159 HD
ATOM     42  H   UNL     1       2.920   1.025  -0.578  1.00  0.00     0.159 HD
ENDBRANCH  34  35
ENDBRANCH  33  34
ENDBRANCH  32  33
ENDBRANCH   6  32
ENDBRANCH   4   6
ENDBRANCH   1   2
BRANCH   1  43
ATOM     43  C   UNL     1       8.802   1.729  -5.109  1.00  0.00     0.102 C 
ATOM     44  C   UNL     1      10.160   2.311  -5.537  1.00  0.00     0.020 C 
BRANCH  43  45
ATOM     45  C   UNL     1       8.843   0.968  -3.780  1.00  0.00     0.225 C 
ATOM     46  O   UNL     1       8.344  -0.143  -3.628  1.00  0.00    -0.275 OA
ATOM     47  N   UNL     1       9.399   1.653  -2.723  1.00  0.00    -0.342 N 
ATOM     48  H   UNL     1       9.935   2.491  -2.897  1.00  0.00     0.164 HD
BRANCH  47  49
ATOM     49  C   UNL     1       9.537   1.037  -1.400  1.00  0.00     0.192 C 
BRANCH  49  50
ATOM     50  C   UNL     1       9.556   2.127  -0.325  1.00  0.00     0.047 C 
BRANCH  50  51
ATOM     51  C   UNL     1      10.162   3.440  -0.839  1.00  0.00     0.103 C 
BRANCH  51  52
ATOM     52  C   UNL     1       9.925   4.598   0.129  1.00  0.00     0.226 C 
ATOM     53  O   UNL     1       8.810   5.120   0.193  1.00  0.00    -0.275 OA
BRANCH  52  54
ATOM     54  N   UNL     1      11.005   4.952   0.959  1.00  0.00    -0.311 N 
ATOM     55  C   UNL     1      12.374   5.018   0.431  1.00  0.00     0.153 C 
BRANCH  54  56
ATOM     56  C   UNL     1      10.814   5.261   2.316  1.00  0.00     0.102 C 
ATOM     57  C   UNL     1      10.901   4.378   3.324  1.00  0.00     0.043 C 
BRANCH  56  58
ATOM     58  C   UNL     1      10.531   6.678   2.757  1.00  0.00     0.268 C 
ATOM     59  O   UNL     1      11.291   7.611   2.537  1.00  0.00    -0.268 OA
ATOM     60  N   UNL     1       9.308   6.820   3.367  1.00  0.00    -0.339 N 
ATOM     61  H   UNL     1       8.742   5.994   3.521  1.00  0.00     0.164 HD
BRANCH  60  62
ATOM     62  C   UNL     1       8.808   8.118   3.816  1.00  0.00     0.168 CG0
ATOM     63  C   UNL     1       7.940   8.769   2.746  1.00  0.00     0.041 C 
ATOM     64  G   UNL     1       9.995   9.030   4.186  1.00  0.00     0.000 G0
ENDBRANCH  60  62
ENDBRANCH  56  58
ENDBRANCH  54  56
ENDBRANCH  52  54
ENDBRANCH  51  52
ENDBRANCH  50  51
ENDBRANCH  49  50
BRANCH  49  65
ATOM     65  C   UNL     1      10.820   0.198  -1.297  1.00  0.00     0.326 C 
ATOM     66  O   UNL     1      11.719   0.169  -2.125  1.00  0.00    -0.250 OA
BRANCH  65  67
ATOM     67  O   UNL     1      10.886  -0.600  -0.208  1.00  0.00    -0.480 OA
ATOM     68  H   UNL     1       9.975  -0.571   0.156  1.00  0.00     0.296 HD
ENDBRANCH  65  67
ENDBRANCH  49  65
ENDBRANCH  47  49
ENDBRANCH  43  45
ENDBRANCH   1  43
BRANCH   1  69
ATOM     69  C   UNL     1       8.467   1.148  -7.670  1.00  0.00    -0.001 C 
ATOM     70  C   UNL     1       8.741   0.242  -8.625  1.00  0.00     0.001 C 
BRANCH  70  71
ATOM     71  C   UNL     1       9.058   0.512 -10.029  1.00  0.00    -0.055 C 
ATOM     72  C   UNL     1       8.204   0.047 -10.966  1.00  0.00    -0.018 C 
ATOM     73  C   UNL     1      10.308   1.297 -10.329  1.00  0.00     0.044 C 
BRANCH  72  74
ATOM     74  C   UNL     1       8.273   0.177 -12.481  1.00  0.00     0.038 C 
ATOM     75  C   UNL     1       7.143   1.124 -12.905  1.00  0.00     0.015 C 
BRANCH  74  76
ATOM     76  C   UNL     1       8.203  -1.246 -13.109  1.00  0.00     0.128 C 
BRANCH  76  77
ATOM     77  O   UNL     1       8.131  -1.147 -14.541  1.00  0.00    -0.381 OA
ATOM     78  C   UNL     1       9.314  -0.632 -15.139  1.00  0.00     0.195 C 
ENDBRANCH  76  77
BRANCH  76  79
ATOM     79  C   UNL     1       9.326  -2.201 -12.630  1.00  0.00     0.068 C 
BRANCH  79  80
ATOM     80  C   UNL     1       9.336  -3.609 -13.174  1.00  0.00    -0.045 A 
ATOM     81  C   UNL     1       8.313  -4.512 -12.858  1.00  0.00     0.004 A 
ATOM     82  C   UNL     1      10.393  -4.045 -13.987  1.00  0.00     0.004 A 
ATOM     83  C   UNL     1       8.337  -5.818 -13.353  1.00  0.00     0.000 A 
ATOM     84  C   UNL     1      10.416  -5.351 -14.482  1.00  0.00     0.000 A 
ATOM     85  C   UNL     1       9.388  -6.236 -14.166  1.00  0.00     0.000 A 
ENDBRANCH  79  80
ENDBRANCH  76  79
ENDBRANCH  74  76
ENDBRANCH  72  74
ENDBRANCH  70  71
ENDBRANCH   1  69
TORSDOF 17
ENDMDL
MODEL 14
REMARK VINA RESULT:    -6.037      2.743     11.783
REMARK INTER + INTRA:         -25.317
REMARK INTER:                 -19.162
REMARK INTRA:                  -6.154
REMARK UNBOUND:                -7.281
REMARK SMILES C=C1C(=O)N[C@H](C)C(=O)N[C@@H](CC(C)C)C(=O)N[C@@H](C(=O)O)[C@H](C)C(=O)N[C@@H](CCCN=C(N)N)C(=O)N[C@@H](/C=C/C(C)=C/[C@H](C)[C@H](Cc2ccccc2)OC)[C@H](C)C(=O)N[C@@H](C(=O)O)CCC(=O)N1C
REMARK SMILES IDX 39 1 38 2 37 3 36 4 28 6 27 7 25 8 26 9 23 11 24 12 19 13
REMARK SMILES IDX 18 14 16 15 17 16 11 18 10 19 8 20 9 21 12 24 13 25 14 26
REMARK SMILES IDX 15 27 20 28 21 29 22 30 29 32 30 33 31 34 32 35 33 36 34 37
REMARK SMILES IDX 35 38 57 43 58 44 59 45 60 46 61 47 62 49 66 50 67 51 68 52
REMARK SMILES IDX 69 53 70 54 71 55 2 56 1 57 3 58 4 59 5 60 6 62 7 63 63 65
REMARK SMILES IDX 64 66 65 67 40 69 41 70 42 71 44 72 43 73 45 74 46 75 47 76
REMARK SMILES IDX 55 77 56 78 48 79 49 80 50 81 54 82 51 83 53 84 52 85
REMARK H PARENT 38 5 27 10 18 17 10 22 22 31 34 39 34 40 35 41 35 42 61 48
REMARK H PARENT 5 61 65 68
REMARK Flexibility Score:  369.900
ROOT
ATOM      1  C   UNL     1       6.837   1.572  -4.291  1.00  0.00     0.117 C 
ENDROOT
BRANCH   1   2
ATOM      2  N   UNL     1       7.101   2.636  -3.322  1.00  0.00    -0.347 N 
ATOM      3  O   UNL     1       8.053   1.340  -1.685  1.00  0.00    -0.273 OA
ATOM      4  C   UNL     1       7.773   2.448  -2.130  1.00  0.00     0.243 C 
ATOM      5  H   UNL     1       6.827   3.582  -3.540  1.00  0.00     0.164 HD
BRANCH   4   6
ATOM      6  C   UNL     1       7.997   3.755  -1.327  1.00  0.00     0.171 C 
BRANCH   6   7
ATOM      7  N   UNL     1       6.941   3.924  -0.316  1.00  0.00    -0.344 N 
ATOM      8  C   UNL     1       5.829   4.692  -0.583  1.00  0.00     0.226 C 
ATOM      9  O   UNL     1       5.673   5.282  -1.646  1.00  0.00    -0.275 OA
ATOM     10  H   UNL     1       7.066   3.507   0.598  1.00  0.00     0.164 HD
BRANCH   8  11
ATOM     11  C   UNL     1       4.806   4.723   0.539  1.00  0.00     0.109 C 
ATOM     12  C   UNL     1       3.963   3.449   0.518  1.00  0.00     0.021 C 
BRANCH  11  13
ATOM     13  C   UNL     1       5.511   5.012   1.879  1.00  0.00     0.204 C 
BRANCH  13  14
ATOM     14  N   UNL     1       6.552   6.036   1.745  1.00  0.00    -0.340 N 
ATOM     15  C   UNL     1       7.652   6.098   2.574  1.00  0.00     0.243 C 
ATOM     16  O   UNL     1       7.869   5.261   3.447  1.00  0.00    -0.273 OA
ATOM     17  H   UNL     1       6.358   6.843   1.146  1.00  0.00     0.164 HD
BRANCH  15  18
ATOM     18  C   UNL     1       8.501   7.379   2.379  1.00  0.00     0.171 C 
BRANCH  18  19
ATOM     19  N   UNL     1       8.574   8.035   3.683  1.00  0.00    -0.343 N 
ATOM     20  C   UNL     1       8.377   9.395   3.827  1.00  0.00     0.242 CG0
ATOM     21  O   UNL     1       8.264  10.135   2.853  1.00  0.00    -0.273 OA
ATOM     22  H   UNL     1       8.780   7.482   4.508  1.00  0.00     0.164 HD
ATOM     23  G   UNL     1       8.414   9.892   5.287  1.00  0.00     0.000 G0
ENDBRANCH  18  19
BRANCH  18  24
ATOM     24  C   UNL     1       9.896   7.027   1.848  1.00  0.00     0.038 C 
BRANCH  24  25
ATOM     25  C   UNL     1      10.232   7.633   0.469  1.00  0.00    -0.015 C 
ATOM     26  C   UNL     1      10.768   9.061   0.571  1.00  0.00     0.007 C 
ATOM     27  C   UNL     1       8.985   7.613  -0.419  1.00  0.00     0.007 C 
ENDBRANCH  24  25
ENDBRANCH  18  24
ENDBRANCH  15  18
ENDBRANCH  13  14
BRANCH  13  28
ATOM     28  C   UNL     1       4.552   5.481   2.978  1.00  0.00     0.327 C 
ATOM     29  O   UNL     1       3.828   4.769   3.657  1.00  0.00    -0.250 OA
BRANCH  28  30
ATOM     30  O   UNL     1       4.474   6.824   3.074  1.00  0.00    -0.480 OA
ATOM     31  H   UNL     1       5.402   7.126   2.989  1.00  0.00     0.296 HD
ENDBRANCH  28  30
ENDBRANCH  13  28
ENDBRANCH  11  13
ENDBRANCH   8  11
ENDBRANCH   6   7
BRANCH   6  32
ATOM     32  C   UNL     1       9.381   3.712  -0.671  1.00  0.00     0.037 C 
BRANCH  32  33
ATOM     33  C   UNL     1      10.501   4.070  -1.658  1.00  0.00     0.026 C 
BRANCH  33  34
ATOM     34  C   UNL     1      11.509   2.934  -1.838  1.00  0.00     0.146 C 
BRANCH  34  35
ATOM     35  N   UNL     1      11.264   1.924  -0.818  1.00  0.00    -0.254 NA
ATOM     36  C   UNL     1      11.107   0.706  -1.184  1.00  0.00     0.185 C 
ATOM     37  N   UNL     1      10.886  -0.234  -0.252  1.00  0.00    -0.370 N 
ATOM     38  N   UNL     1      11.131   0.187  -2.424  1.00  0.00    -0.370 N 
ATOM     39  H   UNL     1      10.864   0.078   0.711  1.00  0.00     0.159 HD
ATOM     40  H   UNL     1      10.927  -1.221  -0.437  1.00  0.00     0.159 HD
ATOM     41  H   UNL     1      10.856  -0.766  -2.596  1.00  0.00     0.159 HD
ATOM     42  H   UNL     1      11.273   0.782  -3.226  1.00  0.00     0.159 HD
ENDBRANCH  34  35
ENDBRANCH  33  34
ENDBRANCH  32  33
ENDBRANCH   6  32
ENDBRANCH   4   6
ENDBRANCH   1   2
BRANCH   1  43
ATOM     43  C   UNL     1       7.455   1.982  -5.659  1.00  0.00     0.102 C 
ATOM     44  C   UNL     1       6.614   3.018  -6.424  1.00  0.00     0.020 C 
BRANCH  43  45
ATOM     45  C   UNL     1       7.826   0.749  -6.487  1.00  0.00     0.225 C 
ATOM     46  O   UNL     1       8.624  -0.102  -6.103  1.00  0.00    -0.275 OA
ATOM     47  N   UNL     1       7.275   0.694  -7.747  1.00  0.00    -0.342 N 
ATOM     48  H   UNL     1       6.513   1.311  -7.987  1.00  0.00     0.164 HD
BRANCH  47  49
ATOM     49  C   UNL     1       7.513  -0.446  -8.638  1.00  0.00     0.192 C 
BRANCH  49  50
ATOM     50  C   UNL     1       6.744  -1.667  -8.129  1.00  0.00     0.047 C 
BRANCH  50  51
ATOM     51  C   UNL     1       5.982  -2.385  -9.251  1.00  0.00     0.103 C 
BRANCH  51  52
ATOM     52  C   UNL     1       6.900  -3.268 -10.093  1.00  0.00     0.226 C 
ATOM     53  O   UNL     1       7.513  -4.195  -9.559  1.00  0.00    -0.275 OA
BRANCH  52  54
ATOM     54  N   UNL     1       6.929  -3.005 -11.475  1.00  0.00    -0.311 N 
ATOM     55  C   UNL     1       6.324  -1.784 -12.025  1.00  0.00     0.153 C 
BRANCH  54  56
ATOM     56  C   UNL     1       7.540  -3.892 -12.377  1.00  0.00     0.102 C 
ATOM     57  C   UNL     1       6.904  -4.867 -13.046  1.00  0.00     0.043 C 
BRANCH  56  58
ATOM     58  C   UNL     1       9.011  -3.774 -12.704  1.00  0.00     0.268 C 
ATOM     59  O   UNL     1       9.825  -3.260 -11.949  1.00  0.00    -0.268 OA
ATOM     60  N   UNL     1       9.346  -4.360 -13.901  1.00  0.00    -0.339 N 
ATOM     61  H   UNL     1       8.610  -4.755 -14.474  1.00  0.00     0.164 HD
BRANCH  60  62
ATOM     62  C   UNL     1      10.727  -4.415 -14.381  1.00  0.00     0.168 CG0
ATOM     63  C   UNL     1      10.891  -3.616 -15.668  1.00  0.00     0.041 C 
ATOM     64  G   UNL     1      11.141  -5.886 -14.595  1.00  0.00     0.000 G0
ENDBRANCH  60  62
ENDBRANCH  56  58
ENDBRANCH  54  56
ENDBRANCH  52  54
ENDBRANCH  51  52
ENDBRANCH  50  51
ENDBRANCH  49  50
BRANCH  49  65
ATOM     65  C   UNL     1       9.008  -0.789  -8.732  1.00  0.00     0.326 C 
ATOM     66  O   UNL     1       9.858  -0.116  -9.297  1.00  0.00    -0.250 OA
BRANCH  65  67
ATOM     67  O   UNL     1       9.351  -1.972  -8.175  1.00  0.00    -0.480 OA
ATOM     68  H   UNL     1       9.860  -2.422  -8.884  1.00  0.00     0.296 HD
ENDBRANCH  65  67
ENDBRANCH  49  65
ENDBRANCH  47  49
ENDBRANCH  43  45
ENDBRANCH   1  43
BRANCH   1  69
ATOM     69  C   UNL     1       5.347   1.289  -4.215  1.00  0.00    -0.001 C 
ATOM     70  C   UNL     1       4.436   1.911  -3.446  1.00  0.00     0.001 C 
BRANCH  70  71
ATOM     71  C   UNL     1       2.997   1.644  -3.397  1.00  0.00    -0.055 C 
ATOM     72  C   UNL     1       2.541   0.846  -2.409  1.00  0.00    -0.018 C 
ATOM     73  C   UNL     1       2.127   2.284  -4.447  1.00  0.00     0.044 C 
BRANCH  72  74
ATOM     74  C   UNL     1       1.116   0.401  -2.110  1.00  0.00     0.038 C 
ATOM     75  C   UNL     1       0.804   0.820  -0.668  1.00  0.00     0.015 C 
BRANCH  74  76
ATOM     76  C   UNL     1       0.999  -1.127  -2.386  1.00  0.00     0.128 C 
BRANCH  76  77
ATOM     77  O   UNL     1       0.116  -1.733  -1.427  1.00  0.00    -0.381 OA
ATOM     78  C   UNL     1      -1.154  -2.080  -1.962  1.00  0.00     0.195 C 
ENDBRANCH  76  77
BRANCH  76  79
ATOM     79  C   UNL     1       0.627  -1.476  -3.849  1.00  0.00     0.068 C 
BRANCH  79  80
ATOM     80  C   UNL     1       1.703  -2.055  -4.734  1.00  0.00    -0.045 A 
ATOM     81  C   UNL     1       2.409  -1.248  -5.637  1.00  0.00     0.004 A 
ATOM     82  C   UNL     1       1.996  -3.427  -4.686  1.00  0.00     0.004 A 
ATOM     83  C   UNL     1       3.393  -1.795  -6.462  1.00  0.00     0.000 A 
ATOM     84  C   UNL     1       2.981  -3.972  -5.512  1.00  0.00     0.000 A 
ATOM     85  C   UNL     1       3.680  -3.157  -6.398  1.00  0.00     0.000 A 
ENDBRANCH  79  80
ENDBRANCH  76  79
ENDBRANCH  74  76
ENDBRANCH  72  74
ENDBRANCH  70  71
ENDBRANCH   1  69
TORSDOF 17
ENDMDL
MODEL 15
REMARK VINA RESULT:    -6.035      5.010     11.255
REMARK INTER + INTRA:         -25.311
REMARK INTER:                 -18.119
REMARK INTRA:                  -7.192
REMARK UNBOUND:                -7.281
REMARK SMILES C=C1C(=O)N[C@H](C)C(=O)N[C@@H](CC(C)C)C(=O)N[C@@H](C(=O)O)[C@H](C)C(=O)N[C@@H](CCCN=C(N)N)C(=O)N[C@@H](/C=C/C(C)=C/[C@H](C)[C@H](Cc2ccccc2)OC)[C@H](C)C(=O)N[C@@H](C(=O)O)CCC(=O)N1C
REMARK SMILES IDX 39 1 38 2 37 3 36 4 28 6 27 7 25 8 26 9 23 11 24 12 19 13
REMARK SMILES IDX 18 14 16 15 17 16 11 18 10 19 8 20 9 21 12 24 13 25 14 26
REMARK SMILES IDX 15 27 20 28 21 29 22 30 29 32 30 33 31 34 32 35 33 36 34 37
REMARK SMILES IDX 35 38 57 43 58 44 59 45 60 46 61 47 62 49 66 50 67 51 68 52
REMARK SMILES IDX 69 53 70 54 71 55 2 56 1 57 3 58 4 59 5 60 6 62 7 63 63 65
REMARK SMILES IDX 64 66 65 67 40 69 41 70 42 71 44 72 43 73 45 74 46 75 47 76
REMARK SMILES IDX 55 77 56 78 48 79 49 80 50 81 54 82 51 83 53 84 52 85
REMARK H PARENT 38 5 27 10 18 17 10 22 22 31 34 39 34 40 35 41 35 42 61 48
REMARK H PARENT 5 61 65 68
REMARK Flexibility Score:  369.900
ROOT
ATOM      1  C   UNL     1       1.464   1.436  -0.968  1.00  0.00     0.117 C 
ENDROOT
BRANCH   1   2
ATOM      2  N   UNL     1       2.785   2.044  -0.805  1.00  0.00    -0.347 N 
ATOM      3  O   UNL     1       3.984   0.110  -0.498  1.00  0.00    -0.273 OA
ATOM      4  C   UNL     1       3.957   1.324  -0.674  1.00  0.00     0.243 C 
ATOM      5  H   UNL     1       2.875   3.048  -0.837  1.00  0.00     0.164 HD
BRANCH   4   6
ATOM      6  C   UNL     1       5.228   2.208  -0.603  1.00  0.00     0.171 C 
BRANCH   6   7
ATOM      7  N   UNL     1       6.310   1.618  -1.407  1.00  0.00    -0.344 N 
ATOM      8  C   UNL     1       7.326   0.908  -0.804  1.00  0.00     0.226 C 
ATOM      9  O   UNL     1       7.393   0.753   0.410  1.00  0.00    -0.275 OA
ATOM     10  H   UNL     1       6.326   1.782  -2.406  1.00  0.00     0.164 HD
BRANCH   8  11
ATOM     11  C   UNL     1       8.336   0.317  -1.771  1.00  0.00     0.109 C 
ATOM     12  C   UNL     1       7.733   0.230  -3.173  1.00  0.00     0.021 C 
BRANCH  11  13
ATOM     13  C   UNL     1       9.662   1.098  -1.683  1.00  0.00     0.204 C 
BRANCH  13  14
ATOM     14  N   UNL     1       9.661   2.064  -0.581  1.00  0.00    -0.340 N 
ATOM     15  C   UNL     1      10.423   3.212  -0.591  1.00  0.00     0.243 C 
ATOM     16  O   UNL     1      11.113   3.539  -1.555  1.00  0.00    -0.273 OA
ATOM     17  H   UNL     1       9.233   1.782   0.305  1.00  0.00     0.164 HD
BRANCH  15  18
ATOM     18  C   UNL     1      10.420   3.969   0.760  1.00  0.00     0.171 C 
BRANCH  18  19
ATOM     19  N   UNL     1      11.223   5.174   0.567  1.00  0.00    -0.343 N 
ATOM     20  C   UNL     1      12.398   5.388   1.262  1.00  0.00     0.242 CG0
ATOM     21  O   UNL     1      12.752   4.639   2.170  1.00  0.00    -0.273 OA
ATOM     22  H   UNL     1      10.911   5.880  -0.091  1.00  0.00     0.164 HD
ATOM     23  G   UNL     1      13.147   6.677   0.867  1.00  0.00     0.000 G0
ENDBRANCH  18  19
BRANCH  18  24
ATOM     24  C   UNL     1       8.988   4.310   1.187  1.00  0.00     0.038 C 
BRANCH  24  25
ATOM     25  C   UNL     1       8.709   4.151   2.697  1.00  0.00    -0.015 C 
ATOM     26  C   UNL     1       8.776   5.481   3.448  1.00  0.00     0.007 C 
ATOM     27  C   UNL     1       9.712   3.166   3.303  1.00  0.00     0.007 C 
ENDBRANCH  24  25
ENDBRANCH  18  24
ENDBRANCH  15  18
ENDBRANCH  13  14
BRANCH  13  28
ATOM     28  C   UNL     1      10.884   0.194  -1.493  1.00  0.00     0.327 C 
ATOM     29  O   UNL     1      11.622  -0.218  -2.375  1.00  0.00    -0.250 OA
BRANCH  28  30
ATOM     30  O   UNL     1      11.033  -0.233  -0.223  1.00  0.00    -0.480 OA
ATOM     31  H   UNL     1      10.153  -0.592   0.016  1.00  0.00     0.296 HD
ENDBRANCH  28  30
ENDBRANCH  13  28
ENDBRANCH  11  13
ENDBRANCH   8  11
ENDBRANCH   6   7
BRANCH   6  32
ATOM     32  C   UNL     1       4.887   3.619  -1.097  1.00  0.00     0.037 C 
BRANCH  32  33
ATOM     33  C   UNL     1       5.944   4.650  -0.679  1.00  0.00     0.026 C 
BRANCH  33  34
ATOM     34  C   UNL     1       5.402   5.672   0.322  1.00  0.00     0.146 C 
BRANCH  34  35
ATOM     35  N   UNL     1       4.517   4.990   1.256  1.00  0.00    -0.254 NA
ATOM     36  C   UNL     1       4.519   5.358   2.483  1.00  0.00     0.185 C 
ATOM     37  N   UNL     1       3.703   4.740   3.352  1.00  0.00    -0.370 N 
ATOM     38  N   UNL     1       5.248   6.320   3.076  1.00  0.00    -0.370 N 
ATOM     39  H   UNL     1       3.113   4.008   2.979  1.00  0.00     0.159 HD
ATOM     40  H   UNL     1       3.519   5.080   4.280  1.00  0.00     0.159 HD
ATOM     41  H   UNL     1       5.261   6.421   4.078  1.00  0.00     0.159 HD
ATOM     42  H   UNL     1       5.916   6.857   2.546  1.00  0.00     0.159 HD
ENDBRANCH  34  35
ENDBRANCH  33  34
ENDBRANCH  32  33
ENDBRANCH   6  32
ENDBRANCH   4   6
ENDBRANCH   1   2
BRANCH   1  43
ATOM     43  C   UNL     1       1.136   1.366  -2.487  1.00  0.00     0.102 C 
ATOM     44  C   UNL     1      -0.277   1.868  -2.832  1.00  0.00     0.020 C 
BRANCH  43  45
ATOM     45  C   UNL     1       1.458  -0.019  -3.056  1.00  0.00     0.225 C 
ATOM     46  O   UNL     1       2.492  -0.269  -3.669  1.00  0.00    -0.275 OA
ATOM     47  N   UNL     1       0.464  -0.962  -2.920  1.00  0.00    -0.342 N 
ATOM     48  H   UNL     1      -0.306  -0.789  -2.289  1.00  0.00     0.164 HD
BRANCH  47  49
ATOM     49  C   UNL     1       0.646  -2.340  -3.385  1.00  0.00     0.192 C 
BRANCH  49  50
ATOM     50  C   UNL     1      -0.596  -2.791  -4.157  1.00  0.00     0.047 C 
BRANCH  50  51
ATOM     51  C   UNL     1      -1.858  -2.031  -3.724  1.00  0.00     0.103 C 
BRANCH  51  52
ATOM     52  C   UNL     1      -2.773  -1.719  -4.907  1.00  0.00     0.226 C 
ATOM     53  O   UNL     1      -2.511  -2.181  -6.019  1.00  0.00    -0.275 OA
BRANCH  52  54
ATOM     54  N   UNL     1      -3.926  -0.964  -4.625  1.00  0.00    -0.311 N 
ATOM     55  C   UNL     1      -5.088  -1.576  -3.965  1.00  0.00     0.153 C 
BRANCH  54  56
ATOM     56  C   UNL     1      -4.009   0.399  -4.956  1.00  0.00     0.102 C 
ATOM     57  C   UNL     1      -3.963   1.409  -4.071  1.00  0.00     0.043 C 
BRANCH  56  58
ATOM     58  C   UNL     1      -4.114   0.841  -6.396  1.00  0.00     0.268 C 
ATOM     59  O   UNL     1      -3.735   1.936  -6.790  1.00  0.00    -0.268 OA
ATOM     60  N   UNL     1      -4.616  -0.133  -7.225  1.00  0.00    -0.339 N 
ATOM     61  H   UNL     1      -4.918  -1.011  -6.819  1.00  0.00     0.164 HD
BRANCH  60  62
ATOM     62  C   UNL     1      -4.745   0.063  -8.669  1.00  0.00     0.168 CG0
ATOM     63  C   UNL     1      -6.153   0.514  -9.037  1.00  0.00     0.041 C 
ATOM     64  G   UNL     1      -4.381  -1.245  -9.402  1.00  0.00     0.000 G0
ENDBRANCH  60  62
ENDBRANCH  56  58
ENDBRANCH  54  56
ENDBRANCH  52  54
ENDBRANCH  51  52
ENDBRANCH  50  51
ENDBRANCH  49  50
BRANCH  49  65
ATOM     65  C   UNL     1       0.897  -3.304  -2.215  1.00  0.00     0.326 C 
ATOM     66  O   UNL     1       1.511  -4.359  -2.282  1.00  0.00    -0.250 OA
BRANCH  65  67
ATOM     67  O   UNL     1       0.322  -2.937  -1.048  1.00  0.00    -0.480 OA
ATOM     68  H   UNL     1       1.080  -2.637  -0.501  1.00  0.00     0.296 HD
ENDBRANCH  65  67
ENDBRANCH  49  65
ENDBRANCH  47  49
ENDBRANCH  43  45
ENDBRANCH   1  43
BRANCH   1  69
ATOM     69  C   UNL     1       0.529   2.202  -0.050  1.00  0.00    -0.001 C 
ATOM     70  C   UNL     1       0.732   2.522   1.240  1.00  0.00     0.001 C 
BRANCH  70  71
ATOM     71  C   UNL     1      -0.169   3.281   2.110  1.00  0.00    -0.055 C 
ATOM     72  C   UNL     1      -1.316   2.685   2.498  1.00  0.00    -0.018 C 
ATOM     73  C   UNL     1       0.251   4.669   2.518  1.00  0.00     0.044 C 
BRANCH  72  74
ATOM     74  C   UNL     1      -2.427   3.222   3.390  1.00  0.00     0.038 C 
ATOM     75  C   UNL     1      -2.612   2.218   4.535  1.00  0.00     0.015 C 
BRANCH  74  76
ATOM     76  C   UNL     1      -3.696   3.462   2.521  1.00  0.00     0.128 C 
BRANCH  76  77
ATOM     77  O   UNL     1      -4.199   4.791   2.744  1.00  0.00    -0.381 OA
ATOM     78  C   UNL     1      -3.251   5.668   3.337  1.00  0.00     0.195 C 
ENDBRANCH  76  77
BRANCH  76  79
ATOM     79  C   UNL     1      -3.500   3.140   1.018  1.00  0.00     0.068 C 
BRANCH  79  80
ATOM     80  C   UNL     1      -3.774   1.729   0.556  1.00  0.00    -0.045 A 
ATOM     81  C   UNL     1      -2.991   1.131  -0.441  1.00  0.00     0.004 A 
ATOM     82  C   UNL     1      -4.842   1.001   1.102  1.00  0.00     0.004 A 
ATOM     83  C   UNL     1      -3.260  -0.169  -0.873  1.00  0.00     0.000 A 
ATOM     84  C   UNL     1      -5.110  -0.299   0.668  1.00  0.00     0.000 A 
ATOM     85  C   UNL     1      -4.318  -0.884  -0.317  1.00  0.00     0.000 A 
ENDBRANCH  79  80
ENDBRANCH  76  79
ENDBRANCH  74  76
ENDBRANCH  72  74
ENDBRANCH  70  71
ENDBRANCH   1  69
TORSDOF 17
ENDMDL
MODEL 16
REMARK VINA RESULT:    -6.029      3.106      8.174
REMARK INTER + INTRA:         -25.293
REMARK INTER:                 -17.702
REMARK INTRA:                  -7.590
REMARK UNBOUND:                -7.281
REMARK SMILES C=C1C(=O)N[C@H](C)C(=O)N[C@@H](CC(C)C)C(=O)N[C@@H](C(=O)O)[C@H](C)C(=O)N[C@@H](CCCN=C(N)N)C(=O)N[C@@H](/C=C/C(C)=C/[C@H](C)[C@H](Cc2ccccc2)OC)[C@H](C)C(=O)N[C@@H](C(=O)O)CCC(=O)N1C
REMARK SMILES IDX 39 1 38 2 37 3 36 4 28 6 27 7 25 8 26 9 23 11 24 12 19 13
REMARK SMILES IDX 18 14 16 15 17 16 11 18 10 19 8 20 9 21 12 24 13 25 14 26
REMARK SMILES IDX 15 27 20 28 21 29 22 30 29 32 30 33 31 34 32 35 33 36 34 37
REMARK SMILES IDX 35 38 57 43 58 44 59 45 60 46 61 47 62 49 66 50 67 51 68 52
REMARK SMILES IDX 69 53 70 54 71 55 2 56 1 57 3 58 4 59 5 60 6 62 7 63 63 65
REMARK SMILES IDX 64 66 65 67 40 69 41 70 42 71 44 72 43 73 45 74 46 75 47 76
REMARK SMILES IDX 55 77 56 78 48 79 49 80 50 81 54 82 51 83 53 84 52 85
REMARK H PARENT 38 5 27 10 18 17 10 22 22 31 34 39 34 40 35 41 35 42 61 48
REMARK H PARENT 5 61 65 68
REMARK Flexibility Score:  369.900
ROOT
ATOM      1  C   UNL     1       7.647   2.088  -5.214  1.00  0.00     0.117 C 
ENDROOT
BRANCH   1   2
ATOM      2  N   UNL     1       6.391   2.380  -4.521  1.00  0.00    -0.347 N 
ATOM      3  O   UNL     1       5.351   0.369  -4.899  1.00  0.00    -0.273 OA
ATOM      4  C   UNL     1       5.376   1.460  -4.340  1.00  0.00     0.243 C 
ATOM      5  H   UNL     1       6.258   3.287  -4.100  1.00  0.00     0.164 HD
BRANCH   4   6
ATOM      6  C   UNL     1       4.191   1.998  -3.498  1.00  0.00     0.171 C 
BRANCH   6   7
ATOM      7  N   UNL     1       3.500   0.891  -2.818  1.00  0.00    -0.344 N 
ATOM      8  C   UNL     1       2.245   0.490  -3.224  1.00  0.00     0.226 C 
ATOM      9  O   UNL     1       1.641   1.038  -4.138  1.00  0.00    -0.275 OA
ATOM     10  H   UNL     1       3.939   0.458  -2.014  1.00  0.00     0.164 HD
BRANCH   8  11
ATOM     11  C   UNL     1       1.690  -0.698  -2.459  1.00  0.00     0.109 C 
ATOM     12  C   UNL     1       0.694  -0.224  -1.400  1.00  0.00     0.021 C 
BRANCH  11  13
ATOM     13  C   UNL     1       1.137  -1.743  -3.448  1.00  0.00     0.204 C 
BRANCH  13  14
ATOM     14  N   UNL     1       2.126  -2.121  -4.462  1.00  0.00    -0.340 N 
ATOM     15  C   UNL     1       1.870  -2.065  -5.815  1.00  0.00     0.243 C 
ATOM     16  O   UNL     1       0.812  -1.635  -6.270  1.00  0.00    -0.273 OA
ATOM     17  H   UNL     1       2.961  -2.626  -4.153  1.00  0.00     0.164 HD
BRANCH  15  18
ATOM     18  C   UNL     1       2.981  -2.707  -6.682  1.00  0.00     0.171 C 
BRANCH  18  19
ATOM     19  N   UNL     1       2.469  -4.001  -7.128  1.00  0.00    -0.343 N 
ATOM     20  C   UNL     1       2.465  -5.108  -6.301  1.00  0.00     0.242 CG0
ATOM     21  O   UNL     1       3.012  -5.091  -5.200  1.00  0.00    -0.273 OA
ATOM     22  H   UNL     1       2.111  -4.096  -8.072  1.00  0.00     0.164 HD
ATOM     23  G   UNL     1       1.813  -6.362  -6.919  1.00  0.00     0.000 G0
ENDBRANCH  18  19
BRANCH  18  24
ATOM     24  C   UNL     1       3.333  -1.802  -7.869  1.00  0.00     0.038 C 
BRANCH  24  25
ATOM     25  C   UNL     1       2.800  -2.292  -9.232  1.00  0.00    -0.015 C 
ATOM     26  C   UNL     1       3.924  -2.650 -10.205  1.00  0.00     0.007 C 
ATOM     27  C   UNL     1       1.906  -1.216  -9.852  1.00  0.00     0.007 C 
ENDBRANCH  24  25
ENDBRANCH  18  24
ENDBRANCH  15  18
ENDBRANCH  13  14
BRANCH  13  28
ATOM     28  C   UNL     1       0.669  -3.032  -2.766  1.00  0.00     0.327 C 
ATOM     29  O   UNL     1      -0.391  -3.607  -2.957  1.00  0.00    -0.250 OA
BRANCH  28  30
ATOM     30  O   UNL     1       1.511  -3.455  -1.801  1.00  0.00    -0.480 OA
ATOM     31  H   UNL     1       1.206  -2.989  -0.995  1.00  0.00     0.296 HD
ENDBRANCH  28  30
ENDBRANCH  13  28
ENDBRANCH  11  13
ENDBRANCH   8  11
ENDBRANCH   6   7
BRANCH   6  32
ATOM     32  C   UNL     1       4.717   3.020  -2.484  1.00  0.00     0.037 C 
BRANCH  32  33
ATOM     33  C   UNL     1       4.421   2.605  -1.037  1.00  0.00     0.026 C 
BRANCH  33  34
ATOM     34  C   UNL     1       5.637   1.988  -0.344  1.00  0.00     0.146 C 
BRANCH  34  35
ATOM     35  N   UNL     1       6.276   1.055  -1.261  1.00  0.00    -0.254 NA
ATOM     36  C   UNL     1       7.170   0.259  -0.804  1.00  0.00     0.185 C 
ATOM     37  N   UNL     1       7.762  -0.608  -1.640  1.00  0.00    -0.370 N 
ATOM     38  N   UNL     1       7.637   0.145   0.452  1.00  0.00    -0.370 N 
ATOM     39  H   UNL     1       7.456  -0.591  -2.604  1.00  0.00     0.159 HD
ATOM     40  H   UNL     1       8.337  -1.373  -1.331  1.00  0.00     0.159 HD
ATOM     41  H   UNL     1       8.441  -0.424   0.659  1.00  0.00     0.159 HD
ATOM     42  H   UNL     1       7.292   0.747   1.183  1.00  0.00     0.159 HD
ENDBRANCH  34  35
ENDBRANCH  33  34
ENDBRANCH  32  33
ENDBRANCH   6  32
ENDBRANCH   4   6
ENDBRANCH   1   2
BRANCH   1  43
ATOM     43  C   UNL     1       8.737   3.070  -4.696  1.00  0.00     0.102 C 
ATOM     44  C   UNL     1      10.056   2.990  -5.484  1.00  0.00     0.020 C 
BRANCH  43  45
ATOM     45  C   UNL     1       8.912   2.947  -3.179  1.00  0.00     0.225 C 
ATOM     46  O   UNL     1       8.139   3.455  -2.372  1.00  0.00    -0.275 OA
ATOM     47  N   UNL     1      10.055   2.302  -2.764  1.00  0.00    -0.342 N 
ATOM     48  H   UNL     1      10.594   1.764  -3.428  1.00  0.00     0.164 HD
BRANCH  47  49
ATOM     49  C   UNL     1      10.336   2.080  -1.343  1.00  0.00     0.192 C 
BRANCH  49  50
ATOM     50  C   UNL     1      11.312   3.145  -0.839  1.00  0.00     0.047 C 
BRANCH  50  51
ATOM     51  C   UNL     1      10.649   4.129   0.134  1.00  0.00     0.103 C 
BRANCH  51  52
ATOM     52  C   UNL     1      10.402   5.493  -0.508  1.00  0.00     0.226 C 
ATOM     53  O   UNL     1      11.065   5.834  -1.490  1.00  0.00    -0.275 OA
BRANCH  52  54
ATOM     54  N   UNL     1       9.354   6.260   0.033  1.00  0.00    -0.311 N 
ATOM     55  C   UNL     1       8.258   5.625   0.778  1.00  0.00     0.153 C 
BRANCH  54  56
ATOM     56  C   UNL     1       9.317   7.657  -0.113  1.00  0.00     0.102 C 
ATOM     57  C   UNL     1       8.733   8.308  -1.132  1.00  0.00     0.043 C 
BRANCH  56  58
ATOM     58  C   UNL     1       9.921   8.561   0.936  1.00  0.00     0.268 C 
ATOM     59  O   UNL     1      11.111   8.554   1.221  1.00  0.00    -0.268 OA
ATOM     60  N   UNL     1       9.012   9.434   1.484  1.00  0.00    -0.339 N 
ATOM     61  H   UNL     1       8.041   9.368   1.201  1.00  0.00     0.164 HD
BRANCH  60  62
ATOM     62  C   UNL     1       9.397  10.440   2.474  1.00  0.00     0.168 CG0
ATOM     63  C   UNL     1       8.259  10.709   3.451  1.00  0.00     0.041 C 
ATOM     64  G   UNL     1       9.817  11.738   1.755  1.00  0.00     0.000 G0
ENDBRANCH  60  62
ENDBRANCH  56  58
ENDBRANCH  54  56
ENDBRANCH  52  54
ENDBRANCH  51  52
ENDBRANCH  50  51
ENDBRANCH  49  50
BRANCH  49  65
ATOM     65  C   UNL     1      10.932   0.685  -1.095  1.00  0.00     0.326 C 
ATOM     66  O   UNL     1      11.638   0.065  -1.876  1.00  0.00    -0.250 OA
BRANCH  65  67
ATOM     67  O   UNL     1      10.570   0.118   0.077  1.00  0.00    -0.480 OA
ATOM     68  H   UNL     1       9.775   0.627   0.345  1.00  0.00     0.296 HD
ENDBRANCH  65  67
ENDBRANCH  49  65
ENDBRANCH  47  49
ENDBRANCH  43  45
ENDBRANCH   1  43
BRANCH   1  69
ATOM     69  C   UNL     1       7.319   2.072  -6.696  1.00  0.00    -0.001 C 
ATOM     70  C   UNL     1       7.482   1.052  -7.557  1.00  0.00     0.001 C 
BRANCH  70  71
ATOM     71  C   UNL     1       7.143   1.041  -8.982  1.00  0.00    -0.055 C 
ATOM     72  C   UNL     1       8.005   1.630  -9.837  1.00  0.00    -0.018 C 
ATOM     73  C   UNL     1       5.861   0.366  -9.393  1.00  0.00     0.044 C 
BRANCH  72  74
ATOM     74  C   UNL     1       7.917   1.768 -11.350  1.00  0.00     0.038 C 
ATOM     75  C   UNL     1       6.872   2.850 -11.647  1.00  0.00     0.015 C 
BRANCH  74  76
ATOM     76  C   UNL     1       7.602   0.371 -11.963  1.00  0.00     0.128 C 
BRANCH  76  77
ATOM     77  O   UNL     1       7.140   0.521 -13.316  1.00  0.00    -0.381 OA
ATOM     78  C   UNL     1       6.101  -0.382 -13.667  1.00  0.00     0.195 C 
ENDBRANCH  76  77
BRANCH  76  79
ATOM     79  C   UNL     1       8.762  -0.648 -11.835  1.00  0.00     0.068 C 
BRANCH  79  80
ATOM     80  C   UNL     1       8.629  -1.746 -10.807  1.00  0.00    -0.045 A 
ATOM     81  C   UNL     1       9.504  -1.823  -9.716  1.00  0.00     0.004 A 
ATOM     82  C   UNL     1       7.637  -2.729 -10.947  1.00  0.00     0.004 A 
ATOM     83  C   UNL     1       9.383  -2.850  -8.777  1.00  0.00     0.000 A 
ATOM     84  C   UNL     1       7.518  -3.756 -10.008  1.00  0.00     0.000 A 
ATOM     85  C   UNL     1       8.389  -3.815  -8.923  1.00  0.00     0.000 A 
ENDBRANCH  79  80
ENDBRANCH  76  79
ENDBRANCH  74  76
ENDBRANCH  72  74
ENDBRANCH  70  71
ENDBRANCH   1  69
TORSDOF 17
ENDMDL
MODEL 17
REMARK VINA RESULT:    -6.028      4.327     12.093
REMARK INTER + INTRA:         -25.290
REMARK INTER:                 -17.587
REMARK INTRA:                  -7.703
REMARK UNBOUND:                -7.281
REMARK SMILES C=C1C(=O)N[C@H](C)C(=O)N[C@@H](CC(C)C)C(=O)N[C@@H](C(=O)O)[C@H](C)C(=O)N[C@@H](CCCN=C(N)N)C(=O)N[C@@H](/C=C/C(C)=C/[C@H](C)[C@H](Cc2ccccc2)OC)[C@H](C)C(=O)N[C@@H](C(=O)O)CCC(=O)N1C
REMARK SMILES IDX 39 1 38 2 37 3 36 4 28 6 27 7 25 8 26 9 23 11 24 12 19 13
REMARK SMILES IDX 18 14 16 15 17 16 11 18 10 19 8 20 9 21 12 24 13 25 14 26
REMARK SMILES IDX 15 27 20 28 21 29 22 30 29 32 30 33 31 34 32 35 33 36 34 37
REMARK SMILES IDX 35 38 57 43 58 44 59 45 60 46 61 47 62 49 66 50 67 51 68 52
REMARK SMILES IDX 69 53 70 54 71 55 2 56 1 57 3 58 4 59 5 60 6 62 7 63 63 65
REMARK SMILES IDX 64 66 65 67 40 69 41 70 42 71 44 72 43 73 45 74 46 75 47 76
REMARK SMILES IDX 55 77 56 78 48 79 49 80 50 81 54 82 51 83 53 84 52 85
REMARK H PARENT 38 5 27 10 18 17 10 22 22 31 34 39 34 40 35 41 35 42 61 48
REMARK H PARENT 5 61 65 68
REMARK Flexibility Score:  369.900
ROOT
ATOM      1  C   UNL     1       4.834   1.262  -1.541  1.00  0.00     0.117 C 
ENDROOT
BRANCH   1   2
ATOM      2  N   UNL     1       3.684   1.782  -0.801  1.00  0.00    -0.347 N 
ATOM      3  O   UNL     1       2.349  -0.080  -0.947  1.00  0.00    -0.273 OA
ATOM      4  C   UNL     1       2.566   1.035  -0.484  1.00  0.00     0.243 C 
ATOM      5  H   UNL     1       3.708   2.728  -0.449  1.00  0.00     0.164 HD
BRANCH   4   6
ATOM      6  C   UNL     1       1.530   1.799   0.380  1.00  0.00     0.171 C 
BRANCH   6   7
ATOM      7  N   UNL     1       2.107   3.056   0.882  1.00  0.00    -0.344 N 
ATOM      8  C   UNL     1       2.204   3.293   2.236  1.00  0.00     0.226 C 
ATOM      9  O   UNL     1       1.804   2.497   3.077  1.00  0.00    -0.275 OA
ATOM     10  H   UNL     1       2.386   3.767   0.218  1.00  0.00     0.164 HD
BRANCH   8  11
ATOM     11  C   UNL     1       2.871   4.610   2.594  1.00  0.00     0.109 C 
ATOM     12  C   UNL     1       3.962   4.941   1.576  1.00  0.00     0.021 C 
BRANCH  11  13
ATOM     13  C   UNL     1       1.799   5.704   2.775  1.00  0.00     0.204 C 
BRANCH  13  14
ATOM     14  N   UNL     1       0.560   5.173   3.351  1.00  0.00    -0.340 N 
ATOM     15  C   UNL     1      -0.688   5.638   2.998  1.00  0.00     0.243 C 
ATOM     16  O   UNL     1      -0.854   6.491   2.128  1.00  0.00    -0.273 OA
ATOM     17  H   UNL     1       0.632   4.577   4.180  1.00  0.00     0.164 HD
BRANCH  15  18
ATOM     18  C   UNL     1      -1.830   5.079   3.883  1.00  0.00     0.171 C 
BRANCH  18  19
ATOM     19  N   UNL     1      -2.356   6.206   4.649  1.00  0.00    -0.343 N 
ATOM     20  C   UNL     1      -2.653   6.098   5.994  1.00  0.00     0.242 CG0
ATOM     21  O   UNL     1      -2.615   5.017   6.576  1.00  0.00    -0.273 OA
ATOM     22  H   UNL     1      -2.515   7.093   4.184  1.00  0.00     0.164 HD
ATOM     23  G   UNL     1      -3.123   7.413   6.650  1.00  0.00     0.000 G0
ENDBRANCH  18  19
BRANCH  18  24
ATOM     24  C   UNL     1      -2.917   4.430   3.018  1.00  0.00     0.038 C 
BRANCH  24  25
ATOM     25  C   UNL     1      -3.605   3.206   3.658  1.00  0.00    -0.015 C 
ATOM     26  C   UNL     1      -2.614   2.280   4.363  1.00  0.00     0.007 C 
ATOM     27  C   UNL     1      -4.367   2.424   2.585  1.00  0.00     0.007 C 
ENDBRANCH  24  25
ENDBRANCH  18  24
ENDBRANCH  15  18
ENDBRANCH  13  14
BRANCH  13  28
ATOM     28  C   UNL     1       2.259   6.857   3.673  1.00  0.00     0.327 C 
ATOM     29  O   UNL     1       1.855   8.009   3.635  1.00  0.00    -0.250 OA
BRANCH  28  30
ATOM     30  O   UNL     1       3.284   6.520   4.483  1.00  0.00    -0.480 OA
ATOM     31  H   UNL     1       3.205   5.548   4.579  1.00  0.00     0.296 HD
ENDBRANCH  28  30
ENDBRANCH  13  28
ENDBRANCH  11  13
ENDBRANCH   8  11
ENDBRANCH   6   7
BRANCH   6  32
ATOM     32  C   UNL     1       0.276   2.068  -0.458  1.00  0.00     0.037 C 
BRANCH  32  33
ATOM     33  C   UNL     1      -0.967   2.290   0.414  1.00  0.00     0.026 C 
BRANCH  33  34
ATOM     34  C   UNL     1      -2.130   2.900  -0.369  1.00  0.00     0.146 C 
BRANCH  34  35
ATOM     35  N   UNL     1      -2.153   4.337  -0.134  1.00  0.00    -0.254 NA
ATOM     36  C   UNL     1      -1.848   5.123  -1.100  1.00  0.00     0.185 C 
ATOM     37  N   UNL     1      -1.870   6.449  -0.896  1.00  0.00    -0.370 N 
ATOM     38  N   UNL     1      -1.489   4.814  -2.358  1.00  0.00    -0.370 N 
ATOM     39  H   UNL     1      -2.142   6.762   0.028  1.00  0.00     0.159 HD
ATOM     40  H   UNL     1      -1.815   7.126  -1.637  1.00  0.00     0.159 HD
ATOM     41  H   UNL     1      -1.138   5.517  -2.987  1.00  0.00     0.159 HD
ATOM     42  H   UNL     1      -1.415   3.851  -2.649  1.00  0.00     0.159 HD
ENDBRANCH  34  35
ENDBRANCH  33  34
ENDBRANCH  32  33
ENDBRANCH   6  32
ENDBRANCH   4   6
ENDBRANCH   1   2
BRANCH   1  43
ATOM     43  C   UNL     1       6.059   1.214  -0.582  1.00  0.00     0.102 C 
ATOM     44  C   UNL     1       6.374   2.567   0.077  1.00  0.00     0.020 C 
BRANCH  43  45
ATOM     45  C   UNL     1       7.264   0.558  -1.262  1.00  0.00     0.225 C 
ATOM     46  O   UNL     1       7.387  -0.657  -1.384  1.00  0.00    -0.275 OA
ATOM     47  N   UNL     1       8.264   1.419  -1.654  1.00  0.00    -0.342 N 
ATOM     48  H   UNL     1       8.084   2.412  -1.686  1.00  0.00     0.164 HD
BRANCH  47  49
ATOM     49  C   UNL     1       9.461   0.937  -2.349  1.00  0.00     0.192 C 
BRANCH  49  50
ATOM     50  C   UNL     1       9.058   0.277  -3.670  1.00  0.00     0.047 C 
BRANCH  50  51
ATOM     51  C   UNL     1       8.263   1.227  -4.577  1.00  0.00     0.103 C 
BRANCH  51  52
ATOM     52  C   UNL     1       7.753   0.526  -5.835  1.00  0.00     0.226 C 
ATOM     53  O   UNL     1       6.892  -0.350  -5.738  1.00  0.00    -0.275 OA
BRANCH  52  54
ATOM     54  N   UNL     1       8.261   0.993  -7.061  1.00  0.00    -0.311 N 
ATOM     55  C   UNL     1       9.384   1.939  -7.104  1.00  0.00     0.153 C 
BRANCH  54  56
ATOM     56  C   UNL     1       7.718   0.571  -8.286  1.00  0.00     0.102 C 
ATOM     57  C   UNL     1       6.710   1.179  -8.931  1.00  0.00     0.043 C 
BRANCH  56  58
ATOM     58  C   UNL     1       8.288  -0.623  -9.016  1.00  0.00     0.268 C 
ATOM     59  O   UNL     1       8.450  -0.653 -10.228  1.00  0.00    -0.268 OA
ATOM     60  N   UNL     1       8.666  -1.641  -8.173  1.00  0.00    -0.339 N 
ATOM     61  H   UNL     1       8.489  -1.543  -7.180  1.00  0.00     0.164 HD
BRANCH  60  62
ATOM     62  C   UNL     1       9.299  -2.865  -8.664  1.00  0.00     0.168 CG0
ATOM     63  C   UNL     1       8.262  -3.950  -8.924  1.00  0.00     0.041 C 
ATOM     64  G   UNL     1      10.351  -3.348  -7.644  1.00  0.00     0.000 G0
ENDBRANCH  60  62
ENDBRANCH  56  58
ENDBRANCH  54  56
ENDBRANCH  52  54
ENDBRANCH  51  52
ENDBRANCH  50  51
ENDBRANCH  49  50
BRANCH  49  65
ATOM     65  C   UNL     1      10.245  -0.071  -1.495  1.00  0.00     0.326 C 
ATOM     66  O   UNL     1      10.968   0.209  -0.550  1.00  0.00    -0.250 OA
BRANCH  65  67
ATOM     67  O   UNL     1      10.136  -1.357  -1.898  1.00  0.00    -0.480 OA
ATOM     68  H   UNL     1      10.455  -1.336  -2.826  1.00  0.00     0.296 HD
ENDBRANCH  65  67
ENDBRANCH  49  65
ENDBRANCH  47  49
ENDBRANCH  43  45
ENDBRANCH   1  43
BRANCH   1  69
ATOM     69  C   UNL     1       4.929   2.087  -2.811  1.00  0.00    -0.001 C 
ATOM     70  C   UNL     1       4.574   1.716  -4.054  1.00  0.00     0.001 C 
BRANCH  70  71
ATOM     71  C   UNL     1       4.651   2.529  -5.270  1.00  0.00    -0.055 C 
ATOM     72  C   UNL     1       5.333   3.691  -5.206  1.00  0.00    -0.018 C 
ATOM     73  C   UNL     1       3.970   2.006  -6.508  1.00  0.00     0.044 C 
BRANCH  72  74
ATOM     74  C   UNL     1       5.580   4.725  -6.295  1.00  0.00     0.038 C 
ATOM     75  C   UNL     1       6.929   4.389  -6.941  1.00  0.00     0.015 C 
BRANCH  74  76
ATOM     76  C   UNL     1       5.493   6.147  -5.666  1.00  0.00     0.128 C 
BRANCH  76  77
ATOM     77  O   UNL     1       4.824   7.043  -6.569  1.00  0.00    -0.381 OA
ATOM     78  C   UNL     1       3.575   7.516  -6.084  1.00  0.00     0.195 C 
ENDBRANCH  76  77
BRANCH  76  79
ATOM     79  C   UNL     1       4.886   6.168  -4.241  1.00  0.00     0.068 C 
BRANCH  79  80
ATOM     80  C   UNL     1       5.805   6.483  -3.085  1.00  0.00    -0.045 A 
ATOM     81  C   UNL     1       5.654   5.844  -1.848  1.00  0.00     0.004 A 
ATOM     82  C   UNL     1       6.813   7.449  -3.227  1.00  0.00     0.004 A 
ATOM     83  C   UNL     1       6.499   6.152  -0.779  1.00  0.00     0.000 A 
ATOM     84  C   UNL     1       7.657   7.756  -2.158  1.00  0.00     0.000 A 
ATOM     85  C   UNL     1       7.501   7.106  -0.935  1.00  0.00     0.000 A 
ENDBRANCH  79  80
ENDBRANCH  76  79
ENDBRANCH  74  76
ENDBRANCH  72  74
ENDBRANCH  70  71
ENDBRANCH   1  69
TORSDOF 17
ENDMDL
MODEL 18
REMARK VINA RESULT:    -6.023      2.788     11.740
REMARK INTER + INTRA:         -25.277
REMARK INTER:                 -19.224
REMARK INTRA:                  -6.053
REMARK UNBOUND:                -7.281
REMARK SMILES C=C1C(=O)N[C@H](C)C(=O)N[C@@H](CC(C)C)C(=O)N[C@@H](C(=O)O)[C@H](C)C(=O)N[C@@H](CCCN=C(N)N)C(=O)N[C@@H](/C=C/C(C)=C/[C@H](C)[C@H](Cc2ccccc2)OC)[C@H](C)C(=O)N[C@@H](C(=O)O)CCC(=O)N1C
REMARK SMILES IDX 39 1 38 2 37 3 36 4 28 6 27 7 25 8 26 9 23 11 24 12 19 13
REMARK SMILES IDX 18 14 16 15 17 16 11 18 10 19 8 20 9 21 12 24 13 25 14 26
REMARK SMILES IDX 15 27 20 28 21 29 22 30 29 32 30 33 31 34 32 35 33 36 34 37
REMARK SMILES IDX 35 38 57 43 58 44 59 45 60 46 61 47 62 49 66 50 67 51 68 52
REMARK SMILES IDX 69 53 70 54 71 55 2 56 1 57 3 58 4 59 5 60 6 62 7 63 63 65
REMARK SMILES IDX 64 66 65 67 40 69 41 70 42 71 44 72 43 73 45 74 46 75 47 76
REMARK SMILES IDX 55 77 56 78 48 79 49 80 50 81 54 82 51 83 53 84 52 85
REMARK H PARENT 38 5 27 10 18 17 10 22 22 31 34 39 34 40 35 41 35 42 61 48
REMARK H PARENT 5 61 65 68
REMARK Flexibility Score:  369.900
ROOT
ATOM      1  C   UNL     1       6.061  -0.532  -6.533  1.00  0.00     0.117 C 
ENDROOT
BRANCH   1   2
ATOM      2  N   UNL     1       6.771   0.562  -5.870  1.00  0.00    -0.347 N 
ATOM      3  O   UNL     1       7.511  -0.607  -4.039  1.00  0.00    -0.273 OA
ATOM      4  C   UNL     1       7.519   0.414  -4.718  1.00  0.00     0.243 C 
ATOM      5  H   UNL     1       6.768   1.480  -6.291  1.00  0.00     0.164 HD
BRANCH   4   6
ATOM      6  C   UNL     1       8.240   1.712  -4.272  1.00  0.00     0.171 C 
BRANCH   6   7
ATOM      7  N   UNL     1       8.209   1.839  -2.806  1.00  0.00    -0.344 N 
ATOM      8  C   UNL     1       7.409   2.782  -2.199  1.00  0.00     0.226 C 
ATOM      9  O   UNL     1       6.711   3.564  -2.835  1.00  0.00    -0.275 OA
ATOM     10  H   UNL     1       8.823   1.256  -2.250  1.00  0.00     0.164 HD
BRANCH   8  11
ATOM     11  C   UNL     1       7.447   2.751  -0.681  1.00  0.00     0.109 C 
ATOM     12  C   UNL     1       7.713   1.328  -0.191  1.00  0.00     0.021 C 
BRANCH  11  13
ATOM     13  C   UNL     1       8.438   3.812  -0.163  1.00  0.00     0.204 C 
BRANCH  13  14
ATOM     14  N   UNL     1       7.947   4.484   1.044  1.00  0.00    -0.340 N 
ATOM     15  C   UNL     1       6.958   5.444   1.015  1.00  0.00     0.243 C 
ATOM     16  O   UNL     1       6.375   5.761  -0.020  1.00  0.00    -0.273 OA
ATOM     17  H   UNL     1       8.487   4.379   1.906  1.00  0.00     0.164 HD
BRANCH  15  18
ATOM     18  C   UNL     1       6.751   6.159   2.373  1.00  0.00     0.171 C 
BRANCH  18  19
ATOM     19  N   UNL     1       5.619   5.502   3.024  1.00  0.00    -0.343 N 
ATOM     20  C   UNL     1       4.328   5.976   2.894  1.00  0.00     0.242 CG0
ATOM     21  O   UNL     1       4.088   7.045   2.337  1.00  0.00    -0.273 OA
ATOM     22  H   UNL     1       5.781   4.678   3.592  1.00  0.00     0.164 HD
ATOM     23  G   UNL     1       3.258   5.108   3.586  1.00  0.00     0.000 G0
ENDBRANCH  18  19
BRANCH  18  24
ATOM     24  C   UNL     1       8.020   6.072   3.230  1.00  0.00     0.038 C 
BRANCH  24  25
ATOM     25  C   UNL     1       8.757   7.413   3.428  1.00  0.00    -0.015 C 
ATOM     26  C   UNL     1       7.884   8.618   3.077  1.00  0.00     0.007 C 
ATOM     27  C   UNL     1      10.028   7.432   2.575  1.00  0.00     0.007 C 
ENDBRANCH  24  25
ENDBRANCH  18  24
ENDBRANCH  15  18
ENDBRANCH  13  14
BRANCH  13  28
ATOM     28  C   UNL     1       9.819   3.237   0.169  1.00  0.00     0.327 C 
ATOM     29  O   UNL     1      10.135   2.666   1.201  1.00  0.00    -0.250 OA
BRANCH  28  30
ATOM     30  O   UNL     1      10.748   3.518  -0.767  1.00  0.00    -0.480 OA
ATOM     31  H   UNL     1      11.557   3.718  -0.252  1.00  0.00     0.296 HD
ENDBRANCH  28  30
ENDBRANCH  13  28
ENDBRANCH  11  13
ENDBRANCH   8  11
ENDBRANCH   6   7
BRANCH   6  32
ATOM     32  C   UNL     1       9.682   1.690  -4.790  1.00  0.00     0.037 C 
BRANCH  32  33
ATOM     33  C   UNL     1      10.694   2.080  -3.703  1.00  0.00     0.026 C 
BRANCH  33  34
ATOM     34  C   UNL     1      11.622   0.924  -3.326  1.00  0.00     0.146 C 
BRANCH  34  35
ATOM     35  N   UNL     1      11.636   0.787  -1.876  1.00  0.00    -0.254 NA
ATOM     36  C   UNL     1      10.877  -0.091  -1.334  1.00  0.00     0.185 C 
ATOM     37  N   UNL     1      10.886  -0.229   0.001  1.00  0.00    -0.370 N 
ATOM     38  N   UNL     1      10.023  -0.948  -1.922  1.00  0.00    -0.370 N 
ATOM     39  H   UNL     1      11.513   0.376   0.516  1.00  0.00     0.159 HD
ATOM     40  H   UNL     1      10.458  -1.001   0.483  1.00  0.00     0.159 HD
ATOM     41  H   UNL     1       9.377  -1.495  -1.377  1.00  0.00     0.159 HD
ATOM     42  H   UNL     1       9.901  -0.945  -2.923  1.00  0.00     0.159 HD
ENDBRANCH  34  35
ENDBRANCH  33  34
ENDBRANCH  32  33
ENDBRANCH   6  32
ENDBRANCH   4   6
ENDBRANCH   1   2
BRANCH   1  43
ATOM     43  C   UNL     1       6.203  -0.355  -8.072  1.00  0.00     0.102 C 
ATOM     44  C   UNL     1       5.281  -1.283  -8.882  1.00  0.00     0.020 C 
BRANCH  43  45
ATOM     45  C   UNL     1       7.672  -0.412  -8.499  1.00  0.00     0.225 C 
ATOM     46  O   UNL     1       8.569  -0.817  -7.765  1.00  0.00    -0.275 OA
ATOM     47  N   UNL     1       7.949   0.113  -9.740  1.00  0.00    -0.342 N 
ATOM     48  H   UNL     1       7.194   0.299 -10.385  1.00  0.00     0.164 HD
BRANCH  47  49
ATOM     49  C   UNL     1       9.306   0.095 -10.295  1.00  0.00     0.192 C 
BRANCH  49  50
ATOM     50  C   UNL     1       9.925  -1.291 -10.094  1.00  0.00     0.047 C 
BRANCH  50  51
ATOM     51  C   UNL     1      10.196  -2.006 -11.424  1.00  0.00     0.103 C 
BRANCH  51  52
ATOM     52  C   UNL     1       9.262  -3.196 -11.636  1.00  0.00     0.226 C 
ATOM     53  O   UNL     1       8.763  -3.762 -10.661  1.00  0.00    -0.275 OA
BRANCH  52  54
ATOM     54  N   UNL     1       8.965  -3.530 -12.971  1.00  0.00    -0.311 N 
ATOM     55  C   UNL     1       8.029  -2.721 -13.762  1.00  0.00     0.153 C 
BRANCH  54  56
ATOM     56  C   UNL     1       9.555  -4.641 -13.596  1.00  0.00     0.102 C 
ATOM     57  C   UNL     1       8.973  -5.843 -13.735  1.00  0.00     0.043 C 
BRANCH  56  58
ATOM     58  C   UNL     1      10.926  -4.541 -14.222  1.00  0.00     0.268 C 
ATOM     59  O   UNL     1      11.963  -4.696 -13.591  1.00  0.00    -0.268 OA
ATOM     60  N   UNL     1      10.886  -4.324 -15.579  1.00  0.00    -0.339 N 
ATOM     61  H   UNL     1       9.986  -4.196 -16.025  1.00  0.00     0.164 HD
BRANCH  60  62
ATOM     62  C   UNL     1      12.099  -4.257 -16.393  1.00  0.00     0.168 CG0
ATOM     63  C   UNL     1      11.946  -3.242 -17.519  1.00  0.00     0.041 C 
ATOM     64  G   UNL     1      12.421  -5.656 -16.958  1.00  0.00     0.000 G0
ENDBRANCH  60  62
ENDBRANCH  56  58
ENDBRANCH  54  56
ENDBRANCH  52  54
ENDBRANCH  51  52
ENDBRANCH  50  51
ENDBRANCH  49  50
BRANCH  49  65
ATOM     65  C   UNL     1      10.203   1.154  -9.635  1.00  0.00     0.326 C 
ATOM     66  O   UNL     1       9.815   2.191  -9.119  1.00  0.00    -0.250 OA
BRANCH  65  67
ATOM     67  O   UNL     1      11.527   0.895  -9.707  1.00  0.00    -0.480 OA
ATOM     68  H   UNL     1      11.879   1.635 -10.247  1.00  0.00     0.296 HD
ENDBRANCH  65  67
ENDBRANCH  49  65
ENDBRANCH  47  49
ENDBRANCH  43  45
ENDBRANCH   1  43
BRANCH   1  69
ATOM     69  C   UNL     1       4.671  -0.567  -5.923  1.00  0.00    -0.001 C 
ATOM     70  C   UNL     1       3.814   0.461  -5.784  1.00  0.00     0.001 C 
BRANCH  70  71
ATOM     71  C   UNL     1       2.467   0.411  -5.214  1.00  0.00    -0.055 C 
ATOM     72  C   UNL     1       2.350   0.101  -3.906  1.00  0.00    -0.018 C 
ATOM     73  C   UNL     1       1.307   0.718  -6.125  1.00  0.00     0.044 C 
BRANCH  72  74
ATOM     74  C   UNL     1       1.095  -0.021  -3.053  1.00  0.00     0.038 C 
ATOM     75  C   UNL     1       1.345   0.774  -1.765  1.00  0.00     0.015 C 
BRANCH  74  76
ATOM     76  C   UNL     1       0.780  -1.530  -2.838  1.00  0.00     0.128 C 
BRANCH  76  77
ATOM     77  O   UNL     1       0.077  -1.713  -1.597  1.00  0.00    -0.381 OA
ATOM     78  C   UNL     1      -1.312  -1.966  -1.760  1.00  0.00     0.195 C 
ENDBRANCH  76  77
BRANCH  76  79
ATOM     79  C   UNL     1       0.064  -2.201  -4.037  1.00  0.00     0.068 C 
BRANCH  79  80
ATOM     80  C   UNL     1       0.919  -2.853  -5.096  1.00  0.00    -0.045 A 
ATOM     81  C   UNL     1       2.187  -3.363  -4.787  1.00  0.00     0.004 A 
ATOM     82  C   UNL     1       0.464  -2.934  -6.421  1.00  0.00     0.004 A 
ATOM     83  C   UNL     1       2.978  -3.952  -5.776  1.00  0.00     0.000 A 
ATOM     84  C   UNL     1       1.256  -3.523  -7.409  1.00  0.00     0.000 A 
ATOM     85  C   UNL     1       2.512  -4.033  -7.086  1.00  0.00     0.000 A 
ENDBRANCH  79  80
ENDBRANCH  76  79
ENDBRANCH  74  76
ENDBRANCH  72  74
ENDBRANCH  70  71
ENDBRANCH   1  69
TORSDOF 17
ENDMDL
MODEL 19
REMARK VINA RESULT:    -5.967      4.615     11.685
REMARK INTER + INTRA:         -25.108
REMARK INTER:                 -18.484
REMARK INTRA:                  -6.624
REMARK UNBOUND:                -7.281
REMARK SMILES C=C1C(=O)N[C@H](C)C(=O)N[C@@H](CC(C)C)C(=O)N[C@@H](C(=O)O)[C@H](C)C(=O)N[C@@H](CCCN=C(N)N)C(=O)N[C@@H](/C=C/C(C)=C/[C@H](C)[C@H](Cc2ccccc2)OC)[C@H](C)C(=O)N[C@@H](C(=O)O)CCC(=O)N1C
REMARK SMILES IDX 39 1 38 2 37 3 36 4 28 6 27 7 25 8 26 9 23 11 24 12 19 13
REMARK SMILES IDX 18 14 16 15 17 16 11 18 10 19 8 20 9 21 12 24 13 25 14 26
REMARK SMILES IDX 15 27 20 28 21 29 22 30 29 32 30 33 31 34 32 35 33 36 34 37
REMARK SMILES IDX 35 38 57 43 58 44 59 45 60 46 61 47 62 49 66 50 67 51 68 52
REMARK SMILES IDX 69 53 70 54 71 55 2 56 1 57 3 58 4 59 5 60 6 62 7 63 63 65
REMARK SMILES IDX 64 66 65 67 40 69 41 70 42 71 44 72 43 73 45 74 46 75 47 76
REMARK SMILES IDX 55 77 56 78 48 79 49 80 50 81 54 82 51 83 53 84 52 85
REMARK H PARENT 38 5 27 10 18 17 10 22 22 31 34 39 34 40 35 41 35 42 61 48
REMARK H PARENT 5 61 65 68
REMARK Flexibility Score:  369.900
ROOT
ATOM      1  C   UNL     1       2.186   0.887  -2.662  1.00  0.00     0.117 C 
ENDROOT
BRANCH   1   2
ATOM      2  N   UNL     1       3.393   1.521  -2.132  1.00  0.00    -0.347 N 
ATOM      3  O   UNL     1       3.699   0.146  -0.319  1.00  0.00    -0.273 OA
ATOM      4  C   UNL     1       4.107   1.041  -1.051  1.00  0.00     0.243 C 
ATOM      5  H   UNL     1       3.773   2.330  -2.599  1.00  0.00     0.164 HD
BRANCH   4   6
ATOM      6  C   UNL     1       5.395   1.848  -0.747  1.00  0.00     0.171 C 
BRANCH   6   7
ATOM      7  N   UNL     1       6.505   1.385  -1.596  1.00  0.00    -0.344 N 
ATOM      8  C   UNL     1       7.481   0.556  -1.086  1.00  0.00     0.226 C 
ATOM      9  O   UNL     1       7.489   0.187   0.082  1.00  0.00    -0.275 OA
ATOM     10  H   UNL     1       6.568   1.722  -2.548  1.00  0.00     0.164 HD
BRANCH   8  11
ATOM     11  C   UNL     1       8.525   0.122  -2.100  1.00  0.00     0.109 C 
ATOM     12  C   UNL     1       7.919   0.103  -3.504  1.00  0.00     0.021 C 
BRANCH  11  13
ATOM     13  C   UNL     1       9.789   0.992  -1.951  1.00  0.00     0.204 C 
BRANCH  13  14
ATOM     14  N   UNL     1       9.576   2.124  -1.045  1.00  0.00    -0.340 N 
ATOM     15  C   UNL     1       9.338   3.406  -1.492  1.00  0.00     0.243 C 
ATOM     16  O   UNL     1       9.226   3.679  -2.686  1.00  0.00    -0.273 OA
ATOM     17  H   UNL     1       9.804   1.997  -0.055  1.00  0.00     0.164 HD
BRANCH  15  18
ATOM     18  C   UNL     1       9.352   4.467  -0.365  1.00  0.00     0.171 C 
BRANCH  18  19
ATOM     19  N   UNL     1       9.005   5.743  -0.987  1.00  0.00    -0.343 N 
ATOM     20  C   UNL     1       9.947   6.733  -1.194  1.00  0.00     0.242 CG0
ATOM     21  O   UNL     1      11.087   6.640  -0.747  1.00  0.00    -0.273 OA
ATOM     22  H   UNL     1       8.047   5.914  -1.270  1.00  0.00     0.164 HD
ATOM     23  G   UNL     1       9.411   7.976  -1.934  1.00  0.00     0.000 G0
ENDBRANCH  18  19
BRANCH  18  24
ATOM     24  C   UNL     1       8.360   4.094   0.743  1.00  0.00     0.038 C 
BRANCH  24  25
ATOM     25  C   UNL     1       8.778   4.541   2.160  1.00  0.00    -0.015 C 
ATOM     26  C   UNL     1       9.386   3.401   2.978  1.00  0.00     0.007 C 
ATOM     27  C   UNL     1       7.565   5.114   2.898  1.00  0.00     0.007 C 
ENDBRANCH  24  25
ENDBRANCH  18  24
ENDBRANCH  15  18
ENDBRANCH  13  14
BRANCH  13  28
ATOM     28  C   UNL     1      10.999   0.213  -1.427  1.00  0.00     0.327 C 
ATOM     29  O   UNL     1      11.139  -0.232  -0.298  1.00  0.00    -0.250 OA
BRANCH  28  30
ATOM     30  O   UNL     1      12.010   0.144  -2.318  1.00  0.00    -0.480 OA
ATOM     31  H   UNL     1      11.825  -0.671  -2.829  1.00  0.00     0.296 HD
ENDBRANCH  28  30
ENDBRANCH  13  28
ENDBRANCH  11  13
ENDBRANCH   8  11
ENDBRANCH   6   7
BRANCH   6  32
ATOM     32  C   UNL     1       5.120   3.339  -0.972  1.00  0.00     0.037 C 
BRANCH  32  33
ATOM     33  C   UNL     1       5.710   3.844  -2.297  1.00  0.00     0.026 C 
BRANCH  33  34
ATOM     34  C   UNL     1       5.726   5.370  -2.386  1.00  0.00     0.146 C 
BRANCH  34  35
ATOM     35  N   UNL     1       5.696   5.920  -1.038  1.00  0.00    -0.254 NA
ATOM     36  C   UNL     1       5.298   7.127  -0.876  1.00  0.00     0.185 C 
ATOM     37  N   UNL     1       5.262   7.643   0.363  1.00  0.00    -0.370 N 
ATOM     38  N   UNL     1       4.887   8.013  -1.801  1.00  0.00    -0.370 N 
ATOM     39  H   UNL     1       5.548   7.032   1.117  1.00  0.00     0.159 HD
ATOM     40  H   UNL     1       4.804   8.508   0.592  1.00  0.00     0.159 HD
ATOM     41  H   UNL     1       4.731   8.979  -1.564  1.00  0.00     0.159 HD
ATOM     42  H   UNL     1       4.877   7.766  -2.778  1.00  0.00     0.159 HD
ENDBRANCH  34  35
ENDBRANCH  33  34
ENDBRANCH  32  33
ENDBRANCH   6  32
ENDBRANCH   4   6
ENDBRANCH   1   2
BRANCH   1  43
ATOM     43  C   UNL     1       2.299   0.824  -4.213  1.00  0.00     0.102 C 
ATOM     44  C   UNL     1       1.381   1.825  -4.935  1.00  0.00     0.020 C 
BRANCH  43  45
ATOM     45  C   UNL     1       2.166  -0.616  -4.716  1.00  0.00     0.225 C 
ATOM     46  O   UNL     1       3.016  -1.166  -5.411  1.00  0.00    -0.275 OA
ATOM     47  N   UNL     1       0.976  -1.240  -4.418  1.00  0.00    -0.342 N 
ATOM     48  H   UNL     1       0.360  -0.838  -3.726  1.00  0.00     0.164 HD
BRANCH  47  49
ATOM     49  C   UNL     1       0.723  -2.631  -4.805  1.00  0.00     0.192 C 
BRANCH  49  50
ATOM     50  C   UNL     1      -0.687  -2.754  -5.389  1.00  0.00     0.047 C 
BRANCH  50  51
ATOM     51  C   UNL     1      -0.737  -3.700  -6.596  1.00  0.00     0.103 C 
BRANCH  51  52
ATOM     52  C   UNL     1      -2.073  -3.622  -7.332  1.00  0.00     0.226 C 
ATOM     53  O   UNL     1      -2.092  -3.607  -8.564  1.00  0.00    -0.275 OA
BRANCH  52  54
ATOM     54  N   UNL     1      -3.231  -3.647  -6.532  1.00  0.00    -0.311 N 
ATOM     55  C   UNL     1      -4.062  -2.447  -6.367  1.00  0.00     0.153 C 
BRANCH  54  56
ATOM     56  C   UNL     1      -3.638  -4.817  -5.870  1.00  0.00     0.102 C 
ATOM     57  C   UNL     1      -3.363  -5.110  -4.588  1.00  0.00     0.043 C 
BRANCH  56  58
ATOM     58  C   UNL     1      -4.488  -5.850  -6.572  1.00  0.00     0.268 C 
ATOM     59  O   UNL     1      -4.716  -5.824  -7.774  1.00  0.00    -0.268 OA
ATOM     60  N   UNL     1      -4.921  -6.852  -5.736  1.00  0.00    -0.339 N 
ATOM     61  H   UNL     1      -4.698  -6.794  -4.750  1.00  0.00     0.164 HD
BRANCH  60  62
ATOM     62  C   UNL     1      -5.706  -7.986  -6.222  1.00  0.00     0.168 CG0
ATOM     63  C   UNL     1      -6.182  -8.856  -5.066  1.00  0.00     0.041 C 
ATOM     64  G   UNL     1      -4.861  -8.811  -7.215  1.00  0.00     0.000 G0
ENDBRANCH  60  62
ENDBRANCH  56  58
ENDBRANCH  54  56
ENDBRANCH  52  54
ENDBRANCH  51  52
ENDBRANCH  50  51
ENDBRANCH  49  50
BRANCH  49  65
ATOM     65  C   UNL     1       0.864  -3.587  -3.610  1.00  0.00     0.326 C 
ATOM     66  O   UNL     1       1.886  -4.174  -3.287  1.00  0.00    -0.250 OA
BRANCH  65  67
ATOM     67  O   UNL     1      -0.280  -3.804  -2.924  1.00  0.00    -0.480 OA
ATOM     68  H   UNL     1      -0.080  -3.462  -2.026  1.00  0.00     0.296 HD
ENDBRANCH  65  67
ENDBRANCH  49  65
ENDBRANCH  47  49
ENDBRANCH  43  45
ENDBRANCH   1  43
BRANCH   1  69
ATOM     69  C   UNL     1       1.013   1.624  -2.042  1.00  0.00    -0.001 C 
ATOM     70  C   UNL     1       0.127   1.146  -1.150  1.00  0.00     0.001 C 
BRANCH  70  71
ATOM     71  C   UNL     1      -0.988   1.874  -0.542  1.00  0.00    -0.055 C 
ATOM     72  C   UNL     1      -0.714   3.042   0.076  1.00  0.00    -0.018 C 
ATOM     73  C   UNL     1      -2.365   1.272  -0.656  1.00  0.00     0.044 C 
BRANCH  72  74
ATOM     74  C   UNL     1      -1.658   4.003   0.783  1.00  0.00     0.038 C 
ATOM     75  C   UNL     1      -1.821   5.228  -0.124  1.00  0.00     0.015 C 
BRANCH  74  76
ATOM     76  C   UNL     1      -1.091   4.311   2.200  1.00  0.00     0.128 C 
BRANCH  76  77
ATOM     77  O   UNL     1      -2.101   4.075   3.196  1.00  0.00    -0.381 OA
ATOM     78  C   UNL     1      -3.115   3.171   2.777  1.00  0.00     0.195 C 
ENDBRANCH  76  77
BRANCH  76  79
ATOM     79  C   UNL     1       0.242   3.586   2.516  1.00  0.00     0.068 C 
BRANCH  79  80
ATOM     80  C   UNL     1       1.496   4.422   2.607  1.00  0.00    -0.045 A 
ATOM     81  C   UNL     1       1.453   5.741   3.077  1.00  0.00     0.004 A 
ATOM     82  C   UNL     1       2.729   3.894   2.192  1.00  0.00     0.004 A 
ATOM     83  C   UNL     1       2.615   6.511   3.145  1.00  0.00     0.000 A 
ATOM     84  C   UNL     1       3.891   4.666   2.260  1.00  0.00     0.000 A 
ATOM     85  C   UNL     1       3.834   5.973   2.737  1.00  0.00     0.000 A 
ENDBRANCH  79  80
ENDBRANCH  76  79
ENDBRANCH  74  76
ENDBRANCH  72  74
ENDBRANCH  70  71
ENDBRANCH   1  69
TORSDOF 17
ENDMDL
MODEL 20
REMARK VINA RESULT:    -5.947      3.930     11.506
REMARK INTER + INTRA:         -25.050
REMARK INTER:                 -18.053
REMARK INTRA:                  -6.997
REMARK UNBOUND:                -7.281
REMARK SMILES C=C1C(=O)N[C@H](C)C(=O)N[C@@H](CC(C)C)C(=O)N[C@@H](C(=O)O)[C@H](C)C(=O)N[C@@H](CCCN=C(N)N)C(=O)N[C@@H](/C=C/C(C)=C/[C@H](C)[C@H](Cc2ccccc2)OC)[C@H](C)C(=O)N[C@@H](C(=O)O)CCC(=O)N1C
REMARK SMILES IDX 39 1 38 2 37 3 36 4 28 6 27 7 25 8 26 9 23 11 24 12 19 13
REMARK SMILES IDX 18 14 16 15 17 16 11 18 10 19 8 20 9 21 12 24 13 25 14 26
REMARK SMILES IDX 15 27 20 28 21 29 22 30 29 32 30 33 31 34 32 35 33 36 34 37
REMARK SMILES IDX 35 38 57 43 58 44 59 45 60 46 61 47 62 49 66 50 67 51 68 52
REMARK SMILES IDX 69 53 70 54 71 55 2 56 1 57 3 58 4 59 5 60 6 62 7 63 63 65
REMARK SMILES IDX 64 66 65 67 40 69 41 70 42 71 44 72 43 73 45 74 46 75 47 76
REMARK SMILES IDX 55 77 56 78 48 79 49 80 50 81 54 82 51 83 53 84 52 85
REMARK H PARENT 38 5 27 10 18 17 10 22 22 31 34 39 34 40 35 41 35 42 61 48
REMARK H PARENT 5 61 65 68
REMARK Flexibility Score:  369.900
ROOT
ATOM      1  C   UNL     1       1.378   0.554  -3.051  1.00  0.00     0.117 C 
ENDROOT
BRANCH   1   2
ATOM      2  N   UNL     1       2.606   1.334  -2.901  1.00  0.00    -0.347 N 
ATOM      3  O   UNL     1       3.305   0.438  -0.906  1.00  0.00    -0.273 OA
ATOM      4  C   UNL     1       3.522   1.148  -1.883  1.00  0.00     0.243 C 
ATOM      5  H   UNL     1       2.843   2.022  -3.600  1.00  0.00     0.164 HD
BRANCH   4   6
ATOM      6  C   UNL     1       4.779   2.045  -2.004  1.00  0.00     0.171 C 
BRANCH   6   7
ATOM      7  N   UNL     1       6.002   1.228  -1.951  1.00  0.00    -0.344 N 
ATOM      8  C   UNL     1       6.858   1.313  -0.874  1.00  0.00     0.226 C 
ATOM      9  O   UNL     1       6.663   2.075   0.065  1.00  0.00    -0.275 OA
ATOM     10  H   UNL     1       6.231   0.636  -2.740  1.00  0.00     0.164 HD
BRANCH   8  11
ATOM     11  C   UNL     1       8.044   0.367  -0.942  1.00  0.00     0.109 C 
ATOM     12  C   UNL     1       7.923  -0.541  -2.165  1.00  0.00     0.021 C 
BRANCH  11  13
ATOM     13  C   UNL     1       9.357   1.171  -0.859  1.00  0.00     0.204 C 
BRANCH  13  14
ATOM     14  N   UNL     1       9.488   1.883   0.416  1.00  0.00    -0.340 N 
ATOM     15  C   UNL     1       9.863   3.207   0.499  1.00  0.00     0.243 C 
ATOM     16  O   UNL     1      10.056   3.902  -0.497  1.00  0.00    -0.273 OA
ATOM     17  H   UNL     1       9.491   1.330   1.277  1.00  0.00     0.164 HD
BRANCH  15  18
ATOM     18  C   UNL     1      10.136   3.683   1.946  1.00  0.00     0.171 C 
BRANCH  18  19
ATOM     19  N   UNL     1      11.285   4.585   1.881  1.00  0.00    -0.343 N 
ATOM     20  C   UNL     1      12.230   4.635   2.887  1.00  0.00     0.242 CG0
ATOM     21  O   UNL     1      12.080   4.023   3.942  1.00  0.00    -0.273 OA
ATOM     22  H   UNL     1      11.392   5.197   1.080  1.00  0.00     0.164 HD
ATOM     23  G   UNL     1      13.410   5.588   2.605  1.00  0.00     0.000 G0
ENDBRANCH  18  19
BRANCH  18  24
ATOM     24  C   UNL     1       8.903   4.386   2.527  1.00  0.00     0.038 C 
BRANCH  24  25
ATOM     25  C   UNL     1       8.942   5.927   2.448  1.00  0.00    -0.015 C 
ATOM     26  C   UNL     1       8.911   6.584   3.828  1.00  0.00     0.007 C 
ATOM     27  C   UNL     1       7.762   6.429   1.612  1.00  0.00     0.007 C 
ENDBRANCH  24  25
ENDBRANCH  18  24
ENDBRANCH  15  18
ENDBRANCH  13  14
BRANCH  13  28
ATOM     28  C   UNL     1      10.608   0.302  -1.024  1.00  0.00     0.327 C 
ATOM     29  O   UNL     1      11.256   0.155  -2.049  1.00  0.00    -0.250 OA
BRANCH  28  30
ATOM     30  O   UNL     1      10.899  -0.420   0.077  1.00  0.00    -0.480 OA
ATOM     31  H   UNL     1      10.778   0.210   0.818  1.00  0.00     0.296 HD
ENDBRANCH  28  30
ENDBRANCH  13  28
ENDBRANCH  11  13
ENDBRANCH   8  11
ENDBRANCH   6   7
BRANCH   6  32
ATOM     32  C   UNL     1       4.708   2.838  -3.314  1.00  0.00     0.037 C 
BRANCH  32  33
ATOM     33  C   UNL     1       5.920   3.762  -3.498  1.00  0.00     0.026 C 
BRANCH  33  34
ATOM     34  C   UNL     1       6.860   3.280  -4.604  1.00  0.00     0.146 C 
BRANCH  34  35
ATOM     35  N   UNL     1       8.061   2.728  -3.992  1.00  0.00    -0.254 NA
ATOM     36  C   UNL     1       9.149   3.401  -4.059  1.00  0.00     0.185 C 
ATOM     37  N   UNL     1      10.261   2.905  -3.494  1.00  0.00    -0.370 N 
ATOM     38  N   UNL     1       9.370   4.595  -4.637  1.00  0.00    -0.370 N 
ATOM     39  H   UNL     1      10.173   2.011  -3.028  1.00  0.00     0.159 HD
ATOM     40  H   UNL     1      11.099   3.441  -3.352  1.00  0.00     0.159 HD
ATOM     41  H   UNL     1      10.303   4.957  -4.744  1.00  0.00     0.159 HD
ATOM     42  H   UNL     1       8.626   5.079  -5.115  1.00  0.00     0.159 HD
ENDBRANCH  34  35
ENDBRANCH  33  34
ENDBRANCH  32  33
ENDBRANCH   6  32
ENDBRANCH   4   6
ENDBRANCH   1   2
BRANCH   1  43
ATOM     43  C   UNL     1       1.178   0.228  -4.559  1.00  0.00     0.102 C 
ATOM     44  C   UNL     1      -0.188  -0.403  -4.874  1.00  0.00     0.020 C 
BRANCH  43  45
ATOM     45  C   UNL     1       2.369  -0.559  -5.114  1.00  0.00     0.225 C 
ATOM     46  O   UNL     1       3.501  -0.090  -5.202  1.00  0.00    -0.275 OA
ATOM     47  N   UNL     1       2.076  -1.811  -5.603  1.00  0.00    -0.342 N 
ATOM     48  H   UNL     1       1.185  -2.236  -5.387  1.00  0.00     0.164 HD
BRANCH  47  49
ATOM     49  C   UNL     1       3.121  -2.692  -6.132  1.00  0.00     0.192 C 
BRANCH  49  50
ATOM     50  C   UNL     1       2.995  -2.784  -7.655  1.00  0.00     0.047 C 
BRANCH  50  51
ATOM     51  C   UNL     1       1.647  -3.374  -8.092  1.00  0.00     0.103 C 
BRANCH  51  52
ATOM     52  C   UNL     1       0.546  -2.316  -8.141  1.00  0.00     0.226 C 
ATOM     53  O   UNL     1       0.819  -1.168  -8.497  1.00  0.00    -0.275 OA
BRANCH  52  54
ATOM     54  N   UNL     1      -0.757  -2.753  -7.838  1.00  0.00    -0.311 N 
ATOM     55  C   UNL     1      -1.016  -3.609  -6.673  1.00  0.00     0.153 C 
BRANCH  54  56
ATOM     56  C   UNL     1      -1.855  -2.385  -8.632  1.00  0.00     0.102 C 
ATOM     57  C   UNL     1      -2.640  -1.318  -8.410  1.00  0.00     0.043 C 
BRANCH  56  58
ATOM     58  C   UNL     1      -2.217  -3.173  -9.869  1.00  0.00     0.268 C 
ATOM     59  O   UNL     1      -1.502  -3.229 -10.860  1.00  0.00    -0.268 OA
ATOM     60  N   UNL     1      -3.394  -3.870  -9.741  1.00  0.00    -0.339 N 
ATOM     61  H   UNL     1      -3.934  -3.762  -8.890  1.00  0.00     0.164 HD
BRANCH  60  62
ATOM     62  C   UNL     1      -3.900  -4.747 -10.796  1.00  0.00     0.168 CG0
ATOM     63  C   UNL     1      -4.919  -4.024 -11.667  1.00  0.00     0.041 C 
ATOM     64  G   UNL     1      -4.520  -6.011 -10.165  1.00  0.00     0.000 G0
ENDBRANCH  60  62
ENDBRANCH  56  58
ENDBRANCH  54  56
ENDBRANCH  52  54
ENDBRANCH  51  52
ENDBRANCH  50  51
ENDBRANCH  49  50
BRANCH  49  65
ATOM     65  C   UNL     1       3.034  -4.102  -5.528  1.00  0.00     0.326 C 
ATOM     66  O   UNL     1       3.554  -5.107  -5.990  1.00  0.00    -0.250 OA
BRANCH  65  67
ATOM     67  O   UNL     1       2.260  -4.195  -4.424  1.00  0.00    -0.480 OA
ATOM     68  H   UNL     1       1.989  -5.139  -4.411  1.00  0.00     0.296 HD
ENDBRANCH  65  67
ENDBRANCH  49  65
ENDBRANCH  47  49
ENDBRANCH  43  45
ENDBRANCH   1  43
BRANCH   1  69
ATOM     69  C   UNL     1       0.294   1.323  -2.317  1.00  0.00    -0.001 C 
ATOM     70  C   UNL     1      -0.053   1.212  -1.023  1.00  0.00     0.001 C 
BRANCH  70  71
ATOM     71  C   UNL     1      -1.086   1.976  -0.320  1.00  0.00    -0.055 C 
ATOM     72  C   UNL     1      -0.721   3.137   0.263  1.00  0.00    -0.018 C 
ATOM     73  C   UNL     1      -2.485   1.417  -0.306  1.00  0.00     0.044 C 
BRANCH  72  74
ATOM     74  C   UNL     1      -1.567   4.129   1.048  1.00  0.00     0.038 C 
ATOM     75  C   UNL     1      -1.875   5.302   0.110  1.00  0.00     0.015 C 
BRANCH  74  76
ATOM     76  C   UNL     1      -0.807   4.516   2.351  1.00  0.00     0.128 C 
BRANCH  76  77
ATOM     77  O   UNL     1      -1.719   4.543   3.462  1.00  0.00    -0.381 OA
ATOM     78  C   UNL     1      -2.637   3.458   3.473  1.00  0.00     0.195 C 
ENDBRANCH  76  77
BRANCH  76  79
ATOM     79  C   UNL     1       0.449   3.651   2.627  1.00  0.00     0.068 C 
BRANCH  79  80
ATOM     80  C   UNL     1       1.803   4.287   2.425  1.00  0.00    -0.045 A 
ATOM     81  C   UNL     1       2.133   5.497   3.050  1.00  0.00     0.004 A 
ATOM     82  C   UNL     1       2.748   3.685   1.581  1.00  0.00     0.004 A 
ATOM     83  C   UNL     1       3.383   6.086   2.847  1.00  0.00     0.000 A 
ATOM     84  C   UNL     1       3.998   4.275   1.378  1.00  0.00     0.000 A 
ATOM     85  C   UNL     1       4.315   5.474   2.012  1.00  0.00     0.000 A 
ENDBRANCH  79  80
ENDBRANCH  76  79
ENDBRANCH  74  76
ENDBRANCH  72  74
ENDBRANCH  70  71
ENDBRANCH   1  69
TORSDOF 17
ENDMDL
MODEL 21
REMARK VINA RESULT:    -5.945      5.148     11.224
REMARK INTER + INTRA:         -25.041
REMARK INTER:                 -17.560
REMARK INTRA:                  -7.481
REMARK UNBOUND:                -7.281
REMARK SMILES C=C1C(=O)N[C@H](C)C(=O)N[C@@H](CC(C)C)C(=O)N[C@@H](C(=O)O)[C@H](C)C(=O)N[C@@H](CCCN=C(N)N)C(=O)N[C@@H](/C=C/C(C)=C/[C@H](C)[C@H](Cc2ccccc2)OC)[C@H](C)C(=O)N[C@@H](C(=O)O)CCC(=O)N1C
REMARK SMILES IDX 39 1 38 2 37 3 36 4 28 6 27 7 25 8 26 9 23 11 24 12 19 13
REMARK SMILES IDX 18 14 16 15 17 16 11 18 10 19 8 20 9 21 12 24 13 25 14 26
REMARK SMILES IDX 15 27 20 28 21 29 22 30 29 32 30 33 31 34 32 35 33 36 34 37
REMARK SMILES IDX 35 38 57 43 58 44 59 45 60 46 61 47 62 49 66 50 67 51 68 52
REMARK SMILES IDX 69 53 70 54 71 55 2 56 1 57 3 58 4 59 5 60 6 62 7 63 63 65
REMARK SMILES IDX 64 66 65 67 40 69 41 70 42 71 44 72 43 73 45 74 46 75 47 76
REMARK SMILES IDX 55 77 56 78 48 79 49 80 50 81 54 82 51 83 53 84 52 85
REMARK H PARENT 38 5 27 10 18 17 10 22 22 31 34 39 34 40 35 41 35 42 61 48
REMARK H PARENT 5 61 65 68
REMARK Flexibility Score:  369.900
ROOT
ATOM      1  C   UNL     1       1.583   1.321  -1.010  1.00  0.00     0.117 C 
ENDROOT
BRANCH   1   2
ATOM      2  N   UNL     1       2.882   1.979  -0.869  1.00  0.00    -0.347 N 
ATOM      3  O   UNL     1       4.112   0.127  -0.299  1.00  0.00    -0.273 OA
ATOM      4  C   UNL     1       4.064   1.311  -0.614  1.00  0.00     0.243 C 
ATOM      5  H   UNL     1       2.950   2.976  -1.013  1.00  0.00     0.164 HD
BRANCH   4   6
ATOM      6  C   UNL     1       5.310   2.233  -0.599  1.00  0.00     0.171 C 
BRANCH   6   7
ATOM      7  N   UNL     1       6.381   1.663  -1.433  1.00  0.00    -0.344 N 
ATOM      8  C   UNL     1       7.420   0.962  -0.860  1.00  0.00     0.226 C 
ATOM      9  O   UNL     1       7.518   0.798   0.350  1.00  0.00    -0.275 OA
ATOM     10  H   UNL     1       6.370   1.835  -2.430  1.00  0.00     0.164 HD
BRANCH   8  11
ATOM     11  C   UNL     1       8.413   0.391  -1.856  1.00  0.00     0.109 C 
ATOM     12  C   UNL     1       7.831   0.444  -3.269  1.00  0.00     0.021 C 
BRANCH  11  13
ATOM     13  C   UNL     1       9.777   1.091  -1.691  1.00  0.00     0.204 C 
BRANCH  13  14
ATOM     14  N   UNL     1       9.727   2.170  -0.699  1.00  0.00    -0.340 N 
ATOM     15  C   UNL     1      10.647   3.195  -0.662  1.00  0.00     0.243 C 
ATOM     16  O   UNL     1      11.541   3.311  -1.499  1.00  0.00    -0.273 OA
ATOM     17  H   UNL     1       9.109   2.052   0.107  1.00  0.00     0.164 HD
BRANCH  15  18
ATOM     18  C   UNL     1      10.519   4.097   0.590  1.00  0.00     0.171 C 
BRANCH  18  19
ATOM     19  N   UNL     1      11.495   5.173   0.433  1.00  0.00    -0.343 N 
ATOM     20  C   UNL     1      12.560   5.323   1.301  1.00  0.00     0.242 CG0
ATOM     21  O   UNL     1      12.662   4.642   2.318  1.00  0.00    -0.273 OA
ATOM     22  H   UNL     1      11.389   5.834  -0.328  1.00  0.00     0.164 HD
ATOM     23  G   UNL     1      13.527   6.466   0.929  1.00  0.00     0.000 G0
ENDBRANCH  18  19
BRANCH  18  24
ATOM     24  C   UNL     1       9.093   4.646   0.718  1.00  0.00     0.038 C 
BRANCH  24  25
ATOM     25  C   UNL     1       8.277   4.054   1.887  1.00  0.00    -0.015 C 
ATOM     26  C   UNL     1       7.550   5.129   2.696  1.00  0.00     0.007 C 
ATOM     27  C   UNL     1       9.202   3.254   2.807  1.00  0.00     0.007 C 
ENDBRANCH  24  25
ENDBRANCH  18  24
ENDBRANCH  15  18
ENDBRANCH  13  14
BRANCH  13  28
ATOM     28  C   UNL     1      10.898   0.136  -1.267  1.00  0.00     0.327 C 
ATOM     29  O   UNL     1      10.886  -0.607  -0.297  1.00  0.00    -0.250 OA
BRANCH  28  30
ATOM     30  O   UNL     1      12.011   0.260  -2.018  1.00  0.00    -0.480 OA
ATOM     31  H   UNL     1      12.361  -0.652  -2.082  1.00  0.00     0.296 HD
ENDBRANCH  28  30
ENDBRANCH  13  28
ENDBRANCH  11  13
ENDBRANCH   8  11
ENDBRANCH   6   7
BRANCH   6  32
ATOM     32  C   UNL     1       4.911   3.626  -1.097  1.00  0.00     0.037 C 
BRANCH  32  33
ATOM     33  C   UNL     1       6.109   4.584  -1.157  1.00  0.00     0.026 C 
BRANCH  33  34
ATOM     34  C   UNL     1       6.568   4.858  -2.590  1.00  0.00     0.146 C 
BRANCH  34  35
ATOM     35  N   UNL     1       7.767   4.076  -2.857  1.00  0.00    -0.254 NA
ATOM     36  C   UNL     1       8.631   4.539  -3.682  1.00  0.00     0.185 C 
ATOM     37  N   UNL     1       9.742   3.829  -3.932  1.00  0.00    -0.370 N 
ATOM     38  N   UNL     1       8.604   5.690  -4.377  1.00  0.00    -0.370 N 
ATOM     39  H   UNL     1       9.841   2.952  -3.437  1.00  0.00     0.159 HD
ATOM     40  H   UNL     1      10.539   4.197  -4.423  1.00  0.00     0.159 HD
ATOM     41  H   UNL     1       9.279   5.878  -5.100  1.00  0.00     0.159 HD
ATOM     42  H   UNL     1       7.819   6.318  -4.299  1.00  0.00     0.159 HD
ENDBRANCH  34  35
ENDBRANCH  33  34
ENDBRANCH  32  33
ENDBRANCH   6  32
ENDBRANCH   4   6
ENDBRANCH   1   2
BRANCH   1  43
ATOM     43  C   UNL     1       1.458   0.776  -2.462  1.00  0.00     0.102 C 
ATOM     44  C   UNL     1       0.682   1.714  -3.402  1.00  0.00     0.020 C 
BRANCH  43  45
ATOM     45  C   UNL     1       0.949  -0.668  -2.466  1.00  0.00     0.225 C 
ATOM     46  O   UNL     1       0.883  -1.359  -1.453  1.00  0.00    -0.275 OA
ATOM     47  N   UNL     1       0.653  -1.189  -3.705  1.00  0.00    -0.342 N 
ATOM     48  H   UNL     1       0.567  -0.571  -4.499  1.00  0.00     0.164 HD
BRANCH  47  49
ATOM     49  C   UNL     1       0.123  -2.547  -3.858  1.00  0.00     0.192 C 
BRANCH  49  50
ATOM     50  C   UNL     1      -1.162  -2.693  -3.039  1.00  0.00     0.047 C 
BRANCH  50  51
ATOM     51  C   UNL     1      -2.149  -3.681  -3.675  1.00  0.00     0.103 C 
BRANCH  51  52
ATOM     52  C   UNL     1      -2.279  -3.472  -5.182  1.00  0.00     0.226 C 
ATOM     53  O   UNL     1      -1.865  -4.336  -5.956  1.00  0.00    -0.275 OA
BRANCH  52  54
ATOM     54  N   UNL     1      -2.950  -2.306  -5.597  1.00  0.00    -0.311 N 
ATOM     55  C   UNL     1      -2.272  -1.296  -6.421  1.00  0.00     0.153 C 
BRANCH  54  56
ATOM     56  C   UNL     1      -4.290  -2.068  -5.246  1.00  0.00     0.102 C 
ATOM     57  C   UNL     1      -5.330  -2.830  -5.623  1.00  0.00     0.043 C 
BRANCH  56  58
ATOM     58  C   UNL     1      -4.661  -0.914  -4.346  1.00  0.00     0.268 C 
ATOM     59  O   UNL     1      -4.056  -0.645  -3.317  1.00  0.00    -0.268 OA
ATOM     60  N   UNL     1      -5.703  -0.162  -4.834  1.00  0.00    -0.339 N 
ATOM     61  H   UNL     1      -6.159  -0.457  -5.689  1.00  0.00     0.164 HD
BRANCH  60  62
ATOM     62  C   UNL     1      -6.184   1.039  -4.151  1.00  0.00     0.168 CG0
ATOM     63  C   UNL     1      -7.378   0.720  -3.260  1.00  0.00     0.041 C 
ATOM     64  G   UNL     1      -6.553   2.114  -5.194  1.00  0.00     0.000 G0
ENDBRANCH  60  62
ENDBRANCH  56  58
ENDBRANCH  54  56
ENDBRANCH  52  54
ENDBRANCH  51  52
ENDBRANCH  50  51
ENDBRANCH  49  50
BRANCH  49  65
ATOM     65  C   UNL     1       1.139  -3.607  -3.405  1.00  0.00     0.326 C 
ATOM     66  O   UNL     1       2.109  -3.981  -4.048  1.00  0.00    -0.250 OA
BRANCH  65  67
ATOM     67  O   UNL     1       0.861  -4.182  -2.215  1.00  0.00    -0.480 OA
ATOM     68  H   UNL     1       0.279  -3.528  -1.772  1.00  0.00     0.296 HD
ENDBRANCH  65  67
ENDBRANCH  49  65
ENDBRANCH  47  49
ENDBRANCH  43  45
ENDBRANCH   1  43
BRANCH   1  69
ATOM     69  C   UNL     1       0.549   2.312  -0.507  1.00  0.00    -0.001 C 
ATOM     70  C   UNL     1      -0.671   2.039  -0.010  1.00  0.00     0.001 C 
BRANCH  70  71
ATOM     71  C   UNL     1      -1.652   3.003   0.493  1.00  0.00    -0.055 C 
ATOM     72  C   UNL     1      -1.267   4.292   0.600  1.00  0.00    -0.018 C 
ATOM     73  C   UNL     1      -3.023   2.489   0.847  1.00  0.00     0.044 C 
BRANCH  72  74
ATOM     74  C   UNL     1      -2.062   5.497   1.081  1.00  0.00     0.038 C 
ATOM     75  C   UNL     1      -2.255   6.423  -0.126  1.00  0.00     0.015 C 
BRANCH  74  76
ATOM     76  C   UNL     1      -1.314   6.142   2.285  1.00  0.00     0.128 C 
BRANCH  76  77
ATOM     77  O   UNL     1      -2.252   6.820   3.139  1.00  0.00    -0.381 OA
ATOM     78  C   UNL     1      -1.835   6.899   4.495  1.00  0.00     0.195 C 
ENDBRANCH  76  77
BRANCH  76  79
ATOM     79  C   UNL     1      -0.402   5.157   3.060  1.00  0.00     0.068 C 
BRANCH  79  80
ATOM     80  C   UNL     1       1.088   5.248   2.834  1.00  0.00    -0.045 A 
ATOM     81  C   UNL     1       1.784   6.439   3.077  1.00  0.00     0.004 A 
ATOM     82  C   UNL     1       1.797   4.140   2.346  1.00  0.00     0.004 A 
ATOM     83  C   UNL     1       3.160   6.518   2.852  1.00  0.00     0.000 A 
ATOM     84  C   UNL     1       3.173   4.220   2.121  1.00  0.00     0.000 A 
ATOM     85  C   UNL     1       3.854   5.409   2.375  1.00  0.00     0.000 A 
ENDBRANCH  79  80
ENDBRANCH  76  79
ENDBRANCH  74  76
ENDBRANCH  72  74
ENDBRANCH  70  71
ENDBRANCH   1  69
TORSDOF 17
ENDMDL
MODEL 22
REMARK VINA RESULT:    -5.938      4.906     11.600
REMARK INTER + INTRA:         -25.021
REMARK INTER:                 -18.366
REMARK INTRA:                  -6.655
REMARK UNBOUND:                -7.281
REMARK SMILES C=C1C(=O)N[C@H](C)C(=O)N[C@@H](CC(C)C)C(=O)N[C@@H](C(=O)O)[C@H](C)C(=O)N[C@@H](CCCN=C(N)N)C(=O)N[C@@H](/C=C/C(C)=C/[C@H](C)[C@H](Cc2ccccc2)OC)[C@H](C)C(=O)N[C@@H](C(=O)O)CCC(=O)N1C
REMARK SMILES IDX 39 1 38 2 37 3 36 4 28 6 27 7 25 8 26 9 23 11 24 12 19 13
REMARK SMILES IDX 18 14 16 15 17 16 11 18 10 19 8 20 9 21 12 24 13 25 14 26
REMARK SMILES IDX 15 27 20 28 21 29 22 30 29 32 30 33 31 34 32 35 33 36 34 37
REMARK SMILES IDX 35 38 57 43 58 44 59 45 60 46 61 47 62 49 66 50 67 51 68 52
REMARK SMILES IDX 69 53 70 54 71 55 2 56 1 57 3 58 4 59 5 60 6 62 7 63 63 65
REMARK SMILES IDX 64 66 65 67 40 69 41 70 42 71 44 72 43 73 45 74 46 75 47 76
REMARK SMILES IDX 55 77 56 78 48 79 49 80 50 81 54 82 51 83 53 84 52 85
REMARK H PARENT 38 5 27 10 18 17 10 22 22 31 34 39 34 40 35 41 35 42 61 48
REMARK H PARENT 5 61 65 68
REMARK Flexibility Score:  369.900
ROOT
ATOM      1  C   UNL     1       1.777   1.187  -1.947  1.00  0.00     0.117 C 
ENDROOT
BRANCH   1   2
ATOM      2  N   UNL     1       3.029   1.860  -1.598  1.00  0.00    -0.347 N 
ATOM      3  O   UNL     1       3.927   0.194  -0.298  1.00  0.00    -0.273 OA
ATOM      4  C   UNL     1       4.047   1.271  -0.873  1.00  0.00     0.243 C 
ATOM      5  H   UNL     1       3.200   2.794  -1.938  1.00  0.00     0.164 HD
BRANCH   4   6
ATOM      6  C   UNL     1       5.300   2.169  -0.716  1.00  0.00     0.171 C 
BRANCH   6   7
ATOM      7  N   UNL     1       6.408   1.656  -1.538  1.00  0.00    -0.344 N 
ATOM      8  C   UNL     1       7.406   0.892  -0.974  1.00  0.00     0.226 C 
ATOM      9  O   UNL     1       7.437   0.624   0.222  1.00  0.00    -0.275 OA
ATOM     10  H   UNL     1       6.453   1.913  -2.516  1.00  0.00     0.164 HD
BRANCH   8  11
ATOM     11  C   UNL     1       8.446   0.393  -1.961  1.00  0.00     0.109 C 
ATOM     12  C   UNL     1       7.913   0.508  -3.389  1.00  0.00     0.021 C 
BRANCH  11  13
ATOM     13  C   UNL     1       9.789   1.109  -1.712  1.00  0.00     0.204 C 
BRANCH  13  14
ATOM     14  N   UNL     1       9.708   2.060  -0.598  1.00  0.00    -0.340 N 
ATOM     15  C   UNL     1      10.496   3.188  -0.519  1.00  0.00     0.243 C 
ATOM     16  O   UNL     1      11.281   3.509  -1.409  1.00  0.00    -0.273 OA
ATOM     17  H   UNL     1       9.192   1.777   0.239  1.00  0.00     0.164 HD
BRANCH  15  18
ATOM     18  C   UNL     1      10.385   3.925   0.838  1.00  0.00     0.171 C 
BRANCH  18  19
ATOM     19  N   UNL     1      11.136   5.172   0.699  1.00  0.00    -0.343 N 
ATOM     20  C   UNL     1      12.293   5.409   1.415  1.00  0.00     0.242 CG0
ATOM     21  O   UNL     1      12.673   4.643   2.297  1.00  0.00    -0.273 OA
ATOM     22  H   UNL     1      10.798   5.888   0.066  1.00  0.00     0.164 HD
ATOM     23  G   UNL     1      12.988   6.745   1.078  1.00  0.00     0.000 G0
ENDBRANCH  18  19
BRANCH  18  24
ATOM     24  C   UNL     1       8.917   4.189   1.193  1.00  0.00     0.038 C 
BRANCH  24  25
ATOM     25  C   UNL     1       8.602   4.149   2.703  1.00  0.00    -0.015 C 
ATOM     26  C   UNL     1       8.652   5.534   3.349  1.00  0.00     0.007 C 
ATOM     27  C   UNL     1       9.587   3.215   3.410  1.00  0.00     0.007 C 
ENDBRANCH  24  25
ENDBRANCH  18  24
ENDBRANCH  15  18
ENDBRANCH  13  14
BRANCH  13  28
ATOM     28  C   UNL     1      10.938   0.145  -1.403  1.00  0.00     0.327 C 
ATOM     29  O   UNL     1      11.262  -0.264  -0.298  1.00  0.00    -0.250 OA
BRANCH  28  30
ATOM     30  O   UNL     1      11.685  -0.152  -2.486  1.00  0.00    -0.480 OA
ATOM     31  H   UNL     1      11.795  -1.124  -2.444  1.00  0.00     0.296 HD
ENDBRANCH  28  30
ENDBRANCH  13  28
ENDBRANCH  11  13
ENDBRANCH   8  11
ENDBRANCH   6   7
BRANCH   6  32
ATOM     32  C   UNL     1       4.943   3.606  -1.114  1.00  0.00     0.037 C 
BRANCH  32  33
ATOM     33  C   UNL     1       5.496   4.637  -0.120  1.00  0.00     0.026 C 
BRANCH  33  34
ATOM     34  C   UNL     1       6.204   5.799  -0.817  1.00  0.00     0.146 C 
BRANCH  34  35
ATOM     35  N   UNL     1       5.266   6.904  -0.957  1.00  0.00    -0.254 NA
ATOM     36  C   UNL     1       5.373   7.676  -1.974  1.00  0.00     0.185 C 
ATOM     37  N   UNL     1       4.511   8.695  -2.116  1.00  0.00    -0.370 N 
ATOM     38  N   UNL     1       6.263   7.627  -2.981  1.00  0.00    -0.370 N 
ATOM     39  H   UNL     1       3.802   8.793  -1.400  1.00  0.00     0.159 HD
ATOM     40  H   UNL     1       4.419   9.232  -2.961  1.00  0.00     0.159 HD
ATOM     41  H   UNL     1       6.332   8.376  -3.652  1.00  0.00     0.159 HD
ATOM     42  H   UNL     1       6.982   6.921  -2.997  1.00  0.00     0.159 HD
ENDBRANCH  34  35
ENDBRANCH  33  34
ENDBRANCH  32  33
ENDBRANCH   6  32
ENDBRANCH   4   6
ENDBRANCH   1   2
BRANCH   1  43
ATOM     43  C   UNL     1       1.775   0.908  -3.478  1.00  0.00     0.102 C 
ATOM     44  C   UNL     1       0.851   1.849  -4.270  1.00  0.00     0.020 C 
BRANCH  43  45
ATOM     45  C   UNL     1       1.544  -0.578  -3.766  1.00  0.00     0.225 C 
ATOM     46  O   UNL     1       2.264  -1.238  -4.509  1.00  0.00    -0.275 OA
ATOM     47  N   UNL     1       0.408  -1.120  -3.208  1.00  0.00    -0.342 N 
ATOM     48  H   UNL     1      -0.084  -0.614  -2.485  1.00  0.00     0.164 HD
BRANCH  47  49
ATOM     49  C   UNL     1       0.078  -2.539  -3.369  1.00  0.00     0.192 C 
BRANCH  49  50
ATOM     50  C   UNL     1      -1.440  -2.725  -3.297  1.00  0.00     0.047 C 
BRANCH  50  51
ATOM     51  C   UNL     1      -1.971  -3.626  -4.421  1.00  0.00     0.103 C 
BRANCH  51  52
ATOM     52  C   UNL     1      -1.437  -3.209  -5.790  1.00  0.00     0.226 C 
ATOM     53  O   UNL     1      -0.719  -3.982  -6.426  1.00  0.00    -0.275 OA
BRANCH  52  54
ATOM     54  N   UNL     1      -1.875  -1.964  -6.281  1.00  0.00    -0.311 N 
ATOM     55  C   UNL     1      -0.915  -0.903  -6.614  1.00  0.00     0.153 C 
BRANCH  54  56
ATOM     56  C   UNL     1      -3.239  -1.693  -6.475  1.00  0.00     0.102 C 
ATOM     57  C   UNL     1      -3.920  -0.706  -5.870  1.00  0.00     0.043 C 
BRANCH  56  58
ATOM     58  C   UNL     1      -4.057  -2.499  -7.456  1.00  0.00     0.268 C 
ATOM     59  O   UNL     1      -3.695  -2.727  -8.603  1.00  0.00    -0.268 OA
ATOM     60  N   UNL     1      -5.213  -3.003  -6.909  1.00  0.00    -0.339 N 
ATOM     61  H   UNL     1      -5.447  -2.759  -5.954  1.00  0.00     0.164 HD
BRANCH  60  62
ATOM     62  C   UNL     1      -6.122  -3.864  -7.666  1.00  0.00     0.168 CG0
ATOM     63  C   UNL     1      -7.516  -3.253  -7.743  1.00  0.00     0.041 C 
ATOM     64  G   UNL     1      -6.174  -5.261  -7.014  1.00  0.00     0.000 G0
ENDBRANCH  60  62
ENDBRANCH  56  58
ENDBRANCH  54  56
ENDBRANCH  52  54
ENDBRANCH  51  52
ENDBRANCH  50  51
ENDBRANCH  49  50
BRANCH  49  65
ATOM     65  C   UNL     1       0.748  -3.403  -2.290  1.00  0.00     0.326 C 
ATOM     66  O   UNL     1       1.512  -4.335  -2.499  1.00  0.00    -0.250 OA
BRANCH  65  67
ATOM     67  O   UNL     1       0.388  -3.103  -1.023  1.00  0.00    -0.480 OA
ATOM     68  H   UNL     1       1.231  -2.833  -0.600  1.00  0.00     0.296 HD
ENDBRANCH  65  67
ENDBRANCH  49  65
ENDBRANCH  47  49
ENDBRANCH  43  45
ENDBRANCH   1  43
BRANCH   1  69
ATOM     69  C   UNL     1       0.663   2.030  -1.354  1.00  0.00    -0.001 C 
ATOM     70  C   UNL     1      -0.508   1.600  -0.851  1.00  0.00     0.001 C 
BRANCH  70  71
ATOM     71  C   UNL     1      -1.567   2.421  -0.262  1.00  0.00    -0.055 C 
ATOM     72  C   UNL     1      -1.290   3.719  -0.014  1.00  0.00    -0.018 C 
ATOM     73  C   UNL     1      -2.892   1.763   0.019  1.00  0.00     0.044 C 
BRANCH  72  74
ATOM     74  C   UNL     1      -2.183   4.797   0.583  1.00  0.00     0.038 C 
ATOM     75  C   UNL     1      -2.032   6.046  -0.294  1.00  0.00     0.015 C 
BRANCH  74  76
ATOM     76  C   UNL     1      -1.796   4.998   2.078  1.00  0.00     0.128 C 
BRANCH  76  77
ATOM     77  O   UNL     1      -2.971   4.925   2.903  1.00  0.00    -0.381 OA
ATOM     78  C   UNL     1      -2.699   4.578   4.254  1.00  0.00     0.195 C 
ENDBRANCH  76  77
BRANCH  76  79
ATOM     79  C   UNL     1      -0.662   4.061   2.565  1.00  0.00     0.068 C 
BRANCH  79  80
ATOM     80  C   UNL     1       0.725   4.642   2.702  1.00  0.00    -0.045 A 
ATOM     81  C   UNL     1       0.914   5.986   3.047  1.00  0.00     0.004 A 
ATOM     82  C   UNL     1       1.853   3.844   2.455  1.00  0.00     0.004 A 
ATOM     83  C   UNL     1       2.200   6.519   3.157  1.00  0.00     0.000 A 
ATOM     84  C   UNL     1       3.139   4.378   2.565  1.00  0.00     0.000 A 
ATOM     85  C   UNL     1       3.312   5.715   2.917  1.00  0.00     0.000 A 
ENDBRANCH  79  80
ENDBRANCH  76  79
ENDBRANCH  74  76
ENDBRANCH  72  74
ENDBRANCH  70  71
ENDBRANCH   1  69
TORSDOF 17
ENDMDL
MODEL 23
REMARK VINA RESULT:    -5.919      2.888      7.981
REMARK INTER + INTRA:         -24.966
REMARK INTER:                 -16.657
REMARK INTRA:                  -8.309
REMARK UNBOUND:                -7.281
REMARK SMILES C=C1C(=O)N[C@H](C)C(=O)N[C@@H](CC(C)C)C(=O)N[C@@H](C(=O)O)[C@H](C)C(=O)N[C@@H](CCCN=C(N)N)C(=O)N[C@@H](/C=C/C(C)=C/[C@H](C)[C@H](Cc2ccccc2)OC)[C@H](C)C(=O)N[C@@H](C(=O)O)CCC(=O)N1C
REMARK SMILES IDX 39 1 38 2 37 3 36 4 28 6 27 7 25 8 26 9 23 11 24 12 19 13
REMARK SMILES IDX 18 14 16 15 17 16 11 18 10 19 8 20 9 21 12 24 13 25 14 26
REMARK SMILES IDX 15 27 20 28 21 29 22 30 29 32 30 33 31 34 32 35 33 36 34 37
REMARK SMILES IDX 35 38 57 43 58 44 59 45 60 46 61 47 62 49 66 50 67 51 68 52
REMARK SMILES IDX 69 53 70 54 71 55 2 56 1 57 3 58 4 59 5 60 6 62 7 63 63 65
REMARK SMILES IDX 64 66 65 67 40 69 41 70 42 71 44 72 43 73 45 74 46 75 47 76
REMARK SMILES IDX 55 77 56 78 48 79 49 80 50 81 54 82 51 83 53 84 52 85
REMARK H PARENT 38 5 27 10 18 17 10 22 22 31 34 39 34 40 35 41 35 42 61 48
REMARK H PARENT 5 61 65 68
REMARK Flexibility Score:  369.900
ROOT
ATOM      1  C   UNL     1       8.566   1.247  -6.068  1.00  0.00     0.117 C 
ENDROOT
BRANCH   1   2
ATOM      2  N   UNL     1       7.104   1.296  -6.057  1.00  0.00    -0.347 N 
ATOM      3  O   UNL     1       6.715  -0.966  -6.056  1.00  0.00    -0.273 OA
ATOM      4  C   UNL     1       6.294   0.181  -5.959  1.00  0.00     0.243 C 
ATOM      5  H   UNL     1       6.639   2.191  -6.071  1.00  0.00     0.164 HD
BRANCH   4   6
ATOM      6  C   UNL     1       4.782   0.515  -5.880  1.00  0.00     0.171 C 
BRANCH   6   7
ATOM      7  N   UNL     1       4.004  -0.695  -5.570  1.00  0.00    -0.344 N 
ATOM      8  C   UNL     1       2.882  -1.017  -6.303  1.00  0.00     0.226 C 
ATOM      9  O   UNL     1       2.469  -0.315  -7.219  1.00  0.00    -0.275 OA
ATOM     10  H   UNL     1       4.276  -1.264  -4.778  1.00  0.00     0.164 HD
BRANCH   8  11
ATOM     11  C   UNL     1       2.222  -2.323  -5.897  1.00  0.00     0.109 C 
ATOM     12  C   UNL     1       1.012  -2.045  -5.005  1.00  0.00     0.021 C 
BRANCH  11  13
ATOM     13  C   UNL     1       1.922  -3.168  -7.151  1.00  0.00     0.204 C 
BRANCH  13  14
ATOM     14  N   UNL     1       2.831  -2.854  -8.258  1.00  0.00    -0.340 N 
ATOM     15  C   UNL     1       2.463  -2.963  -9.582  1.00  0.00     0.243 C 
ATOM     16  O   UNL     1       1.325  -3.274  -9.927  1.00  0.00    -0.273 OA
ATOM     17  H   UNL     1       3.825  -2.738  -8.046  1.00  0.00     0.164 HD
BRANCH  15  18
ATOM     18  C   UNL     1       3.642  -2.782 -10.568  1.00  0.00     0.171 C 
BRANCH  18  19
ATOM     19  N   UNL     1       3.109  -3.026 -11.907  1.00  0.00    -0.343 N 
ATOM     20  C   UNL     1       3.803  -3.770 -12.843  1.00  0.00     0.242 CG0
ATOM     21  O   UNL     1       4.954  -4.147 -12.640  1.00  0.00    -0.273 OA
ATOM     22  H   UNL     1       2.209  -2.637 -12.163  1.00  0.00     0.164 HD
ATOM     23  G   UNL     1       3.047  -3.987 -14.170  1.00  0.00     0.000 G0
ENDBRANCH  18  19
BRANCH  18  24
ATOM     24  C   UNL     1       4.237  -1.373 -10.449  1.00  0.00     0.038 C 
BRANCH  24  25
ATOM     25  C   UNL     1       5.768  -1.302 -10.630  1.00  0.00    -0.015 C 
ATOM     26  C   UNL     1       6.433  -0.357  -9.629  1.00  0.00     0.007 C 
ATOM     27  C   UNL     1       6.098  -0.857 -12.057  1.00  0.00     0.007 C 
ENDBRANCH  24  25
ENDBRANCH  18  24
ENDBRANCH  15  18
ENDBRANCH  13  14
BRANCH  13  28
ATOM     28  C   UNL     1       2.018  -4.676  -6.899  1.00  0.00     0.327 C 
ATOM     29  O   UNL     1       1.151  -5.504  -7.130  1.00  0.00    -0.250 OA
BRANCH  28  30
ATOM     30  O   UNL     1       3.152  -5.035  -6.263  1.00  0.00    -0.480 OA
ATOM     31  H   UNL     1       3.048  -4.668  -5.360  1.00  0.00     0.296 HD
ENDBRANCH  28  30
ENDBRANCH  13  28
ENDBRANCH  11  13
ENDBRANCH   8  11
ENDBRANCH   6   7
BRANCH   6  32
ATOM     32  C   UNL     1       4.560   1.596  -4.816  1.00  0.00     0.037 C 
BRANCH  32  33
ATOM     33  C   UNL     1       3.118   2.122  -4.819  1.00  0.00     0.026 C 
BRANCH  33  34
ATOM     34  C   UNL     1       2.322   1.654  -3.600  1.00  0.00     0.146 C 
BRANCH  34  35
ATOM     35  N   UNL     1       3.204   0.890  -2.728  1.00  0.00    -0.254 NA
ATOM     36  C   UNL     1       3.180   1.127  -1.470  1.00  0.00     0.185 C 
ATOM     37  N   UNL     1       3.985   0.425  -0.657  1.00  0.00    -0.370 N 
ATOM     38  N   UNL     1       2.434   2.017  -0.792  1.00  0.00    -0.370 N 
ATOM     39  H   UNL     1       4.572  -0.275  -1.092  1.00  0.00     0.159 HD
ATOM     40  H   UNL     1       3.902   0.428   0.345  1.00  0.00     0.159 HD
ATOM     41  H   UNL     1       2.607   2.208   0.182  1.00  0.00     0.159 HD
ATOM     42  H   UNL     1       1.794   2.626  -1.278  1.00  0.00     0.159 HD
ENDBRANCH  34  35
ENDBRANCH  33  34
ENDBRANCH  32  33
ENDBRANCH   6  32
ENDBRANCH   4   6
ENDBRANCH   1   2
BRANCH   1  43
ATOM     43  C   UNL     1       9.105   2.318  -5.076  1.00  0.00     0.102 C 
ATOM     44  C   UNL     1      10.594   2.140  -4.734  1.00  0.00     0.020 C 
BRANCH  43  45
ATOM     45  C   UNL     1       8.196   2.438  -3.849  1.00  0.00     0.225 C 
ATOM     46  O   UNL     1       7.361   3.328  -3.718  1.00  0.00    -0.275 OA
ATOM     47  N   UNL     1       8.436   1.530  -2.843  1.00  0.00    -0.342 N 
ATOM     48  H   UNL     1       9.012   0.721  -3.026  1.00  0.00     0.164 HD
BRANCH  47  49
ATOM     49  C   UNL     1       7.620   1.504  -1.625  1.00  0.00     0.192 C 
BRANCH  49  50
ATOM     50  C   UNL     1       8.278   2.367  -0.546  1.00  0.00     0.047 C 
BRANCH  50  51
ATOM     51  C   UNL     1       7.246   3.067   0.349  1.00  0.00     0.103 C 
BRANCH  51  52
ATOM     52  C   UNL     1       7.894   4.095   1.275  1.00  0.00     0.226 C 
ATOM     53  O   UNL     1       9.028   3.892   1.712  1.00  0.00    -0.275 OA
BRANCH  52  54
ATOM     54  N   UNL     1       7.161   5.272   1.515  1.00  0.00    -0.311 N 
ATOM     55  C   UNL     1       5.735   5.218   1.861  1.00  0.00     0.153 C 
BRANCH  54  56
ATOM     56  C   UNL     1       7.764   6.538   1.437  1.00  0.00     0.102 C 
ATOM     57  C   UNL     1       8.056   7.182   0.295  1.00  0.00     0.043 C 
BRANCH  56  58
ATOM     58  C   UNL     1       8.100   7.315   2.689  1.00  0.00     0.268 C 
ATOM     59  O   UNL     1       8.533   6.790   3.706  1.00  0.00    -0.268 OA
ATOM     60  N   UNL     1       7.931   8.671   2.545  1.00  0.00    -0.339 N 
ATOM     61  H   UNL     1       7.558   9.026   1.672  1.00  0.00     0.164 HD
BRANCH  60  62
ATOM     62  C   UNL     1       8.258   9.615   3.613  1.00  0.00     0.168 CG0
ATOM     63  C   UNL     1       8.360  11.037   3.075  1.00  0.00     0.041 C 
ATOM     64  G   UNL     1       9.577   9.192   4.291  1.00  0.00     0.000 G0
ENDBRANCH  60  62
ENDBRANCH  56  58
ENDBRANCH  54  56
ENDBRANCH  52  54
ENDBRANCH  51  52
ENDBRANCH  50  51
ENDBRANCH  49  50
BRANCH  49  65
ATOM     65  C   UNL     1       7.442   0.073  -1.094  1.00  0.00     0.326 C 
ATOM     66  O   UNL     1       7.138  -0.227   0.052  1.00  0.00    -0.250 OA
BRANCH  65  67
ATOM     67  O   UNL     1       7.709  -0.900  -1.993  1.00  0.00    -0.480 OA
ATOM     68  H   UNL     1       7.858  -1.695  -1.436  1.00  0.00     0.296 HD
ENDBRANCH  65  67
ENDBRANCH  49  65
ENDBRANCH  47  49
ENDBRANCH  43  45
ENDBRANCH   1  43
BRANCH   1  69
ATOM     69  C   UNL     1       8.981   1.324  -7.526  1.00  0.00    -0.001 C 
ATOM     70  C   UNL     1       9.557   2.361  -8.158  1.00  0.00     0.001 C 
BRANCH  70  71
ATOM     71  C   UNL     1       9.973   2.416  -9.561  1.00  0.00    -0.055 C 
ATOM     72  C   UNL     1       9.604   1.396 -10.365  1.00  0.00    -0.018 C 
ATOM     73  C   UNL     1      10.776   3.609 -10.010  1.00  0.00     0.044 C 
BRANCH  72  74
ATOM     74  C   UNL     1       9.886   1.187 -11.846  1.00  0.00     0.038 C 
ATOM     75  C   UNL     1       8.579   1.463 -12.599  1.00  0.00     0.015 C 
BRANCH  74  76
ATOM     76  C   UNL     1      10.466  -0.244 -12.049  1.00  0.00     0.128 C 
BRANCH  76  77
ATOM     77  O   UNL     1      11.681  -0.177 -12.815  1.00  0.00    -0.381 OA
ATOM     78  C   UNL     1      12.175   1.144 -12.987  1.00  0.00     0.195 C 
ENDBRANCH  76  77
BRANCH  76  79
ATOM     79  C   UNL     1      10.629  -1.049 -10.735  1.00  0.00     0.068 C 
BRANCH  79  80
ATOM     80  C   UNL     1       9.661  -2.176 -10.471  1.00  0.00    -0.045 A 
ATOM     81  C   UNL     1       9.310  -2.536  -9.164  1.00  0.00     0.004 A 
ATOM     82  C   UNL     1       9.116  -2.904 -11.540  1.00  0.00     0.004 A 
ATOM     83  C   UNL     1       8.425  -3.590  -8.928  1.00  0.00     0.000 A 
ATOM     84  C   UNL     1       8.231  -3.959 -11.303  1.00  0.00     0.000 A 
ATOM     85  C   UNL     1       7.885  -4.300  -9.998  1.00  0.00     0.000 A 
ENDBRANCH  79  80
ENDBRANCH  76  79
ENDBRANCH  74  76
ENDBRANCH  72  74
ENDBRANCH  70  71
ENDBRANCH   1  69
TORSDOF 17
ENDMDL
MODEL 24
REMARK VINA RESULT:    -5.918      3.130      8.163
REMARK INTER + INTRA:         -24.963
REMARK INTER:                 -18.071
REMARK INTRA:                  -6.892
REMARK UNBOUND:                -7.281
REMARK SMILES C=C1C(=O)N[C@H](C)C(=O)N[C@@H](CC(C)C)C(=O)N[C@@H](C(=O)O)[C@H](C)C(=O)N[C@@H](CCCN=C(N)N)C(=O)N[C@@H](/C=C/C(C)=C/[C@H](C)[C@H](Cc2ccccc2)OC)[C@H](C)C(=O)N[C@@H](C(=O)O)CCC(=O)N1C
REMARK SMILES IDX 39 1 38 2 37 3 36 4 28 6 27 7 25 8 26 9 23 11 24 12 19 13
REMARK SMILES IDX 18 14 16 15 17 16 11 18 10 19 8 20 9 21 12 24 13 25 14 26
REMARK SMILES IDX 15 27 20 28 21 29 22 30 29 32 30 33 31 34 32 35 33 36 34 37
REMARK SMILES IDX 35 38 57 43 58 44 59 45 60 46 61 47 62 49 66 50 67 51 68 52
REMARK SMILES IDX 69 53 70 54 71 55 2 56 1 57 3 58 4 59 5 60 6 62 7 63 63 65
REMARK SMILES IDX 64 66 65 67 40 69 41 70 42 71 44 72 43 73 45 74 46 75 47 76
REMARK SMILES IDX 55 77 56 78 48 79 49 80 50 81 54 82 51 83 53 84 52 85
REMARK H PARENT 38 5 27 10 18 17 10 22 22 31 34 39 34 40 35 41 35 42 61 48
REMARK H PARENT 5 61 65 68
REMARK Flexibility Score:  369.900
ROOT
ATOM      1  C   UNL     1       5.993  -1.288  -6.788  1.00  0.00     0.117 C 
ENDROOT
BRANCH   1   2
ATOM      2  N   UNL     1       6.921  -1.879  -7.753  1.00  0.00    -0.347 N 
ATOM      3  O   UNL     1       6.761  -4.058  -7.048  1.00  0.00    -0.273 OA
ATOM      4  C   UNL     1       7.161  -3.235  -7.865  1.00  0.00     0.243 C 
ATOM      5  H   UNL     1       7.387  -1.282  -8.420  1.00  0.00     0.164 HD
BRANCH   4   6
ATOM      6  C   UNL     1       8.120  -3.604  -9.025  1.00  0.00     0.171 C 
BRANCH   6   7
ATOM      7  N   UNL     1       7.484  -3.335 -10.324  1.00  0.00    -0.344 N 
ATOM      8  C   UNL     1       7.608  -4.229 -11.366  1.00  0.00     0.226 C 
ATOM      9  O   UNL     1       8.260  -5.262 -11.275  1.00  0.00    -0.275 OA
ATOM     10  H   UNL     1       6.993  -2.460 -10.459  1.00  0.00     0.164 HD
BRANCH   8  11
ATOM     11  C   UNL     1       6.850  -3.836 -12.621  1.00  0.00     0.109 C 
ATOM     12  C   UNL     1       5.374  -3.607 -12.294  1.00  0.00     0.021 C 
BRANCH  11  13
ATOM     13  C   UNL     1       7.554  -2.647 -13.305  1.00  0.00     0.204 C 
BRANCH  13  14
ATOM     14  N   UNL     1       8.722  -3.071 -14.083  1.00  0.00    -0.340 N 
ATOM     15  C   UNL     1       9.863  -2.307 -14.196  1.00  0.00     0.243 C 
ATOM     16  O   UNL     1      10.006  -1.240 -13.602  1.00  0.00    -0.273 OA
ATOM     17  H   UNL     1       8.613  -3.866 -14.718  1.00  0.00     0.164 HD
BRANCH  15  18
ATOM     18  C   UNL     1      10.876  -2.857 -15.231  1.00  0.00     0.171 C 
BRANCH  18  19
ATOM     19  N   UNL     1      10.511  -4.251 -15.473  1.00  0.00    -0.343 N 
ATOM     20  C   UNL     1      11.277  -5.298 -14.997  1.00  0.00     0.242 CG0
ATOM     21  O   UNL     1      12.368  -5.107 -14.464  1.00  0.00    -0.273 OA
ATOM     22  H   UNL     1       9.678  -4.461 -16.010  1.00  0.00     0.164 HD
ATOM     23  G   UNL     1      10.693  -6.696 -15.283  1.00  0.00     0.000 G0
ENDBRANCH  18  19
BRANCH  18  24
ATOM     24  C   UNL     1      10.832  -2.032 -16.523  1.00  0.00     0.038 C 
BRANCH  24  25
ATOM     25  C   UNL     1       9.760  -2.482 -17.539  1.00  0.00    -0.015 C 
ATOM     26  C   UNL     1      10.359  -2.856 -18.894  1.00  0.00     0.007 C 
ATOM     27  C   UNL     1       8.725  -1.369 -17.722  1.00  0.00     0.007 C 
ENDBRANCH  24  25
ENDBRANCH  18  24
ENDBRANCH  15  18
ENDBRANCH  13  14
BRANCH  13  28
ATOM     28  C   UNL     1       6.638  -1.866 -14.252  1.00  0.00     0.327 C 
ATOM     29  O   UNL     1       6.125  -0.780 -14.028  1.00  0.00    -0.250 OA
BRANCH  28  30
ATOM     30  O   UNL     1       6.327  -2.550 -15.371  1.00  0.00    -0.480 OA
ATOM     31  H   UNL     1       6.442  -1.897 -16.093  1.00  0.00     0.296 HD
ENDBRANCH  28  30
ENDBRANCH  13  28
ENDBRANCH  11  13
ENDBRANCH   8  11
ENDBRANCH   6   7
BRANCH   6  32
ATOM     32  C   UNL     1       9.420  -2.806  -8.876  1.00  0.00     0.037 C 
BRANCH  32  33
ATOM     33  C   UNL     1       9.763  -2.016 -10.147  1.00  0.00     0.026 C 
BRANCH  33  34
ATOM     34  C   UNL     1       9.488  -0.519  -9.997  1.00  0.00     0.146 C 
BRANCH  34  35
ATOM     35  N   UNL     1       8.057  -0.288 -10.140  1.00  0.00    -0.254 NA
ATOM     36  C   UNL     1       7.619   0.914 -10.070  1.00  0.00     0.185 C 
ATOM     37  N   UNL     1       6.303   1.139 -10.206  1.00  0.00    -0.370 N 
ATOM     38  N   UNL     1       8.306   2.053  -9.873  1.00  0.00    -0.370 N 
ATOM     39  H   UNL     1       5.718   0.330 -10.369  1.00  0.00     0.159 HD
ATOM     40  H   UNL     1       5.906   2.054 -10.337  1.00  0.00     0.159 HD
ATOM     41  H   UNL     1       7.831   2.924  -9.698  1.00  0.00     0.159 HD
ATOM     42  H   UNL     1       9.305   2.033  -9.738  1.00  0.00     0.159 HD
ENDBRANCH  34  35
ENDBRANCH  33  34
ENDBRANCH  32  33
ENDBRANCH   6  32
ENDBRANCH   4   6
ENDBRANCH   1   2
BRANCH   1  43
ATOM     43  C   UNL     1       4.692  -0.880  -7.537  1.00  0.00     0.102 C 
ATOM     44  C   UNL     1       4.230   0.554  -7.226  1.00  0.00     0.020 C 
BRANCH  43  45
ATOM     45  C   UNL     1       3.599  -1.938  -7.358  1.00  0.00     0.225 C 
ATOM     46  O   UNL     1       2.931  -2.378  -8.289  1.00  0.00    -0.275 OA
ATOM     47  N   UNL     1       3.339  -2.306  -6.057  1.00  0.00    -0.342 N 
ATOM     48  H   UNL     1       3.990  -2.054  -5.327  1.00  0.00     0.164 HD
BRANCH  47  49
ATOM     49  C   UNL     1       2.344  -3.334  -5.736  1.00  0.00     0.192 C 
BRANCH  49  50
ATOM     50  C   UNL     1       1.534  -2.901  -4.511  1.00  0.00     0.047 C 
BRANCH  50  51
ATOM     51  C   UNL     1       1.011  -1.464  -4.637  1.00  0.00     0.103 C 
BRANCH  51  52
ATOM     52  C   UNL     1       1.661  -0.525  -3.623  1.00  0.00     0.226 C 
ATOM     53  O   UNL     1       2.745   0.000  -3.885  1.00  0.00    -0.275 OA
BRANCH  52  54
ATOM     54  N   UNL     1       0.924  -0.257  -2.454  1.00  0.00    -0.311 N 
ATOM     55  C   UNL     1       0.741  -1.287  -1.423  1.00  0.00     0.153 C 
BRANCH  54  56
ATOM     56  C   UNL     1       0.343   1.001  -2.228  1.00  0.00     0.102 C 
ATOM     57  C   UNL     1       0.007   1.877  -3.189  1.00  0.00     0.043 C 
BRANCH  56  58
ATOM     58  C   UNL     1       0.000   1.456  -0.829  1.00  0.00     0.268 C 
ATOM     59  O   UNL     1      -1.093   1.267  -0.312  1.00  0.00    -0.268 OA
ATOM     60  N   UNL     1       1.059   2.042  -0.177  1.00  0.00    -0.339 N 
ATOM     61  H   UNL     1       1.929   2.172  -0.679  1.00  0.00     0.164 HD
BRANCH  60  62
ATOM     62  C   UNL     1       0.964   2.499   1.209  1.00  0.00     0.168 CG0
ATOM     63  C   UNL     1       2.260   3.163   1.656  1.00  0.00     0.041 C 
ATOM     64  G   UNL     1       0.618   1.306   2.124  1.00  0.00     0.000 G0
ENDBRANCH  60  62
ENDBRANCH  56  58
ENDBRANCH  54  56
ENDBRANCH  52  54
ENDBRANCH  51  52
ENDBRANCH  50  51
ENDBRANCH  49  50
BRANCH  49  65
ATOM     65  C   UNL     1       3.004  -4.693  -5.456  1.00  0.00     0.326 C 
ATOM     66  O   UNL     1       3.494  -5.432  -6.298  1.00  0.00    -0.250 OA
BRANCH  65  67
ATOM     67  O   UNL     1       2.963  -5.084  -4.163  1.00  0.00    -0.480 OA
ATOM     68  H   UNL     1       2.971  -6.064  -4.218  1.00  0.00     0.296 HD
ENDBRANCH  65  67
ENDBRANCH  49  65
ENDBRANCH  47  49
ENDBRANCH  43  45
ENDBRANCH   1  43
BRANCH   1  69
ATOM     69  C   UNL     1       6.776  -0.222  -6.045  1.00  0.00    -0.001 C 
ATOM     70  C   UNL     1       7.897   0.401  -6.451  1.00  0.00     0.001 C 
BRANCH  70  71
ATOM     71  C   UNL     1       8.633   1.444  -5.734  1.00  0.00    -0.055 C 
ATOM     72  C   UNL     1       9.183   1.120  -4.545  1.00  0.00    -0.018 C 
ATOM     73  C   UNL     1       8.731   2.803  -6.378  1.00  0.00     0.044 C 
BRANCH  72  74
ATOM     74  C   UNL     1       9.995   1.986  -3.592  1.00  0.00     0.038 C 
ATOM     75  C   UNL     1      11.471   1.811  -3.967  1.00  0.00     0.015 C 
BRANCH  74  76
ATOM     76  C   UNL     1       9.641   1.586  -2.129  1.00  0.00     0.128 C 
BRANCH  76  77
ATOM     77  O   UNL     1      10.846   1.381  -1.372  1.00  0.00    -0.381 OA
ATOM     78  C   UNL     1      10.878   0.143  -0.674  1.00  0.00     0.195 C 
ENDBRANCH  76  77
BRANCH  76  79
ATOM     79  C   UNL     1       8.654   2.556  -1.433  1.00  0.00     0.068 C 
BRANCH  79  80
ATOM     80  C   UNL     1       7.205   2.142  -1.336  1.00  0.00    -0.045 A 
ATOM     81  C   UNL     1       6.181   2.993  -1.772  1.00  0.00     0.004 A 
ATOM     82  C   UNL     1       6.860   0.902  -0.779  1.00  0.00     0.004 A 
ATOM     83  C   UNL     1       4.843   2.608  -1.666  1.00  0.00     0.000 A 
ATOM     84  C   UNL     1       5.522   0.518  -0.673  1.00  0.00     0.000 A 
ATOM     85  C   UNL     1       4.514   1.370  -1.118  1.00  0.00     0.000 A 
ENDBRANCH  79  80
ENDBRANCH  76  79
ENDBRANCH  74  76
ENDBRANCH  72  74
ENDBRANCH  70  71
ENDBRANCH   1  69
TORSDOF 17
ENDMDL
MODEL 25
REMARK VINA RESULT:    -5.885      3.861     13.574
REMARK INTER + INTRA:         -24.862
REMARK INTER:                 -18.012
REMARK INTRA:                  -6.851
REMARK UNBOUND:                -7.281
REMARK SMILES C=C1C(=O)N[C@H](C)C(=O)N[C@@H](CC(C)C)C(=O)N[C@@H](C(=O)O)[C@H](C)C(=O)N[C@@H](CCCN=C(N)N)C(=O)N[C@@H](/C=C/C(C)=C/[C@H](C)[C@H](Cc2ccccc2)OC)[C@H](C)C(=O)N[C@@H](C(=O)O)CCC(=O)N1C
REMARK SMILES IDX 39 1 38 2 37 3 36 4 28 6 27 7 25 8 26 9 23 11 24 12 19 13
REMARK SMILES IDX 18 14 16 15 17 16 11 18 10 19 8 20 9 21 12 24 13 25 14 26
REMARK SMILES IDX 15 27 20 28 21 29 22 30 29 32 30 33 31 34 32 35 33 36 34 37
REMARK SMILES IDX 35 38 57 43 58 44 59 45 60 46 61 47 62 49 66 50 67 51 68 52
REMARK SMILES IDX 69 53 70 54 71 55 2 56 1 57 3 58 4 59 5 60 6 62 7 63 63 65
REMARK SMILES IDX 64 66 65 67 40 69 41 70 42 71 44 72 43 73 45 74 46 75 47 76
REMARK SMILES IDX 55 77 56 78 48 79 49 80 50 81 54 82 51 83 53 84 52 85
REMARK H PARENT 38 5 27 10 18 17 10 22 22 31 34 39 34 40 35 41 35 42 61 48
REMARK H PARENT 5 61 65 68
REMARK Flexibility Score:  369.900
ROOT
ATOM      1  C   UNL     1       8.366  -1.110  -9.476  1.00  0.00     0.117 C 
ENDROOT
BRANCH   1   2
ATOM      2  N   UNL     1       8.824  -0.165  -8.457  1.00  0.00    -0.347 N 
ATOM      3  O   UNL     1       6.851   0.973  -8.176  1.00  0.00    -0.273 OA
ATOM      4  C   UNL     1       8.002   0.745  -7.821  1.00  0.00     0.243 C 
ATOM      5  H   UNL     1       9.785  -0.195  -8.151  1.00  0.00     0.164 HD
BRANCH   4   6
ATOM      6  C   UNL     1       8.718   1.569  -6.721  1.00  0.00     0.171 C 
BRANCH   6   7
ATOM      7  N   UNL     1       9.379   0.675  -5.757  1.00  0.00    -0.344 N 
ATOM      8  C   UNL     1       9.604   1.084  -4.460  1.00  0.00     0.226 C 
ATOM      9  O   UNL     1       9.293   2.198  -4.055  1.00  0.00    -0.275 OA
ATOM     10  H   UNL     1       9.711  -0.228  -6.072  1.00  0.00     0.164 HD
BRANCH   8  11
ATOM     11  C   UNL     1      10.245   0.030  -3.574  1.00  0.00     0.109 C 
ATOM     12  C   UNL     1      11.735   0.322  -3.403  1.00  0.00     0.021 C 
BRANCH  11  13
ATOM     13  C   UNL     1       9.453  -0.096  -2.257  1.00  0.00     0.204 C 
BRANCH  13  14
ATOM     14  N   UNL     1       9.361   1.182  -1.545  1.00  0.00    -0.340 N 
ATOM     15  C   UNL     1      10.074   1.452  -0.397  1.00  0.00     0.243 C 
ATOM     16  O   UNL     1      10.886   0.660   0.078  1.00  0.00    -0.273 OA
ATOM     17  H   UNL     1       8.599   1.819  -1.796  1.00  0.00     0.164 HD
BRANCH  15  18
ATOM     18  C   UNL     1       9.661   2.777   0.291  1.00  0.00     0.171 C 
BRANCH  18  19
ATOM     19  N   UNL     1      10.885   3.553   0.474  1.00  0.00    -0.343 N 
ATOM     20  C   UNL     1      11.643   3.982  -0.598  1.00  0.00     0.242 CG0
ATOM     21  O   UNL     1      11.398   3.618  -1.746  1.00  0.00    -0.273 OA
ATOM     22  H   UNL     1      11.194   3.781   1.412  1.00  0.00     0.164 HD
ATOM     23  G   UNL     1      12.856   4.854  -0.213  1.00  0.00     0.000 G0
ENDBRANCH  18  19
BRANCH  18  24
ATOM     24  C   UNL     1       8.637   3.534  -0.563  1.00  0.00     0.038 C 
BRANCH  24  25
ATOM     25  C   UNL     1       7.347   3.937   0.182  1.00  0.00    -0.015 C 
ATOM     26  C   UNL     1       7.601   4.267   1.654  1.00  0.00     0.007 C 
ATOM     27  C   UNL     1       6.318   2.809   0.077  1.00  0.00     0.007 C 
ENDBRANCH  24  25
ENDBRANCH  18  24
ENDBRANCH  15  18
ENDBRANCH  13  14
BRANCH  13  28
ATOM     28  C   UNL     1       8.023  -0.607  -2.459  1.00  0.00     0.327 C 
ATOM     29  O   UNL     1       7.511  -0.922  -3.522  1.00  0.00    -0.250 OA
BRANCH  28  30
ATOM     30  O   UNL     1       7.287  -0.579  -1.329  1.00  0.00    -0.480 OA
ATOM     31  H   UNL     1       6.361  -0.545  -1.646  1.00  0.00     0.296 HD
ENDBRANCH  28  30
ENDBRANCH  13  28
ENDBRANCH  11  13
ENDBRANCH   8  11
ENDBRANCH   6   7
BRANCH   6  32
ATOM     32  C   UNL     1       9.733   2.511  -7.378  1.00  0.00     0.037 C 
BRANCH  32  33
ATOM     33  C   UNL     1       9.122   3.880  -7.709  1.00  0.00     0.026 C 
BRANCH  33  34
ATOM     34  C   UNL     1       9.053   4.800  -6.489  1.00  0.00     0.146 C 
BRANCH  34  35
ATOM     35  N   UNL     1      10.405   5.039  -6.004  1.00  0.00    -0.254 NA
ATOM     36  C   UNL     1      10.589   5.183  -4.744  1.00  0.00     0.185 C 
ATOM     37  N   UNL     1      11.831   5.399  -4.285  1.00  0.00    -0.370 N 
ATOM     38  N   UNL     1       9.685   5.149  -3.749  1.00  0.00    -0.370 N 
ATOM     39  H   UNL     1      12.572   5.427  -4.975  1.00  0.00     0.159 HD
ATOM     40  H   UNL     1      12.082   5.348  -3.313  1.00  0.00     0.159 HD
ATOM     41  H   UNL     1       9.934   5.415  -2.810  1.00  0.00     0.159 HD
ATOM     42  H   UNL     1       8.707   5.011  -3.949  1.00  0.00     0.159 HD
ENDBRANCH  34  35
ENDBRANCH  33  34
ENDBRANCH  32  33
ENDBRANCH   6  32
ENDBRANCH   4   6
ENDBRANCH   1   2
BRANCH   1  43
ATOM     43  C   UNL     1       8.305  -2.530  -8.843  1.00  0.00     0.102 C 
ATOM     44  C   UNL     1       8.703  -3.652  -9.817  1.00  0.00     0.020 C 
BRANCH  43  45
ATOM     45  C   UNL     1       6.963  -2.762  -8.142  1.00  0.00     0.225 C 
ATOM     46  O   UNL     1       6.761  -3.696  -7.372  1.00  0.00    -0.275 OA
ATOM     47  N   UNL     1       5.950  -1.903  -8.503  1.00  0.00    -0.342 N 
ATOM     48  H   UNL     1       6.168  -1.059  -9.013  1.00  0.00     0.164 HD
BRANCH  47  49
ATOM     49  C   UNL     1       4.622  -1.983  -7.888  1.00  0.00     0.192 C 
BRANCH  49  50
ATOM     50  C   UNL     1       3.592  -1.308  -8.797  1.00  0.00     0.047 C 
BRANCH  50  51
ATOM     51  C   UNL     1       2.303  -2.131  -8.930  1.00  0.00     0.103 C 
BRANCH  51  52
ATOM     52  C   UNL     1       2.505  -3.378  -9.788  1.00  0.00     0.226 C 
ATOM     53  O   UNL     1       2.261  -4.490  -9.316  1.00  0.00    -0.275 OA
BRANCH  52  54
ATOM     54  N   UNL     1       2.897  -3.163 -11.123  1.00  0.00    -0.311 N 
ATOM     55  C   UNL     1       4.211  -3.607 -11.606  1.00  0.00     0.153 C 
BRANCH  54  56
ATOM     56  C   UNL     1       2.047  -2.525 -12.042  1.00  0.00     0.102 C 
ATOM     57  C   UNL     1       2.172  -1.250 -12.446  1.00  0.00     0.043 C 
BRANCH  56  58
ATOM     58  C   UNL     1       0.912  -3.275 -12.699  1.00  0.00     0.268 C 
ATOM     59  O   UNL     1       0.504  -4.357 -12.298  1.00  0.00    -0.268 OA
ATOM     60  N   UNL     1       0.347  -2.590 -13.747  1.00  0.00    -0.339 N 
ATOM     61  H   UNL     1       0.751  -1.703 -14.024  1.00  0.00     0.164 HD
BRANCH  60  62
ATOM     62  C   UNL     1      -0.806  -3.106 -14.484  1.00  0.00     0.168 CG0
ATOM     63  C   UNL     1      -0.364  -3.855 -15.735  1.00  0.00     0.041 C 
ATOM     64  G   UNL     1      -1.749  -1.941 -14.850  1.00  0.00     0.000 G0
ENDBRANCH  60  62
ENDBRANCH  56  58
ENDBRANCH  54  56
ENDBRANCH  52  54
ENDBRANCH  51  52
ENDBRANCH  50  51
ENDBRANCH  49  50
BRANCH  49  65
ATOM     65  C   UNL     1       4.596  -1.314  -6.505  1.00  0.00     0.326 C 
ATOM     66  O   UNL     1       3.591  -0.965  -5.903  1.00  0.00    -0.250 OA
BRANCH  65  67
ATOM     67  O   UNL     1       5.815  -1.063  -5.977  1.00  0.00    -0.480 OA
ATOM     68  H   UNL     1       6.260  -1.937  -5.998  1.00  0.00     0.296 HD
ENDBRANCH  65  67
ENDBRANCH  49  65
ENDBRANCH  47  49
ENDBRANCH  43  45
ENDBRANCH   1  43
BRANCH   1  69
ATOM     69  C   UNL     1       9.250  -0.886 -10.690  1.00  0.00    -0.001 C 
ATOM     70  C   UNL     1      10.523  -0.452 -10.705  1.00  0.00     0.001 C 
BRANCH  70  71
ATOM     71  C   UNL     1      11.372  -0.260 -11.882  1.00  0.00    -0.055 C 
ATOM     72  C   UNL     1      10.900  -0.684 -13.073  1.00  0.00    -0.018 C 
ATOM     73  C   UNL     1      12.710   0.404 -11.682  1.00  0.00     0.044 C 
BRANCH  72  74
ATOM     74  C   UNL     1      11.551  -0.615 -14.447  1.00  0.00     0.038 C 
ATOM     75  C   UNL     1      10.962   0.605 -15.166  1.00  0.00     0.015 C 
BRANCH  74  76
ATOM     76  C   UNL     1      11.328  -1.973 -15.176  1.00  0.00     0.128 C 
BRANCH  76  77
ATOM     77  O   UNL     1      12.084  -2.004 -16.399  1.00  0.00    -0.381 OA
ATOM     78  C   UNL     1      11.736  -3.081 -17.258  1.00  0.00     0.195 C 
ENDBRANCH  76  77
BRANCH  76  79
ATOM     79  C   UNL     1      11.580  -3.215 -14.284  1.00  0.00     0.068 C 
BRANCH  79  80
ATOM     80  C   UNL     1      10.421  -4.146 -14.025  1.00  0.00    -0.045 A 
ATOM     81  C   UNL     1      10.478  -5.494 -14.404  1.00  0.00     0.004 A 
ATOM     82  C   UNL     1       9.249  -3.665 -13.421  1.00  0.00     0.004 A 
ATOM     83  C   UNL     1       9.396  -6.345 -14.173  1.00  0.00     0.000 A 
ATOM     84  C   UNL     1       8.167  -4.517 -13.191  1.00  0.00     0.000 A 
ATOM     85  C   UNL     1       8.241  -5.857 -13.566  1.00  0.00     0.000 A 
ENDBRANCH  79  80
ENDBRANCH  76  79
ENDBRANCH  74  76
ENDBRANCH  72  74
ENDBRANCH  70  71
ENDBRANCH   1  69
TORSDOF 17
ENDMDL
MODEL 26
REMARK VINA RESULT:    -5.872      6.614     11.016
REMARK INTER + INTRA:         -24.823
REMARK INTER:                 -17.689
REMARK INTRA:                  -7.134
REMARK UNBOUND:                -7.281
REMARK SMILES C=C1C(=O)N[C@H](C)C(=O)N[C@@H](CC(C)C)C(=O)N[C@@H](C(=O)O)[C@H](C)C(=O)N[C@@H](CCCN=C(N)N)C(=O)N[C@@H](/C=C/C(C)=C/[C@H](C)[C@H](Cc2ccccc2)OC)[C@H](C)C(=O)N[C@@H](C(=O)O)CCC(=O)N1C
REMARK SMILES IDX 39 1 38 2 37 3 36 4 28 6 27 7 25 8 26 9 23 11 24 12 19 13
REMARK SMILES IDX 18 14 16 15 17 16 11 18 10 19 8 20 9 21 12 24 13 25 14 26
REMARK SMILES IDX 15 27 20 28 21 29 22 30 29 32 30 33 31 34 32 35 33 36 34 37
REMARK SMILES IDX 35 38 57 43 58 44 59 45 60 46 61 47 62 49 66 50 67 51 68 52
REMARK SMILES IDX 69 53 70 54 71 55 2 56 1 57 3 58 4 59 5 60 6 62 7 63 63 65
REMARK SMILES IDX 64 66 65 67 40 69 41 70 42 71 44 72 43 73 45 74 46 75 47 76
REMARK SMILES IDX 55 77 56 78 48 79 49 80 50 81 54 82 51 83 53 84 52 85
REMARK H PARENT 38 5 27 10 18 17 10 22 22 31 34 39 34 40 35 41 35 42 61 48
REMARK H PARENT 5 61 65 68
REMARK Flexibility Score:  369.900
ROOT
ATOM      1  C   UNL     1      -5.177   0.068   1.114  1.00  0.00     0.117 C 
ENDROOT
BRANCH   1   2
ATOM      2  N   UNL     1      -3.973  -0.383   0.415  1.00  0.00    -0.347 N 
ATOM      3  O   UNL     1      -4.925  -0.750  -1.642  1.00  0.00    -0.273 OA
ATOM      4  C   UNL     1      -3.925  -0.670  -0.936  1.00  0.00     0.243 C 
ATOM      5  H   UNL     1      -3.103  -0.448   0.920  1.00  0.00     0.164 HD
BRANCH   4   6
ATOM      6  C   UNL     1      -2.509  -1.042  -1.444  1.00  0.00     0.171 C 
BRANCH   6   7
ATOM      7  N   UNL     1      -2.520  -1.238  -2.902  1.00  0.00    -0.344 N 
ATOM      8  C   UNL     1      -2.341  -2.492  -3.445  1.00  0.00     0.226 C 
ATOM      9  O   UNL     1      -2.143  -3.486  -2.757  1.00  0.00    -0.275 OA
ATOM     10  H   UNL     1      -2.613  -0.430  -3.505  1.00  0.00     0.164 HD
BRANCH   8  11
ATOM     11  C   UNL     1      -2.433  -2.537  -4.960  1.00  0.00     0.109 C 
ATOM     12  C   UNL     1      -1.428  -1.566  -5.578  1.00  0.00     0.021 C 
BRANCH  11  13
ATOM     13  C   UNL     1      -2.310  -3.995  -5.447  1.00  0.00     0.204 C 
BRANCH  13  14
ATOM     14  N   UNL     1      -3.574  -4.727  -5.322  1.00  0.00    -0.340 N 
ATOM     15  C   UNL     1      -3.634  -6.076  -5.045  1.00  0.00     0.243 C 
ATOM     16  O   UNL     1      -2.629  -6.749  -4.822  1.00  0.00    -0.273 OA
ATOM     17  H   UNL     1      -4.430  -4.266  -5.642  1.00  0.00     0.164 HD
BRANCH  15  18
ATOM     18  C   UNL     1      -5.058  -6.670  -5.167  1.00  0.00     0.171 C 
BRANCH  18  19
ATOM     19  N   UNL     1      -4.907  -8.124  -5.164  1.00  0.00    -0.343 N 
ATOM     20  C   UNL     1      -5.035  -8.872  -6.318  1.00  0.00     0.242 CG0
ATOM     21  O   UNL     1      -5.414  -8.368  -7.373  1.00  0.00    -0.273 OA
ATOM     22  H   UNL     1      -4.707  -8.602  -4.293  1.00  0.00     0.164 HD
ATOM     23  G   UNL     1      -4.764 -10.380  -6.133  1.00  0.00     0.000 G0
ENDBRANCH  18  19
BRANCH  18  24
ATOM     24  C   UNL     1      -5.945  -6.195  -4.010  1.00  0.00     0.038 C 
BRANCH  24  25
ATOM     25  C   UNL     1      -7.273  -5.538  -4.442  1.00  0.00    -0.015 C 
ATOM     26  C   UNL     1      -7.990  -4.850  -3.281  1.00  0.00     0.007 C 
ATOM     27  C   UNL     1      -8.191  -6.594  -5.062  1.00  0.00     0.007 C 
ENDBRANCH  24  25
ENDBRANCH  18  24
ENDBRANCH  15  18
ENDBRANCH  13  14
BRANCH  13  28
ATOM     28  C   UNL     1      -1.862  -4.108  -6.907  1.00  0.00     0.327 C 
ATOM     29  O   UNL     1      -2.512  -3.784  -7.889  1.00  0.00    -0.250 OA
BRANCH  28  30
ATOM     30  O   UNL     1      -0.675  -4.731  -7.049  1.00  0.00    -0.480 OA
ATOM     31  H   UNL     1      -0.472  -5.071  -6.153  1.00  0.00     0.296 HD
ENDBRANCH  28  30
ENDBRANCH  13  28
ENDBRANCH  11  13
ENDBRANCH   8  11
ENDBRANCH   6   7
BRANCH   6  32
ATOM     32  C   UNL     1      -1.525   0.064  -1.048  1.00  0.00     0.037 C 
BRANCH  32  33
ATOM     33  C   UNL     1      -0.638   0.499  -2.223  1.00  0.00     0.026 C 
BRANCH  33  34
ATOM     34  C   UNL     1       0.791  -0.034  -2.107  1.00  0.00     0.146 C 
BRANCH  34  35
ATOM     35  N   UNL     1       0.738  -1.459  -1.813  1.00  0.00    -0.254 NA
ATOM     36  C   UNL     1       1.156  -2.285  -2.698  1.00  0.00     0.185 C 
ATOM     37  N   UNL     1       1.117  -3.600  -2.436  1.00  0.00    -0.370 N 
ATOM     38  N   UNL     1       1.658  -2.031  -3.920  1.00  0.00    -0.370 N 
ATOM     39  H   UNL     1       0.761  -3.872  -1.528  1.00  0.00     0.159 HD
ATOM     40  H   UNL     1       1.581  -4.294  -2.997  1.00  0.00     0.159 HD
ATOM     41  H   UNL     1       1.823  -2.774  -4.580  1.00  0.00     0.159 HD
ATOM     42  H   UNL     1       1.731  -1.084  -4.258  1.00  0.00     0.159 HD
ENDBRANCH  34  35
ENDBRANCH  33  34
ENDBRANCH  32  33
ENDBRANCH   6  32
ENDBRANCH   4   6
ENDBRANCH   1   2
BRANCH   1  43
ATOM     43  C   UNL     1      -4.805   1.292   2.000  1.00  0.00     0.102 C 
ATOM     44  C   UNL     1      -6.029   2.076   2.505  1.00  0.00     0.020 C 
BRANCH  43  45
ATOM     45  C   UNL     1      -3.747   2.164   1.318  1.00  0.00     0.225 C 
ATOM     46  O   UNL     1      -3.854   2.570   0.164  1.00  0.00    -0.275 OA
ATOM     47  N   UNL     1      -2.606   2.395   2.053  1.00  0.00    -0.342 N 
ATOM     48  H   UNL     1      -2.598   2.187   3.041  1.00  0.00     0.164 HD
BRANCH  47  49
ATOM     49  C   UNL     1      -1.524   3.241   1.542  1.00  0.00     0.192 C 
BRANCH  49  50
ATOM     50  C   UNL     1      -0.214   2.884   2.248  1.00  0.00     0.047 C 
BRANCH  50  51
ATOM     51  C   UNL     1       1.008   3.504   1.558  1.00  0.00     0.103 C 
BRANCH  51  52
ATOM     52  C   UNL     1       2.242   3.495   2.458  1.00  0.00     0.226 C 
ATOM     53  O   UNL     1       2.266   2.768   3.453  1.00  0.00    -0.275 OA
BRANCH  52  54
ATOM     54  N   UNL     1       3.329   4.284   2.039  1.00  0.00    -0.311 N 
ATOM     55  C   UNL     1       4.061   3.969   0.806  1.00  0.00     0.153 C 
BRANCH  54  56
ATOM     56  C   UNL     1       3.750   5.402   2.779  1.00  0.00     0.102 C 
ATOM     57  C   UNL     1       3.021   6.018   3.724  1.00  0.00     0.043 C 
BRANCH  56  58
ATOM     58  C   UNL     1       5.130   5.985   2.583  1.00  0.00     0.268 C 
ATOM     59  O   UNL     1       5.359   6.928   1.837  1.00  0.00    -0.268 OA
ATOM     60  N   UNL     1       6.084   5.394   3.377  1.00  0.00    -0.339 N 
ATOM     61  H   UNL     1       5.815   4.611   3.960  1.00  0.00     0.164 HD
BRANCH  60  62
ATOM     62  C   UNL     1       7.474   5.846   3.392  1.00  0.00     0.168 CG0
ATOM     63  C   UNL     1       8.327   5.026   2.431  1.00  0.00     0.041 C 
ATOM     64  G   UNL     1       8.031   5.758   4.828  1.00  0.00     0.000 G0
ENDBRANCH  60  62
ENDBRANCH  56  58
ENDBRANCH  54  56
ENDBRANCH  52  54
ENDBRANCH  51  52
ENDBRANCH  50  51
ENDBRANCH  49  50
BRANCH  49  65
ATOM     65  C   UNL     1      -1.825   4.734   1.752  1.00  0.00     0.326 C 
ATOM     66  O   UNL     1      -2.017   5.552   0.864  1.00  0.00    -0.250 OA
BRANCH  65  67
ATOM     67  O   UNL     1      -1.810   5.136   3.042  1.00  0.00    -0.480 OA
ATOM     68  H   UNL     1      -2.623   5.679   3.124  1.00  0.00     0.296 HD
ENDBRANCH  65  67
ENDBRANCH  49  65
ENDBRANCH  47  49
ENDBRANCH  43  45
ENDBRANCH   1  43
BRANCH   1  69
ATOM     69  C   UNL     1      -5.770  -1.163   1.774  1.00  0.00    -0.001 C 
ATOM     70  C   UNL     1      -5.185  -2.363   1.940  1.00  0.00     0.001 C 
BRANCH  70  71
ATOM     71  C   UNL     1      -5.760  -3.537   2.599  1.00  0.00    -0.055 C 
ATOM     72  C   UNL     1      -5.103  -4.710   2.476  1.00  0.00    -0.018 C 
ATOM     73  C   UNL     1      -7.039  -3.353   3.373  1.00  0.00     0.044 C 
BRANCH  72  74
ATOM     74  C   UNL     1      -5.456  -6.076   3.046  1.00  0.00     0.038 C 
ATOM     75  C   UNL     1      -4.136  -6.786   3.370  1.00  0.00     0.015 C 
BRANCH  74  76
ATOM     76  C   UNL     1      -6.367  -6.823   2.028  1.00  0.00     0.128 C 
BRANCH  76  77
ATOM     77  O   UNL     1      -7.749  -6.545   2.310  1.00  0.00    -0.381 OA
ATOM     78  C   UNL     1      -8.493  -7.691   2.703  1.00  0.00     0.195 C 
ENDBRANCH  76  77
BRANCH  76  79
ATOM     79  C   UNL     1      -5.994  -6.569   0.546  1.00  0.00     0.068 C 
BRANCH  79  80
ATOM     80  C   UNL     1      -6.478  -7.561  -0.485  1.00  0.00    -0.045 A 
ATOM     81  C   UNL     1      -5.606  -8.504  -1.045  1.00  0.00     0.004 A 
ATOM     82  C   UNL     1      -7.811  -7.534  -0.921  1.00  0.00     0.004 A 
ATOM     83  C   UNL     1      -6.058  -9.408  -2.008  1.00  0.00     0.000 A 
ATOM     84  C   UNL     1      -8.262  -8.439  -1.885  1.00  0.00     0.000 A 
ATOM     85  C   UNL     1      -7.386  -9.376  -2.427  1.00  0.00     0.000 A 
ENDBRANCH  79  80
ENDBRANCH  76  79
ENDBRANCH  74  76
ENDBRANCH  72  74
ENDBRANCH  70  71
ENDBRANCH   1  69
TORSDOF 17
ENDMDL
MODEL 27
REMARK VINA RESULT:    -5.870      3.825     11.283
REMARK INTER + INTRA:         -24.818
REMARK INTER:                 -18.517
REMARK INTRA:                  -6.301
REMARK UNBOUND:                -7.281
REMARK SMILES C=C1C(=O)N[C@H](C)C(=O)N[C@@H](CC(C)C)C(=O)N[C@@H](C(=O)O)[C@H](C)C(=O)N[C@@H](CCCN=C(N)N)C(=O)N[C@@H](/C=C/C(C)=C/[C@H](C)[C@H](Cc2ccccc2)OC)[C@H](C)C(=O)N[C@@H](C(=O)O)CCC(=O)N1C
REMARK SMILES IDX 39 1 38 2 37 3 36 4 28 6 27 7 25 8 26 9 23 11 24 12 19 13
REMARK SMILES IDX 18 14 16 15 17 16 11 18 10 19 8 20 9 21 12 24 13 25 14 26
REMARK SMILES IDX 15 27 20 28 21 29 22 30 29 32 30 33 31 34 32 35 33 36 34 37
REMARK SMILES IDX 35 38 57 43 58 44 59 45 60 46 61 47 62 49 66 50 67 51 68 52
REMARK SMILES IDX 69 53 70 54 71 55 2 56 1 57 3 58 4 59 5 60 6 62 7 63 63 65
REMARK SMILES IDX 64 66 65 67 40 69 41 70 42 71 44 72 43 73 45 74 46 75 47 76
REMARK SMILES IDX 55 77 56 78 48 79 49 80 50 81 54 82 51 83 53 84 52 85
REMARK H PARENT 38 5 27 10 18 17 10 22 22 31 34 39 34 40 35 41 35 42 61 48
REMARK H PARENT 5 61 65 68
REMARK Flexibility Score:  369.900
ROOT
ATOM      1  C   UNL     1       1.030  -0.666  -1.493  1.00  0.00     0.117 C 
ENDROOT
BRANCH   1   2
ATOM      2  N   UNL     1       2.137   0.129  -2.025  1.00  0.00    -0.347 N 
ATOM      3  O   UNL     1       3.224   0.519  -0.041  1.00  0.00    -0.273 OA
ATOM      4  C   UNL     1       3.199   0.582  -1.265  1.00  0.00     0.243 C 
ATOM      5  H   UNL     1       2.173   0.329  -3.013  1.00  0.00     0.164 HD
BRANCH   4   6
ATOM      6  C   UNL     1       4.281   1.327  -2.088  1.00  0.00     0.171 C 
BRANCH   6   7
ATOM      7  N   UNL     1       5.588   0.669  -1.933  1.00  0.00    -0.344 N 
ATOM      8  C   UNL     1       6.550   1.203  -1.104  1.00  0.00     0.226 C 
ATOM      9  O   UNL     1       6.381   2.245  -0.482  1.00  0.00    -0.275 OA
ATOM     10  H   UNL     1       5.789  -0.157  -2.483  1.00  0.00     0.164 HD
BRANCH   8  11
ATOM     11  C   UNL     1       7.822   0.379  -1.009  1.00  0.00     0.109 C 
ATOM     12  C   UNL     1       7.889  -0.620  -2.165  1.00  0.00     0.021 C 
BRANCH  11  13
ATOM     13  C   UNL     1       9.042   1.314  -0.890  1.00  0.00     0.204 C 
BRANCH  13  14
ATOM     14  N   UNL     1       9.089   1.995   0.408  1.00  0.00    -0.340 N 
ATOM     15  C   UNL     1       9.580   3.273   0.565  1.00  0.00     0.243 C 
ATOM     16  O   UNL     1       9.958   3.957  -0.385  1.00  0.00    -0.273 OA
ATOM     17  H   UNL     1       8.935   1.435   1.251  1.00  0.00     0.164 HD
BRANCH  15  18
ATOM     18  C   UNL     1       9.725   3.703   2.046  1.00  0.00     0.171 C 
BRANCH  18  19
ATOM     19  N   UNL     1      10.784   4.710   2.088  1.00  0.00    -0.343 N 
ATOM     20  C   UNL     1      11.820   4.639   2.999  1.00  0.00     0.242 CG0
ATOM     21  O   UNL     1      11.830   3.803   3.899  1.00  0.00    -0.273 OA
ATOM     22  H   UNL     1      10.758   5.487   1.438  1.00  0.00     0.164 HD
ATOM     23  G   UNL     1      12.884   5.745   2.840  1.00  0.00     0.000 G0
ENDBRANCH  18  19
BRANCH  18  24
ATOM     24  C   UNL     1       8.399   4.259   2.580  1.00  0.00     0.038 C 
BRANCH  24  25
ATOM     25  C   UNL     1       7.628   5.154   1.586  1.00  0.00    -0.015 C 
ATOM     26  C   UNL     1       7.979   6.634   1.737  1.00  0.00     0.007 C 
ATOM     27  C   UNL     1       6.122   4.959   1.779  1.00  0.00     0.007 C 
ENDBRANCH  24  25
ENDBRANCH  18  24
ENDBRANCH  15  18
ENDBRANCH  13  14
BRANCH  13  28
ATOM     28  C   UNL     1      10.379   0.589  -1.071  1.00  0.00     0.327 C 
ATOM     29  O   UNL     1      10.876  -0.215  -0.297  1.00  0.00    -0.250 OA
BRANCH  28  30
ATOM     30  O   UNL     1      11.065   1.008  -2.154  1.00  0.00    -0.480 OA
ATOM     31  H   UNL     1      11.731   0.305  -2.304  1.00  0.00     0.296 HD
ENDBRANCH  28  30
ENDBRANCH  13  28
ENDBRANCH  11  13
ENDBRANCH   8  11
ENDBRANCH   6   7
BRANCH   6  32
ATOM     32  C   UNL     1       3.857   1.364  -3.560  1.00  0.00     0.037 C 
BRANCH  32  33
ATOM     33  C   UNL     1       4.558   2.487  -4.337  1.00  0.00     0.026 C 
BRANCH  33  34
ATOM     34  C   UNL     1       5.682   1.966  -5.233  1.00  0.00     0.146 C 
BRANCH  34  35
ATOM     35  N   UNL     1       5.414   0.573  -5.561  1.00  0.00    -0.254 NA
ATOM     36  C   UNL     1       6.399  -0.188  -5.864  1.00  0.00     0.185 C 
ATOM     37  N   UNL     1       6.163  -1.475  -6.164  1.00  0.00    -0.370 N 
ATOM     38  N   UNL     1       7.708   0.112  -5.934  1.00  0.00    -0.370 N 
ATOM     39  H   UNL     1       5.199  -1.782  -6.123  1.00  0.00     0.159 HD
ATOM     40  H   UNL     1       6.886  -2.170  -6.240  1.00  0.00     0.159 HD
ATOM     41  H   UNL     1       8.371  -0.539  -6.320  1.00  0.00     0.159 HD
ATOM     42  H   UNL     1       8.029   1.049  -5.749  1.00  0.00     0.159 HD
ENDBRANCH  34  35
ENDBRANCH  33  34
ENDBRANCH  32  33
ENDBRANCH   6  32
ENDBRANCH   4   6
ENDBRANCH   1   2
BRANCH   1  43
ATOM     43  C   UNL     1       0.735  -1.829  -2.484  1.00  0.00     0.102 C 
ATOM     44  C   UNL     1       1.286  -3.186  -2.016  1.00  0.00     0.020 C 
BRANCH  43  45
ATOM     45  C   UNL     1       1.142  -1.452  -3.911  1.00  0.00     0.225 C 
ATOM     46  O   UNL     1       0.891  -0.360  -4.414  1.00  0.00    -0.275 OA
ATOM     47  N   UNL     1       1.733  -2.456  -4.644  1.00  0.00    -0.342 N 
ATOM     48  H   UNL     1       2.066  -3.287  -4.175  1.00  0.00     0.164 HD
BRANCH  47  49
ATOM     49  C   UNL     1       2.206  -2.229  -6.012  1.00  0.00     0.192 C 
BRANCH  49  50
ATOM     50  C   UNL     1       1.077  -2.524  -7.003  1.00  0.00     0.047 C 
BRANCH  50  51
ATOM     51  C   UNL     1       0.281  -3.779  -6.620  1.00  0.00     0.103 C 
BRANCH  51  52
ATOM     52  C   UNL     1      -1.187  -3.674  -7.030  1.00  0.00     0.226 C 
ATOM     53  O   UNL     1      -1.483  -3.598  -8.224  1.00  0.00    -0.275 OA
BRANCH  52  54
ATOM     54  N   UNL     1      -2.134  -3.748  -5.992  1.00  0.00    -0.311 N 
ATOM     55  C   UNL     1      -1.902  -3.076  -4.706  1.00  0.00     0.153 C 
BRANCH  54  56
ATOM     56  C   UNL     1      -3.336  -4.459  -6.146  1.00  0.00     0.102 C 
ATOM     57  C   UNL     1      -4.402  -4.026  -6.839  1.00  0.00     0.043 C 
BRANCH  56  58
ATOM     58  C   UNL     1      -3.500  -5.840  -5.555  1.00  0.00     0.268 C 
ATOM     59  O   UNL     1      -2.601  -6.669  -5.530  1.00  0.00    -0.268 OA
ATOM     60  N   UNL     1      -4.738  -6.042  -4.992  1.00  0.00    -0.339 N 
ATOM     61  H   UNL     1      -5.432  -5.308  -5.064  1.00  0.00     0.164 HD
BRANCH  60  62
ATOM     62  C   UNL     1      -5.089  -7.287  -4.310  1.00  0.00     0.168 CG0
ATOM     63  C   UNL     1      -5.734  -8.276  -5.273  1.00  0.00     0.041 C 
ATOM     64  G   UNL     1      -6.033  -6.980  -3.129  1.00  0.00     0.000 G0
ENDBRANCH  60  62
ENDBRANCH  56  58
ENDBRANCH  54  56
ENDBRANCH  52  54
ENDBRANCH  51  52
ENDBRANCH  50  51
ENDBRANCH  49  50
BRANCH  49  65
ATOM     65  C   UNL     1       3.420  -3.111  -6.346  1.00  0.00     0.326 C 
ATOM     66  O   UNL     1       4.009  -3.836  -5.557  1.00  0.00    -0.250 OA
BRANCH  65  67
ATOM     67  O   UNL     1       3.867  -2.998  -7.616  1.00  0.00    -0.480 OA
ATOM     68  H   UNL     1       4.220  -2.084  -7.656  1.00  0.00     0.296 HD
ENDBRANCH  65  67
ENDBRANCH  49  65
ENDBRANCH  47  49
ENDBRANCH  43  45
ENDBRANCH   1  43
BRANCH   1  69
ATOM     69  C   UNL     1      -0.079   0.318  -1.165  1.00  0.00    -0.001 C 
ATOM     70  C   UNL     1      -1.393   0.058  -1.049  1.00  0.00     0.001 C 
BRANCH  70  71
ATOM     71  C   UNL     1      -2.452   1.011  -0.711  1.00  0.00    -0.055 C 
ATOM     72  C   UNL     1      -2.167   2.327  -0.812  1.00  0.00    -0.018 C 
ATOM     73  C   UNL     1      -3.786   0.457  -0.283  1.00  0.00     0.044 C 
BRANCH  72  74
ATOM     74  C   UNL     1      -3.058   3.529  -0.533  1.00  0.00     0.038 C 
ATOM     75  C   UNL     1      -3.963   3.715  -1.757  1.00  0.00     0.015 C 
BRANCH  74  76
ATOM     76  C   UNL     1      -2.156   4.753  -0.195  1.00  0.00     0.128 C 
BRANCH  76  77
ATOM     77  O   UNL     1      -2.718   5.948  -0.763  1.00  0.00    -0.381 OA
ATOM     78  C   UNL     1      -1.865   7.081  -0.668  1.00  0.00     0.195 C 
ENDBRANCH  76  77
BRANCH  76  79
ATOM     79  C   UNL     1      -1.833   4.900   1.313  1.00  0.00     0.068 C 
BRANCH  79  80
ATOM     80  C   UNL     1      -0.451   4.514   1.781  1.00  0.00    -0.045 A 
ATOM     81  C   UNL     1       0.030   3.208   1.614  1.00  0.00     0.004 A 
ATOM     82  C   UNL     1       0.369   5.457   2.420  1.00  0.00     0.004 A 
ATOM     83  C   UNL     1       1.304   2.856   2.062  1.00  0.00     0.000 A 
ATOM     84  C   UNL     1       1.643   5.103   2.868  1.00  0.00     0.000 A 
ATOM     85  C   UNL     1       2.111   3.804   2.688  1.00  0.00     0.000 A 
ENDBRANCH  79  80
ENDBRANCH  76  79
ENDBRANCH  74  76
ENDBRANCH  72  74
ENDBRANCH  70  71
ENDBRANCH   1  69
TORSDOF 17
ENDMDL
MODEL 28
REMARK VINA RESULT:    -5.868      3.916     11.454
REMARK INTER + INTRA:         -24.812
REMARK INTER:                 -18.801
REMARK INTRA:                  -6.011
REMARK UNBOUND:                -7.281
REMARK SMILES C=C1C(=O)N[C@H](C)C(=O)N[C@@H](CC(C)C)C(=O)N[C@@H](C(=O)O)[C@H](C)C(=O)N[C@@H](CCCN=C(N)N)C(=O)N[C@@H](/C=C/C(C)=C/[C@H](C)[C@H](Cc2ccccc2)OC)[C@H](C)C(=O)N[C@@H](C(=O)O)CCC(=O)N1C
REMARK SMILES IDX 39 1 38 2 37 3 36 4 28 6 27 7 25 8 26 9 23 11 24 12 19 13
REMARK SMILES IDX 18 14 16 15 17 16 11 18 10 19 8 20 9 21 12 24 13 25 14 26
REMARK SMILES IDX 15 27 20 28 21 29 22 30 29 32 30 33 31 34 32 35 33 36 34 37
REMARK SMILES IDX 35 38 57 43 58 44 59 45 60 46 61 47 62 49 66 50 67 51 68 52
REMARK SMILES IDX 69 53 70 54 71 55 2 56 1 57 3 58 4 59 5 60 6 62 7 63 63 65
REMARK SMILES IDX 64 66 65 67 40 69 41 70 42 71 44 72 43 73 45 74 46 75 47 76
REMARK SMILES IDX 55 77 56 78 48 79 49 80 50 81 54 82 51 83 53 84 52 85
REMARK H PARENT 38 5 27 10 18 17 10 22 22 31 34 39 34 40 35 41 35 42 61 48
REMARK H PARENT 5 61 65 68
REMARK Flexibility Score:  369.900
ROOT
ATOM      1  C   UNL     1       1.429  -0.312  -1.404  1.00  0.00     0.117 C 
ENDROOT
BRANCH   1   2
ATOM      2  N   UNL     1       2.538   0.346  -2.096  1.00  0.00    -0.347 N 
ATOM      3  O   UNL     1       3.603   1.194  -0.248  1.00  0.00    -0.273 OA
ATOM      4  C   UNL     1       3.589   0.971  -1.454  1.00  0.00     0.243 C 
ATOM      5  H   UNL     1       2.582   0.310  -3.104  1.00  0.00     0.164 HD
BRANCH   4   6
ATOM      6  C   UNL     1       4.676   1.511  -2.418  1.00  0.00     0.171 C 
BRANCH   6   7
ATOM      7  N   UNL     1       5.936   0.772  -2.240  1.00  0.00    -0.344 N 
ATOM      8  C   UNL     1       6.898   1.225  -1.364  1.00  0.00     0.226 C 
ATOM      9  O   UNL     1       6.769   2.257  -0.717  1.00  0.00    -0.275 OA
ATOM     10  H   UNL     1       6.107  -0.049  -2.807  1.00  0.00     0.164 HD
BRANCH   8  11
ATOM     11  C   UNL     1       8.115   0.324  -1.252  1.00  0.00     0.109 C 
ATOM     12  C   UNL     1       8.208  -0.590  -2.473  1.00  0.00     0.021 C 
BRANCH  11  13
ATOM     13  C   UNL     1       9.372   1.176  -0.983  1.00  0.00     0.204 C 
BRANCH  13  14
ATOM     14  N   UNL     1       9.326   1.828   0.330  1.00  0.00    -0.340 N 
ATOM     15  C   UNL     1       9.809   3.099   0.551  1.00  0.00     0.243 C 
ATOM     16  O   UNL     1      10.258   3.802  -0.352  1.00  0.00    -0.273 OA
ATOM     17  H   UNL     1       9.108   1.250   1.146  1.00  0.00     0.164 HD
BRANCH  15  18
ATOM     18  C   UNL     1       9.845   3.495   2.048  1.00  0.00     0.171 C 
BRANCH  18  19
ATOM     19  N   UNL     1      10.982   4.399   2.214  1.00  0.00    -0.343 N 
ATOM     20  C   UNL     1      11.869   4.268   3.266  1.00  0.00     0.242 CG0
ATOM     21  O   UNL     1      11.670   3.473   4.181  1.00  0.00    -0.273 OA
ATOM     22  H   UNL     1      11.125   5.147   1.546  1.00  0.00     0.164 HD
ATOM     23  G   UNL     1      13.048   5.262   3.231  1.00  0.00     0.000 G0
ENDBRANCH  18  19
BRANCH  18  24
ATOM     24  C   UNL     1       8.530   4.165   2.463  1.00  0.00     0.038 C 
BRANCH  24  25
ATOM     25  C   UNL     1       8.534   5.706   2.373  1.00  0.00    -0.015 C 
ATOM     26  C   UNL     1       8.489   6.373   3.748  1.00  0.00     0.007 C 
ATOM     27  C   UNL     1       7.344   6.176   1.532  1.00  0.00     0.007 C 
ENDBRANCH  24  25
ENDBRANCH  18  24
ENDBRANCH  15  18
ENDBRANCH  13  14
BRANCH  13  28
ATOM     28  C   UNL     1      10.673   0.370  -1.044  1.00  0.00     0.327 C 
ATOM     29  O   UNL     1      11.410   0.260  -2.012  1.00  0.00    -0.250 OA
BRANCH  28  30
ATOM     30  O   UNL     1      10.905  -0.344   0.076  1.00  0.00    -0.480 OA
ATOM     31  H   UNL     1      11.855  -0.578   0.020  1.00  0.00     0.296 HD
ENDBRANCH  28  30
ENDBRANCH  13  28
ENDBRANCH  11  13
ENDBRANCH   8  11
ENDBRANCH   6   7
BRANCH   6  32
ATOM     32  C   UNL     1       4.172   1.394  -3.861  1.00  0.00     0.037 C 
BRANCH  32  33
ATOM     33  C   UNL     1       4.728   2.506  -4.762  1.00  0.00     0.026 C 
BRANCH  33  34
ATOM     34  C   UNL     1       5.848   2.011  -5.678  1.00  0.00     0.146 C 
BRANCH  34  35
ATOM     35  N   UNL     1       5.610   0.610  -5.997  1.00  0.00    -0.254 NA
ATOM     36  C   UNL     1       6.618  -0.160  -6.172  1.00  0.00     0.185 C 
ATOM     37  N   UNL     1       6.410  -1.454  -6.461  1.00  0.00    -0.370 N 
ATOM     38  N   UNL     1       7.928   0.135  -6.107  1.00  0.00    -0.370 N 
ATOM     39  H   UNL     1       5.446  -1.758  -6.517  1.00  0.00     0.159 HD
ATOM     40  H   UNL     1       7.134  -2.152  -6.440  1.00  0.00     0.159 HD
ATOM     41  H   UNL     1       8.627  -0.527  -6.401  1.00  0.00     0.159 HD
ATOM     42  H   UNL     1       8.232   1.077  -5.913  1.00  0.00     0.159 HD
ENDBRANCH  34  35
ENDBRANCH  33  34
ENDBRANCH  32  33
ENDBRANCH   6  32
ENDBRANCH   4   6
ENDBRANCH   1   2
BRANCH   1  43
ATOM     43  C   UNL     1       0.687  -1.230  -2.417  1.00  0.00     0.102 C 
ATOM     44  C   UNL     1       0.950  -2.728  -2.192  1.00  0.00     0.020 C 
BRANCH  43  45
ATOM     45  C   UNL     1       0.926  -0.766  -3.857  1.00  0.00     0.225 C 
ATOM     46  O   UNL     1       0.702   0.379  -4.239  1.00  0.00    -0.275 OA
ATOM     47  N   UNL     1       1.325  -1.747  -4.736  1.00  0.00    -0.342 N 
ATOM     48  H   UNL     1       1.648  -2.636  -4.381  1.00  0.00     0.164 HD
BRANCH  47  49
ATOM     49  C   UNL     1       1.626  -1.442  -6.138  1.00  0.00     0.192 C 
BRANCH  49  50
ATOM     50  C   UNL     1       0.618  -2.152  -7.046  1.00  0.00     0.047 C 
BRANCH  50  51
ATOM     51  C   UNL     1       0.005  -3.391  -6.380  1.00  0.00     0.103 C 
BRANCH  51  52
ATOM     52  C   UNL     1      -1.456  -3.591  -6.774  1.00  0.00     0.226 C 
ATOM     53  O   UNL     1      -1.746  -3.811  -7.952  1.00  0.00    -0.275 OA
BRANCH  52  54
ATOM     54  N   UNL     1      -2.395  -3.586  -5.726  1.00  0.00    -0.311 N 
ATOM     55  C   UNL     1      -2.051  -3.044  -4.405  1.00  0.00     0.153 C 
BRANCH  54  56
ATOM     56  C   UNL     1      -3.694  -4.092  -5.903  1.00  0.00     0.102 C 
ATOM     57  C   UNL     1      -4.796  -3.341  -6.058  1.00  0.00     0.043 C 
BRANCH  56  58
ATOM     58  C   UNL     1      -3.942  -5.580  -5.980  1.00  0.00     0.268 C 
ATOM     59  O   UNL     1      -4.490  -6.119  -6.932  1.00  0.00    -0.268 OA
ATOM     60  N   UNL     1      -3.432  -6.269  -4.906  1.00  0.00    -0.339 N 
ATOM     61  H   UNL     1      -3.001  -5.747  -4.152  1.00  0.00     0.164 HD
BRANCH  60  62
ATOM     62  C   UNL     1      -3.507  -7.726  -4.808  1.00  0.00     0.168 CG0
ATOM     63  C   UNL     1      -4.851  -8.168  -4.243  1.00  0.00     0.041 C 
ATOM     64  G   UNL     1      -2.348  -8.246  -3.932  1.00  0.00     0.000 G0
ENDBRANCH  60  62
ENDBRANCH  56  58
ENDBRANCH  54  56
ENDBRANCH  52  54
ENDBRANCH  51  52
ENDBRANCH  50  51
ENDBRANCH  49  50
BRANCH  49  65
ATOM     65  C   UNL     1       3.049  -1.878  -6.520  1.00  0.00     0.326 C 
ATOM     66  O   UNL     1       3.725  -2.702  -5.921  1.00  0.00    -0.250 OA
BRANCH  65  67
ATOM     67  O   UNL     1       3.573  -1.226  -7.582  1.00  0.00    -0.480 OA
ATOM     68  H   UNL     1       3.684  -0.306  -7.256  1.00  0.00     0.296 HD
ENDBRANCH  65  67
ENDBRANCH  49  65
ENDBRANCH  47  49
ENDBRANCH  43  45
ENDBRANCH   1  43
BRANCH   1  69
ATOM     69  C   UNL     1       0.652   0.790  -0.706  1.00  0.00    -0.001 C 
ATOM     70  C   UNL     1      -0.667   1.037  -0.789  1.00  0.00     0.001 C 
BRANCH  70  71
ATOM     71  C   UNL     1      -1.410   2.091  -0.094  1.00  0.00    -0.055 C 
ATOM     72  C   UNL     1      -0.710   3.141   0.385  1.00  0.00    -0.018 C 
ATOM     73  C   UNL     1      -2.903   1.932   0.031  1.00  0.00     0.044 C 
BRANCH  72  74
ATOM     74  C   UNL     1      -1.207   4.368   1.136  1.00  0.00     0.038 C 
ATOM     75  C   UNL     1      -1.495   5.452   0.091  1.00  0.00     0.015 C 
BRANCH  74  76
ATOM     76  C   UNL     1      -0.150   4.760   2.210  1.00  0.00     0.128 C 
BRANCH  76  77
ATOM     77  O   UNL     1       1.162   4.363   1.775  1.00  0.00    -0.381 OA
ATOM     78  C   UNL     1       2.084   4.177   2.840  1.00  0.00     0.195 C 
ENDBRANCH  76  77
BRANCH  76  79
ATOM     79  C   UNL     1      -0.214   6.246   2.643  1.00  0.00     0.068 C 
BRANCH  79  80
ATOM     80  C   UNL     1      -0.923   6.576   3.934  1.00  0.00    -0.045 A 
ATOM     81  C   UNL     1      -1.962   5.768   4.415  1.00  0.00     0.004 A 
ATOM     82  C   UNL     1      -0.568   7.722   4.663  1.00  0.00     0.004 A 
ATOM     83  C   UNL     1      -2.622   6.088   5.603  1.00  0.00     0.000 A 
ATOM     84  C   UNL     1      -1.229   8.041   5.851  1.00  0.00     0.000 A 
ATOM     85  C   UNL     1      -2.255   7.224   6.321  1.00  0.00     0.000 A 
ENDBRANCH  79  80
ENDBRANCH  76  79
ENDBRANCH  74  76
ENDBRANCH  72  74
ENDBRANCH  70  71
ENDBRANCH   1  69
TORSDOF 17
ENDMDL
MODEL 29
REMARK VINA RESULT:    -5.846      3.330     11.616
REMARK INTER + INTRA:         -24.747
REMARK INTER:                 -20.086
REMARK INTRA:                  -4.661
REMARK UNBOUND:                -7.281
REMARK SMILES C=C1C(=O)N[C@H](C)C(=O)N[C@@H](CC(C)C)C(=O)N[C@@H](C(=O)O)[C@H](C)C(=O)N[C@@H](CCCN=C(N)N)C(=O)N[C@@H](/C=C/C(C)=C/[C@H](C)[C@H](Cc2ccccc2)OC)[C@H](C)C(=O)N[C@@H](C(=O)O)CCC(=O)N1C
REMARK SMILES IDX 39 1 38 2 37 3 36 4 28 6 27 7 25 8 26 9 23 11 24 12 19 13
REMARK SMILES IDX 18 14 16 15 17 16 11 18 10 19 8 20 9 21 12 24 13 25 14 26
REMARK SMILES IDX 15 27 20 28 21 29 22 30 29 32 30 33 31 34 32 35 33 36 34 37
REMARK SMILES IDX 35 38 57 43 58 44 59 45 60 46 61 47 62 49 66 50 67 51 68 52
REMARK SMILES IDX 69 53 70 54 71 55 2 56 1 57 3 58 4 59 5 60 6 62 7 63 63 65
REMARK SMILES IDX 64 66 65 67 40 69 41 70 42 71 44 72 43 73 45 74 46 75 47 76
REMARK SMILES IDX 55 77 56 78 48 79 49 80 50 81 54 82 51 83 53 84 52 85
REMARK H PARENT 38 5 27 10 18 17 10 22 22 31 34 39 34 40 35 41 35 42 61 48
REMARK H PARENT 5 61 65 68
REMARK Flexibility Score:  369.900
ROOT
ATOM      1  C   UNL     1       1.817   1.433  -0.728  1.00  0.00     0.117 C 
ENDROOT
BRANCH   1   2
ATOM      2  N   UNL     1       3.154   2.022  -0.806  1.00  0.00    -0.347 N 
ATOM      3  O   UNL     1       4.358   0.134  -0.298  1.00  0.00    -0.273 OA
ATOM      4  C   UNL     1       4.326   1.301  -0.674  1.00  0.00     0.243 C 
ATOM      5  H   UNL     1       3.251   3.004  -1.017  1.00  0.00     0.164 HD
BRANCH   4   6
ATOM      6  C   UNL     1       5.606   2.149  -0.885  1.00  0.00     0.171 C 
BRANCH   6   7
ATOM      7  N   UNL     1       5.659   3.252   0.088  1.00  0.00    -0.344 N 
ATOM      8  C   UNL     1       6.314   4.426  -0.215  1.00  0.00     0.226 C 
ATOM      9  O   UNL     1       6.895   4.601  -1.280  1.00  0.00    -0.275 OA
ATOM     10  H   UNL     1       5.248   3.119   1.004  1.00  0.00     0.164 HD
BRANCH   8  11
ATOM     11  C   UNL     1       6.232   5.486   0.869  1.00  0.00     0.109 C 
ATOM     12  C   UNL     1       5.170   5.103   1.900  1.00  0.00     0.021 C 
BRANCH  11  13
ATOM     13  C   UNL     1       7.636   5.746   1.450  1.00  0.00     0.204 C 
BRANCH  13  14
ATOM     14  N   UNL     1       7.883   7.174   1.678  1.00  0.00    -0.340 N 
ATOM     15  C   UNL     1       9.075   7.787   1.359  1.00  0.00     0.243 C 
ATOM     16  O   UNL     1       9.997   7.191   0.804  1.00  0.00    -0.273 OA
ATOM     17  H   UNL     1       7.223   7.687   2.268  1.00  0.00     0.164 HD
BRANCH  15  18
ATOM     18  C   UNL     1       9.180   9.242   1.878  1.00  0.00     0.171 C 
BRANCH  18  19
ATOM     19  N   UNL     1       9.662   9.161   3.256  1.00  0.00    -0.343 N 
ATOM     20  C   UNL     1       9.452  10.183   4.162  1.00  0.00     0.242 CG0
ATOM     21  O   UNL     1       8.970  11.260   3.818  1.00  0.00    -0.273 OA
ATOM     22  H   UNL     1      10.169   8.338   3.558  1.00  0.00     0.164 HD
ATOM     23  G   UNL     1       9.962   9.884   5.587  1.00  0.00     0.000 G0
ENDBRANCH  18  19
BRANCH  18  24
ATOM     24  C   UNL     1      10.130  10.064   0.998  1.00  0.00     0.038 C 
BRANCH  24  25
ATOM     25  C   UNL     1       9.453  11.204   0.209  1.00  0.00    -0.015 C 
ATOM     26  C   UNL     1       9.385  10.918  -1.291  1.00  0.00     0.007 C 
ATOM     27  C   UNL     1      10.207  12.515   0.450  1.00  0.00     0.007 C 
ENDBRANCH  24  25
ENDBRANCH  18  24
ENDBRANCH  15  18
ENDBRANCH  13  14
BRANCH  13  28
ATOM     28  C   UNL     1       7.882   5.026   2.779  1.00  0.00     0.327 C 
ATOM     29  O   UNL     1       8.262   3.873   2.917  1.00  0.00    -0.250 OA
BRANCH  28  30
ATOM     30  O   UNL     1       7.522   5.759   3.853  1.00  0.00    -0.480 OA
ATOM     31  H   UNL     1       6.931   5.166   4.362  1.00  0.00     0.296 HD
ENDBRANCH  28  30
ENDBRANCH  13  28
ENDBRANCH  11  13
ENDBRANCH   8  11
ENDBRANCH   6   7
BRANCH   6  32
ATOM     32  C   UNL     1       6.836   1.244  -0.753  1.00  0.00     0.037 C 
BRANCH  32  33
ATOM     33  C   UNL     1       7.519   0.995  -2.105  1.00  0.00     0.026 C 
BRANCH  33  34
ATOM     34  C   UNL     1       8.128  -0.404  -2.204  1.00  0.00     0.146 C 
BRANCH  34  35
ATOM     35  N   UNL     1       9.552  -0.319  -1.907  1.00  0.00    -0.254 NA
ATOM     36  C   UNL     1      10.378  -0.231  -2.882  1.00  0.00     0.185 C 
ATOM     37  N   UNL     1      11.692  -0.147  -2.619  1.00  0.00    -0.370 N 
ATOM     38  N   UNL     1      10.128  -0.206  -4.203  1.00  0.00    -0.370 N 
ATOM     39  H   UNL     1      11.961  -0.148  -1.644  1.00  0.00     0.159 HD
ATOM     40  H   UNL     1      12.382   0.098  -3.308  1.00  0.00     0.159 HD
ATOM     41  H   UNL     1      10.873  -0.275  -4.876  1.00  0.00     0.159 HD
ATOM     42  H   UNL     1       9.183  -0.278  -4.546  1.00  0.00     0.159 HD
ENDBRANCH  34  35
ENDBRANCH  33  34
ENDBRANCH  32  33
ENDBRANCH   6  32
ENDBRANCH   4   6
ENDBRANCH   1   2
BRANCH   1  43
ATOM     43  C   UNL     1       1.262   1.272  -2.172  1.00  0.00     0.102 C 
ATOM     44  C   UNL     1      -0.272   1.357  -2.252  1.00  0.00     0.020 C 
BRANCH  43  45
ATOM     45  C   UNL     1       1.852   0.034  -2.854  1.00  0.00     0.225 C 
ATOM     46  O   UNL     1       2.848   0.072  -3.569  1.00  0.00    -0.275 OA
ATOM     47  N   UNL     1       1.135  -1.130  -2.690  1.00  0.00    -0.342 N 
ATOM     48  H   UNL     1       0.414  -1.178  -1.984  1.00  0.00     0.164 HD
BRANCH  47  49
ATOM     49  C   UNL     1       1.598  -2.401  -3.255  1.00  0.00     0.192 C 
BRANCH  49  50
ATOM     50  C   UNL     1       1.439  -2.375  -4.778  1.00  0.00     0.047 C 
BRANCH  50  51
ATOM     51  C   UNL     1       2.188  -3.528  -5.461  1.00  0.00     0.103 C 
BRANCH  51  52
ATOM     52  C   UNL     1       3.311  -3.025  -6.367  1.00  0.00     0.226 C 
ATOM     53  O   UNL     1       4.463  -2.962  -5.933  1.00  0.00    -0.275 OA
BRANCH  52  54
ATOM     54  N   UNL     1       2.958  -2.731  -7.697  1.00  0.00    -0.311 N 
ATOM     55  C   UNL     1       1.735  -3.282  -8.295  1.00  0.00     0.153 C 
BRANCH  54  56
ATOM     56  C   UNL     1       3.757  -1.898  -8.499  1.00  0.00     0.102 C 
ATOM     57  C   UNL     1       3.705  -0.556  -8.503  1.00  0.00     0.043 C 
BRANCH  56  58
ATOM     58  C   UNL     1       4.804  -2.480  -9.418  1.00  0.00     0.268 C 
ATOM     59  O   UNL     1       4.531  -3.134 -10.416  1.00  0.00    -0.268 OA
ATOM     60  N   UNL     1       6.087  -2.145  -9.056  1.00  0.00    -0.339 N 
ATOM     61  H   UNL     1       6.230  -1.608  -8.209  1.00  0.00     0.164 HD
BRANCH  60  62
ATOM     62  C   UNL     1       7.250  -2.551  -9.844  1.00  0.00     0.168 CG0
ATOM     63  C   UNL     1       8.432  -1.622  -9.594  1.00  0.00     0.041 C 
ATOM     64  G   UNL     1       6.879  -2.572 -11.341  1.00  0.00     0.000 G0
ENDBRANCH  60  62
ENDBRANCH  56  58
ENDBRANCH  54  56
ENDBRANCH  52  54
ENDBRANCH  51  52
ENDBRANCH  50  51
ENDBRANCH  49  50
BRANCH  49  65
ATOM     65  C   UNL     1       0.818  -3.594  -2.682  1.00  0.00     0.326 C 
ATOM     66  O   UNL     1      -0.353  -3.856  -2.917  1.00  0.00    -0.250 OA
BRANCH  65  67
ATOM     67  O   UNL     1       1.513  -4.355  -1.808  1.00  0.00    -0.480 OA
ATOM     68  H   UNL     1       2.426  -4.000  -1.868  1.00  0.00     0.296 HD
ENDBRANCH  65  67
ENDBRANCH  49  65
ENDBRANCH  47  49
ENDBRANCH  43  45
ENDBRANCH   1  43
BRANCH   1  69
ATOM     69  C   UNL     1       1.040   2.276   0.267  1.00  0.00    -0.001 C 
ATOM     70  C   UNL     1       1.535   3.008   1.280  1.00  0.00     0.001 C 
BRANCH  70  71
ATOM     71  C   UNL     1       0.777   3.835   2.221  1.00  0.00    -0.055 C 
ATOM     72  C   UNL     1      -0.561   3.665   2.269  1.00  0.00    -0.018 C 
ATOM     73  C   UNL     1       1.544   4.811   3.074  1.00  0.00     0.044 C 
BRANCH  72  74
ATOM     74  C   UNL     1      -1.592   4.371   3.138  1.00  0.00     0.038 C 
ATOM     75  C   UNL     1      -2.814   3.450   3.230  1.00  0.00     0.015 C 
BRANCH  74  76
ATOM     76  C   UNL     1      -1.878   5.777   2.533  1.00  0.00     0.128 C 
BRANCH  76  77
ATOM     77  O   UNL     1      -1.293   6.796   3.361  1.00  0.00    -0.381 OA
ATOM     78  C   UNL     1      -1.755   6.775   4.705  1.00  0.00     0.195 C 
ENDBRANCH  76  77
BRANCH  76  79
ATOM     79  C   UNL     1      -1.479   5.914   1.042  1.00  0.00     0.068 C 
BRANCH  79  80
ATOM     80  C   UNL     1      -2.492   5.507  -0.001  1.00  0.00    -0.045 A 
ATOM     81  C   UNL     1      -3.710   6.188  -0.128  1.00  0.00     0.004 A 
ATOM     82  C   UNL     1      -2.239   4.416  -0.845  1.00  0.00     0.004 A 
ATOM     83  C   UNL     1      -4.648   5.797  -1.086  1.00  0.00     0.000 A 
ATOM     84  C   UNL     1      -3.177   4.025  -1.802  1.00  0.00     0.000 A 
ATOM     85  C   UNL     1      -4.381   4.716  -1.924  1.00  0.00     0.000 A 
ENDBRANCH  79  80
ENDBRANCH  76  79
ENDBRANCH  74  76
ENDBRANCH  72  74
ENDBRANCH  70  71
ENDBRANCH   1  69
TORSDOF 17
ENDMDL
MODEL 30
REMARK VINA RESULT:    -5.838      3.841      8.711
REMARK INTER + INTRA:         -24.724
REMARK INTER:                 -16.665
REMARK INTRA:                  -8.059
REMARK UNBOUND:                -7.281
REMARK SMILES C=C1C(=O)N[C@H](C)C(=O)N[C@@H](CC(C)C)C(=O)N[C@@H](C(=O)O)[C@H](C)C(=O)N[C@@H](CCCN=C(N)N)C(=O)N[C@@H](/C=C/C(C)=C/[C@H](C)[C@H](Cc2ccccc2)OC)[C@H](C)C(=O)N[C@@H](C(=O)O)CCC(=O)N1C
REMARK SMILES IDX 39 1 38 2 37 3 36 4 28 6 27 7 25 8 26 9 23 11 24 12 19 13
REMARK SMILES IDX 18 14 16 15 17 16 11 18 10 19 8 20 9 21 12 24 13 25 14 26
REMARK SMILES IDX 15 27 20 28 21 29 22 30 29 32 30 33 31 34 32 35 33 36 34 37
REMARK SMILES IDX 35 38 57 43 58 44 59 45 60 46 61 47 62 49 66 50 67 51 68 52
REMARK SMILES IDX 69 53 70 54 71 55 2 56 1 57 3 58 4 59 5 60 6 62 7 63 63 65
REMARK SMILES IDX 64 66 65 67 40 69 41 70 42 71 44 72 43 73 45 74 46 75 47 76
REMARK SMILES IDX 55 77 56 78 48 79 49 80 50 81 54 82 51 83 53 84 52 85
REMARK H PARENT 38 5 27 10 18 17 10 22 22 31 34 39 34 40 35 41 35 42 61 48
REMARK H PARENT 5 61 65 68
REMARK Flexibility Score:  369.900
ROOT
ATOM      1  C   UNL     1       6.027  -0.901  -6.465  1.00  0.00     0.117 C 
ENDROOT
BRANCH   1   2
ATOM      2  N   UNL     1       6.907  -1.500  -7.469  1.00  0.00    -0.347 N 
ATOM      3  O   UNL     1       6.464  -3.703  -6.998  1.00  0.00    -0.273 OA
ATOM      4  C   UNL     1       6.986  -2.857  -7.717  1.00  0.00     0.243 C 
ATOM      5  H   UNL     1       7.462  -0.901  -8.061  1.00  0.00     0.164 HD
BRANCH   4   6
ATOM      6  C   UNL     1       7.930  -3.223  -8.890  1.00  0.00     0.171 C 
BRANCH   6   7
ATOM      7  N   UNL     1       7.219  -3.116 -10.174  1.00  0.00    -0.344 N 
ATOM      8  C   UNL     1       7.448  -4.029 -11.182  1.00  0.00     0.226 C 
ATOM      9  O   UNL     1       8.255  -4.944 -11.072  1.00  0.00    -0.275 OA
ATOM     10  H   UNL     1       6.595  -2.334 -10.327  1.00  0.00     0.164 HD
BRANCH   8  11
ATOM     11  C   UNL     1       6.598  -3.816 -12.422  1.00  0.00     0.109 C 
ATOM     12  C   UNL     1       5.136  -3.605 -12.029  1.00  0.00     0.021 C 
BRANCH  11  13
ATOM     13  C   UNL     1       7.207  -2.692 -13.285  1.00  0.00     0.204 C 
BRANCH  13  14
ATOM     14  N   UNL     1       8.454  -3.109 -13.934  1.00  0.00    -0.340 N 
ATOM     15  C   UNL     1       9.412  -2.214 -14.358  1.00  0.00     0.243 C 
ATOM     16  O   UNL     1       9.314  -1.003 -14.168  1.00  0.00    -0.273 OA
ATOM     17  H   UNL     1       8.528  -4.078 -14.256  1.00  0.00     0.164 HD
BRANCH  15  18
ATOM     18  C   UNL     1      10.539  -2.865 -15.198  1.00  0.00     0.171 C 
BRANCH  18  19
ATOM     19  N   UNL     1      10.813  -1.954 -16.308  1.00  0.00    -0.343 N 
ATOM     20  C   UNL     1      10.942  -2.407 -17.607  1.00  0.00     0.242 CG0
ATOM     21  O   UNL     1      10.964  -3.607 -17.871  1.00  0.00    -0.273 OA
ATOM     22  H   UNL     1      10.919  -0.963 -16.123  1.00  0.00     0.164 HD
ATOM     23  G   UNL     1      11.152  -1.292 -18.652  1.00  0.00     0.000 G0
ENDBRANCH  18  19
BRANCH  18  24
ATOM     24  C   UNL     1      11.788  -3.097 -14.339  1.00  0.00     0.038 C 
BRANCH  24  25
ATOM     25  C   UNL     1      11.941  -2.127 -13.148  1.00  0.00    -0.015 C 
ATOM     26  C   UNL     1      12.761  -0.887 -13.505  1.00  0.00     0.007 C 
ATOM     27  C   UNL     1      12.594  -2.856 -11.971  1.00  0.00     0.007 C 
ENDBRANCH  24  25
ENDBRANCH  18  24
ENDBRANCH  15  18
ENDBRANCH  13  14
BRANCH  13  28
ATOM     28  C   UNL     1       6.265  -2.200 -14.387  1.00  0.00     0.327 C 
ATOM     29  O   UNL     1       5.829  -1.065 -14.512  1.00  0.00    -0.250 OA
BRANCH  28  30
ATOM     30  O   UNL     1       5.833  -3.190 -15.195  1.00  0.00    -0.480 OA
ATOM     31  H   UNL     1       6.653  -3.557 -15.585  1.00  0.00     0.296 HD
ENDBRANCH  28  30
ENDBRANCH  13  28
ENDBRANCH  11  13
ENDBRANCH   8  11
ENDBRANCH   6   7
BRANCH   6  32
ATOM     32  C   UNL     1       9.150  -2.296  -8.862  1.00  0.00     0.037 C 
BRANCH  32  33
ATOM     33  C   UNL     1       9.476  -1.723 -10.248  1.00  0.00     0.026 C 
BRANCH  33  34
ATOM     34  C   UNL     1       9.248  -0.213 -10.326  1.00  0.00     0.146 C 
BRANCH  34  35
ATOM     35  N   UNL     1       7.872   0.075  -9.947  1.00  0.00    -0.254 NA
ATOM     36  C   UNL     1       7.040   0.411 -10.862  1.00  0.00     0.185 C 
ATOM     37  N   UNL     1       5.768   0.674 -10.524  1.00  0.00    -0.370 N 
ATOM     38  N   UNL     1       7.248   0.550 -12.183  1.00  0.00    -0.370 N 
ATOM     39  H   UNL     1       5.530   0.581  -9.545  1.00  0.00     0.159 HD
ATOM     40  H   UNL     1       5.024   0.772 -11.193  1.00  0.00     0.159 HD
ATOM     41  H   UNL     1       6.547   0.955 -12.781  1.00  0.00     0.159 HD
ATOM     42  H   UNL     1       8.164   0.399 -12.576  1.00  0.00     0.159 HD
ENDBRANCH  34  35
ENDBRANCH  33  34
ENDBRANCH  32  33
ENDBRANCH   6  32
ENDBRANCH   4   6
ENDBRANCH   1   2
BRANCH   1  43
ATOM     43  C   UNL     1       4.778  -0.318  -7.186  1.00  0.00     0.102 C 
ATOM     44  C   UNL     1       4.394   1.091  -6.703  1.00  0.00     0.020 C 
BRANCH  43  45
ATOM     45  C   UNL     1       3.617  -1.318  -7.171  1.00  0.00     0.225 C 
ATOM     46  O   UNL     1       2.694  -1.287  -7.980  1.00  0.00    -0.275 OA
ATOM     47  N   UNL     1       3.619  -2.211  -6.124  1.00  0.00    -0.342 N 
ATOM     48  H   UNL     1       4.452  -2.323  -5.564  1.00  0.00     0.164 HD
BRANCH  47  49
ATOM     49  C   UNL     1       2.591  -3.248  -6.001  1.00  0.00     0.192 C 
BRANCH  49  50
ATOM     50  C   UNL     1       1.808  -3.044  -4.702  1.00  0.00     0.047 C 
BRANCH  50  51
ATOM     51  C   UNL     1       0.995  -1.742  -4.710  1.00  0.00     0.103 C 
BRANCH  51  52
ATOM     52  C   UNL     1       1.542  -0.718  -3.719  1.00  0.00     0.226 C 
ATOM     53  O   UNL     1       2.603  -0.139  -3.963  1.00  0.00    -0.275 OA
BRANCH  52  54
ATOM     54  N   UNL     1       0.740  -0.440  -2.597  1.00  0.00    -0.311 N 
ATOM     55  C   UNL     1       0.853   0.840  -1.884  1.00  0.00     0.153 C 
BRANCH  54  56
ATOM     56  C   UNL     1      -0.200  -1.369  -2.121  1.00  0.00     0.102 C 
ATOM     57  C   UNL     1       0.100  -2.477  -1.423  1.00  0.00     0.043 C 
BRANCH  56  58
ATOM     58  C   UNL     1      -1.680  -1.152  -2.333  1.00  0.00     0.268 C 
ATOM     59  O   UNL     1      -2.145  -0.658  -3.351  1.00  0.00    -0.268 OA
ATOM     60  N   UNL     1      -2.449  -1.626  -1.297  1.00  0.00    -0.339 N 
ATOM     61  H   UNL     1      -1.986  -2.013  -0.484  1.00  0.00     0.164 HD
BRANCH  60  62
ATOM     62  C   UNL     1      -3.910  -1.575  -1.325  1.00  0.00     0.168 CG0
ATOM     63  C   UNL     1      -4.493  -1.815   0.062  1.00  0.00     0.041 C 
ATOM     64  G   UNL     1      -4.445  -2.615  -2.330  1.00  0.00     0.000 G0
ENDBRANCH  60  62
ENDBRANCH  56  58
ENDBRANCH  54  56
ENDBRANCH  52  54
ENDBRANCH  51  52
ENDBRANCH  50  51
ENDBRANCH  49  50
BRANCH  49  65
ATOM     65  C   UNL     1       3.203  -4.658  -6.010  1.00  0.00     0.326 C 
ATOM     66  O   UNL     1       2.637  -5.676  -6.380  1.00  0.00    -0.250 OA
BRANCH  65  67
ATOM     67  O   UNL     1       4.454  -4.732  -5.505  1.00  0.00    -0.480 OA
ATOM     68  H   UNL     1       4.449  -4.075  -4.776  1.00  0.00     0.296 HD
ENDBRANCH  65  67
ENDBRANCH  49  65
ENDBRANCH  47  49
ENDBRANCH  43  45
ENDBRANCH   1  43
BRANCH   1  69
ATOM     69  C   UNL     1       6.898   0.029  -5.639  1.00  0.00    -0.001 C 
ATOM     70  C   UNL     1       8.179   0.366  -5.868  1.00  0.00     0.001 C 
BRANCH  70  71
ATOM     71  C   UNL     1       9.002   1.282  -5.076  1.00  0.00    -0.055 C 
ATOM     72  C   UNL     1       9.637   0.780  -3.996  1.00  0.00    -0.018 C 
ATOM     73  C   UNL     1       9.089   2.717  -5.526  1.00  0.00     0.044 C 
BRANCH  72  74
ATOM     74  C   UNL     1      10.550   1.483  -3.002  1.00  0.00     0.038 C 
ATOM     75  C   UNL     1      11.819   0.632  -2.872  1.00  0.00     0.015 C 
BRANCH  74  76
ATOM     76  C   UNL     1       9.770   1.701  -1.672  1.00  0.00     0.128 C 
BRANCH  76  77
ATOM     77  O   UNL     1      10.689   2.001  -0.608  1.00  0.00    -0.381 OA
ATOM     78  C   UNL     1      10.210   2.985   0.299  1.00  0.00     0.195 C 
ENDBRANCH  76  77
BRANCH  76  79
ATOM     79  C   UNL     1       8.619   2.732  -1.779  1.00  0.00     0.068 C 
BRANCH  79  80
ATOM     80  C   UNL     1       7.201   2.214  -1.758  1.00  0.00    -0.045 A 
ATOM     81  C   UNL     1       6.293   2.554  -2.770  1.00  0.00     0.004 A 
ATOM     82  C   UNL     1       6.761   1.401  -0.702  1.00  0.00     0.004 A 
ATOM     83  C   UNL     1       4.979   2.082  -2.735  1.00  0.00     0.000 A 
ATOM     84  C   UNL     1       5.447   0.931  -0.668  1.00  0.00     0.000 A 
ATOM     85  C   UNL     1       4.557   1.269  -1.685  1.00  0.00     0.000 A 
ENDBRANCH  79  80
ENDBRANCH  76  79
ENDBRANCH  74  76
ENDBRANCH  72  74
ENDBRANCH  70  71
ENDBRANCH   1  69
TORSDOF 17
ENDMDL
MODEL 31
REMARK VINA RESULT:    -5.829      3.809     12.524
REMARK INTER + INTRA:         -24.695
REMARK INTER:                 -17.958
REMARK INTRA:                  -6.738
REMARK UNBOUND:                -7.281
REMARK SMILES C=C1C(=O)N[C@H](C)C(=O)N[C@@H](CC(C)C)C(=O)N[C@@H](C(=O)O)[C@H](C)C(=O)N[C@@H](CCCN=C(N)N)C(=O)N[C@@H](/C=C/C(C)=C/[C@H](C)[C@H](Cc2ccccc2)OC)[C@H](C)C(=O)N[C@@H](C(=O)O)CCC(=O)N1C
REMARK SMILES IDX 39 1 38 2 37 3 36 4 28 6 27 7 25 8 26 9 23 11 24 12 19 13
REMARK SMILES IDX 18 14 16 15 17 16 11 18 10 19 8 20 9 21 12 24 13 25 14 26
REMARK SMILES IDX 15 27 20 28 21 29 22 30 29 32 30 33 31 34 32 35 33 36 34 37
REMARK SMILES IDX 35 38 57 43 58 44 59 45 60 46 61 47 62 49 66 50 67 51 68 52
REMARK SMILES IDX 69 53 70 54 71 55 2 56 1 57 3 58 4 59 5 60 6 62 7 63 63 65
REMARK SMILES IDX 64 66 65 67 40 69 41 70 42 71 44 72 43 73 45 74 46 75 47 76
REMARK SMILES IDX 55 77 56 78 48 79 49 80 50 81 54 82 51 83 53 84 52 85
REMARK H PARENT 38 5 27 10 18 17 10 22 22 31 34 39 34 40 35 41 35 42 61 48
REMARK H PARENT 5 61 65 68
REMARK Flexibility Score:  369.900
ROOT
ATOM      1  C   UNL     1      -0.406  -0.914  -2.773  1.00  0.00     0.117 C 
ENDROOT
BRANCH   1   2
ATOM      2  N   UNL     1       0.414   0.245  -2.418  1.00  0.00    -0.347 N 
ATOM      3  O   UNL     1       1.908  -0.835  -1.050  1.00  0.00    -0.273 OA
ATOM      4  C   UNL     1       1.564   0.175  -1.655  1.00  0.00     0.243 C 
ATOM      5  H   UNL     1       0.171   1.153  -2.784  1.00  0.00     0.164 HD
BRANCH   4   6
ATOM      6  C   UNL     1       2.292   1.534  -1.499  1.00  0.00     0.171 C 
BRANCH   6   7
ATOM      7  N   UNL     1       2.188   2.017  -0.113  1.00  0.00    -0.344 N 
ATOM      8  C   UNL     1       0.996   2.509   0.372  1.00  0.00     0.226 C 
ATOM      9  O   UNL     1      -0.014   2.590  -0.317  1.00  0.00    -0.275 OA
ATOM     10  H   UNL     1       3.018   2.028   0.466  1.00  0.00     0.164 HD
BRANCH   8  11
ATOM     11  C   UNL     1       1.036   2.916   1.835  1.00  0.00     0.109 C 
ATOM     12  C   UNL     1       1.885   1.927   2.633  1.00  0.00     0.021 C 
BRANCH  11  13
ATOM     13  C   UNL     1       1.473   4.390   1.954  1.00  0.00     0.204 C 
BRANCH  13  14
ATOM     14  N   UNL     1       0.800   5.077   3.060  1.00  0.00    -0.340 N 
ATOM     15  C   UNL     1      -0.081   6.119   2.868  1.00  0.00     0.243 C 
ATOM     16  O   UNL     1      -0.412   6.506   1.749  1.00  0.00    -0.273 OA
ATOM     17  H   UNL     1       1.143   4.909   4.010  1.00  0.00     0.164 HD
BRANCH  15  18
ATOM     18  C   UNL     1      -0.504   6.822   4.182  1.00  0.00     0.171 C 
BRANCH  18  19
ATOM     19  N   UNL     1      -0.307   8.255   3.972  1.00  0.00    -0.343 N 
ATOM     20  C   UNL     1       0.761   8.933   4.526  1.00  0.00     0.242 CG0
ATOM     21  O   UNL     1       1.520   8.393   5.328  1.00  0.00    -0.273 OA
ATOM     22  H   UNL     1      -0.974   8.771   3.410  1.00  0.00     0.164 HD
ATOM     23  G   UNL     1       0.846  10.421   4.129  1.00  0.00     0.000 G0
ENDBRANCH  18  19
BRANCH  18  24
ATOM     24  C   UNL     1      -1.963   6.498   4.524  1.00  0.00     0.038 C 
BRANCH  24  25
ATOM     25  C   UNL     1      -2.974   7.601   4.143  1.00  0.00    -0.015 C 
ATOM     26  C   UNL     1      -3.925   7.945   5.289  1.00  0.00     0.007 C 
ATOM     27  C   UNL     1      -3.780   7.160   2.919  1.00  0.00     0.007 C 
ENDBRANCH  24  25
ENDBRANCH  18  24
ENDBRANCH  15  18
ENDBRANCH  13  14
BRANCH  13  28
ATOM     28  C   UNL     1       2.981   4.556   2.166  1.00  0.00     0.327 C 
ATOM     29  O   UNL     1       3.857   4.318   1.348  1.00  0.00    -0.250 OA
BRANCH  28  30
ATOM     30  O   UNL     1       3.303   4.898   3.430  1.00  0.00    -0.480 OA
ATOM     31  H   UNL     1       2.447   5.147   3.837  1.00  0.00     0.296 HD
ENDBRANCH  28  30
ENDBRANCH  13  28
ENDBRANCH  11  13
ENDBRANCH   8  11
ENDBRANCH   6   7
BRANCH   6  32
ATOM     32  C   UNL     1       3.759   1.369  -1.913  1.00  0.00     0.037 C 
BRANCH  32  33
ATOM     33  C   UNL     1       4.726   1.837  -0.816  1.00  0.00     0.026 C 
BRANCH  33  34
ATOM     34  C   UNL     1       5.918   0.895  -0.647  1.00  0.00     0.146 C 
BRANCH  34  35
ATOM     35  N   UNL     1       6.318   0.402  -1.958  1.00  0.00    -0.254 NA
ATOM     36  C   UNL     1       7.509  -0.042  -2.111  1.00  0.00     0.185 C 
ATOM     37  N   UNL     1       7.886  -0.504  -3.313  1.00  0.00    -0.370 N 
ATOM     38  N   UNL     1       8.502  -0.127  -1.207  1.00  0.00    -0.370 N 
ATOM     39  H   UNL     1       7.189  -0.483  -4.046  1.00  0.00     0.159 HD
ATOM     40  H   UNL     1       8.733  -1.023  -3.469  1.00  0.00     0.159 HD
ATOM     41  H   UNL     1       9.440  -0.366  -1.484  1.00  0.00     0.159 HD
ATOM     42  H   UNL     1       8.365   0.199  -0.263  1.00  0.00     0.159 HD
ENDBRANCH  34  35
ENDBRANCH  33  34
ENDBRANCH  32  33
ENDBRANCH   6  32
ENDBRANCH   4   6
ENDBRANCH   1   2
BRANCH   1  43
ATOM     43  C   UNL     1      -0.217  -1.208  -4.289  1.00  0.00     0.102 C 
ATOM     44  C   UNL     1      -1.539  -1.473  -5.030  1.00  0.00     0.020 C 
BRANCH  43  45
ATOM     45  C   UNL     1       0.846  -2.288  -4.512  1.00  0.00     0.225 C 
ATOM     46  O   UNL     1       1.079  -3.178  -3.699  1.00  0.00    -0.275 OA
ATOM     47  N   UNL     1       1.603  -2.147  -5.652  1.00  0.00    -0.342 N 
ATOM     48  H   UNL     1       1.303  -1.510  -6.377  1.00  0.00     0.164 HD
BRANCH  47  49
ATOM     49  C   UNL     1       2.634  -3.125  -6.013  1.00  0.00     0.192 C 
BRANCH  49  50
ATOM     50  C   UNL     1       3.616  -2.496  -7.005  1.00  0.00     0.047 C 
BRANCH  50  51
ATOM     51  C   UNL     1       5.074  -2.856  -6.689  1.00  0.00     0.103 C 
BRANCH  51  52
ATOM     52  C   UNL     1       6.014  -1.669  -6.889  1.00  0.00     0.226 C 
ATOM     53  O   UNL     1       6.376  -1.007  -5.914  1.00  0.00    -0.275 OA
BRANCH  52  54
ATOM     54  N   UNL     1       6.476  -1.450  -8.200  1.00  0.00    -0.311 N 
ATOM     55  C   UNL     1       6.245  -0.167  -8.878  1.00  0.00     0.153 C 
BRANCH  54  56
ATOM     56  C   UNL     1       7.179  -2.441  -8.904  1.00  0.00     0.102 C 
ATOM     57  C   UNL     1       8.376  -2.935  -8.548  1.00  0.00     0.043 C 
BRANCH  56  58
ATOM     58  C   UNL     1       6.588  -3.080 -10.139  1.00  0.00     0.268 C 
ATOM     59  O   UNL     1       5.386  -3.231 -10.305  1.00  0.00    -0.268 OA
ATOM     60  N   UNL     1       7.534  -3.411 -11.080  1.00  0.00    -0.339 N 
ATOM     61  H   UNL     1       8.512  -3.264 -10.862  1.00  0.00     0.164 HD
BRANCH  60  62
ATOM     62  C   UNL     1       7.174  -3.984 -12.377  1.00  0.00     0.168 CG0
ATOM     63  C   UNL     1       7.886  -5.312 -12.604  1.00  0.00     0.041 C 
ATOM     64  G   UNL     1       7.517  -2.982 -13.498  1.00  0.00     0.000 G0
ENDBRANCH  60  62
ENDBRANCH  56  58
ENDBRANCH  54  56
ENDBRANCH  52  54
ENDBRANCH  51  52
ENDBRANCH  50  51
ENDBRANCH  49  50
BRANCH  49  65
ATOM     65  C   UNL     1       2.022  -4.390  -6.636  1.00  0.00     0.326 C 
ATOM     66  O   UNL     1       1.025  -4.423  -7.342  1.00  0.00    -0.250 OA
BRANCH  65  67
ATOM     67  O   UNL     1       2.643  -5.542  -6.299  1.00  0.00    -0.480 OA
ATOM     68  H   UNL     1       3.364  -5.249  -5.700  1.00  0.00     0.296 HD
ENDBRANCH  65  67
ENDBRANCH  49  65
ENDBRANCH  47  49
ENDBRANCH  43  45
ENDBRANCH   1  43
BRANCH   1  69
ATOM     69  C   UNL     1      -1.801  -0.622  -2.251  1.00  0.00    -0.001 C 
ATOM     70  C   UNL     1      -2.132   0.090  -1.159  1.00  0.00     0.001 C 
BRANCH  70  71
ATOM     71  C   UNL     1      -3.483   0.383  -0.676  1.00  0.00    -0.055 C 
ATOM     72  C   UNL     1      -3.815   1.677  -0.488  1.00  0.00    -0.018 C 
ATOM     73  C   UNL     1      -4.409  -0.780  -0.433  1.00  0.00     0.044 C 
BRANCH  72  74
ATOM     74  C   UNL     1      -5.129   2.274  -0.004  1.00  0.00     0.038 C 
ATOM     75  C   UNL     1      -5.991   2.538  -1.244  1.00  0.00     0.015 C 
BRANCH  74  76
ATOM     76  C   UNL     1      -4.820   3.534   0.857  1.00  0.00     0.128 C 
BRANCH  76  77
ATOM     77  O   UNL     1      -5.031   3.241   2.249  1.00  0.00    -0.381 OA
ATOM     78  C   UNL     1      -6.065   2.295   2.483  1.00  0.00     0.195 C 
ENDBRANCH  76  77
BRANCH  76  79
ATOM     79  C   UNL     1      -3.430   4.160   0.581  1.00  0.00     0.068 C 
BRANCH  79  80
ATOM     80  C   UNL     1      -3.364   5.356  -0.338  1.00  0.00    -0.045 A 
ATOM     81  C   UNL     1      -4.489   6.160  -0.559  1.00  0.00     0.004 A 
ATOM     82  C   UNL     1      -2.172   5.665  -1.012  1.00  0.00     0.004 A 
ATOM     83  C   UNL     1      -4.423   7.256  -1.422  1.00  0.00     0.000 A 
ATOM     84  C   UNL     1      -2.107   6.761  -1.875  1.00  0.00     0.000 A 
ATOM     85  C   UNL     1      -3.232   7.557  -2.078  1.00  0.00     0.000 A 
ENDBRANCH  79  80
ENDBRANCH  76  79
ENDBRANCH  74  76
ENDBRANCH  72  74
ENDBRANCH  70  71
ENDBRANCH   1  69
TORSDOF 17
ENDMDL
MODEL 32
REMARK VINA RESULT:    -5.821      3.048     10.842
REMARK INTER + INTRA:         -24.671
REMARK INTER:                 -18.846
REMARK INTRA:                  -5.825
REMARK UNBOUND:                -7.281
REMARK SMILES C=C1C(=O)N[C@H](C)C(=O)N[C@@H](CC(C)C)C(=O)N[C@@H](C(=O)O)[C@H](C)C(=O)N[C@@H](CCCN=C(N)N)C(=O)N[C@@H](/C=C/C(C)=C/[C@H](C)[C@H](Cc2ccccc2)OC)[C@H](C)C(=O)N[C@@H](C(=O)O)CCC(=O)N1C
REMARK SMILES IDX 39 1 38 2 37 3 36 4 28 6 27 7 25 8 26 9 23 11 24 12 19 13
REMARK SMILES IDX 18 14 16 15 17 16 11 18 10 19 8 20 9 21 12 24 13 25 14 26
REMARK SMILES IDX 15 27 20 28 21 29 22 30 29 32 30 33 31 34 32 35 33 36 34 37
REMARK SMILES IDX 35 38 57 43 58 44 59 45 60 46 61 47 62 49 66 50 67 51 68 52
REMARK SMILES IDX 69 53 70 54 71 55 2 56 1 57 3 58 4 59 5 60 6 62 7 63 63 65
REMARK SMILES IDX 64 66 65 67 40 69 41 70 42 71 44 72 43 73 45 74 46 75 47 76
REMARK SMILES IDX 55 77 56 78 48 79 49 80 50 81 54 82 51 83 53 84 52 85
REMARK H PARENT 38 5 27 10 18 17 10 22 22 31 34 39 34 40 35 41 35 42 61 48
REMARK H PARENT 5 61 65 68
REMARK Flexibility Score:  369.900
ROOT
ATOM      1  C   UNL     1       1.325   0.112  -1.802  1.00  0.00     0.117 C 
ENDROOT
BRANCH   1   2
ATOM      2  N   UNL     1       2.511   0.815  -2.292  1.00  0.00    -0.347 N 
ATOM      3  O   UNL     1       3.829   0.536  -0.433  1.00  0.00    -0.273 OA
ATOM      4  C   UNL     1       3.705   0.891  -1.600  1.00  0.00     0.243 C 
ATOM      5  H   UNL     1       2.494   1.234  -3.209  1.00  0.00     0.164 HD
BRANCH   4   6
ATOM      6  C   UNL     1       4.831   1.619  -2.378  1.00  0.00     0.171 C 
BRANCH   6   7
ATOM      7  N   UNL     1       6.104   0.894  -2.239  1.00  0.00    -0.344 N 
ATOM      8  C   UNL     1       7.075   1.340  -1.369  1.00  0.00     0.226 C 
ATOM      9  O   UNL     1       6.942   2.355  -0.696  1.00  0.00    -0.275 OA
ATOM     10  H   UNL     1       6.277   0.088  -2.828  1.00  0.00     0.164 HD
BRANCH   8  11
ATOM     11  C   UNL     1       8.306   0.454  -1.298  1.00  0.00     0.109 C 
ATOM     12  C   UNL     1       8.256  -0.605  -2.400  1.00  0.00     0.021 C 
BRANCH  11  13
ATOM     13  C   UNL     1       9.577   1.327  -1.295  1.00  0.00     0.204 C 
BRANCH  13  14
ATOM     14  N   UNL     1       9.591   2.277  -0.179  1.00  0.00    -0.340 N 
ATOM     15  C   UNL     1      10.343   3.432  -0.188  1.00  0.00     0.243 C 
ATOM     16  O   UNL     1      11.011   3.777  -1.162  1.00  0.00    -0.273 OA
ATOM     17  H   UNL     1       9.183   1.979   0.711  1.00  0.00     0.164 HD
BRANCH  15  18
ATOM     18  C   UNL     1      10.362   4.169   1.173  1.00  0.00     0.171 C 
BRANCH  18  19
ATOM     19  N   UNL     1      10.280   3.139   2.207  1.00  0.00    -0.343 N 
ATOM     20  C   UNL     1       9.392   3.235   3.262  1.00  0.00     0.242 CG0
ATOM     21  O   UNL     1       8.725   4.249   3.451  1.00  0.00    -0.273 OA
ATOM     22  H   UNL     1      10.894   2.334   2.158  1.00  0.00     0.164 HD
ATOM     23  G   UNL     1       9.394   2.017   4.208  1.00  0.00     0.000 G0
ENDBRANCH  18  19
BRANCH  18  24
ATOM     24  C   UNL     1      11.637   5.009   1.316  1.00  0.00     0.038 C 
BRANCH  24  25
ATOM     25  C   UNL     1      11.399   6.531   1.415  1.00  0.00    -0.015 C 
ATOM     26  C   UNL     1       9.989   6.931   0.981  1.00  0.00     0.007 C 
ATOM     27  C   UNL     1      12.431   7.270   0.559  1.00  0.00     0.007 C 
ENDBRANCH  24  25
ENDBRANCH  18  24
ENDBRANCH  15  18
ENDBRANCH  13  14
BRANCH  13  28
ATOM     28  C   UNL     1      10.870   0.510  -1.212  1.00  0.00     0.327 C 
ATOM     29  O   UNL     1      11.197  -0.235  -0.301  1.00  0.00    -0.250 OA
BRANCH  28  30
ATOM     30  O   UNL     1      11.726   0.772  -2.220  1.00  0.00    -0.480 OA
ATOM     31  H   UNL     1      12.573   0.376  -1.926  1.00  0.00     0.296 HD
ENDBRANCH  28  30
ENDBRANCH  13  28
ENDBRANCH  11  13
ENDBRANCH   8  11
ENDBRANCH   6   7
BRANCH   6  32
ATOM     32  C   UNL     1       4.427   1.738  -3.852  1.00  0.00     0.037 C 
BRANCH  32  33
ATOM     33  C   UNL     1       5.621   1.542  -4.797  1.00  0.00     0.026 C 
BRANCH  33  34
ATOM     34  C   UNL     1       5.193   1.104  -6.198  1.00  0.00     0.146 C 
BRANCH  34  35
ATOM     35  N   UNL     1       6.368   0.647  -6.927  1.00  0.00    -0.254 NA
ATOM     36  C   UNL     1       6.653  -0.602  -6.914  1.00  0.00     0.185 C 
ATOM     37  N   UNL     1       7.730  -1.034  -7.586  1.00  0.00    -0.370 N 
ATOM     38  N   UNL     1       6.007  -1.609  -6.299  1.00  0.00    -0.370 N 
ATOM     39  H   UNL     1       8.265  -0.335  -8.085  1.00  0.00     0.159 HD
ATOM     40  H   UNL     1       7.920  -2.005  -7.768  1.00  0.00     0.159 HD
ATOM     41  H   UNL     1       6.408  -2.531  -6.248  1.00  0.00     0.159 HD
ATOM     42  H   UNL     1       5.186  -1.427  -5.743  1.00  0.00     0.159 HD
ENDBRANCH  34  35
ENDBRANCH  33  34
ENDBRANCH  32  33
ENDBRANCH   6  32
ENDBRANCH   4   6
ENDBRANCH   1   2
BRANCH   1  43
ATOM     43  C   UNL     1       0.535  -0.437  -3.025  1.00  0.00     0.102 C 
ATOM     44  C   UNL     1      -0.381  -1.623  -2.679  1.00  0.00     0.020 C 
BRANCH  43  45
ATOM     45  C   UNL     1       1.468  -0.698  -4.211  1.00  0.00     0.225 C 
ATOM     46  O   UNL     1       1.898   0.195  -4.936  1.00  0.00    -0.275 OA
ATOM     47  N   UNL     1       1.729  -2.022  -4.479  1.00  0.00    -0.342 N 
ATOM     48  H   UNL     1       1.498  -2.726  -3.793  1.00  0.00     0.164 HD
BRANCH  47  49
ATOM     49  C   UNL     1       2.634  -2.421  -5.562  1.00  0.00     0.192 C 
BRANCH  49  50
ATOM     50  C   UNL     1       1.890  -2.369  -6.899  1.00  0.00     0.047 C 
BRANCH  50  51
ATOM     51  C   UNL     1       2.566  -1.427  -7.905  1.00  0.00     0.103 C 
BRANCH  51  52
ATOM     52  C   UNL     1       3.443  -2.184  -8.900  1.00  0.00     0.226 C 
ATOM     53  O   UNL     1       4.392  -2.855  -8.490  1.00  0.00    -0.275 OA
BRANCH  52  54
ATOM     54  N   UNL     1       3.053  -2.125 -10.251  1.00  0.00    -0.311 N 
ATOM     55  C   UNL     1       3.500  -1.028 -11.119  1.00  0.00     0.153 C 
BRANCH  54  56
ATOM     56  C   UNL     1       2.229  -3.110 -10.820  1.00  0.00     0.102 C 
ATOM     57  C   UNL     1       2.635  -4.339 -11.176  1.00  0.00     0.043 C 
BRANCH  56  58
ATOM     58  C   UNL     1       0.755  -2.858 -11.036  1.00  0.00     0.268 C 
ATOM     59  O   UNL     1       0.032  -2.346 -10.192  1.00  0.00    -0.268 OA
ATOM     60  N   UNL     1       0.328  -3.200 -12.297  1.00  0.00    -0.339 N 
ATOM     61  H   UNL     1       0.988  -3.628 -12.935  1.00  0.00     0.164 HD
BRANCH  60  62
ATOM     62  C   UNL     1      -1.048  -2.981 -12.740  1.00  0.00     0.168 CG0
ATOM     63  C   UNL     1      -1.852  -4.274 -12.687  1.00  0.00     0.041 C 
ATOM     64  G   UNL     1      -1.045  -2.398 -14.168  1.00  0.00     0.000 G0
ENDBRANCH  60  62
ENDBRANCH  56  58
ENDBRANCH  54  56
ENDBRANCH  52  54
ENDBRANCH  51  52
ENDBRANCH  50  51
ENDBRANCH  49  50
BRANCH  49  65
ATOM     65  C   UNL     1       3.191  -3.836  -5.343  1.00  0.00     0.326 C 
ATOM     66  O   UNL     1       2.635  -4.730  -4.720  1.00  0.00    -0.250 OA
BRANCH  65  67
ATOM     67  O   UNL     1       4.424  -4.042  -5.854  1.00  0.00    -0.480 OA
ATOM     68  H   UNL     1       4.361  -4.935  -6.257  1.00  0.00     0.296 HD
ENDBRANCH  65  67
ENDBRANCH  49  65
ENDBRANCH  47  49
ENDBRANCH  43  45
ENDBRANCH   1  43
BRANCH   1  69
ATOM     69  C   UNL     1       0.630   1.067  -0.849  1.00  0.00    -0.001 C 
ATOM     70  C   UNL     1      -0.694   1.226  -0.672  1.00  0.00     0.001 C 
BRANCH  70  71
ATOM     71  C   UNL     1      -1.353   2.136   0.267  1.00  0.00    -0.055 C 
ATOM     72  C   UNL     1      -0.809   2.274   1.494  1.00  0.00    -0.018 C 
ATOM     73  C   UNL     1      -2.586   2.861  -0.206  1.00  0.00     0.044 C 
BRANCH  72  74
ATOM     74  C   UNL     1      -1.268   3.138   2.660  1.00  0.00     0.038 C 
ATOM     75  C   UNL     1      -2.563   2.520   3.200  1.00  0.00     0.015 C 
BRANCH  74  76
ATOM     76  C   UNL     1      -1.402   4.610   2.169  1.00  0.00     0.128 C 
BRANCH  76  77
ATOM     77  O   UNL     1      -1.939   5.431   3.220  1.00  0.00    -0.381 OA
ATOM     78  C   UNL     1      -3.008   6.268   2.800  1.00  0.00     0.195 C 
ENDBRANCH  76  77
BRANCH  76  79
ATOM     79  C   UNL     1      -0.101   5.191   1.561  1.00  0.00     0.068 C 
BRANCH  79  80
ATOM     80  C   UNL     1       1.119   5.275   2.447  1.00  0.00    -0.045 A 
ATOM     81  C   UNL     1       1.415   6.444   3.159  1.00  0.00     0.004 A 
ATOM     82  C   UNL     1       1.995   4.183   2.548  1.00  0.00     0.004 A 
ATOM     83  C   UNL     1       2.553   6.518   3.965  1.00  0.00     0.000 A 
ATOM     84  C   UNL     1       3.133   4.258   3.355  1.00  0.00     0.000 A 
ATOM     85  C   UNL     1       3.411   5.424   4.064  1.00  0.00     0.000 A 
ENDBRANCH  79  80
ENDBRANCH  76  79
ENDBRANCH  74  76
ENDBRANCH  72  74
ENDBRANCH  70  71
ENDBRANCH   1  69
TORSDOF 17
ENDMDL
MODEL 33
REMARK VINA RESULT:    -5.816      5.732     12.113
REMARK INTER + INTRA:         -24.658
REMARK INTER:                 -17.146
REMARK INTRA:                  -7.513
REMARK UNBOUND:                -7.281
REMARK SMILES C=C1C(=O)N[C@H](C)C(=O)N[C@@H](CC(C)C)C(=O)N[C@@H](C(=O)O)[C@H](C)C(=O)N[C@@H](CCCN=C(N)N)C(=O)N[C@@H](/C=C/C(C)=C/[C@H](C)[C@H](Cc2ccccc2)OC)[C@H](C)C(=O)N[C@@H](C(=O)O)CCC(=O)N1C
REMARK SMILES IDX 39 1 38 2 37 3 36 4 28 6 27 7 25 8 26 9 23 11 24 12 19 13
REMARK SMILES IDX 18 14 16 15 17 16 11 18 10 19 8 20 9 21 12 24 13 25 14 26
REMARK SMILES IDX 15 27 20 28 21 29 22 30 29 32 30 33 31 34 32 35 33 36 34 37
REMARK SMILES IDX 35 38 57 43 58 44 59 45 60 46 61 47 62 49 66 50 67 51 68 52
REMARK SMILES IDX 69 53 70 54 71 55 2 56 1 57 3 58 4 59 5 60 6 62 7 63 63 65
REMARK SMILES IDX 64 66 65 67 40 69 41 70 42 71 44 72 43 73 45 74 46 75 47 76
REMARK SMILES IDX 55 77 56 78 48 79 49 80 50 81 54 82 51 83 53 84 52 85
REMARK H PARENT 38 5 27 10 18 17 10 22 22 31 34 39 34 40 35 41 35 42 61 48
REMARK H PARENT 5 61 65 68
REMARK Flexibility Score:  369.900
ROOT
ATOM      1  C   UNL     1       1.791   5.355   2.023  1.00  0.00     0.117 C 
ENDROOT
BRANCH   1   2
ATOM      2  N   UNL     1       0.989   4.447   1.202  1.00  0.00    -0.347 N 
ATOM      3  O   UNL     1      -0.543   3.848   2.803  1.00  0.00    -0.273 OA
ATOM      4  C   UNL     1      -0.172   3.836   1.634  1.00  0.00     0.243 C 
ATOM      5  H   UNL     1       1.254   4.283   0.243  1.00  0.00     0.164 HD
BRANCH   4   6
ATOM      6  C   UNL     1      -0.876   2.993   0.541  1.00  0.00     0.171 C 
BRANCH   6   7
ATOM      7  N   UNL     1      -1.122   3.808  -0.659  1.00  0.00    -0.344 N 
ATOM      8  C   UNL     1      -2.407   4.060  -1.087  1.00  0.00     0.226 C 
ATOM      9  O   UNL     1      -3.393   3.609  -0.516  1.00  0.00    -0.275 OA
ATOM     10  H   UNL     1      -0.331   4.142  -1.196  1.00  0.00     0.164 HD
BRANCH   8  11
ATOM     11  C   UNL     1      -2.496   4.961  -2.306  1.00  0.00     0.109 C 
ATOM     12  C   UNL     1      -3.211   4.236  -3.446  1.00  0.00     0.021 C 
BRANCH  11  13
ATOM     13  C   UNL     1      -3.116   6.316  -1.909  1.00  0.00     0.204 C 
BRANCH  13  14
ATOM     14  N   UNL     1      -4.407   6.154  -1.232  1.00  0.00    -0.340 N 
ATOM     15  C   UNL     1      -5.273   7.203  -1.012  1.00  0.00     0.243 C 
ATOM     16  O   UNL     1      -5.051   8.340  -1.423  1.00  0.00    -0.273 OA
ATOM     17  H   UNL     1      -4.582   5.276  -0.736  1.00  0.00     0.164 HD
BRANCH  15  18
ATOM     18  C   UNL     1      -6.469   6.836  -0.099  1.00  0.00     0.171 C 
BRANCH  18  19
ATOM     19  N   UNL     1      -7.678   7.250  -0.808  1.00  0.00    -0.343 N 
ATOM     20  C   UNL     1      -8.501   8.249  -0.324  1.00  0.00     0.242 CG0
ATOM     21  O   UNL     1      -8.328   8.742   0.788  1.00  0.00    -0.273 OA
ATOM     22  H   UNL     1      -7.928   6.790  -1.677  1.00  0.00     0.164 HD
ATOM     23  G   UNL     1      -9.685   8.602  -1.248  1.00  0.00     0.000 G0
ENDBRANCH  18  19
BRANCH  18  24
ATOM     24  C   UNL     1      -6.480   5.332   0.200  1.00  0.00     0.038 C 
BRANCH  24  25
ATOM     25  C   UNL     1      -6.454   4.974   1.701  1.00  0.00    -0.015 C 
ATOM     26  C   UNL     1      -7.280   5.941   2.549  1.00  0.00     0.007 C 
ATOM     27  C   UNL     1      -5.007   4.959   2.201  1.00  0.00     0.007 C 
ENDBRANCH  24  25
ENDBRANCH  18  24
ENDBRANCH  15  18
ENDBRANCH  13  14
BRANCH  13  28
ATOM     28  C   UNL     1      -2.219   7.143  -0.984  1.00  0.00     0.327 C 
ATOM     29  O   UNL     1      -1.804   6.804   0.113  1.00  0.00    -0.250 OA
BRANCH  28  30
ATOM     30  O   UNL     1      -1.995   8.391  -1.443  1.00  0.00    -0.480 OA
ATOM     31  H   UNL     1      -1.029   8.518  -1.335  1.00  0.00     0.296 HD
ENDBRANCH  28  30
ENDBRANCH  13  28
ENDBRANCH  11  13
ENDBRANCH   8  11
ENDBRANCH   6   7
BRANCH   6  32
ATOM     32  C   UNL     1      -0.008   1.775   0.207  1.00  0.00     0.037 C 
BRANCH  32  33
ATOM     33  C   UNL     1      -0.619   0.916  -0.910  1.00  0.00     0.026 C 
BRANCH  33  34
ATOM     34  C   UNL     1       0.439   0.350  -1.858  1.00  0.00     0.146 C 
BRANCH  34  35
ATOM     35  N   UNL     1       1.097   1.455  -2.541  1.00  0.00    -0.254 NA
ATOM     36  C   UNL     1       2.374   1.442  -2.644  1.00  0.00     0.185 C 
ATOM     37  N   UNL     1       2.989   2.453  -3.276  1.00  0.00    -0.370 N 
ATOM     38  N   UNL     1       3.247   0.524  -2.194  1.00  0.00    -0.370 N 
ATOM     39  H   UNL     1       2.396   3.181  -3.654  1.00  0.00     0.159 HD
ATOM     40  H   UNL     1       3.957   2.431  -3.548  1.00  0.00     0.159 HD
ATOM     41  H   UNL     1       4.239   0.696  -2.214  1.00  0.00     0.159 HD
ATOM     42  H   UNL     1       2.925  -0.284  -1.684  1.00  0.00     0.159 HD
ENDBRANCH  34  35
ENDBRANCH  33  34
ENDBRANCH  32  33
ENDBRANCH   6  32
ENDBRANCH   4   6
ENDBRANCH   1   2
BRANCH   1  43
ATOM     43  C   UNL     1       3.038   4.582   2.541  1.00  0.00     0.102 C 
ATOM     44  C   UNL     1       2.959   4.222   4.034  1.00  0.00     0.020 C 
BRANCH  43  45
ATOM     45  C   UNL     1       4.333   5.297   2.142  1.00  0.00     0.225 C 
ATOM     46  O   UNL     1       4.412   6.514   2.004  1.00  0.00    -0.275 OA
ATOM     47  N   UNL     1       5.398   4.475   1.851  1.00  0.00    -0.342 N 
ATOM     48  H   UNL     1       5.363   3.500   2.112  1.00  0.00     0.164 HD
BRANCH  47  49
ATOM     49  C   UNL     1       6.710   5.020   1.489  1.00  0.00     0.192 C 
BRANCH  49  50
ATOM     50  C   UNL     1       7.446   4.030   0.583  1.00  0.00     0.047 C 
BRANCH  50  51
ATOM     51  C   UNL     1       6.923   4.061  -0.860  1.00  0.00     0.103 C 
BRANCH  51  52
ATOM     52  C   UNL     1       6.000   2.881  -1.160  1.00  0.00     0.226 C 
ATOM     53  O   UNL     1       4.849   2.879  -0.719  1.00  0.00    -0.275 OA
BRANCH  52  54
ATOM     54  N   UNL     1       6.516   1.882  -2.007  1.00  0.00    -0.311 N 
ATOM     55  C   UNL     1       6.474   2.033  -3.467  1.00  0.00     0.153 C 
BRANCH  54  56
ATOM     56  C   UNL     1       7.092   0.710  -1.490  1.00  0.00     0.102 C 
ATOM     57  C   UNL     1       6.762   0.143  -0.318  1.00  0.00     0.043 C 
BRANCH  56  58
ATOM     58  C   UNL     1       8.137  -0.050  -2.273  1.00  0.00     0.268 C 
ATOM     59  O   UNL     1       7.886  -1.056  -2.923  1.00  0.00    -0.268 OA
ATOM     60  N   UNL     1       9.378   0.540  -2.232  1.00  0.00    -0.339 N 
ATOM     61  H   UNL     1       9.506   1.367  -1.661  1.00  0.00     0.164 HD
BRANCH  60  62
ATOM     62  C   UNL     1      10.520   0.004  -2.972  1.00  0.00     0.168 CG0
ATOM     63  C   UNL     1      11.807   0.722  -2.586  1.00  0.00     0.041 C 
ATOM     64  G   UNL     1      10.259   0.129  -4.487  1.00  0.00     0.000 G0
ENDBRANCH  60  62
ENDBRANCH  56  58
ENDBRANCH  54  56
ENDBRANCH  52  54
ENDBRANCH  51  52
ENDBRANCH  50  51
ENDBRANCH  49  50
BRANCH  49  65
ATOM     65  C   UNL     1       7.567   5.307   2.732  1.00  0.00     0.326 C 
ATOM     66  O   UNL     1       8.378   4.539   3.228  1.00  0.00    -0.250 OA
BRANCH  65  67
ATOM     67  O   UNL     1       7.325   6.499   3.321  1.00  0.00    -0.480 OA
ATOM     68  H   UNL     1       6.452   6.763   2.958  1.00  0.00     0.296 HD
ENDBRANCH  65  67
ENDBRANCH  49  65
ENDBRANCH  47  49
ENDBRANCH  43  45
ENDBRANCH   1  43
BRANCH   1  69
ATOM     69  C   UNL     1       0.838   5.969   3.032  1.00  0.00    -0.001 C 
ATOM     70  C   UNL     1       0.754   7.260   3.397  1.00  0.00     0.001 C 
BRANCH  70  71
ATOM     71  C   UNL     1      -0.185   7.845   4.356  1.00  0.00    -0.055 C 
ATOM     72  C   UNL     1      -1.341   7.186   4.583  1.00  0.00    -0.018 C 
ATOM     73  C   UNL     1       0.209   9.134   5.028  1.00  0.00     0.044 C 
BRANCH  72  74
ATOM     74  C   UNL     1      -2.488   7.548   5.515  1.00  0.00     0.038 C 
ATOM     75  C   UNL     1      -2.014   7.269   6.947  1.00  0.00     0.015 C 
BRANCH  74  76
ATOM     76  C   UNL     1      -3.756   6.755   5.081  1.00  0.00     0.128 C 
BRANCH  76  77
ATOM     77  O   UNL     1      -3.848   5.529   5.828  1.00  0.00    -0.381 OA
ATOM     78  C   UNL     1      -5.173   5.195   6.216  1.00  0.00     0.195 C 
ENDBRANCH  76  77
BRANCH  76  79
ATOM     79  C   UNL     1      -5.064   7.584   5.127  1.00  0.00     0.068 C 
BRANCH  79  80
ATOM     80  C   UNL     1      -5.253   8.664   4.090  1.00  0.00    -0.045 A 
ATOM     81  C   UNL     1      -6.021   9.803   4.365  1.00  0.00     0.004 A 
ATOM     82  C   UNL     1      -4.681   8.529   2.816  1.00  0.00     0.004 A 
ATOM     83  C   UNL     1      -6.202  10.792   3.396  1.00  0.00     0.000 A 
ATOM     84  C   UNL     1      -4.864   9.517   1.846  1.00  0.00     0.000 A 
ATOM     85  C   UNL     1      -5.623  10.649   2.137  1.00  0.00     0.000 A 
ENDBRANCH  79  80
ENDBRANCH  76  79
ENDBRANCH  74  76
ENDBRANCH  72  74
ENDBRANCH  70  71
ENDBRANCH   1  69
TORSDOF 17
ENDMDL
MODEL 34
REMARK VINA RESULT:    -5.811      5.280     12.790
REMARK INTER + INTRA:         -24.641
REMARK INTER:                 -15.102
REMARK INTRA:                  -9.539
REMARK UNBOUND:                -7.281
REMARK SMILES C=C1C(=O)N[C@H](C)C(=O)N[C@@H](CC(C)C)C(=O)N[C@@H](C(=O)O)[C@H](C)C(=O)N[C@@H](CCCN=C(N)N)C(=O)N[C@@H](/C=C/C(C)=C/[C@H](C)[C@H](Cc2ccccc2)OC)[C@H](C)C(=O)N[C@@H](C(=O)O)CCC(=O)N1C
REMARK SMILES IDX 39 1 38 2 37 3 36 4 28 6 27 7 25 8 26 9 23 11 24 12 19 13
REMARK SMILES IDX 18 14 16 15 17 16 11 18 10 19 8 20 9 21 12 24 13 25 14 26
REMARK SMILES IDX 15 27 20 28 21 29 22 30 29 32 30 33 31 34 32 35 33 36 34 37
REMARK SMILES IDX 35 38 57 43 58 44 59 45 60 46 61 47 62 49 66 50 67 51 68 52
REMARK SMILES IDX 69 53 70 54 71 55 2 56 1 57 3 58 4 59 5 60 6 62 7 63 63 65
REMARK SMILES IDX 64 66 65 67 40 69 41 70 42 71 44 72 43 73 45 74 46 75 47 76
REMARK SMILES IDX 55 77 56 78 48 79 49 80 50 81 54 82 51 83 53 84 52 85
REMARK H PARENT 38 5 27 10 18 17 10 22 22 31 34 39 34 40 35 41 35 42 61 48
REMARK H PARENT 5 61 65 68
REMARK Flexibility Score:  369.900
ROOT
ATOM      1  C   UNL     1       5.686   5.476  -1.114  1.00  0.00     0.117 C 
ENDROOT
BRANCH   1   2
ATOM      2  N   UNL     1       6.817   5.925  -0.302  1.00  0.00    -0.347 N 
ATOM      3  O   UNL     1       5.643   7.230   1.177  1.00  0.00    -0.273 OA
ATOM      4  C   UNL     1       6.693   6.695   0.839  1.00  0.00     0.243 C 
ATOM      5  H   UNL     1       7.749   5.623  -0.543  1.00  0.00     0.164 HD
BRANCH   4   6
ATOM      6  C   UNL     1       8.038   6.958   1.562  1.00  0.00     0.171 C 
BRANCH   6   7
ATOM      7  N   UNL     1       8.669   8.183   1.044  1.00  0.00    -0.344 N 
ATOM      8  C   UNL     1       9.940   8.147   0.511  1.00  0.00     0.226 C 
ATOM      9  O   UNL     1      10.607   7.120   0.463  1.00  0.00    -0.275 OA
ATOM     10  H   UNL     1       8.176   9.063   1.129  1.00  0.00     0.164 HD
BRANCH   8  11
ATOM     11  C   UNL     1      10.429   9.479  -0.029  1.00  0.00     0.109 C 
ATOM     12  C   UNL     1      11.789   9.305  -0.706  1.00  0.00     0.021 C 
BRANCH  11  13
ATOM     13  C   UNL     1       9.340  10.113  -0.917  1.00  0.00     0.204 C 
BRANCH  13  14
ATOM     14  N   UNL     1       9.705  11.463  -1.359  1.00  0.00    -0.340 N 
ATOM     15  C   UNL     1       9.291  12.602  -0.704  1.00  0.00     0.243 C 
ATOM     16  O   UNL     1       8.636  12.565   0.336  1.00  0.00    -0.273 OA
ATOM     17  H   UNL     1      10.114  11.569  -2.291  1.00  0.00     0.164 HD
BRANCH  15  18
ATOM     18  C   UNL     1       9.621  13.909  -1.466  1.00  0.00     0.171 C 
BRANCH  18  19
ATOM     19  N   UNL     1       9.091  15.008  -0.662  1.00  0.00    -0.343 N 
ATOM     20  C   UNL     1       7.973  15.721  -1.050  1.00  0.00     0.242 CG0
ATOM     21  O   UNL     1       7.452  15.553  -2.150  1.00  0.00    -0.273 OA
ATOM     22  H   UNL     1       9.556  15.262   0.202  1.00  0.00     0.164 HD
ATOM     23  G   UNL     1       7.517  16.791  -0.036  1.00  0.00     0.000 G0
ENDBRANCH  18  19
BRANCH  18  24
ATOM     24  C   UNL     1      11.134  14.046  -1.677  1.00  0.00     0.038 C 
BRANCH  24  25
ATOM     25  C   UNL     1      11.562  14.280  -3.141  1.00  0.00    -0.015 C 
ATOM     26  C   UNL     1      12.482  15.492  -3.295  1.00  0.00     0.007 C 
ATOM     27  C   UNL     1      10.321  14.461  -4.018  1.00  0.00     0.007 C 
ENDBRANCH  24  25
ENDBRANCH  18  24
ENDBRANCH  15  18
ENDBRANCH  13  14
BRANCH  13  28
ATOM     28  C   UNL     1       9.031   9.292  -2.173  1.00  0.00     0.327 C 
ATOM     29  O   UNL     1       9.588   9.390  -3.255  1.00  0.00    -0.250 OA
BRANCH  28  30
ATOM     30  O   UNL     1       7.962   8.483  -2.026  1.00  0.00    -0.480 OA
ATOM     31  H   UNL     1       7.572   8.434  -2.923  1.00  0.00     0.296 HD
ENDBRANCH  28  30
ENDBRANCH  13  28
ENDBRANCH  11  13
ENDBRANCH   8  11
ENDBRANCH   6   7
BRANCH   6  32
ATOM     32  C   UNL     1       7.786   7.069   3.070  1.00  0.00     0.037 C 
BRANCH  32  33
ATOM     33  C   UNL     1       8.261   5.822   3.829  1.00  0.00     0.026 C 
BRANCH  33  34
ATOM     34  C   UNL     1       9.620   5.320   3.338  1.00  0.00     0.146 C 
BRANCH  34  35
ATOM     35  N   UNL     1       9.446   4.004   2.740  1.00  0.00    -0.254 NA
ATOM     36  C   UNL     1      10.284   3.617   1.851  1.00  0.00     0.185 C 
ATOM     37  N   UNL     1      10.136   2.403   1.298  1.00  0.00    -0.370 N 
ATOM     38  N   UNL     1      11.350   4.268   1.355  1.00  0.00    -0.370 N 
ATOM     39  H   UNL     1       9.359   1.845   1.628  1.00  0.00     0.159 HD
ATOM     40  H   UNL     1      10.839   1.961   0.731  1.00  0.00     0.159 HD
ATOM     41  H   UNL     1      11.852   3.914   0.558  1.00  0.00     0.159 HD
ATOM     42  H   UNL     1      11.574   5.200   1.670  1.00  0.00     0.159 HD
ENDBRANCH  34  35
ENDBRANCH  33  34
ENDBRANCH  32  33
ENDBRANCH   6  32
ENDBRANCH   4   6
ENDBRANCH   1   2
BRANCH   1  43
ATOM     43  C   UNL     1       5.336   4.015  -0.713  1.00  0.00     0.102 C 
ATOM     44  C   UNL     1       4.482   3.918   0.564  1.00  0.00     0.020 C 
BRANCH  43  45
ATOM     45  C   UNL     1       6.589   3.135  -0.689  1.00  0.00     0.225 C 
ATOM     46  O   UNL     1       7.422   3.178   0.212  1.00  0.00    -0.275 OA
ATOM     47  N   UNL     1       6.781   2.347  -1.801  1.00  0.00    -0.342 N 
ATOM     48  H   UNL     1       6.022   2.210  -2.454  1.00  0.00     0.164 HD
BRANCH  47  49
ATOM     49  C   UNL     1       7.918   1.428  -1.902  1.00  0.00     0.192 C 
BRANCH  49  50
ATOM     50  C   UNL     1       8.377   1.335  -3.360  1.00  0.00     0.047 C 
BRANCH  50  51
ATOM     51  C   UNL     1       7.254   1.681  -4.346  1.00  0.00     0.103 C 
BRANCH  51  52
ATOM     52  C   UNL     1       7.004   0.556  -5.348  1.00  0.00     0.226 C 
ATOM     53  O   UNL     1       6.769  -0.583  -4.941  1.00  0.00    -0.275 OA
BRANCH  52  54
ATOM     54  N   UNL     1       6.984   0.920  -6.708  1.00  0.00    -0.311 N 
ATOM     55  C   UNL     1       5.737   1.343  -7.359  1.00  0.00     0.153 C 
BRANCH  54  56
ATOM     56  C   UNL     1       8.151   0.898  -7.489  1.00  0.00     0.102 C 
ATOM     57  C   UNL     1       9.047   1.896  -7.560  1.00  0.00     0.043 C 
BRANCH  56  58
ATOM     58  C   UNL     1       8.517  -0.321  -8.302  1.00  0.00     0.268 C 
ATOM     59  O   UNL     1       9.388  -0.317  -9.161  1.00  0.00    -0.268 OA
ATOM     60  N   UNL     1       7.818  -1.446  -7.933  1.00  0.00    -0.339 N 
ATOM     61  H   UNL     1       7.105  -1.364  -7.219  1.00  0.00     0.164 HD
BRANCH  60  62
ATOM     62  C   UNL     1       8.061  -2.750  -8.548  1.00  0.00     0.168 CG0
ATOM     63  C   UNL     1       7.132  -2.976  -9.735  1.00  0.00     0.041 C 
ATOM     64  G   UNL     1       7.879  -3.861  -7.494  1.00  0.00     0.000 G0
ENDBRANCH  60  62
ENDBRANCH  56  58
ENDBRANCH  54  56
ENDBRANCH  52  54
ENDBRANCH  51  52
ENDBRANCH  50  51
ENDBRANCH  49  50
BRANCH  49  65
ATOM     65  C   UNL     1       7.560   0.024  -1.391  1.00  0.00     0.326 C 
ATOM     66  O   UNL     1       7.068  -0.232  -0.301  1.00  0.00    -0.250 OA
BRANCH  65  67
ATOM     67  O   UNL     1       7.885  -0.982  -2.232  1.00  0.00    -0.480 OA
ATOM     68  H   UNL     1       8.710  -1.349  -1.846  1.00  0.00     0.296 HD
ENDBRANCH  65  67
ENDBRANCH  49  65
ENDBRANCH  47  49
ENDBRANCH  43  45
ENDBRANCH   1  43
BRANCH   1  69
ATOM     69  C   UNL     1       6.056   5.772  -2.556  1.00  0.00    -0.001 C 
ATOM     70  C   UNL     1       5.255   5.708  -3.635  1.00  0.00     0.001 C 
BRANCH  70  71
ATOM     71  C   UNL     1       5.619   6.017  -5.019  1.00  0.00    -0.055 C 
ATOM     72  C   UNL     1       6.858   5.677  -5.434  1.00  0.00    -0.018 C 
ATOM     73  C   UNL     1       4.582   6.684  -5.885  1.00  0.00     0.044 C 
BRANCH  72  74
ATOM     74  C   UNL     1       7.503   5.868  -6.799  1.00  0.00     0.038 C 
ATOM     75  C   UNL     1       6.969   4.758  -7.712  1.00  0.00     0.015 C 
BRANCH  74  76
ATOM     76  C   UNL     1       9.050   5.883  -6.624  1.00  0.00     0.128 C 
BRANCH  76  77
ATOM     77  O   UNL     1       9.662   6.570  -7.728  1.00  0.00    -0.381 OA
ATOM     78  C   UNL     1      10.990   6.143  -8.001  1.00  0.00     0.195 C 
ENDBRANCH  76  77
BRANCH  76  79
ATOM     79  C   UNL     1       9.523   6.417  -5.249  1.00  0.00     0.068 C 
BRANCH  79  80
ATOM     80  C   UNL     1      10.019   5.415  -4.234  1.00  0.00    -0.045 A 
ATOM     81  C   UNL     1       9.597   5.470  -2.899  1.00  0.00     0.004 A 
ATOM     82  C   UNL     1      10.938   4.424  -4.609  1.00  0.00     0.004 A 
ATOM     83  C   UNL     1      10.071   4.549  -1.963  1.00  0.00     0.000 A 
ATOM     84  C   UNL     1      11.413   3.503  -3.673  1.00  0.00     0.000 A 
ATOM     85  C   UNL     1      10.978   3.565  -2.351  1.00  0.00     0.000 A 
ENDBRANCH  79  80
ENDBRANCH  76  79
ENDBRANCH  74  76
ENDBRANCH  72  74
ENDBRANCH  70  71
ENDBRANCH   1  69
TORSDOF 17
ENDMDL
MODEL 35
REMARK VINA RESULT:    -5.808      3.294      7.759
REMARK INTER + INTRA:         -24.632
REMARK INTER:                 -17.739
REMARK INTRA:                  -6.893
REMARK UNBOUND:                -7.281
REMARK SMILES C=C1C(=O)N[C@H](C)C(=O)N[C@@H](CC(C)C)C(=O)N[C@@H](C(=O)O)[C@H](C)C(=O)N[C@@H](CCCN=C(N)N)C(=O)N[C@@H](/C=C/C(C)=C/[C@H](C)[C@H](Cc2ccccc2)OC)[C@H](C)C(=O)N[C@@H](C(=O)O)CCC(=O)N1C
REMARK SMILES IDX 39 1 38 2 37 3 36 4 28 6 27 7 25 8 26 9 23 11 24 12 19 13
REMARK SMILES IDX 18 14 16 15 17 16 11 18 10 19 8 20 9 21 12 24 13 25 14 26
REMARK SMILES IDX 15 27 20 28 21 29 22 30 29 32 30 33 31 34 32 35 33 36 34 37
REMARK SMILES IDX 35 38 57 43 58 44 59 45 60 46 61 47 62 49 66 50 67 51 68 52
REMARK SMILES IDX 69 53 70 54 71 55 2 56 1 57 3 58 4 59 5 60 6 62 7 63 63 65
REMARK SMILES IDX 64 66 65 67 40 69 41 70 42 71 44 72 43 73 45 74 46 75 47 76
REMARK SMILES IDX 55 77 56 78 48 79 49 80 50 81 54 82 51 83 53 84 52 85
REMARK H PARENT 38 5 27 10 18 17 10 22 22 31 34 39 34 40 35 41 35 42 61 48
REMARK H PARENT 5 61 65 68
REMARK Flexibility Score:  369.900
ROOT
ATOM      1  C   UNL     1       7.773   0.388  -5.623  1.00  0.00     0.117 C 
ENDROOT
BRANCH   1   2
ATOM      2  N   UNL     1       6.335   0.515  -5.388  1.00  0.00    -0.347 N 
ATOM      3  O   UNL     1       6.093   2.687  -6.090  1.00  0.00    -0.273 OA
ATOM      4  C   UNL     1       5.591   1.629  -5.727  1.00  0.00     0.243 C 
ATOM      5  H   UNL     1       5.826  -0.266  -5.001  1.00  0.00     0.164 HD
BRANCH   4   6
ATOM      6  C   UNL     1       4.074   1.472  -5.451  1.00  0.00     0.171 C 
BRANCH   6   7
ATOM      7  N   UNL     1       3.743   0.065  -5.174  1.00  0.00    -0.344 N 
ATOM      8  C   UNL     1       2.818  -0.604  -5.945  1.00  0.00     0.226 C 
ATOM      9  O   UNL     1       2.217  -0.069  -6.868  1.00  0.00    -0.275 OA
ATOM     10  H   UNL     1       4.170  -0.391  -4.377  1.00  0.00     0.164 HD
BRANCH   8  11
ATOM     11  C   UNL     1       2.628  -2.063  -5.568  1.00  0.00     0.109 C 
ATOM     12  C   UNL     1       1.140  -2.378  -5.416  1.00  0.00     0.021 C 
BRANCH  11  13
ATOM     13  C   UNL     1       3.382  -2.962  -6.568  1.00  0.00     0.204 C 
BRANCH  13  14
ATOM     14  N   UNL     1       2.909  -2.775  -7.943  1.00  0.00    -0.340 N 
ATOM     15  C   UNL     1       2.216  -3.745  -8.634  1.00  0.00     0.243 C 
ATOM     16  O   UNL     1       1.892  -4.816  -8.124  1.00  0.00    -0.273 OA
ATOM     17  H   UNL     1       3.273  -1.978  -8.472  1.00  0.00     0.164 HD
BRANCH  15  18
ATOM     18  C   UNL     1       2.004  -3.407 -10.130  1.00  0.00     0.171 C 
BRANCH  18  19
ATOM     19  N   UNL     1       1.153  -2.219 -10.174  1.00  0.00    -0.343 N 
ATOM     20  C   UNL     1      -0.109  -2.247 -10.736  1.00  0.00     0.242 CG0
ATOM     21  O   UNL     1      -0.521  -3.233 -11.343  1.00  0.00    -0.273 OA
ATOM     22  H   UNL     1       1.497  -1.347  -9.788  1.00  0.00     0.164 HD
ATOM     23  G   UNL     1      -0.887  -0.920 -10.619  1.00  0.00     0.000 G0
ENDBRANCH  18  19
BRANCH  18  24
ATOM     24  C   UNL     1       3.349  -3.161 -10.826  1.00  0.00     0.038 C 
BRANCH  24  25
ATOM     25  C   UNL     1       3.539  -3.928 -12.151  1.00  0.00    -0.015 C 
ATOM     26  C   UNL     1       5.003  -3.986 -12.589  1.00  0.00     0.007 C 
ATOM     27  C   UNL     1       2.698  -3.272 -13.250  1.00  0.00     0.007 C 
ENDBRANCH  24  25
ENDBRANCH  18  24
ENDBRANCH  15  18
ENDBRANCH  13  14
BRANCH  13  28
ATOM     28  C   UNL     1       4.895  -2.724  -6.572  1.00  0.00     0.327 C 
ATOM     29  O   UNL     1       5.485  -1.835  -7.167  1.00  0.00    -0.250 OA
BRANCH  28  30
ATOM     30  O   UNL     1       5.584  -3.687  -5.926  1.00  0.00    -0.480 OA
ATOM     31  H   UNL     1       5.303  -3.599  -4.992  1.00  0.00     0.296 HD
ENDBRANCH  28  30
ENDBRANCH  13  28
ENDBRANCH  11  13
ENDBRANCH   8  11
ENDBRANCH   6   7
BRANCH   6  32
ATOM     32  C   UNL     1       3.682   2.369  -4.271  1.00  0.00     0.037 C 
BRANCH  32  33
ATOM     33  C   UNL     1       3.389   1.559  -3.000  1.00  0.00     0.026 C 
BRANCH  33  34
ATOM     34  C   UNL     1       4.330   1.918  -1.849  1.00  0.00     0.146 C 
BRANCH  34  35
ATOM     35  N   UNL     1       5.079   0.728  -1.467  1.00  0.00    -0.254 NA
ATOM     36  C   UNL     1       6.069   0.857  -0.664  1.00  0.00     0.185 C 
ATOM     37  N   UNL     1       6.762  -0.233  -0.301  1.00  0.00    -0.370 N 
ATOM     38  N   UNL     1       6.552   1.974  -0.092  1.00  0.00    -0.370 N 
ATOM     39  H   UNL     1       6.452  -1.117  -0.683  1.00  0.00     0.159 HD
ATOM     40  H   UNL     1       7.432  -0.242   0.449  1.00  0.00     0.159 HD
ATOM     41  H   UNL     1       7.424   1.965   0.412  1.00  0.00     0.159 HD
ATOM     42  H   UNL     1       6.137   2.871  -0.288  1.00  0.00     0.159 HD
ENDBRANCH  34  35
ENDBRANCH  33  34
ENDBRANCH  32  33
ENDBRANCH   6  32
ENDBRANCH   4   6
ENDBRANCH   1   2
BRANCH   1  43
ATOM     43  C   UNL     1       8.507   1.495  -4.812  1.00  0.00     0.102 C 
ATOM     44  C   UNL     1       9.765   2.035  -5.513  1.00  0.00     0.020 C 
BRANCH  43  45
ATOM     45  C   UNL     1       8.743   1.051  -3.365  1.00  0.00     0.225 C 
ATOM     46  O   UNL     1       8.144   0.115  -2.844  1.00  0.00    -0.275 OA
ATOM     47  N   UNL     1       9.614   1.833  -2.641  1.00  0.00    -0.342 N 
ATOM     48  H   UNL     1      10.207   2.497  -3.119  1.00  0.00     0.164 HD
BRANCH  47  49
ATOM     49  C   UNL     1       9.963   1.508  -1.254  1.00  0.00     0.192 C 
BRANCH  49  50
ATOM     50  C   UNL     1      10.571   2.737  -0.575  1.00  0.00     0.047 C 
BRANCH  50  51
ATOM     51  C   UNL     1       9.728   3.224   0.611  1.00  0.00     0.103 C 
BRANCH  51  52
ATOM     52  C   UNL     1      10.303   4.491   1.242  1.00  0.00     0.226 C 
ATOM     53  O   UNL     1      10.670   5.420   0.521  1.00  0.00    -0.275 OA
BRANCH  52  54
ATOM     54  N   UNL     1      10.307   4.543   2.649  1.00  0.00    -0.311 N 
ATOM     55  C   UNL     1      10.143   3.324   3.452  1.00  0.00     0.153 C 
BRANCH  54  56
ATOM     56  C   UNL     1      10.473   5.758   3.335  1.00  0.00     0.102 C 
ATOM     57  C   UNL     1      11.644   6.225   3.797  1.00  0.00     0.043 C 
BRANCH  56  58
ATOM     58  C   UNL     1       9.301   6.681   3.572  1.00  0.00     0.268 C 
ATOM     59  O   UNL     1       8.170   6.279   3.811  1.00  0.00    -0.268 OA
ATOM     60  N   UNL     1       9.649   8.011   3.556  1.00  0.00    -0.339 N 
ATOM     61  H   UNL     1      10.606   8.261   3.340  1.00  0.00     0.164 HD
BRANCH  60  62
ATOM     62  C   UNL     1       8.680   9.072   3.824  1.00  0.00     0.168 CG0
ATOM     63  C   UNL     1       9.382  10.396   4.102  1.00  0.00     0.041 C 
ATOM     64  G   UNL     1       7.787   8.668   5.016  1.00  0.00     0.000 G0
ENDBRANCH  60  62
ENDBRANCH  56  58
ENDBRANCH  54  56
ENDBRANCH  52  54
ENDBRANCH  51  52
ENDBRANCH  50  51
ENDBRANCH  49  50
BRANCH  49  65
ATOM     65  C   UNL     1      10.959   0.340  -1.180  1.00  0.00     0.326 C 
ATOM     66  O   UNL     1      10.888  -0.607  -0.410  1.00  0.00    -0.250 OA
BRANCH  65  67
ATOM     67  O   UNL     1      12.013   0.444  -2.019  1.00  0.00    -0.480 OA
ATOM     68  H   UNL     1      12.735  -0.021  -1.543  1.00  0.00     0.296 HD
ENDBRANCH  65  67
ENDBRANCH  49  65
ENDBRANCH  47  49
ENDBRANCH  43  45
ENDBRANCH   1  43
BRANCH   1  69
ATOM     69  C   UNL     1       7.954   0.341  -7.129  1.00  0.00    -0.001 C 
ATOM     70  C   UNL     1       8.564   1.253  -7.908  1.00  0.00     0.001 C 
BRANCH  70  71
ATOM     71  C   UNL     1       8.752   1.186  -9.359  1.00  0.00    -0.055 C 
ATOM     72  C   UNL     1       7.647   1.169 -10.134  1.00  0.00    -0.018 C 
ATOM     73  C   UNL     1      10.163   1.149  -9.883  1.00  0.00     0.044 C 
BRANCH  72  74
ATOM     74  C   UNL     1       7.536   1.108 -11.651  1.00  0.00     0.038 C 
ATOM     75  C   UNL     1       7.038   2.478 -12.124  1.00  0.00     0.015 C 
BRANCH  74  76
ATOM     76  C   UNL     1       6.618  -0.090 -12.037  1.00  0.00     0.128 C 
BRANCH  76  77
ATOM     77  O   UNL     1       5.769   0.278 -13.137  1.00  0.00    -0.381 OA
ATOM     78  C   UNL     1       4.398  -0.037 -12.929  1.00  0.00     0.195 C 
ENDBRANCH  76  77
BRANCH  76  79
ATOM     79  C   UNL     1       7.384  -1.414 -12.287  1.00  0.00     0.068 C 
BRANCH  79  80
ATOM     80  C   UNL     1       8.082  -2.059 -11.115  1.00  0.00    -0.045 A 
ATOM     81  C   UNL     1       7.357  -2.541 -10.018  1.00  0.00     0.004 A 
ATOM     82  C   UNL     1       9.482  -2.160 -11.095  1.00  0.00     0.004 A 
ATOM     83  C   UNL     1       8.012  -3.124  -8.931  1.00  0.00     0.000 A 
ATOM     84  C   UNL     1      10.136  -2.743 -10.007  1.00  0.00     0.000 A 
ATOM     85  C   UNL     1       9.401  -3.226  -8.927  1.00  0.00     0.000 A 
ENDBRANCH  79  80
ENDBRANCH  76  79
ENDBRANCH  74  76
ENDBRANCH  72  74
ENDBRANCH  70  71
ENDBRANCH   1  69
TORSDOF 17
ENDMDL
MODEL 36
REMARK VINA RESULT:    -5.804      3.758     12.518
REMARK INTER + INTRA:         -24.620
REMARK INTER:                 -17.290
REMARK INTRA:                  -7.330
REMARK UNBOUND:                -7.281
REMARK SMILES C=C1C(=O)N[C@H](C)C(=O)N[C@@H](CC(C)C)C(=O)N[C@@H](C(=O)O)[C@H](C)C(=O)N[C@@H](CCCN=C(N)N)C(=O)N[C@@H](/C=C/C(C)=C/[C@H](C)[C@H](Cc2ccccc2)OC)[C@H](C)C(=O)N[C@@H](C(=O)O)CCC(=O)N1C
REMARK SMILES IDX 39 1 38 2 37 3 36 4 28 6 27 7 25 8 26 9 23 11 24 12 19 13
REMARK SMILES IDX 18 14 16 15 17 16 11 18 10 19 8 20 9 21 12 24 13 25 14 26
REMARK SMILES IDX 15 27 20 28 21 29 22 30 29 32 30 33 31 34 32 35 33 36 34 37
REMARK SMILES IDX 35 38 57 43 58 44 59 45 60 46 61 47 62 49 66 50 67 51 68 52
REMARK SMILES IDX 69 53 70 54 71 55 2 56 1 57 3 58 4 59 5 60 6 62 7 63 63 65
REMARK SMILES IDX 64 66 65 67 40 69 41 70 42 71 44 72 43 73 45 74 46 75 47 76
REMARK SMILES IDX 55 77 56 78 48 79 49 80 50 81 54 82 51 83 53 84 52 85
REMARK H PARENT 38 5 27 10 18 17 10 22 22 31 34 39 34 40 35 41 35 42 61 48
REMARK H PARENT 5 61 65 68
REMARK Flexibility Score:  369.900
ROOT
ATOM      1  C   UNL     1      -0.410  -1.049  -2.718  1.00  0.00     0.117 C 
ENDROOT
BRANCH   1   2
ATOM      2  N   UNL     1       0.398   0.118  -2.364  1.00  0.00    -0.347 N 
ATOM      3  O   UNL     1       1.950  -0.960  -1.061  1.00  0.00    -0.273 OA
ATOM      4  C   UNL     1       1.570   0.055  -1.635  1.00  0.00     0.243 C 
ATOM      5  H   UNL     1       0.127   1.029  -2.703  1.00  0.00     0.164 HD
BRANCH   4   6
ATOM      6  C   UNL     1       2.277   1.425  -1.472  1.00  0.00     0.171 C 
BRANCH   6   7
ATOM      7  N   UNL     1       2.140   1.913  -0.091  1.00  0.00    -0.344 N 
ATOM      8  C   UNL     1       0.935   2.401   0.366  1.00  0.00     0.226 C 
ATOM      9  O   UNL     1      -0.060   2.474  -0.346  1.00  0.00    -0.275 OA
ATOM     10  H   UNL     1       2.957   1.931   0.507  1.00  0.00     0.164 HD
BRANCH   8  11
ATOM     11  C   UNL     1       0.940   2.815   1.827  1.00  0.00     0.109 C 
ATOM     12  C   UNL     1       1.760   1.822   2.652  1.00  0.00     0.021 C 
BRANCH  11  13
ATOM     13  C   UNL     1       1.387   4.285   1.951  1.00  0.00     0.204 C 
BRANCH  13  14
ATOM     14  N   UNL     1       0.734   4.967   3.073  1.00  0.00    -0.340 N 
ATOM     15  C   UNL     1      -0.079   6.067   2.908  1.00  0.00     0.243 C 
ATOM     16  O   UNL     1      -0.365   6.518   1.800  1.00  0.00    -0.273 OA
ATOM     17  H   UNL     1       1.047   4.741   4.021  1.00  0.00     0.164 HD
BRANCH  15  18
ATOM     18  C   UNL     1      -0.486   6.741   4.242  1.00  0.00     0.171 C 
BRANCH  18  19
ATOM     19  N   UNL     1      -0.361   8.183   4.037  1.00  0.00    -0.343 N 
ATOM     20  C   UNL     1       0.695   8.905   4.558  1.00  0.00     0.242 CG0
ATOM     21  O   UNL     1       1.506   8.394   5.327  1.00  0.00    -0.273 OA
ATOM     22  H   UNL     1      -1.071   8.672   3.504  1.00  0.00     0.164 HD
ATOM     23  G   UNL     1       0.698  10.398   4.171  1.00  0.00     0.000 G0
ENDBRANCH  18  19
BRANCH  18  24
ATOM     24  C   UNL     1      -1.916   6.350   4.633  1.00  0.00     0.038 C 
BRANCH  24  25
ATOM     25  C   UNL     1      -2.999   7.369   4.219  1.00  0.00    -0.015 C 
ATOM     26  C   UNL     1      -4.090   7.527   5.278  1.00  0.00     0.007 C 
ATOM     27  C   UNL     1      -3.628   6.941   2.891  1.00  0.00     0.007 C 
ENDBRANCH  24  25
ENDBRANCH  18  24
ENDBRANCH  15  18
ENDBRANCH  13  14
BRANCH  13  28
ATOM     28  C   UNL     1       2.899   4.442   2.142  1.00  0.00     0.327 C 
ATOM     29  O   UNL     1       3.758   4.248   1.296  1.00  0.00    -0.250 OA
BRANCH  28  30
ATOM     30  O   UNL     1       3.245   4.719   3.416  1.00  0.00    -0.480 OA
ATOM     31  H   UNL     1       2.659   5.462   3.669  1.00  0.00     0.296 HD
ENDBRANCH  28  30
ENDBRANCH  13  28
ENDBRANCH  11  13
ENDBRANCH   8  11
ENDBRANCH   6   7
BRANCH   6  32
ATOM     32  C   UNL     1       3.753   1.278  -1.857  1.00  0.00     0.037 C 
BRANCH  32  33
ATOM     33  C   UNL     1       4.689   1.502  -0.660  1.00  0.00     0.026 C 
BRANCH  33  34
ATOM     34  C   UNL     1       5.998   0.721  -0.787  1.00  0.00     0.146 C 
BRANCH  34  35
ATOM     35  N   UNL     1       6.289   0.518  -2.199  1.00  0.00    -0.254 NA
ATOM     36  C   UNL     1       7.465   0.788  -2.630  1.00  0.00     0.185 C 
ATOM     37  N   UNL     1       7.745   0.600  -3.928  1.00  0.00    -0.370 N 
ATOM     38  N   UNL     1       8.526   1.257  -1.950  1.00  0.00    -0.370 N 
ATOM     39  H   UNL     1       6.998   0.238  -4.506  1.00  0.00     0.159 HD
ATOM     40  H   UNL     1       8.677   0.621  -4.305  1.00  0.00     0.159 HD
ATOM     41  H   UNL     1       9.358   1.562  -2.428  1.00  0.00     0.159 HD
ATOM     42  H   UNL     1       8.455   1.460  -0.965  1.00  0.00     0.159 HD
ENDBRANCH  34  35
ENDBRANCH  33  34
ENDBRANCH  32  33
ENDBRANCH   6  32
ENDBRANCH   4   6
ENDBRANCH   1   2
BRANCH   1  43
ATOM     43  C   UNL     1      -0.203  -1.353  -4.230  1.00  0.00     0.102 C 
ATOM     44  C   UNL     1      -1.508  -1.695  -4.970  1.00  0.00     0.020 C 
BRANCH  43  45
ATOM     45  C   UNL     1       0.915  -2.379  -4.437  1.00  0.00     0.225 C 
ATOM     46  O   UNL     1       1.262  -3.176  -3.571  1.00  0.00    -0.275 OA
ATOM     47  N   UNL     1       1.583  -2.293  -5.637  1.00  0.00    -0.342 N 
ATOM     48  H   UNL     1       1.192  -1.743  -6.389  1.00  0.00     0.164 HD
BRANCH  47  49
ATOM     49  C   UNL     1       2.652  -3.233  -5.988  1.00  0.00     0.192 C 
BRANCH  49  50
ATOM     50  C   UNL     1       3.609  -2.574  -6.985  1.00  0.00     0.047 C 
BRANCH  50  51
ATOM     51  C   UNL     1       5.080  -2.874  -6.665  1.00  0.00     0.103 C 
BRANCH  51  52
ATOM     52  C   UNL     1       5.975  -1.657  -6.889  1.00  0.00     0.226 C 
ATOM     53  O   UNL     1       6.343  -0.984  -5.925  1.00  0.00    -0.275 OA
BRANCH  52  54
ATOM     54  N   UNL     1       6.395  -1.423  -8.212  1.00  0.00    -0.311 N 
ATOM     55  C   UNL     1       6.086  -0.156  -8.890  1.00  0.00     0.153 C 
BRANCH  54  56
ATOM     56  C   UNL     1       7.125  -2.384  -8.930  1.00  0.00     0.102 C 
ATOM     57  C   UNL     1       8.350  -2.824  -8.598  1.00  0.00     0.043 C 
BRANCH  56  58
ATOM     58  C   UNL     1       6.539  -3.050 -10.153  1.00  0.00     0.268 C 
ATOM     59  O   UNL     1       5.338  -3.228 -10.307  1.00  0.00    -0.268 OA
ATOM     60  N   UNL     1       7.483  -3.372 -11.098  1.00  0.00    -0.339 N 
ATOM     61  H   UNL     1       8.460  -3.201 -10.889  1.00  0.00     0.164 HD
BRANCH  60  62
ATOM     62  C   UNL     1       7.126  -3.968 -12.385  1.00  0.00     0.168 CG0
ATOM     63  C   UNL     1       7.887  -5.267 -12.616  1.00  0.00     0.041 C 
ATOM     64  G   UNL     1       7.410  -2.960 -13.517  1.00  0.00     0.000 G0
ENDBRANCH  60  62
ENDBRANCH  56  58
ENDBRANCH  54  56
ENDBRANCH  52  54
ENDBRANCH  51  52
ENDBRANCH  50  51
ENDBRANCH  49  50
BRANCH  49  65
ATOM     65  C   UNL     1       2.092  -4.527  -6.599  1.00  0.00     0.326 C 
ATOM     66  O   UNL     1       1.070  -4.614  -7.263  1.00  0.00    -0.250 OA
BRANCH  65  67
ATOM     67  O   UNL     1       2.796  -5.641  -6.301  1.00  0.00    -0.480 OA
ATOM     68  H   UNL     1       3.523  -5.311  -5.731  1.00  0.00     0.296 HD
ENDBRANCH  65  67
ENDBRANCH  49  65
ENDBRANCH  47  49
ENDBRANCH  43  45
ENDBRANCH   1  43
BRANCH   1  69
ATOM     69  C   UNL     1      -1.812  -0.764  -2.213  1.00  0.00    -0.001 C 
ATOM     70  C   UNL     1      -2.166   0.043  -1.197  1.00  0.00     0.001 C 
BRANCH  70  71
ATOM     71  C   UNL     1      -3.525   0.327  -0.731  1.00  0.00    -0.055 C 
ATOM     72  C   UNL     1      -3.937   1.613  -0.745  1.00  0.00    -0.018 C 
ATOM     73  C   UNL     1      -4.369  -0.835  -0.277  1.00  0.00     0.044 C 
BRANCH  72  74
ATOM     74  C   UNL     1      -5.279   2.198  -0.329  1.00  0.00     0.038 C 
ATOM     75  C   UNL     1      -6.207   2.114  -1.546  1.00  0.00     0.015 C 
BRANCH  74  76
ATOM     76  C   UNL     1      -5.049   3.638   0.219  1.00  0.00     0.128 C 
BRANCH  76  77
ATOM     77  O   UNL     1      -5.609   4.603  -0.687  1.00  0.00    -0.381 OA
ATOM     78  C   UNL     1      -4.919   5.845  -0.697  1.00  0.00     0.195 C 
ENDBRANCH  76  77
BRANCH  76  79
ATOM     79  C   UNL     1      -5.525   3.839   1.679  1.00  0.00     0.068 C 
BRANCH  79  80
ATOM     80  C   UNL     1      -4.567   3.483   2.791  1.00  0.00    -0.045 A 
ATOM     81  C   UNL     1      -3.246   3.108   2.513  1.00  0.00     0.004 A 
ATOM     82  C   UNL     1      -4.998   3.494   4.126  1.00  0.00     0.004 A 
ATOM     83  C   UNL     1      -2.371   2.766   3.546  1.00  0.00     0.000 A 
ATOM     84  C   UNL     1      -4.122   3.151   5.158  1.00  0.00     0.000 A 
ATOM     85  C   UNL     1      -2.809   2.789   4.868  1.00  0.00     0.000 A 
ENDBRANCH  79  80
ENDBRANCH  76  79
ENDBRANCH  74  76
ENDBRANCH  72  74
ENDBRANCH  70  71
ENDBRANCH   1  69
TORSDOF 17
ENDMDL
MODEL 37
REMARK VINA RESULT:    -5.795      3.976     13.872
REMARK INTER + INTRA:         -24.594
REMARK INTER:                 -16.779
REMARK INTRA:                  -7.815
REMARK UNBOUND:                -7.281
REMARK SMILES C=C1C(=O)N[C@H](C)C(=O)N[C@@H](CC(C)C)C(=O)N[C@@H](C(=O)O)[C@H](C)C(=O)N[C@@H](CCCN=C(N)N)C(=O)N[C@@H](/C=C/C(C)=C/[C@H](C)[C@H](Cc2ccccc2)OC)[C@H](C)C(=O)N[C@@H](C(=O)O)CCC(=O)N1C
REMARK SMILES IDX 39 1 38 2 37 3 36 4 28 6 27 7 25 8 26 9 23 11 24 12 19 13
REMARK SMILES IDX 18 14 16 15 17 16 11 18 10 19 8 20 9 21 12 24 13 25 14 26
REMARK SMILES IDX 15 27 20 28 21 29 22 30 29 32 30 33 31 34 32 35 33 36 34 37
REMARK SMILES IDX 35 38 57 43 58 44 59 45 60 46 61 47 62 49 66 50 67 51 68 52
REMARK SMILES IDX 69 53 70 54 71 55 2 56 1 57 3 58 4 59 5 60 6 62 7 63 63 65
REMARK SMILES IDX 64 66 65 67 40 69 41 70 42 71 44 72 43 73 45 74 46 75 47 76
REMARK SMILES IDX 55 77 56 78 48 79 49 80 50 81 54 82 51 83 53 84 52 85
REMARK H PARENT 38 5 27 10 18 17 10 22 22 31 34 39 34 40 35 41 35 42 61 48
REMARK H PARENT 5 61 65 68
REMARK Flexibility Score:  369.900
ROOT
ATOM      1  C   UNL     1       8.369  -0.645  -8.860  1.00  0.00     0.117 C 
ENDROOT
BRANCH   1   2
ATOM      2  N   UNL     1       8.781   0.357  -7.877  1.00  0.00    -0.347 N 
ATOM      3  O   UNL     1       6.694   0.908  -7.098  1.00  0.00    -0.273 OA
ATOM      4  C   UNL     1       7.914   0.990  -7.008  1.00  0.00     0.243 C 
ATOM      5  H   UNL     1       9.760   0.579  -7.778  1.00  0.00     0.164 HD
BRANCH   4   6
ATOM      6  C   UNL     1       8.618   1.944  -6.010  1.00  0.00     0.171 C 
BRANCH   6   7
ATOM      7  N   UNL     1       8.969   1.227  -4.773  1.00  0.00    -0.344 N 
ATOM      8  C   UNL     1       8.537   1.687  -3.548  1.00  0.00     0.226 C 
ATOM      9  O   UNL     1       7.872   2.709  -3.423  1.00  0.00    -0.275 OA
ATOM     10  H   UNL     1       9.573   0.417  -4.830  1.00  0.00     0.164 HD
BRANCH   8  11
ATOM     11  C   UNL     1       8.934   0.809  -2.374  1.00  0.00     0.109 C 
ATOM     12  C   UNL     1       9.269  -0.601  -2.862  1.00  0.00     0.021 C 
BRANCH  11  13
ATOM     13  C   UNL     1      10.050   1.496  -1.563  1.00  0.00     0.204 C 
BRANCH  13  14
ATOM     14  N   UNL     1       9.554   2.045  -0.297  1.00  0.00    -0.340 N 
ATOM     15  C   UNL     1      10.136   3.126   0.329  1.00  0.00     0.243 C 
ATOM     16  O   UNL     1      11.077   3.746  -0.162  1.00  0.00    -0.273 OA
ATOM     17  H   UNL     1       8.879   1.490   0.235  1.00  0.00     0.164 HD
BRANCH  15  18
ATOM     18  C   UNL     1       9.575   3.395   1.747  1.00  0.00     0.171 C 
BRANCH  18  19
ATOM     19  N   UNL     1      10.375   4.478   2.315  1.00  0.00    -0.343 N 
ATOM     20  C   UNL     1      11.276   4.259   3.340  1.00  0.00     0.242 CG0
ATOM     21  O   UNL     1      11.349   3.173   3.911  1.00  0.00    -0.273 OA
ATOM     22  H   UNL     1      10.266   5.419   1.955  1.00  0.00     0.164 HD
ATOM     23  G   UNL     1      12.085   5.506   3.754  1.00  0.00     0.000 G0
ENDBRANCH  18  19
BRANCH  18  24
ATOM     24  C   UNL     1       8.089   3.769   1.681  1.00  0.00     0.038 C 
BRANCH  24  25
ATOM     25  C   UNL     1       7.804   5.286   1.721  1.00  0.00    -0.015 C 
ATOM     26  C   UNL     1       6.683   5.645   2.696  1.00  0.00     0.007 C 
ATOM     27  C   UNL     1       7.445   5.779   0.317  1.00  0.00     0.007 C 
ENDBRANCH  24  25
ENDBRANCH  18  24
ENDBRANCH  15  18
ENDBRANCH  13  14
BRANCH  13  28
ATOM     28  C   UNL     1      11.216   0.561  -1.226  1.00  0.00     0.327 C 
ATOM     29  O   UNL     1      11.261  -0.232  -0.298  1.00  0.00    -0.250 OA
BRANCH  28  30
ATOM     30  O   UNL     1      12.298   0.764  -2.004  1.00  0.00    -0.480 OA
ATOM     31  H   UNL     1      12.281   1.724  -2.195  1.00  0.00     0.296 HD
ENDBRANCH  28  30
ENDBRANCH  13  28
ENDBRANCH  11  13
ENDBRANCH   8  11
ENDBRANCH   6   7
BRANCH   6  32
ATOM     32  C   UNL     1       9.868   2.534  -6.673  1.00  0.00     0.037 C 
BRANCH  32  33
ATOM     33  C   UNL     1       9.743   4.046  -6.902  1.00  0.00     0.026 C 
BRANCH  33  34
ATOM     34  C   UNL     1       9.753   4.839  -5.594  1.00  0.00     0.146 C 
BRANCH  34  35
ATOM     35  N   UNL     1      10.953   4.494  -4.845  1.00  0.00    -0.254 NA
ATOM     36  C   UNL     1      10.924   4.575  -3.567  1.00  0.00     0.185 C 
ATOM     37  N   UNL     1      12.023   4.254  -2.866  1.00  0.00    -0.370 N 
ATOM     38  N   UNL     1       9.910   4.951  -2.767  1.00  0.00    -0.370 N 
ATOM     39  H   UNL     1      12.828   3.950  -3.398  1.00  0.00     0.159 HD
ATOM     40  H   UNL     1      12.028   4.125  -1.869  1.00  0.00     0.159 HD
ATOM     41  H   UNL     1      10.054   5.109  -1.783  1.00  0.00     0.159 HD
ATOM     42  H   UNL     1       9.026   5.236  -3.159  1.00  0.00     0.159 HD
ENDBRANCH  34  35
ENDBRANCH  33  34
ENDBRANCH  32  33
ENDBRANCH   6  32
ENDBRANCH   4   6
ENDBRANCH   1   2
BRANCH   1  43
ATOM     43  C   UNL     1       8.417  -2.047  -8.187  1.00  0.00     0.102 C 
ATOM     44  C   UNL     1       9.318  -3.051  -8.927  1.00  0.00     0.020 C 
BRANCH  43  45
ATOM     45  C   UNL     1       7.005  -2.570  -7.904  1.00  0.00     0.225 C 
ATOM     46  O   UNL     1       6.784  -3.677  -7.421  1.00  0.00    -0.275 OA
ATOM     47  N   UNL     1       5.978  -1.753  -8.315  1.00  0.00    -0.342 N 
ATOM     48  H   UNL     1       6.171  -0.794  -8.567  1.00  0.00     0.164 HD
BRANCH  47  49
ATOM     49  C   UNL     1       4.575  -2.107  -8.078  1.00  0.00     0.192 C 
BRANCH  49  50
ATOM     50  C   UNL     1       3.754  -1.829  -9.340  1.00  0.00     0.047 C 
BRANCH  50  51
ATOM     51  C   UNL     1       4.638  -1.634 -10.579  1.00  0.00     0.103 C 
BRANCH  51  52
ATOM     52  C   UNL     1       5.013  -2.964 -11.231  1.00  0.00     0.226 C 
ATOM     53  O   UNL     1       5.970  -3.608 -10.798  1.00  0.00    -0.275 OA
BRANCH  52  54
ATOM     54  N   UNL     1       4.170  -3.414 -12.265  1.00  0.00    -0.311 N 
ATOM     55  C   UNL     1       3.078  -4.358 -11.992  1.00  0.00     0.153 C 
BRANCH  54  56
ATOM     56  C   UNL     1       4.336  -2.976 -13.589  1.00  0.00     0.102 C 
ATOM     57  C   UNL     1       5.262  -3.443 -14.442  1.00  0.00     0.043 C 
BRANCH  56  58
ATOM     58  C   UNL     1       3.415  -1.936 -14.183  1.00  0.00     0.268 C 
ATOM     59  O   UNL     1       3.627  -0.733 -14.108  1.00  0.00    -0.268 OA
ATOM     60  N   UNL     1       2.356  -2.481 -14.868  1.00  0.00    -0.339 N 
ATOM     61  H   UNL     1       2.246  -3.488 -14.874  1.00  0.00     0.164 HD
BRANCH  60  62
ATOM     62  C   UNL     1       1.377  -1.655 -15.574  1.00  0.00     0.168 CG0
ATOM     63  C   UNL     1       0.692  -2.445 -16.682  1.00  0.00     0.041 C 
ATOM     64  G   UNL     1       2.073  -0.403 -16.146  1.00  0.00     0.000 G0
ENDBRANCH  60  62
ENDBRANCH  56  58
ENDBRANCH  54  56
ENDBRANCH  52  54
ENDBRANCH  51  52
ENDBRANCH  50  51
ENDBRANCH  49  50
BRANCH  49  65
ATOM     65  C   UNL     1       3.982  -1.318  -6.901  1.00  0.00     0.326 C 
ATOM     66  O   UNL     1       3.500  -1.806  -5.889  1.00  0.00    -0.250 OA
BRANCH  65  67
ATOM     67  O   UNL     1       3.966   0.023  -7.072  1.00  0.00    -0.480 OA
ATOM     68  H   UNL     1       3.850   0.371  -6.161  1.00  0.00     0.296 HD
ENDBRANCH  65  67
ENDBRANCH  49  65
ENDBRANCH  47  49
ENDBRANCH  43  45
ENDBRANCH   1  43
BRANCH   1  69
ATOM     69  C   UNL     1       9.212  -0.397 -10.098  1.00  0.00    -0.001 C 
ATOM     70  C   UNL     1      10.456   0.109 -10.151  1.00  0.00     0.001 C 
BRANCH  70  71
ATOM     71  C   UNL     1      11.268   0.324 -11.351  1.00  0.00    -0.055 C 
ATOM     72  C   UNL     1      10.835  -0.220 -12.508  1.00  0.00    -0.018 C 
ATOM     73  C   UNL     1      12.524   1.144 -11.211  1.00  0.00     0.044 C 
BRANCH  72  74
ATOM     74  C   UNL     1      11.460  -0.160 -13.894  1.00  0.00     0.038 C 
ATOM     75  C   UNL     1      10.822   1.025 -14.628  1.00  0.00     0.015 C 
BRANCH  74  76
ATOM     76  C   UNL     1      11.268  -1.540 -14.590  1.00  0.00     0.128 C 
BRANCH  76  77
ATOM     77  O   UNL     1      12.010  -1.576 -15.821  1.00  0.00    -0.381 OA
ATOM     78  C   UNL     1      11.302  -2.177 -16.897  1.00  0.00     0.195 C 
ENDBRANCH  76  77
BRANCH  76  79
ATOM     79  C   UNL     1      11.565  -2.754 -13.674  1.00  0.00     0.068 C 
BRANCH  79  80
ATOM     80  C   UNL     1      10.527  -3.847 -13.590  1.00  0.00    -0.045 A 
ATOM     81  C   UNL     1      10.714  -5.071 -14.245  1.00  0.00     0.004 A 
ATOM     82  C   UNL     1       9.339  -3.640 -12.873  1.00  0.00     0.004 A 
ATOM     83  C   UNL     1       9.742  -6.072 -14.173  1.00  0.00     0.000 A 
ATOM     84  C   UNL     1       8.367  -4.641 -12.804  1.00  0.00     0.000 A 
ATOM     85  C   UNL     1       8.570  -5.857 -13.452  1.00  0.00     0.000 A 
ENDBRANCH  79  80
ENDBRANCH  76  79
ENDBRANCH  74  76
ENDBRANCH  72  74
ENDBRANCH  70  71
ENDBRANCH   1  69
TORSDOF 17
ENDMDL
MODEL 38
REMARK VINA RESULT:    -5.779      5.480     11.552
REMARK INTER + INTRA:         -24.546
REMARK INTER:                 -17.584
REMARK INTRA:                  -6.962
REMARK UNBOUND:                -7.281
REMARK SMILES C=C1C(=O)N[C@H](C)C(=O)N[C@@H](CC(C)C)C(=O)N[C@@H](C(=O)O)[C@H](C)C(=O)N[C@@H](CCCN=C(N)N)C(=O)N[C@@H](/C=C/C(C)=C/[C@H](C)[C@H](Cc2ccccc2)OC)[C@H](C)C(=O)N[C@@H](C(=O)O)CCC(=O)N1C
REMARK SMILES IDX 39 1 38 2 37 3 36 4 28 6 27 7 25 8 26 9 23 11 24 12 19 13
REMARK SMILES IDX 18 14 16 15 17 16 11 18 10 19 8 20 9 21 12 24 13 25 14 26
REMARK SMILES IDX 15 27 20 28 21 29 22 30 29 32 30 33 31 34 32 35 33 36 34 37
REMARK SMILES IDX 35 38 57 43 58 44 59 45 60 46 61 47 62 49 66 50 67 51 68 52
REMARK SMILES IDX 69 53 70 54 71 55 2 56 1 57 3 58 4 59 5 60 6 62 7 63 63 65
REMARK SMILES IDX 64 66 65 67 40 69 41 70 42 71 44 72 43 73 45 74 46 75 47 76
REMARK SMILES IDX 55 77 56 78 48 79 49 80 50 81 54 82 51 83 53 84 52 85
REMARK H PARENT 38 5 27 10 18 17 10 22 22 31 34 39 34 40 35 41 35 42 61 48
REMARK H PARENT 5 61 65 68
REMARK Flexibility Score:  369.900
ROOT
ATOM      1  C   UNL     1       2.069   1.615  -3.155  1.00  0.00     0.117 C 
ENDROOT
BRANCH   1   2
ATOM      2  N   UNL     1       3.216   2.024  -2.344  1.00  0.00    -0.347 N 
ATOM      3  O   UNL     1       3.507   0.056  -1.198  1.00  0.00    -0.273 OA
ATOM      4  C   UNL     1       3.902   1.178  -1.493  1.00  0.00     0.243 C 
ATOM      5  H   UNL     1       3.574   2.962  -2.432  1.00  0.00     0.164 HD
BRANCH   4   6
ATOM      6  C   UNL     1       5.131   1.838  -0.817  1.00  0.00     0.171 C 
BRANCH   6   7
ATOM      7  N   UNL     1       6.363   1.502  -1.548  1.00  0.00    -0.344 N 
ATOM      8  C   UNL     1       7.276   0.618  -1.017  1.00  0.00     0.226 C 
ATOM      9  O   UNL     1       7.126   0.092   0.079  1.00  0.00    -0.275 OA
ATOM     10  H   UNL     1       6.554   1.968  -2.426  1.00  0.00     0.164 HD
BRANCH   8  11
ATOM     11  C   UNL     1       8.467   0.333  -1.916  1.00  0.00     0.109 C 
ATOM     12  C   UNL     1       8.087   0.558  -3.380  1.00  0.00     0.021 C 
BRANCH  11  13
ATOM     13  C   UNL     1       9.689   1.139  -1.433  1.00  0.00     0.204 C 
BRANCH  13  14
ATOM     14  N   UNL     1       9.382   1.953  -0.253  1.00  0.00    -0.340 N 
ATOM     15  C   UNL     1       9.448   3.330  -0.255  1.00  0.00     0.243 C 
ATOM     16  O   UNL     1       9.711   3.976  -1.267  1.00  0.00    -0.273 OA
ATOM     17  H   UNL     1       9.306   1.479   0.651  1.00  0.00     0.164 HD
BRANCH  15  18
ATOM     18  C   UNL     1       9.286   3.959   1.150  1.00  0.00     0.171 C 
BRANCH  18  19
ATOM     19  N   UNL     1      10.489   3.615   1.905  1.00  0.00    -0.343 N 
ATOM     20  C   UNL     1      10.427   3.145   3.203  1.00  0.00     0.242 CG0
ATOM     21  O   UNL     1       9.369   3.122   3.828  1.00  0.00    -0.273 OA
ATOM     22  H   UNL     1      11.398   3.727   1.470  1.00  0.00     0.164 HD
ATOM     23  G   UNL     1      11.793   2.760   3.807  1.00  0.00     0.000 G0
ENDBRANCH  18  19
BRANCH  18  24
ATOM     24  C   UNL     1       9.104   5.478   1.046  1.00  0.00     0.038 C 
BRANCH  24  25
ATOM     25  C   UNL     1       8.016   6.062   1.971  1.00  0.00    -0.015 C 
ATOM     26  C   UNL     1       8.578   6.528   3.314  1.00  0.00     0.007 C 
ATOM     27  C   UNL     1       6.923   5.016   2.205  1.00  0.00     0.007 C 
ENDBRANCH  24  25
ENDBRANCH  18  24
ENDBRANCH  15  18
ENDBRANCH  13  14
BRANCH  13  28
ATOM     28  C   UNL     1      10.890   0.258  -1.076  1.00  0.00     0.327 C 
ATOM     29  O   UNL     1      11.128  -0.231   0.018  1.00  0.00    -0.250 OA
BRANCH  28  30
ATOM     30  O   UNL     1      11.780   0.144  -2.083  1.00  0.00    -0.480 OA
ATOM     31  H   UNL     1      11.299  -0.357  -2.774  1.00  0.00     0.296 HD
ENDBRANCH  28  30
ENDBRANCH  13  28
ENDBRANCH  11  13
ENDBRANCH   8  11
ENDBRANCH   6   7
BRANCH   6  32
ATOM     32  C   UNL     1       4.922   3.356  -0.764  1.00  0.00     0.037 C 
BRANCH  32  33
ATOM     33  C   UNL     1       5.760   4.093  -1.817  1.00  0.00     0.026 C 
BRANCH  33  34
ATOM     34  C   UNL     1       6.276   5.442  -1.316  1.00  0.00     0.146 C 
BRANCH  34  35
ATOM     35  N   UNL     1       5.264   6.457  -1.576  1.00  0.00    -0.254 NA
ATOM     36  C   UNL     1       5.643   7.662  -1.789  1.00  0.00     0.185 C 
ATOM     37  N   UNL     1       4.720   8.605  -2.034  1.00  0.00    -0.370 N 
ATOM     38  N   UNL     1       6.891   8.164  -1.808  1.00  0.00    -0.370 N 
ATOM     39  H   UNL     1       3.754   8.302  -2.047  1.00  0.00     0.159 HD
ATOM     40  H   UNL     1       4.940   9.523  -2.379  1.00  0.00     0.159 HD
ATOM     41  H   UNL     1       7.052   9.157  -1.849  1.00  0.00     0.159 HD
ATOM     42  H   UNL     1       7.685   7.571  -1.624  1.00  0.00     0.159 HD
ENDBRANCH  34  35
ENDBRANCH  33  34
ENDBRANCH  32  33
ENDBRANCH   6  32
ENDBRANCH   4   6
ENDBRANCH   1   2
BRANCH   1  43
ATOM     43  C   UNL     1       2.101   2.409  -4.493  1.00  0.00     0.102 C 
ATOM     44  C   UNL     1       3.231   3.451  -4.559  1.00  0.00     0.020 C 
BRANCH  43  45
ATOM     45  C   UNL     1       0.717   2.971  -4.832  1.00  0.00     0.225 C 
ATOM     46  O   UNL     1      -0.118   2.351  -5.484  1.00  0.00    -0.275 OA
ATOM     47  N   UNL     1       0.492   4.270  -4.435  1.00  0.00    -0.342 N 
ATOM     48  H   UNL     1       1.119   4.707  -3.776  1.00  0.00     0.164 HD
BRANCH  47  49
ATOM     49  C   UNL     1      -0.800   4.926  -4.660  1.00  0.00     0.192 C 
BRANCH  49  50
ATOM     50  C   UNL     1      -0.577   6.413  -4.949  1.00  0.00     0.047 C 
BRANCH  50  51
ATOM     51  C   UNL     1       0.101   6.647  -6.306  1.00  0.00     0.103 C 
BRANCH  51  52
ATOM     52  C   UNL     1      -0.604   7.731  -7.120  1.00  0.00     0.226 C 
ATOM     53  O   UNL     1      -0.402   8.918  -6.859  1.00  0.00    -0.275 OA
BRANCH  52  54
ATOM     54  N   UNL     1      -1.401   7.290  -8.193  1.00  0.00    -0.311 N 
ATOM     55  C   UNL     1      -0.844   7.164  -9.547  1.00  0.00     0.153 C 
BRANCH  54  56
ATOM     56  C   UNL     1      -2.751   6.950  -8.011  1.00  0.00     0.102 C 
ATOM     57  C   UNL     1      -3.194   5.741  -7.628  1.00  0.00     0.043 C 
BRANCH  56  58
ATOM     58  C   UNL     1      -3.842   7.979  -8.197  1.00  0.00     0.268 C 
ATOM     59  O   UNL     1      -3.750   9.131  -7.796  1.00  0.00    -0.268 OA
ATOM     60  N   UNL     1      -4.913   7.507  -8.918  1.00  0.00    -0.339 N 
ATOM     61  H   UNL     1      -4.916   6.535  -9.205  1.00  0.00     0.164 HD
BRANCH  60  62
ATOM     62  C   UNL     1      -6.051   8.355  -9.267  1.00  0.00     0.168 CG0
ATOM     63  C   UNL     1      -5.714   9.268 -10.440  1.00  0.00     0.041 C 
ATOM     64  G   UNL     1      -6.477   9.182  -8.037  1.00  0.00     0.000 G0
ENDBRANCH  60  62
ENDBRANCH  56  58
ENDBRANCH  54  56
ENDBRANCH  52  54
ENDBRANCH  51  52
ENDBRANCH  50  51
ENDBRANCH  49  50
BRANCH  49  65
ATOM     65  C   UNL     1      -1.730   4.778  -3.447  1.00  0.00     0.326 C 
ATOM     66  O   UNL     1      -2.942   4.623  -3.495  1.00  0.00    -0.250 OA
BRANCH  65  67
ATOM     67  O   UNL     1      -1.116   4.890  -2.248  1.00  0.00    -0.480 OA
ATOM     68  H   UNL     1      -1.849   4.792  -1.603  1.00  0.00     0.296 HD
ENDBRANCH  65  67
ENDBRANCH  49  65
ENDBRANCH  47  49
ENDBRANCH  43  45
ENDBRANCH   1  43
BRANCH   1  69
ATOM     69  C   UNL     1       0.850   1.735  -2.259  1.00  0.00    -0.001 C 
ATOM     70  C   UNL     1      -0.047   0.777  -1.967  1.00  0.00     0.001 C 
BRANCH  70  71
ATOM     71  C   UNL     1      -1.208   0.900  -1.083  1.00  0.00    -0.055 C 
ATOM     72  C   UNL     1      -1.330   2.034  -0.360  1.00  0.00    -0.018 C 
ATOM     73  C   UNL     1      -2.188  -0.243  -1.048  1.00  0.00     0.044 C 
BRANCH  72  74
ATOM     74  C   UNL     1      -2.418   2.435   0.625  1.00  0.00     0.038 C 
ATOM     75  C   UNL     1      -3.526   3.124  -0.180  1.00  0.00     0.015 C 
BRANCH  74  76
ATOM     76  C   UNL     1      -1.781   3.312   1.744  1.00  0.00     0.128 C 
BRANCH  76  77
ATOM     77  O   UNL     1      -2.758   3.596   2.760  1.00  0.00    -0.381 OA
ATOM     78  C   UNL     1      -2.637   2.775   3.914  1.00  0.00     0.195 C 
ENDBRANCH  76  77
BRANCH  76  79
ATOM     79  C   UNL     1      -0.464   2.737   2.322  1.00  0.00     0.068 C 
BRANCH  79  80
ATOM     80  C   UNL     1       0.745   3.640   2.361  1.00  0.00    -0.045 A 
ATOM     81  C   UNL     1       0.624   4.994   2.702  1.00  0.00     0.004 A 
ATOM     82  C   UNL     1       2.012   3.140   2.027  1.00  0.00     0.004 A 
ATOM     83  C   UNL     1       1.745   5.826   2.723  1.00  0.00     0.000 A 
ATOM     84  C   UNL     1       3.133   3.973   2.047  1.00  0.00     0.000 A 
ATOM     85  C   UNL     1       2.999   5.315   2.396  1.00  0.00     0.000 A 
ENDBRANCH  79  80
ENDBRANCH  76  79
ENDBRANCH  74  76
ENDBRANCH  72  74
ENDBRANCH  70  71
ENDBRANCH   1  69
TORSDOF 17
ENDMDL
MODEL 39
REMARK VINA RESULT:    -5.770      3.182      8.334
REMARK INTER + INTRA:         -24.521
REMARK INTER:                 -16.451
REMARK INTRA:                  -8.070
REMARK UNBOUND:                -7.281
REMARK SMILES C=C1C(=O)N[C@H](C)C(=O)N[C@@H](CC(C)C)C(=O)N[C@@H](C(=O)O)[C@H](C)C(=O)N[C@@H](CCCN=C(N)N)C(=O)N[C@@H](/C=C/C(C)=C/[C@H](C)[C@H](Cc2ccccc2)OC)[C@H](C)C(=O)N[C@@H](C(=O)O)CCC(=O)N1C
REMARK SMILES IDX 39 1 38 2 37 3 36 4 28 6 27 7 25 8 26 9 23 11 24 12 19 13
REMARK SMILES IDX 18 14 16 15 17 16 11 18 10 19 8 20 9 21 12 24 13 25 14 26
REMARK SMILES IDX 15 27 20 28 21 29 22 30 29 32 30 33 31 34 32 35 33 36 34 37
REMARK SMILES IDX 35 38 57 43 58 44 59 45 60 46 61 47 62 49 66 50 67 51 68 52
REMARK SMILES IDX 69 53 70 54 71 55 2 56 1 57 3 58 4 59 5 60 6 62 7 63 63 65
REMARK SMILES IDX 64 66 65 67 40 69 41 70 42 71 44 72 43 73 45 74 46 75 47 76
REMARK SMILES IDX 55 77 56 78 48 79 49 80 50 81 54 82 51 83 53 84 52 85
REMARK H PARENT 38 5 27 10 18 17 10 22 22 31 34 39 34 40 35 41 35 42 61 48
REMARK H PARENT 5 61 65 68
REMARK Flexibility Score:  369.900
ROOT
ATOM      1  C   UNL     1       6.011  -0.554  -6.298  1.00  0.00     0.117 C 
ENDROOT
BRANCH   1   2
ATOM      2  N   UNL     1       6.888  -1.006  -7.379  1.00  0.00    -0.347 N 
ATOM      3  O   UNL     1       6.391  -3.244  -7.269  1.00  0.00    -0.273 OA
ATOM      4  C   UNL     1       6.939  -2.307  -7.840  1.00  0.00     0.243 C 
ATOM      5  H   UNL     1       7.462  -0.333  -7.865  1.00  0.00     0.164 HD
BRANCH   4   6
ATOM      6  C   UNL     1       7.886  -2.502  -9.051  1.00  0.00     0.171 C 
BRANCH   6   7
ATOM      7  N   UNL     1       7.281  -3.413 -10.037  1.00  0.00    -0.344 N 
ATOM      8  C   UNL     1       6.529  -2.919 -11.081  1.00  0.00     0.226 C 
ATOM      9  O   UNL     1       6.310  -1.722 -11.229  1.00  0.00    -0.275 OA
ATOM     10  H   UNL     1       7.383  -4.412  -9.909  1.00  0.00     0.164 HD
BRANCH   8  11
ATOM     11  C   UNL     1       6.019  -3.979 -12.041  1.00  0.00     0.109 C 
ATOM     12  C   UNL     1       4.615  -3.618 -12.526  1.00  0.00     0.021 C 
BRANCH  11  13
ATOM     13  C   UNL     1       7.053  -4.208 -13.162  1.00  0.00     0.204 C 
BRANCH  13  14
ATOM     14  N   UNL     1       7.723  -2.965 -13.556  1.00  0.00    -0.340 N 
ATOM     15  C   UNL     1       7.314  -2.203 -14.629  1.00  0.00     0.243 C 
ATOM     16  O   UNL     1       6.319  -2.480 -15.296  1.00  0.00    -0.273 OA
ATOM     17  H   UNL     1       8.637  -2.760 -13.144  1.00  0.00     0.164 HD
BRANCH  15  18
ATOM     18  C   UNL     1       8.293  -1.055 -14.981  1.00  0.00     0.171 C 
BRANCH  18  19
ATOM     19  N   UNL     1       8.378  -1.010 -16.439  1.00  0.00    -0.343 N 
ATOM     20  C   UNL     1       9.257  -1.811 -17.143  1.00  0.00     0.242 CG0
ATOM     21  O   UNL     1      10.099  -2.500 -16.571  1.00  0.00    -0.273 OA
ATOM     22  H   UNL     1       7.782  -0.371 -16.953  1.00  0.00     0.164 HD
ATOM     23  G   UNL     1       9.149  -1.682 -18.676  1.00  0.00     0.000 G0
ENDBRANCH  18  19
BRANCH  18  24
ATOM     24  C   UNL     1       7.794   0.277 -14.406  1.00  0.00     0.038 C 
BRANCH  24  25
ATOM     25  C   UNL     1       8.335   0.615 -13.001  1.00  0.00    -0.015 C 
ATOM     26  C   UNL     1       7.481   1.658 -12.280  1.00  0.00     0.007 C 
ATOM     27  C   UNL     1       9.777   1.116 -13.112  1.00  0.00     0.007 C 
ENDBRANCH  24  25
ENDBRANCH  18  24
ENDBRANCH  15  18
ENDBRANCH  13  14
BRANCH  13  28
ATOM     28  C   UNL     1       8.146  -5.211 -12.779  1.00  0.00     0.327 C 
ATOM     29  O   UNL     1       9.119  -5.511 -13.453  1.00  0.00    -0.250 OA
BRANCH  28  30
ATOM     30  O   UNL     1       7.886  -5.862 -11.627  1.00  0.00    -0.480 OA
ATOM     31  H   UNL     1       7.984  -5.176 -10.935  1.00  0.00     0.296 HD
ENDBRANCH  28  30
ENDBRANCH  13  28
ENDBRANCH  11  13
ENDBRANCH   8  11
ENDBRANCH   6   7
BRANCH   6  32
ATOM     32  C   UNL     1       8.187  -1.137  -9.680  1.00  0.00     0.037 C 
BRANCH  32  33
ATOM     33  C   UNL     1       9.680  -0.960  -9.993  1.00  0.00     0.026 C 
BRANCH  33  34
ATOM     34  C   UNL     1      10.346  -2.266 -10.427  1.00  0.00     0.146 C 
BRANCH  34  35
ATOM     35  N   UNL     1      10.237  -2.391 -11.874  1.00  0.00    -0.254 NA
ATOM     36  C   UNL     1      11.220  -2.893 -12.523  1.00  0.00     0.185 C 
ATOM     37  N   UNL     1      11.128  -3.017 -13.857  1.00  0.00    -0.370 N 
ATOM     38  N   UNL     1      12.398  -3.344 -12.057  1.00  0.00    -0.370 N 
ATOM     39  H   UNL     1      10.264  -2.708 -14.283  1.00  0.00     0.159 HD
ATOM     40  H   UNL     1      11.774  -3.553 -14.411  1.00  0.00     0.159 HD
ATOM     41  H   UNL     1      13.147  -3.588 -12.684  1.00  0.00     0.159 HD
ATOM     42  H   UNL     1      12.612  -3.298 -11.073  1.00  0.00     0.159 HD
ENDBRANCH  34  35
ENDBRANCH  33  34
ENDBRANCH  32  33
ENDBRANCH   6  32
ENDBRANCH   4   6
ENDBRANCH   1   2
BRANCH   1  43
ATOM     43  C   UNL     1       4.724   0.054  -6.926  1.00  0.00     0.102 C 
ATOM     44  C   UNL     1       4.149   1.233  -6.122  1.00  0.00     0.020 C 
BRANCH  43  45
ATOM     45  C   UNL     1       3.699  -1.039  -7.244  1.00  0.00     0.225 C 
ATOM     46  O   UNL     1       2.940  -0.987  -8.208  1.00  0.00    -0.275 OA
ATOM     47  N   UNL     1       3.611  -2.056  -6.321  1.00  0.00    -0.342 N 
ATOM     48  H   UNL     1       4.336  -2.164  -5.626  1.00  0.00     0.164 HD
BRANCH  47  49
ATOM     49  C   UNL     1       2.700  -3.188  -6.513  1.00  0.00     0.192 C 
BRANCH  49  50
ATOM     50  C   UNL     1       1.348  -2.876  -5.865  1.00  0.00     0.047 C 
BRANCH  50  51
ATOM     51  C   UNL     1       1.446  -2.771  -4.337  1.00  0.00     0.103 C 
BRANCH  51  52
ATOM     52  C   UNL     1       1.276  -1.333  -3.850  1.00  0.00     0.226 C 
ATOM     53  O   UNL     1       2.266  -0.609  -3.729  1.00  0.00    -0.275 OA
BRANCH  52  54
ATOM     54  N   UNL     1      -0.044  -0.895  -3.637  1.00  0.00    -0.311 N 
ATOM     55  C   UNL     1      -0.834  -0.315  -4.731  1.00  0.00     0.153 C 
BRANCH  54  56
ATOM     56  C   UNL     1      -0.656  -1.002  -2.377  1.00  0.00     0.102 C 
ATOM     57  C   UNL     1      -1.224  -2.117  -1.890  1.00  0.00     0.043 C 
BRANCH  56  58
ATOM     58  C   UNL     1      -0.679   0.171  -1.425  1.00  0.00     0.268 C 
ATOM     59  O   UNL     1      -1.713   0.660  -0.990  1.00  0.00    -0.268 OA
ATOM     60  N   UNL     1       0.576   0.586  -1.049  1.00  0.00    -0.339 N 
ATOM     61  H   UNL     1       1.383   0.134  -1.463  1.00  0.00     0.164 HD
BRANCH  60  62
ATOM     62  C   UNL     1       0.783   1.666  -0.085  1.00  0.00     0.168 CG0
ATOM     63  C   UNL     1       2.196   1.627   0.485  1.00  0.00     0.041 C 
ATOM     64  G   UNL     1      -0.263   1.559   1.044  1.00  0.00     0.000 G0
ENDBRANCH  60  62
ENDBRANCH  56  58
ENDBRANCH  54  56
ENDBRANCH  52  54
ENDBRANCH  51  52
ENDBRANCH  50  51
ENDBRANCH  49  50
BRANCH  49  65
ATOM     65  C   UNL     1       3.268  -4.482  -5.909  1.00  0.00     0.326 C 
ATOM     66  O   UNL     1       4.241  -4.555  -5.173  1.00  0.00    -0.250 OA
BRANCH  65  67
ATOM     67  O   UNL     1       2.636  -5.611  -6.298  1.00  0.00    -0.480 OA
ATOM     68  H   UNL     1       2.090  -5.851  -5.519  1.00  0.00     0.296 HD
ENDBRANCH  65  67
ENDBRANCH  49  65
ENDBRANCH  47  49
ENDBRANCH  43  45
ENDBRANCH   1  43
BRANCH   1  69
ATOM     69  C   UNL     1       6.867   0.315  -5.394  1.00  0.00    -0.001 C 
ATOM     70  C   UNL     1       8.167   0.623  -5.549  1.00  0.00     0.001 C 
BRANCH  70  71
ATOM     71  C   UNL     1       8.977   1.481  -4.681  1.00  0.00    -0.055 C 
ATOM     72  C   UNL     1       9.542   0.917  -3.593  1.00  0.00    -0.018 C 
ATOM     73  C   UNL     1       9.128   2.929  -5.068  1.00  0.00     0.044 C 
BRANCH  72  74
ATOM     74  C   UNL     1      10.426   1.552  -2.529  1.00  0.00     0.038 C 
ATOM     75  C   UNL     1      11.643   0.638  -2.346  1.00  0.00     0.015 C 
BRANCH  74  76
ATOM     76  C   UNL     1       9.577   1.774  -1.242  1.00  0.00     0.128 C 
BRANCH  76  77
ATOM     77  O   UNL     1      10.443   1.988  -0.114  1.00  0.00    -0.381 OA
ATOM     78  C   UNL     1      10.341   3.291   0.445  1.00  0.00     0.195 C 
ENDBRANCH  76  77
BRANCH  76  79
ATOM     79  C   UNL     1       8.495   2.874  -1.383  1.00  0.00     0.068 C 
BRANCH  79  80
ATOM     80  C   UNL     1       7.085   2.441  -1.707  1.00  0.00    -0.045 A 
ATOM     81  C   UNL     1       6.531   1.294  -1.124  1.00  0.00     0.004 A 
ATOM     82  C   UNL     1       6.314   3.170  -2.625  1.00  0.00     0.004 A 
ATOM     83  C   UNL     1       5.231   0.892  -1.440  1.00  0.00     0.000 A 
ATOM     84  C   UNL     1       5.015   2.767  -2.940  1.00  0.00     0.000 A 
ATOM     85  C   UNL     1       4.473   1.629  -2.346  1.00  0.00     0.000 A 
ENDBRANCH  79  80
ENDBRANCH  76  79
ENDBRANCH  74  76
ENDBRANCH  72  74
ENDBRANCH  70  71
ENDBRANCH   1  69
TORSDOF 17
ENDMDL
MODEL 40
REMARK VINA RESULT:    -5.767      5.173     12.115
REMARK INTER + INTRA:         -24.510
REMARK INTER:                 -19.153
REMARK INTRA:                  -5.357
REMARK UNBOUND:                -7.281
REMARK SMILES C=C1C(=O)N[C@H](C)C(=O)N[C@@H](CC(C)C)C(=O)N[C@@H](C(=O)O)[C@H](C)C(=O)N[C@@H](CCCN=C(N)N)C(=O)N[C@@H](/C=C/C(C)=C/[C@H](C)[C@H](Cc2ccccc2)OC)[C@H](C)C(=O)N[C@@H](C(=O)O)CCC(=O)N1C
REMARK SMILES IDX 39 1 38 2 37 3 36 4 28 6 27 7 25 8 26 9 23 11 24 12 19 13
REMARK SMILES IDX 18 14 16 15 17 16 11 18 10 19 8 20 9 21 12 24 13 25 14 26
REMARK SMILES IDX 15 27 20 28 21 29 22 30 29 32 30 33 31 34 32 35 33 36 34 37
REMARK SMILES IDX 35 38 57 43 58 44 59 45 60 46 61 47 62 49 66 50 67 51 68 52
REMARK SMILES IDX 69 53 70 54 71 55 2 56 1 57 3 58 4 59 5 60 6 62 7 63 63 65
REMARK SMILES IDX 64 66 65 67 40 69 41 70 42 71 44 72 43 73 45 74 46 75 47 76
REMARK SMILES IDX 55 77 56 78 48 79 49 80 50 81 54 82 51 83 53 84 52 85
REMARK H PARENT 38 5 27 10 18 17 10 22 22 31 34 39 34 40 35 41 35 42 61 48
REMARK H PARENT 5 61 65 68
REMARK Flexibility Score:  369.900
ROOT
ATOM      1  C   UNL     1       1.971   1.212  -1.569  1.00  0.00     0.117 C 
ENDROOT
BRANCH   1   2
ATOM      2  N   UNL     1       3.205   1.865  -1.131  1.00  0.00    -0.347 N 
ATOM      3  O   UNL     1       4.644   0.821  -2.583  1.00  0.00    -0.273 OA
ATOM      4  C   UNL     1       4.434   1.683  -1.737  1.00  0.00     0.243 C 
ATOM      5  H   UNL     1       3.171   2.530  -0.373  1.00  0.00     0.164 HD
BRANCH   4   6
ATOM      6  C   UNL     1       5.562   2.558  -1.134  1.00  0.00     0.171 C 
BRANCH   6   7
ATOM      7  N   UNL     1       6.816   2.366  -1.880  1.00  0.00    -0.344 N 
ATOM      8  C   UNL     1       7.772   1.482  -1.431  1.00  0.00     0.226 C 
ATOM      9  O   UNL     1       7.643   0.838  -0.397  1.00  0.00    -0.275 OA
ATOM     10  H   UNL     1       6.988   2.930  -2.703  1.00  0.00     0.164 HD
BRANCH   8  11
ATOM     11  C   UNL     1       8.983   1.356  -2.339  1.00  0.00     0.109 C 
ATOM     12  C   UNL     1       8.723   2.072  -3.665  1.00  0.00     0.021 C 
BRANCH  11  13
ATOM     13  C   UNL     1      10.248   1.821  -1.588  1.00  0.00     0.204 C 
BRANCH  13  14
ATOM     14  N   UNL     1       9.924   2.651  -0.424  1.00  0.00    -0.340 N 
ATOM     15  C   UNL     1      10.470   3.899  -0.220  1.00  0.00     0.243 C 
ATOM     16  O   UNL     1      11.222   4.432  -1.034  1.00  0.00    -0.273 OA
ATOM     17  H   UNL     1       9.431   2.210   0.358  1.00  0.00     0.164 HD
BRANCH  15  18
ATOM     18  C   UNL     1      10.147   4.496   1.172  1.00  0.00     0.171 C 
BRANCH  18  19
ATOM     19  N   UNL     1      10.539   3.493   2.159  1.00  0.00    -0.343 N 
ATOM     20  C   UNL     1       9.719   3.152   3.217  1.00  0.00     0.242 CG0
ATOM     21  O   UNL     1       8.683   3.769   3.453  1.00  0.00    -0.273 OA
ATOM     22  H   UNL     1      11.440   3.036   2.073  1.00  0.00     0.164 HD
ATOM     23  G   UNL     1      10.268   2.018   4.108  1.00  0.00     0.000 G0
ENDBRANCH  18  19
BRANCH  18  24
ATOM     24  C   UNL     1      10.899   5.816   1.383  1.00  0.00     0.038 C 
BRANCH  24  25
ATOM     25  C   UNL     1      10.052   6.948   2.002  1.00  0.00    -0.015 C 
ATOM     26  C   UNL     1      10.160   6.993   3.527  1.00  0.00     0.007 C 
ATOM     27  C   UNL     1       8.586   6.777   1.594  1.00  0.00     0.007 C 
ENDBRANCH  24  25
ENDBRANCH  18  24
ENDBRANCH  15  18
ENDBRANCH  13  14
BRANCH  13  28
ATOM     28  C   UNL     1      11.115   0.660  -1.092  1.00  0.00     0.327 C 
ATOM     29  O   UNL     1      12.045   0.144  -1.693  1.00  0.00    -0.250 OA
BRANCH  28  30
ATOM     30  O   UNL     1      10.687   0.142   0.077  1.00  0.00    -0.480 OA
ATOM     31  H   UNL     1      10.794   0.874   0.719  1.00  0.00     0.296 HD
ENDBRANCH  28  30
ENDBRANCH  13  28
ENDBRANCH  11  13
ENDBRANCH   8  11
ENDBRANCH   6   7
BRANCH   6  32
ATOM     32  C   UNL     1       5.128   4.028  -1.161  1.00  0.00     0.037 C 
BRANCH  32  33
ATOM     33  C   UNL     1       5.253   4.694   0.217  1.00  0.00     0.026 C 
BRANCH  33  34
ATOM     34  C   UNL     1       4.072   4.372   1.132  1.00  0.00     0.146 C 
BRANCH  34  35
ATOM     35  N   UNL     1       4.311   4.971   2.438  1.00  0.00    -0.254 NA
ATOM     36  C   UNL     1       3.549   4.644   3.413  1.00  0.00     0.185 C 
ATOM     37  N   UNL     1       3.764   5.187   4.622  1.00  0.00    -0.370 N 
ATOM     38  N   UNL     1       2.506   3.794   3.423  1.00  0.00    -0.370 N 
ATOM     39  H   UNL     1       4.540   5.831   4.698  1.00  0.00     0.159 HD
ATOM     40  H   UNL     1       3.328   4.856   5.465  1.00  0.00     0.159 HD
ATOM     41  H   UNL     1       1.897   3.726   4.221  1.00  0.00     0.159 HD
ATOM     42  H   UNL     1       2.220   3.325   2.578  1.00  0.00     0.159 HD
ENDBRANCH  34  35
ENDBRANCH  33  34
ENDBRANCH  32  33
ENDBRANCH   6  32
ENDBRANCH   4   6
ENDBRANCH   1   2
BRANCH   1  43
ATOM     43  C   UNL     1       1.997   1.094  -3.120  1.00  0.00     0.102 C 
ATOM     44  C   UNL     1       1.652   2.408  -3.840  1.00  0.00     0.020 C 
BRANCH  43  45
ATOM     45  C   UNL     1       1.175  -0.109  -3.594  1.00  0.00     0.225 C 
ATOM     46  O   UNL     1       0.606  -0.146  -4.681  1.00  0.00    -0.275 OA
ATOM     47  N   UNL     1       1.031  -1.125  -2.678  1.00  0.00    -0.342 N 
ATOM     48  H   UNL     1       1.623  -1.149  -1.859  1.00  0.00     0.164 HD
BRANCH  47  49
ATOM     49  C   UNL     1       0.301  -2.354  -3.005  1.00  0.00     0.192 C 
BRANCH  49  50
ATOM     50  C   UNL     1      -1.022  -2.386  -2.236  1.00  0.00     0.047 C 
BRANCH  50  51
ATOM     51  C   UNL     1      -2.240  -2.376  -3.170  1.00  0.00     0.103 C 
BRANCH  51  52
ATOM     52  C   UNL     1      -2.874  -3.759  -3.302  1.00  0.00     0.226 C 
ATOM     53  O   UNL     1      -2.213  -4.692  -3.761  1.00  0.00    -0.275 OA
BRANCH  52  54
ATOM     54  N   UNL     1      -4.183  -3.898  -2.805  1.00  0.00    -0.311 N 
ATOM     55  C   UNL     1      -4.506  -3.552  -1.414  1.00  0.00     0.153 C 
BRANCH  54  56
ATOM     56  C   UNL     1      -5.229  -4.365  -3.619  1.00  0.00     0.102 C 
ATOM     57  C   UNL     1      -5.916  -3.613  -4.495  1.00  0.00     0.043 C 
BRANCH  56  58
ATOM     58  C   UNL     1      -5.640  -5.818  -3.595  1.00  0.00     0.268 C 
ATOM     59  O   UNL     1      -6.756  -6.193  -3.261  1.00  0.00    -0.268 OA
ATOM     60  N   UNL     1      -4.656  -6.665  -4.048  1.00  0.00    -0.339 N 
ATOM     61  H   UNL     1      -3.755  -6.276  -4.296  1.00  0.00     0.164 HD
BRANCH  60  62
ATOM     62  C   UNL     1      -4.865  -8.108  -4.167  1.00  0.00     0.168 CG0
ATOM     63  C   UNL     1      -5.458  -8.465  -5.524  1.00  0.00     0.041 C 
ATOM     64  G   UNL     1      -5.781  -8.593  -3.025  1.00  0.00     0.000 G0
ENDBRANCH  60  62
ENDBRANCH  56  58
ENDBRANCH  54  56
ENDBRANCH  52  54
ENDBRANCH  51  52
ENDBRANCH  50  51
ENDBRANCH  49  50
BRANCH  49  65
ATOM     65  C   UNL     1       1.119  -3.608  -2.663  1.00  0.00     0.326 C 
ATOM     66  O   UNL     1       1.158  -4.155  -1.571  1.00  0.00    -0.250 OA
BRANCH  65  67
ATOM     67  O   UNL     1       1.886  -4.074  -3.674  1.00  0.00    -0.480 OA
ATOM     68  H   UNL     1       2.290  -3.263  -4.050  1.00  0.00     0.296 HD
ENDBRANCH  65  67
ENDBRANCH  49  65
ENDBRANCH  47  49
ENDBRANCH  43  45
ENDBRANCH   1  43
BRANCH   1  69
ATOM     69  C   UNL     1       0.834   1.971  -0.911  1.00  0.00    -0.001 C 
ATOM     70  C   UNL     1      -0.400   1.514  -0.631  1.00  0.00     0.001 C 
BRANCH  70  71
ATOM     71  C   UNL     1      -1.483   2.249   0.024  1.00  0.00    -0.055 C 
ATOM     72  C   UNL     1      -1.188   3.450   0.566  1.00  0.00    -0.018 C 
ATOM     73  C   UNL     1      -2.851   1.618   0.041  1.00  0.00     0.044 C 
BRANCH  72  74
ATOM     74  C   UNL     1      -2.099   4.426   1.297  1.00  0.00     0.038 C 
ATOM     75  C   UNL     1      -2.605   5.436   0.261  1.00  0.00     0.015 C 
BRANCH  74  76
ATOM     76  C   UNL     1      -1.311   5.050   2.487  1.00  0.00     0.128 C 
BRANCH  76  77
ATOM     77  O   UNL     1      -0.043   5.548   2.029  1.00  0.00    -0.381 OA
ATOM     78  C   UNL     1       0.487   6.591   2.836  1.00  0.00     0.195 C 
ENDBRANCH  76  77
BRANCH  76  79
ATOM     79  C   UNL     1      -2.114   6.105   3.289  1.00  0.00     0.068 C 
BRANCH  79  80
ATOM     80  C   UNL     1      -2.576   5.735   4.679  1.00  0.00    -0.045 A 
ATOM     81  C   UNL     1      -2.355   6.593   5.764  1.00  0.00     0.004 A 
ATOM     82  C   UNL     1      -3.212   4.506   4.909  1.00  0.00     0.004 A 
ATOM     83  C   UNL     1      -2.772   6.238   7.049  1.00  0.00     0.000 A 
ATOM     84  C   UNL     1      -3.628   4.151   6.194  1.00  0.00     0.000 A 
ATOM     85  C   UNL     1      -3.409   5.018   7.263  1.00  0.00     0.000 A 
ENDBRANCH  79  80
ENDBRANCH  76  79
ENDBRANCH  74  76
ENDBRANCH  72  74
ENDBRANCH  70  71
ENDBRANCH   1  69
TORSDOF 17
ENDMDL
MODEL 41
REMARK VINA RESULT:    -5.713      5.646     12.528
REMARK INTER + INTRA:         -24.350
REMARK INTER:                 -15.131
REMARK INTRA:                  -9.219
REMARK UNBOUND:                -7.281
REMARK SMILES C=C1C(=O)N[C@H](C)C(=O)N[C@@H](CC(C)C)C(=O)N[C@@H](C(=O)O)[C@H](C)C(=O)N[C@@H](CCCN=C(N)N)C(=O)N[C@@H](/C=C/C(C)=C/[C@H](C)[C@H](Cc2ccccc2)OC)[C@H](C)C(=O)N[C@@H](C(=O)O)CCC(=O)N1C
REMARK SMILES IDX 39 1 38 2 37 3 36 4 28 6 27 7 25 8 26 9 23 11 24 12 19 13
REMARK SMILES IDX 18 14 16 15 17 16 11 18 10 19 8 20 9 21 12 24 13 25 14 26
REMARK SMILES IDX 15 27 20 28 21 29 22 30 29 32 30 33 31 34 32 35 33 36 34 37
REMARK SMILES IDX 35 38 57 43 58 44 59 45 60 46 61 47 62 49 66 50 67 51 68 52
REMARK SMILES IDX 69 53 70 54 71 55 2 56 1 57 3 58 4 59 5 60 6 62 7 63 63 65
REMARK SMILES IDX 64 66 65 67 40 69 41 70 42 71 44 72 43 73 45 74 46 75 47 76
REMARK SMILES IDX 55 77 56 78 48 79 49 80 50 81 54 82 51 83 53 84 52 85
REMARK H PARENT 38 5 27 10 18 17 10 22 22 31 34 39 34 40 35 41 35 42 61 48
REMARK H PARENT 5 61 65 68
REMARK Flexibility Score:  369.900
ROOT
ATOM      1  C   UNL     1       5.456   5.129  -1.033  1.00  0.00     0.117 C 
ENDROOT
BRANCH   1   2
ATOM      2  N   UNL     1       6.588   5.623  -0.248  1.00  0.00    -0.347 N 
ATOM      3  O   UNL     1       5.439   7.137   1.039  1.00  0.00    -0.273 OA
ATOM      4  C   UNL     1       6.473   6.525   0.792  1.00  0.00     0.243 C 
ATOM      5  H   UNL     1       7.511   5.258  -0.428  1.00  0.00     0.164 HD
BRANCH   4   6
ATOM      6  C   UNL     1       7.812   6.816   1.515  1.00  0.00     0.171 C 
BRANCH   6   7
ATOM      7  N   UNL     1       8.600   7.804   0.761  1.00  0.00    -0.344 N 
ATOM      8  C   UNL     1       9.618   7.401  -0.076  1.00  0.00     0.226 C 
ATOM      9  O   UNL     1       9.930   6.225  -0.216  1.00  0.00    -0.275 OA
ATOM     10  H   UNL     1       8.415   8.790   0.902  1.00  0.00     0.164 HD
BRANCH   8  11
ATOM     11  C   UNL     1      10.299   8.534  -0.824  1.00  0.00     0.109 C 
ATOM     12  C   UNL     1      11.337   7.973  -1.796  1.00  0.00     0.021 C 
BRANCH  11  13
ATOM     13  C   UNL     1       9.236   9.447  -1.467  1.00  0.00     0.204 C 
BRANCH  13  14
ATOM     14  N   UNL     1       9.839  10.559  -2.207  1.00  0.00    -0.340 N 
ATOM     15  C   UNL     1       9.463  11.872  -2.023  1.00  0.00     0.243 C 
ATOM     16  O   UNL     1       8.635  12.210  -1.179  1.00  0.00    -0.273 OA
ATOM     17  H   UNL     1      10.417  10.337  -3.022  1.00  0.00     0.164 HD
BRANCH  15  18
ATOM     18  C   UNL     1      10.083  12.844  -3.057  1.00  0.00     0.171 C 
BRANCH  18  19
ATOM     19  N   UNL     1      11.316  13.357  -2.462  1.00  0.00    -0.343 N 
ATOM     20  C   UNL     1      11.576  14.711  -2.379  1.00  0.00     0.242 CG0
ATOM     21  O   UNL     1      10.849  15.541  -2.919  1.00  0.00    -0.273 OA
ATOM     22  H   UNL     1      12.004  12.705  -2.104  1.00  0.00     0.164 HD
ATOM     23  G   UNL     1      12.889  15.063  -1.649  1.00  0.00     0.000 G0
ENDBRANCH  18  19
BRANCH  18  24
ATOM     24  C   UNL     1      10.356  12.123  -4.382  1.00  0.00     0.038 C 
BRANCH  24  25
ATOM     25  C   UNL     1      11.847  11.841  -4.667  1.00  0.00    -0.015 C 
ATOM     26  C   UNL     1      12.387  12.668  -5.834  1.00  0.00     0.007 C 
ATOM     27  C   UNL     1      12.042  10.350  -4.958  1.00  0.00     0.007 C 
ENDBRANCH  24  25
ENDBRANCH  18  24
ENDBRANCH  15  18
ENDBRANCH  13  14
BRANCH  13  28
ATOM     28  C   UNL     1       8.309   8.706  -2.436  1.00  0.00     0.327 C 
ATOM     29  O   UNL     1       7.242   8.180  -2.156  1.00  0.00    -0.250 OA
BRANCH  28  30
ATOM     30  O   UNL     1       8.836   8.569  -3.670  1.00  0.00    -0.480 OA
ATOM     31  H   UNL     1       9.692   9.043  -3.621  1.00  0.00     0.296 HD
ENDBRANCH  28  30
ENDBRANCH  13  28
ENDBRANCH  11  13
ENDBRANCH   8  11
ENDBRANCH   6   7
BRANCH   6  32
ATOM     32  C   UNL     1       7.520   7.317   2.934  1.00  0.00     0.037 C 
BRANCH  32  33
ATOM     33  C   UNL     1       8.757   7.942   3.594  1.00  0.00     0.026 C 
BRANCH  33  34
ATOM     34  C   UNL     1       8.602   9.445   3.823  1.00  0.00     0.146 C 
BRANCH  34  35
ATOM     35  N   UNL     1       9.050  10.151   2.631  1.00  0.00    -0.254 NA
ATOM     36  C   UNL     1       9.385  11.383   2.736  1.00  0.00     0.185 C 
ATOM     37  N   UNL     1       9.805  12.042   1.644  1.00  0.00    -0.370 N 
ATOM     38  N   UNL     1       9.386  12.169   3.827  1.00  0.00    -0.370 N 
ATOM     39  H   UNL     1       9.843  11.514   0.782  1.00  0.00     0.159 HD
ATOM     40  H   UNL     1      10.246  12.945   1.675  1.00  0.00     0.159 HD
ATOM     41  H   UNL     1       9.538  13.161   3.755  1.00  0.00     0.159 HD
ATOM     42  H   UNL     1       9.078  11.809   4.718  1.00  0.00     0.159 HD
ENDBRANCH  34  35
ENDBRANCH  33  34
ENDBRANCH  32  33
ENDBRANCH   6  32
ENDBRANCH   4   6
ENDBRANCH   1   2
BRANCH   1  43
ATOM     43  C   UNL     1       5.122   3.683  -0.565  1.00  0.00     0.102 C 
ATOM     44  C   UNL     1       4.197   3.636   0.663  1.00  0.00     0.020 C 
BRANCH  43  45
ATOM     45  C   UNL     1       6.395   2.845  -0.418  1.00  0.00     0.225 C 
ATOM     46  O   UNL     1       7.038   2.781   0.626  1.00  0.00    -0.275 OA
ATOM     47  N   UNL     1       6.836   2.230  -1.567  1.00  0.00    -0.342 N 
ATOM     48  H   UNL     1       6.223   2.167  -2.368  1.00  0.00     0.164 HD
BRANCH  47  49
ATOM     49  C   UNL     1       8.021   1.367  -1.568  1.00  0.00     0.192 C 
BRANCH  49  50
ATOM     50  C   UNL     1       8.795   1.558  -2.875  1.00  0.00     0.047 C 
BRANCH  50  51
ATOM     51  C   UNL     1       7.900   2.065  -4.013  1.00  0.00     0.103 C 
BRANCH  51  52
ATOM     52  C   UNL     1       7.542   0.955  -5.000  1.00  0.00     0.226 C 
ATOM     53  O   UNL     1       8.403   0.141  -5.341  1.00  0.00    -0.275 OA
BRANCH  52  54
ATOM     54  N   UNL     1       6.197   0.887  -5.407  1.00  0.00    -0.311 N 
ATOM     55  C   UNL     1       5.111   1.268  -4.495  1.00  0.00     0.153 C 
BRANCH  54  56
ATOM     56  C   UNL     1       5.843   0.461  -6.698  1.00  0.00     0.102 C 
ATOM     57  C   UNL     1       5.869   1.234  -7.796  1.00  0.00     0.043 C 
BRANCH  56  58
ATOM     58  C   UNL     1       5.436  -0.970  -6.957  1.00  0.00     0.268 C 
ATOM     59  O   UNL     1       5.849  -1.914  -6.298  1.00  0.00    -0.268 OA
ATOM     60  N   UNL     1       4.506  -1.093  -7.963  1.00  0.00    -0.339 N 
ATOM     61  H   UNL     1       4.222  -0.263  -8.468  1.00  0.00     0.164 HD
BRANCH  60  62
ATOM     62  C   UNL     1       3.928  -2.384  -8.335  1.00  0.00     0.168 CG0
ATOM     63  C   UNL     1       2.636  -2.645  -7.572  1.00  0.00     0.041 C 
ATOM     64  G   UNL     1       4.954  -3.505  -8.071  1.00  0.00     0.000 G0
ENDBRANCH  60  62
ENDBRANCH  56  58
ENDBRANCH  54  56
ENDBRANCH  52  54
ENDBRANCH  51  52
ENDBRANCH  50  51
ENDBRANCH  49  50
BRANCH  49  65
ATOM     65  C   UNL     1       7.643  -0.114  -1.412  1.00  0.00     0.326 C 
ATOM     66  O   UNL     1       7.887  -0.999  -2.220  1.00  0.00    -0.250 OA
BRANCH  65  67
ATOM     67  O   UNL     1       6.936  -0.401  -0.297  1.00  0.00    -0.480 OA
ATOM     68  H   UNL     1       6.046  -0.632  -0.640  1.00  0.00     0.296 HD
ENDBRANCH  65  67
ENDBRANCH  49  65
ENDBRANCH  47  49
ENDBRANCH  43  45
ENDBRANCH   1  43
BRANCH   1  69
ATOM     69  C   UNL     1       5.815   5.364  -2.489  1.00  0.00    -0.001 C 
ATOM     70  C   UNL     1       5.263   4.787  -3.571  1.00  0.00     0.001 C 
BRANCH  70  71
ATOM     71  C   UNL     1       5.603   5.037  -4.972  1.00  0.00    -0.055 C 
ATOM     72  C   UNL     1       6.799   5.605  -5.236  1.00  0.00    -0.018 C 
ATOM     73  C   UNL     1       4.599   4.638  -6.022  1.00  0.00     0.044 C 
BRANCH  72  74
ATOM     74  C   UNL     1       7.415   5.975  -6.578  1.00  0.00     0.038 C 
ATOM     75  C   UNL     1       8.757   5.241  -6.678  1.00  0.00     0.015 C 
BRANCH  74  76
ATOM     76  C   UNL     1       7.510   7.526  -6.675  1.00  0.00     0.128 C 
BRANCH  76  77
ATOM     77  O   UNL     1       8.409   7.897  -7.733  1.00  0.00    -0.381 OA
ATOM     78  C   UNL     1       7.933   8.969  -8.536  1.00  0.00     0.195 C 
ENDBRANCH  76  77
BRANCH  76  79
ATOM     79  C   UNL     1       6.137   8.236  -6.778  1.00  0.00     0.068 C 
BRANCH  79  80
ATOM     80  C   UNL     1       5.639   8.991  -5.569  1.00  0.00    -0.045 A 
ATOM     81  C   UNL     1       6.220  10.208  -5.189  1.00  0.00     0.004 A 
ATOM     82  C   UNL     1       4.597   8.468  -4.788  1.00  0.00     0.004 A 
ATOM     83  C   UNL     1       5.763  10.894  -4.061  1.00  0.00     0.000 A 
ATOM     84  C   UNL     1       4.141   9.155  -3.660  1.00  0.00     0.000 A 
ATOM     85  C   UNL     1       4.723  10.368  -3.298  1.00  0.00     0.000 A 
ENDBRANCH  79  80
ENDBRANCH  76  79
ENDBRANCH  74  76
ENDBRANCH  72  74
ENDBRANCH  70  71
ENDBRANCH   1  69
TORSDOF 17
ENDMDL
MODEL 42
REMARK VINA RESULT:    -5.673      4.973     11.115
REMARK INTER + INTRA:         -24.230
REMARK INTER:                 -16.181
REMARK INTRA:                  -8.049
REMARK UNBOUND:                -7.281
REMARK SMILES C=C1C(=O)N[C@H](C)C(=O)N[C@@H](CC(C)C)C(=O)N[C@@H](C(=O)O)[C@H](C)C(=O)N[C@@H](CCCN=C(N)N)C(=O)N[C@@H](/C=C/C(C)=C/[C@H](C)[C@H](Cc2ccccc2)OC)[C@H](C)C(=O)N[C@@H](C(=O)O)CCC(=O)N1C
REMARK SMILES IDX 39 1 38 2 37 3 36 4 28 6 27 7 25 8 26 9 23 11 24 12 19 13
REMARK SMILES IDX 18 14 16 15 17 16 11 18 10 19 8 20 9 21 12 24 13 25 14 26
REMARK SMILES IDX 15 27 20 28 21 29 22 30 29 32 30 33 31 34 32 35 33 36 34 37
REMARK SMILES IDX 35 38 57 43 58 44 59 45 60 46 61 47 62 49 66 50 67 51 68 52
REMARK SMILES IDX 69 53 70 54 71 55 2 56 1 57 3 58 4 59 5 60 6 62 7 63 63 65
REMARK SMILES IDX 64 66 65 67 40 69 41 70 42 71 44 72 43 73 45 74 46 75 47 76
REMARK SMILES IDX 55 77 56 78 48 79 49 80 50 81 54 82 51 83 53 84 52 85
REMARK H PARENT 38 5 27 10 18 17 10 22 22 31 34 39 34 40 35 41 35 42 61 48
REMARK H PARENT 5 61 65 68
REMARK Flexibility Score:  369.900
ROOT
ATOM      1  C   UNL     1       0.925   1.489  -2.949  1.00  0.00     0.117 C 
ENDROOT
BRANCH   1   2
ATOM      2  N   UNL     1       1.568   1.916  -1.707  1.00  0.00    -0.347 N 
ATOM      3  O   UNL     1       1.658  -0.135  -0.679  1.00  0.00    -0.273 OA
ATOM      4  C   UNL     1       1.968   1.052  -0.706  1.00  0.00     0.243 C 
ATOM      5  H   UNL     1       1.788   2.892  -1.573  1.00  0.00     0.164 HD
BRANCH   4   6
ATOM      6  C   UNL     1       2.703   1.752   0.466  1.00  0.00     0.171 C 
BRANCH   6   7
ATOM      7  N   UNL     1       3.369   2.977  -0.004  1.00  0.00    -0.344 N 
ATOM      8  C   UNL     1       4.726   2.992  -0.243  1.00  0.00     0.226 C 
ATOM      9  O   UNL     1       5.439   2.013  -0.059  1.00  0.00    -0.275 OA
ATOM     10  H   UNL     1       2.824   3.825  -0.102  1.00  0.00     0.164 HD
BRANCH   8  11
ATOM     11  C   UNL     1       5.253   4.313  -0.775  1.00  0.00     0.109 C 
ATOM     12  C   UNL     1       6.029   5.048   0.318  1.00  0.00     0.021 C 
BRANCH  11  13
ATOM     13  C   UNL     1       6.039   4.073  -2.079  1.00  0.00     0.204 C 
BRANCH  13  14
ATOM     14  N   UNL     1       7.234   3.253  -1.860  1.00  0.00    -0.340 N 
ATOM     15  C   UNL     1       8.510   3.703  -2.124  1.00  0.00     0.243 C 
ATOM     16  O   UNL     1       8.740   4.849  -2.506  1.00  0.00    -0.273 OA
ATOM     17  H   UNL     1       7.105   2.252  -1.692  1.00  0.00     0.164 HD
BRANCH  15  18
ATOM     18  C   UNL     1       9.590   2.599  -2.016  1.00  0.00     0.171 C 
BRANCH  18  19
ATOM     19  N   UNL     1      10.545   3.046  -1.004  1.00  0.00    -0.343 N 
ATOM     20  C   UNL     1      11.814   3.477  -1.339  1.00  0.00     0.242 CG0
ATOM     21  O   UNL     1      12.245   3.380  -2.486  1.00  0.00    -0.273 OA
ATOM     22  H   UNL     1      10.276   3.035  -0.027  1.00  0.00     0.164 HD
ATOM     23  G   UNL     1      12.651   3.983  -0.146  1.00  0.00     0.000 G0
ENDBRANCH  18  19
BRANCH  18  24
ATOM     24  C   UNL     1       8.956   1.256  -1.637  1.00  0.00     0.038 C 
BRANCH  24  25
ATOM     25  C   UNL     1       9.374   0.070  -2.531  1.00  0.00    -0.015 C 
ATOM     26  C   UNL     1       9.697   0.501  -3.962  1.00  0.00     0.007 C 
ATOM     27  C   UNL     1       8.260  -0.980  -2.548  1.00  0.00     0.007 C 
ENDBRANCH  24  25
ENDBRANCH  18  24
ENDBRANCH  15  18
ENDBRANCH  13  14
BRANCH  13  28
ATOM     28  C   UNL     1       5.209   3.385  -3.167  1.00  0.00     0.327 C 
ATOM     29  O   UNL     1       5.503   2.358  -3.759  1.00  0.00    -0.250 OA
BRANCH  28  30
ATOM     30  O   UNL     1       4.118   4.091  -3.526  1.00  0.00    -0.480 OA
ATOM     31  H   UNL     1       4.416   4.619  -4.297  1.00  0.00     0.296 HD
ENDBRANCH  28  30
ENDBRANCH  13  28
ENDBRANCH  11  13
ENDBRANCH   8  11
ENDBRANCH   6   7
BRANCH   6  32
ATOM     32  C   UNL     1       1.694   2.068   1.576  1.00  0.00     0.037 C 
BRANCH  32  33
ATOM     33  C   UNL     1       1.213   3.525   1.524  1.00  0.00     0.026 C 
BRANCH  33  34
ATOM     34  C   UNL     1       1.605   4.315   2.773  1.00  0.00     0.146 C 
BRANCH  34  35
ATOM     35  N   UNL     1       3.057   4.371   2.857  1.00  0.00    -0.254 NA
ATOM     36  C   UNL     1       3.598   5.332   3.510  1.00  0.00     0.185 C 
ATOM     37  N   UNL     1       4.936   5.391   3.598  1.00  0.00    -0.370 N 
ATOM     38  N   UNL     1       3.007   6.350   4.160  1.00  0.00    -0.370 N 
ATOM     39  H   UNL     1       5.454   4.651   3.142  1.00  0.00     0.159 HD
ATOM     40  H   UNL     1       5.425   6.003   4.228  1.00  0.00     0.159 HD
ATOM     41  H   UNL     1       3.545   7.122   4.518  1.00  0.00     0.159 HD
ATOM     42  H   UNL     1       2.003   6.442   4.164  1.00  0.00     0.159 HD
ENDBRANCH  34  35
ENDBRANCH  33  34
ENDBRANCH  32  33
ENDBRANCH   6  32
ENDBRANCH   4   6
ENDBRANCH   1   2
BRANCH   1  43
ATOM     43  C   UNL     1       2.023   0.975  -3.925  1.00  0.00     0.102 C 
ATOM     44  C   UNL     1       2.125   1.799  -5.220  1.00  0.00     0.020 C 
BRANCH  43  45
ATOM     45  C   UNL     1       1.892  -0.533  -4.156  1.00  0.00     0.225 C 
ATOM     46  O   UNL     1       2.606  -1.157  -4.936  1.00  0.00    -0.275 OA
ATOM     47  N   UNL     1       0.850  -1.145  -3.498  1.00  0.00    -0.342 N 
ATOM     48  H   UNL     1       0.373  -0.657  -2.752  1.00  0.00     0.164 HD
BRANCH  47  49
ATOM     49  C   UNL     1       0.624  -2.590  -3.597  1.00  0.00     0.192 C 
BRANCH  49  50
ATOM     50  C   UNL     1      -0.825  -2.857  -4.014  1.00  0.00     0.047 C 
BRANCH  50  51
ATOM     51  C   UNL     1      -1.129  -2.336  -5.425  1.00  0.00     0.103 C 
BRANCH  51  52
ATOM     52  C   UNL     1      -1.746  -0.939  -5.400  1.00  0.00     0.226 C 
ATOM     53  O   UNL     1      -2.029  -0.416  -4.320  1.00  0.00    -0.275 OA
BRANCH  52  54
ATOM     54  N   UNL     1      -1.884  -0.292  -6.642  1.00  0.00    -0.311 N 
ATOM     55  C   UNL     1      -0.910   0.715  -7.083  1.00  0.00     0.153 C 
BRANCH  54  56
ATOM     56  C   UNL     1      -2.951  -0.588  -7.507  1.00  0.00     0.102 C 
ATOM     57  C   UNL     1      -2.903  -1.482  -8.507  1.00  0.00     0.043 C 
BRANCH  56  58
ATOM     58  C   UNL     1      -4.296   0.078  -7.334  1.00  0.00     0.268 C 
ATOM     59  O   UNL     1      -4.488   1.266  -7.555  1.00  0.00    -0.268 OA
ATOM     60  N   UNL     1      -5.290  -0.799  -6.970  1.00  0.00    -0.339 N 
ATOM     61  H   UNL     1      -5.046  -1.767  -6.796  1.00  0.00     0.164 HD
BRANCH  60  62
ATOM     62  C   UNL     1      -6.680  -0.377  -6.810  1.00  0.00     0.168 CG0
ATOM     63  C   UNL     1      -7.478  -1.410  -6.023  1.00  0.00     0.041 C 
ATOM     64  G   UNL     1      -7.312  -0.140  -8.197  1.00  0.00     0.000 G0
ENDBRANCH  60  62
ENDBRANCH  56  58
ENDBRANCH  54  56
ENDBRANCH  52  54
ENDBRANCH  51  52
ENDBRANCH  50  51
ENDBRANCH  49  50
BRANCH  49  65
ATOM     65  C   UNL     1       0.909  -3.300  -2.264  1.00  0.00     0.326 C 
ATOM     66  O   UNL     1       1.512  -4.356  -2.136  1.00  0.00    -0.250 OA
BRANCH  65  67
ATOM     67  O   UNL     1       0.379  -2.695  -1.178  1.00  0.00    -0.480 OA
ATOM     68  H   UNL     1       0.768  -3.190  -0.425  1.00  0.00     0.296 HD
ENDBRANCH  65  67
ENDBRANCH  49  65
ENDBRANCH  47  49
ENDBRANCH  43  45
ENDBRANCH   1  43
BRANCH   1  69
ATOM     69  C   UNL     1       0.037   2.641  -3.385  1.00  0.00    -0.001 C 
ATOM     70  C   UNL     1      -1.181   2.957  -2.912  1.00  0.00     0.001 C 
BRANCH  70  71
ATOM     71  C   UNL     1      -2.019   4.085  -3.325  1.00  0.00    -0.055 C 
ATOM     72  C   UNL     1      -1.459   5.029  -4.110  1.00  0.00    -0.018 C 
ATOM     73  C   UNL     1      -3.449   4.107  -2.853  1.00  0.00     0.044 C 
BRANCH  72  74
ATOM     74  C   UNL     1      -2.079   6.293  -4.689  1.00  0.00     0.038 C 
ATOM     75  C   UNL     1      -2.089   6.135  -6.214  1.00  0.00     0.015 C 
BRANCH  74  76
ATOM     76  C   UNL     1      -1.284   7.525  -4.165  1.00  0.00     0.128 C 
BRANCH  76  77
ATOM     77  O   UNL     1      -0.787   8.295  -5.272  1.00  0.00    -0.381 OA
ATOM     78  C   UNL     1       0.599   8.599  -5.180  1.00  0.00     0.195 C 
ENDBRANCH  76  77
BRANCH  76  79
ATOM     79  C   UNL     1      -2.063   8.386  -3.138  1.00  0.00     0.068 C 
BRANCH  79  80
ATOM     80  C   UNL     1      -2.669   7.687  -1.945  1.00  0.00    -0.045 A 
ATOM     81  C   UNL     1      -1.865   7.004  -1.023  1.00  0.00     0.004 A 
ATOM     82  C   UNL     1      -4.059   7.688  -1.756  1.00  0.00     0.004 A 
ATOM     83  C   UNL     1      -2.435   6.348   0.070  1.00  0.00     0.000 A 
ATOM     84  C   UNL     1      -4.628   7.032  -0.663  1.00  0.00     0.000 A 
ATOM     85  C   UNL     1      -3.816   6.363   0.250  1.00  0.00     0.000 A 
ENDBRANCH  79  80
ENDBRANCH  76  79
ENDBRANCH  74  76
ENDBRANCH  72  74
ENDBRANCH  70  71
ENDBRANCH   1  69
TORSDOF 17
ENDMDL
MODEL 43
REMARK VINA RESULT:    -5.669      6.786     12.469
REMARK INTER + INTRA:         -24.218
REMARK INTER:                 -16.525
REMARK INTRA:                  -7.693
REMARK UNBOUND:                -7.281
REMARK SMILES C=C1C(=O)N[C@H](C)C(=O)N[C@@H](CC(C)C)C(=O)N[C@@H](C(=O)O)[C@H](C)C(=O)N[C@@H](CCCN=C(N)N)C(=O)N[C@@H](/C=C/C(C)=C/[C@H](C)[C@H](Cc2ccccc2)OC)[C@H](C)C(=O)N[C@@H](C(=O)O)CCC(=O)N1C
REMARK SMILES IDX 39 1 38 2 37 3 36 4 28 6 27 7 25 8 26 9 23 11 24 12 19 13
REMARK SMILES IDX 18 14 16 15 17 16 11 18 10 19 8 20 9 21 12 24 13 25 14 26
REMARK SMILES IDX 15 27 20 28 21 29 22 30 29 32 30 33 31 34 32 35 33 36 34 37
REMARK SMILES IDX 35 38 57 43 58 44 59 45 60 46 61 47 62 49 66 50 67 51 68 52
REMARK SMILES IDX 69 53 70 54 71 55 2 56 1 57 3 58 4 59 5 60 6 62 7 63 63 65
REMARK SMILES IDX 64 66 65 67 40 69 41 70 42 71 44 72 43 73 45 74 46 75 47 76
REMARK SMILES IDX 55 77 56 78 48 79 49 80 50 81 54 82 51 83 53 84 52 85
REMARK H PARENT 38 5 27 10 18 17 10 22 22 31 34 39 34 40 35 41 35 42 61 48
REMARK H PARENT 5 61 65 68
REMARK Flexibility Score:  369.900
ROOT
ATOM      1  C   UNL     1       0.807   1.795   0.828  1.00  0.00     0.117 C 
ENDROOT
BRANCH   1   2
ATOM      2  N   UNL     1      -0.002   2.436  -0.209  1.00  0.00    -0.347 N 
ATOM      3  O   UNL     1      -1.196   0.587  -0.862  1.00  0.00    -0.273 OA
ATOM      4  C   UNL     1      -1.007   1.798  -0.911  1.00  0.00     0.243 C 
ATOM      5  H   UNL     1       0.132   3.416  -0.406  1.00  0.00     0.164 HD
BRANCH   4   6
ATOM      6  C   UNL     1      -1.769   2.725  -1.891  1.00  0.00     0.171 C 
BRANCH   6   7
ATOM      7  N   UNL     1      -1.953   4.060  -1.298  1.00  0.00    -0.344 N 
ATOM      8  C   UNL     1      -3.127   4.388  -0.656  1.00  0.00     0.226 C 
ATOM      9  O   UNL     1      -4.069   3.611  -0.565  1.00  0.00    -0.275 OA
ATOM     10  H   UNL     1      -1.222   4.752  -1.412  1.00  0.00     0.164 HD
BRANCH   8  11
ATOM     11  C   UNL     1      -3.140   5.781  -0.051  1.00  0.00     0.109 C 
ATOM     12  C   UNL     1      -1.865   6.533  -0.433  1.00  0.00     0.021 C 
BRANCH  11  13
ATOM     13  C   UNL     1      -4.453   6.499  -0.425  1.00  0.00     0.204 C 
BRANCH  13  14
ATOM     14  N   UNL     1      -5.586   6.028   0.378  1.00  0.00    -0.340 N 
ATOM     15  C   UNL     1      -6.840   5.813  -0.152  1.00  0.00     0.243 C 
ATOM     16  O   UNL     1      -7.081   5.942  -1.351  1.00  0.00    -0.273 OA
ATOM     17  H   UNL     1      -5.494   6.047   1.397  1.00  0.00     0.164 HD
BRANCH  15  18
ATOM     18  C   UNL     1      -7.922   5.521   0.916  1.00  0.00     0.171 C 
BRANCH  18  19
ATOM     19  N   UNL     1      -8.153   4.078   0.895  1.00  0.00    -0.343 N 
ATOM     20  C   UNL     1      -9.338   3.537   0.436  1.00  0.00     0.242 CG0
ATOM     21  O   UNL     1     -10.301   4.245   0.149  1.00  0.00    -0.273 OA
ATOM     22  H   UNL     1      -7.429   3.454   1.232  1.00  0.00     0.164 HD
ATOM     23  G   UNL     1      -9.368   1.995   0.415  1.00  0.00     0.000 G0
ENDBRANCH  18  19
BRANCH  18  24
ATOM     24  C   UNL     1      -7.459   5.996   2.299  1.00  0.00     0.038 C 
BRANCH  24  25
ATOM     25  C   UNL     1      -8.165   7.268   2.814  1.00  0.00    -0.015 C 
ATOM     26  C   UNL     1      -7.490   8.550   2.324  1.00  0.00     0.007 C 
ATOM     27  C   UNL     1      -8.198   7.256   4.344  1.00  0.00     0.007 C 
ENDBRANCH  24  25
ENDBRANCH  18  24
ENDBRANCH  15  18
ENDBRANCH  13  14
BRANCH  13  28
ATOM     28  C   UNL     1      -4.378   8.019  -0.257  1.00  0.00     0.327 C 
ATOM     29  O   UNL     1      -4.330   8.628   0.801  1.00  0.00    -0.250 OA
BRANCH  28  30
ATOM     30  O   UNL     1      -4.489   8.686  -1.424  1.00  0.00    -0.480 OA
ATOM     31  H   UNL     1      -5.209   8.222  -1.899  1.00  0.00     0.296 HD
ENDBRANCH  28  30
ENDBRANCH  13  28
ENDBRANCH  11  13
ENDBRANCH   8  11
ENDBRANCH   6   7
BRANCH   6  32
ATOM     32  C   UNL     1      -0.991   2.814  -3.208  1.00  0.00     0.037 C 
BRANCH  32  33
ATOM     33  C   UNL     1      -0.737   4.266  -3.635  1.00  0.00     0.026 C 
BRANCH  33  34
ATOM     34  C   UNL     1      -1.916   4.865  -4.402  1.00  0.00     0.146 C 
BRANCH  34  35
ATOM     35  N   UNL     1      -2.130   6.231  -3.944  1.00  0.00    -0.254 NA
ATOM     36  C   UNL     1      -2.410   7.133  -4.809  1.00  0.00     0.185 C 
ATOM     37  N   UNL     1      -2.614   8.394  -4.397  1.00  0.00    -0.370 N 
ATOM     38  N   UNL     1      -2.540   7.013  -6.142  1.00  0.00    -0.370 N 
ATOM     39  H   UNL     1      -2.544   8.563  -3.401  1.00  0.00     0.159 HD
ATOM     40  H   UNL     1      -3.004   9.114  -4.981  1.00  0.00     0.159 HD
ATOM     41  H   UNL     1      -2.624   7.825  -6.732  1.00  0.00     0.159 HD
ATOM     42  H   UNL     1      -2.398   6.123  -6.593  1.00  0.00     0.159 HD
ENDBRANCH  34  35
ENDBRANCH  33  34
ENDBRANCH  32  33
ENDBRANCH   6  32
ENDBRANCH   4   6
ENDBRANCH   1   2
BRANCH   1  43
ATOM     43  C   UNL     1       0.581   2.550   2.169  1.00  0.00     0.102 C 
ATOM     44  C   UNL     1      -0.886   2.549   2.632  1.00  0.00     0.020 C 
BRANCH  43  45
ATOM     45  C   UNL     1       1.219   3.941   2.132  1.00  0.00     0.225 C 
ATOM     46  O   UNL     1       0.596   4.958   1.841  1.00  0.00    -0.275 OA
ATOM     47  N   UNL     1       2.577   3.977   2.357  1.00  0.00    -0.342 N 
ATOM     48  H   UNL     1       3.041   3.166   2.741  1.00  0.00     0.164 HD
BRANCH  47  49
ATOM     49  C   UNL     1       3.316   5.242   2.388  1.00  0.00     0.192 C 
BRANCH  49  50
ATOM     50  C   UNL     1       4.720   5.031   1.817  1.00  0.00     0.047 C 
BRANCH  50  51
ATOM     51  C   UNL     1       5.573   6.306   1.885  1.00  0.00     0.103 C 
BRANCH  51  52
ATOM     52  C   UNL     1       6.849   6.100   2.699  1.00  0.00     0.226 C 
ATOM     53  O   UNL     1       6.937   5.136   3.462  1.00  0.00    -0.275 OA
BRANCH  52  54
ATOM     54  N   UNL     1       7.898   7.007   2.460  1.00  0.00    -0.311 N 
ATOM     55  C   UNL     1       7.887   8.350   3.055  1.00  0.00     0.153 C 
BRANCH  54  56
ATOM     56  C   UNL     1       8.995   6.662   1.653  1.00  0.00     0.102 C 
ATOM     57  C   UNL     1       9.136   7.004   0.361  1.00  0.00     0.043 C 
BRANCH  56  58
ATOM     58  C   UNL     1      10.162   5.888   2.219  1.00  0.00     0.268 C 
ATOM     59  O   UNL     1      10.225   4.666   2.204  1.00  0.00    -0.268 OA
ATOM     60  N   UNL     1      11.168   6.696   2.691  1.00  0.00    -0.339 N 
ATOM     61  H   UNL     1      11.034   7.700   2.678  1.00  0.00     0.164 HD
BRANCH  60  62
ATOM     62  C   UNL     1      12.417   6.154   3.226  1.00  0.00     0.168 CG0
ATOM     63  C   UNL     1      12.398   6.137   4.749  1.00  0.00     0.041 C 
ATOM     64  G   UNL     1      13.607   6.985   2.704  1.00  0.00     0.000 G0
ENDBRANCH  60  62
ENDBRANCH  56  58
ENDBRANCH  54  56
ENDBRANCH  52  54
ENDBRANCH  51  52
ENDBRANCH  50  51
ENDBRANCH  49  50
BRANCH  49  65
ATOM     65  C   UNL     1       3.424   5.801   3.815  1.00  0.00     0.326 C 
ATOM     66  O   UNL     1       3.012   6.892   4.184  1.00  0.00    -0.250 OA
BRANCH  65  67
ATOM     67  O   UNL     1       4.088   5.006   4.683  1.00  0.00    -0.480 OA
ATOM     68  H   UNL     1       3.505   4.989   5.472  1.00  0.00     0.296 HD
ENDBRANCH  65  67
ENDBRANCH  49  65
ENDBRANCH  47  49
ENDBRANCH  43  45
ENDBRANCH   1  43
BRANCH   1  69
ATOM     69  C   UNL     1       2.215   1.700   0.268  1.00  0.00    -0.001 C 
ATOM     70  C   UNL     1       2.578   1.643  -1.025  1.00  0.00     0.001 C 
BRANCH  70  71
ATOM     71  C   UNL     1       3.941   1.573  -1.554  1.00  0.00    -0.055 C 
ATOM     72  C   UNL     1       4.952   1.446  -0.669  1.00  0.00    -0.018 C 
ATOM     73  C   UNL     1       4.120   1.639  -3.049  1.00  0.00     0.044 C 
BRANCH  72  74
ATOM     74  C   UNL     1       6.449   1.347  -0.924  1.00  0.00     0.038 C 
ATOM     75  C   UNL     1       6.817  -0.142  -0.886  1.00  0.00     0.015 C 
BRANCH  74  76
ATOM     76  C   UNL     1       7.195   2.230   0.120  1.00  0.00     0.128 C 
BRANCH  76  77
ATOM     77  O   UNL     1       8.396   1.569   0.554  1.00  0.00    -0.381 OA
ATOM     78  C   UNL     1       9.575   2.061  -0.069  1.00  0.00     0.195 C 
ENDBRANCH  76  77
BRANCH  76  79
ATOM     79  C   UNL     1       7.447   3.684  -0.352  1.00  0.00     0.068 C 
BRANCH  79  80
ATOM     80  C   UNL     1       6.916   4.090  -1.705  1.00  0.00    -0.045 A 
ATOM     81  C   UNL     1       5.754   4.864  -1.822  1.00  0.00     0.004 A 
ATOM     82  C   UNL     1       7.568   3.673  -2.875  1.00  0.00     0.004 A 
ATOM     83  C   UNL     1       5.261   5.224  -3.078  1.00  0.00     0.000 A 
ATOM     84  C   UNL     1       7.074   4.033  -4.131  1.00  0.00     0.000 A 
ATOM     85  C   UNL     1       5.922   4.809  -4.232  1.00  0.00     0.000 A 
ENDBRANCH  79  80
ENDBRANCH  76  79
ENDBRANCH  74  76
ENDBRANCH  72  74
ENDBRANCH  70  71
ENDBRANCH   1  69
TORSDOF 17
ENDMDL
MODEL 44
REMARK VINA RESULT:    -5.636      5.696     12.069
REMARK INTER + INTRA:         -24.119
REMARK INTER:                 -17.014
REMARK INTRA:                  -7.105
REMARK UNBOUND:                -7.281
REMARK SMILES C=C1C(=O)N[C@H](C)C(=O)N[C@@H](CC(C)C)C(=O)N[C@@H](C(=O)O)[C@H](C)C(=O)N[C@@H](CCCN=C(N)N)C(=O)N[C@@H](/C=C/C(C)=C/[C@H](C)[C@H](Cc2ccccc2)OC)[C@H](C)C(=O)N[C@@H](C(=O)O)CCC(=O)N1C
REMARK SMILES IDX 39 1 38 2 37 3 36 4 28 6 27 7 25 8 26 9 23 11 24 12 19 13
REMARK SMILES IDX 18 14 16 15 17 16 11 18 10 19 8 20 9 21 12 24 13 25 14 26
REMARK SMILES IDX 15 27 20 28 21 29 22 30 29 32 30 33 31 34 32 35 33 36 34 37
REMARK SMILES IDX 35 38 57 43 58 44 59 45 60 46 61 47 62 49 66 50 67 51 68 52
REMARK SMILES IDX 69 53 70 54 71 55 2 56 1 57 3 58 4 59 5 60 6 62 7 63 63 65
REMARK SMILES IDX 64 66 65 67 40 69 41 70 42 71 44 72 43 73 45 74 46 75 47 76
REMARK SMILES IDX 55 77 56 78 48 79 49 80 50 81 54 82 51 83 53 84 52 85
REMARK H PARENT 38 5 27 10 18 17 10 22 22 31 34 39 34 40 35 41 35 42 61 48
REMARK H PARENT 5 61 65 68
REMARK Flexibility Score:  369.900
ROOT
ATOM      1  C   UNL     1       1.853   5.272   1.954  1.00  0.00     0.117 C 
ENDROOT
BRANCH   1   2
ATOM      2  N   UNL     1       0.985   4.363   1.205  1.00  0.00    -0.347 N 
ATOM      3  O   UNL     1      -0.570   3.986   2.851  1.00  0.00    -0.273 OA
ATOM      4  C   UNL     1      -0.210   3.863   1.685  1.00  0.00     0.243 C 
ATOM      5  H   UNL     1       1.231   4.112   0.259  1.00  0.00     0.164 HD
BRANCH   4   6
ATOM      6  C   UNL     1      -0.978   2.992   0.659  1.00  0.00     0.171 C 
BRANCH   6   7
ATOM      7  N   UNL     1      -1.270   3.766  -0.558  1.00  0.00    -0.344 N 
ATOM      8  C   UNL     1      -2.567   4.096  -0.887  1.00  0.00     0.226 C 
ATOM      9  O   UNL     1      -3.528   3.750  -0.211  1.00  0.00    -0.275 OA
ATOM     10  H   UNL     1      -0.508   4.012  -1.177  1.00  0.00     0.164 HD
BRANCH   8  11
ATOM     11  C   UNL     1      -2.698   4.943  -2.141  1.00  0.00     0.109 C 
ATOM     12  C   UNL     1      -3.577   4.229  -3.168  1.00  0.00     0.021 C 
BRANCH  11  13
ATOM     13  C   UNL     1      -3.163   6.363  -1.765  1.00  0.00     0.204 C 
BRANCH  13  14
ATOM     14  N   UNL     1      -4.346   6.345  -0.898  1.00  0.00    -0.340 N 
ATOM     15  C   UNL     1      -5.149   7.448  -0.705  1.00  0.00     0.243 C 
ATOM     16  O   UNL     1      -4.964   8.511  -1.295  1.00  0.00    -0.273 OA
ATOM     17  H   UNL     1      -4.466   5.548  -0.267  1.00  0.00     0.164 HD
BRANCH  15  18
ATOM     18  C   UNL     1      -6.209   7.254   0.407  1.00  0.00     0.171 C 
BRANCH  18  19
ATOM     19  N   UNL     1      -7.516   7.407  -0.230  1.00  0.00    -0.343 N 
ATOM     20  C   UNL     1      -8.419   8.367   0.182  1.00  0.00     0.242 CG0
ATOM     21  O   UNL     1      -8.222   9.048   1.185  1.00  0.00    -0.273 OA
ATOM     22  H   UNL     1      -7.773   6.789  -0.991  1.00  0.00     0.164 HD
ATOM     23  G   UNL     1      -9.711   8.429  -0.660  1.00  0.00     0.000 G0
ENDBRANCH  18  19
BRANCH  18  24
ATOM     24  C   UNL     1      -6.061   5.875   1.062  1.00  0.00     0.038 C 
BRANCH  24  25
ATOM     25  C   UNL     1      -5.692   5.910   2.560  1.00  0.00    -0.015 C 
ATOM     26  C   UNL     1      -6.579   6.865   3.359  1.00  0.00     0.007 C 
ATOM     27  C   UNL     1      -4.224   6.314   2.720  1.00  0.00     0.007 C 
ENDBRANCH  24  25
ENDBRANCH  18  24
ENDBRANCH  15  18
ENDBRANCH  13  14
BRANCH  13  28
ATOM     28  C   UNL     1      -2.086   7.181  -1.045  1.00  0.00     0.327 C 
ATOM     29  O   UNL     1      -1.522   6.877  -0.005  1.00  0.00    -0.250 OA
BRANCH  28  30
ATOM     30  O   UNL     1      -1.868   8.384  -1.612  1.00  0.00    -0.480 OA
ATOM     31  H   UNL     1      -0.892   8.454  -1.664  1.00  0.00     0.296 HD
ENDBRANCH  28  30
ENDBRANCH  13  28
ENDBRANCH  11  13
ENDBRANCH   8  11
ENDBRANCH   6   7
BRANCH   6  32
ATOM     32  C   UNL     1      -0.144   1.749   0.330  1.00  0.00     0.037 C 
BRANCH  32  33
ATOM     33  C   UNL     1      -0.693   0.987  -0.884  1.00  0.00     0.026 C 
BRANCH  33  34
ATOM     34  C   UNL     1       0.415   0.499  -1.819  1.00  0.00     0.146 C 
BRANCH  34  35
ATOM     35  N   UNL     1       1.018   1.651  -2.475  1.00  0.00    -0.254 NA
ATOM     36  C   UNL     1       2.229   1.562  -2.882  1.00  0.00     0.185 C 
ATOM     37  N   UNL     1       2.793   2.616  -3.492  1.00  0.00    -0.370 N 
ATOM     38  N   UNL     1       3.076   0.521  -2.792  1.00  0.00    -0.370 N 
ATOM     39  H   UNL     1       2.214   3.437  -3.607  1.00  0.00     0.159 HD
ATOM     40  H   UNL     1       3.666   2.569  -3.989  1.00  0.00     0.159 HD
ATOM     41  H   UNL     1       4.051   0.621  -3.026  1.00  0.00     0.159 HD
ATOM     42  H   UNL     1       2.791  -0.334  -2.342  1.00  0.00     0.159 HD
ENDBRANCH  34  35
ENDBRANCH  33  34
ENDBRANCH  32  33
ENDBRANCH   6  32
ENDBRANCH   4   6
ENDBRANCH   1   2
BRANCH   1  43
ATOM     43  C   UNL     1       3.093   4.476   2.451  1.00  0.00     0.102 C 
ATOM     44  C   UNL     1       3.046   4.142   3.952  1.00  0.00     0.020 C 
BRANCH  43  45
ATOM     45  C   UNL     1       4.394   5.150   2.006  1.00  0.00     0.225 C 
ATOM     46  O   UNL     1       4.493   6.360   1.819  1.00  0.00    -0.275 OA
ATOM     47  N   UNL     1       5.440   4.299   1.733  1.00  0.00    -0.342 N 
ATOM     48  H   UNL     1       5.392   3.335   2.034  1.00  0.00     0.164 HD
BRANCH  47  49
ATOM     49  C   UNL     1       6.756   4.805   1.332  1.00  0.00     0.192 C 
BRANCH  49  50
ATOM     50  C   UNL     1       7.437   3.792   0.408  1.00  0.00     0.047 C 
BRANCH  50  51
ATOM     51  C   UNL     1       7.056   4.000  -1.065  1.00  0.00     0.103 C 
BRANCH  51  52
ATOM     52  C   UNL     1       5.962   3.035  -1.515  1.00  0.00     0.226 C 
ATOM     53  O   UNL     1       4.785   3.273  -1.236  1.00  0.00    -0.275 OA
BRANCH  52  54
ATOM     54  N   UNL     1       6.373   1.946  -2.307  1.00  0.00    -0.311 N 
ATOM     55  C   UNL     1       6.302   2.008  -3.773  1.00  0.00     0.153 C 
BRANCH  54  56
ATOM     56  C   UNL     1       6.869   0.766  -1.729  1.00  0.00     0.102 C 
ATOM     57  C   UNL     1       6.354   0.166  -0.643  1.00  0.00     0.043 C 
BRANCH  56  58
ATOM     58  C   UNL     1       8.041   0.036  -2.342  1.00  0.00     0.268 C 
ATOM     59  O   UNL     1       7.933  -1.035  -2.923  1.00  0.00    -0.268 OA
ATOM     60  N   UNL     1       9.224   0.729  -2.237  1.00  0.00    -0.339 N 
ATOM     61  H   UNL     1       9.231   1.606  -1.730  1.00  0.00     0.164 HD
BRANCH  60  62
ATOM     62  C   UNL     1      10.471   0.233  -2.818  1.00  0.00     0.168 CG0
ATOM     63  C   UNL     1      11.658   1.072  -2.361  1.00  0.00     0.041 C 
ATOM     64  G   UNL     1      10.361   0.234  -4.356  1.00  0.00     0.000 G0
ENDBRANCH  60  62
ENDBRANCH  56  58
ENDBRANCH  54  56
ENDBRANCH  52  54
ENDBRANCH  51  52
ENDBRANCH  50  51
ENDBRANCH  49  50
BRANCH  49  65
ATOM     65  C   UNL     1       7.657   5.069   2.549  1.00  0.00     0.326 C 
ATOM     66  O   UNL     1       8.731   4.528   2.769  1.00  0.00    -0.250 OA
BRANCH  65  67
ATOM     67  O   UNL     1       7.148   5.940   3.448  1.00  0.00    -0.480 OA
ATOM     68  H   UNL     1       6.193   5.971   3.226  1.00  0.00     0.296 HD
ENDBRANCH  65  67
ENDBRANCH  49  65
ENDBRANCH  47  49
ENDBRANCH  43  45
ENDBRANCH   1  43
BRANCH   1  69
ATOM     69  C   UNL     1       0.965   5.960   2.976  1.00  0.00    -0.001 C 
ATOM     70  C   UNL     1       1.027   7.240   3.382  1.00  0.00     0.001 C 
BRANCH  70  71
ATOM     71  C   UNL     1       0.150   7.898   4.353  1.00  0.00    -0.055 C 
ATOM     72  C   UNL     1      -1.165   7.596   4.318  1.00  0.00    -0.018 C 
ATOM     73  C   UNL     1       0.779   8.859   5.328  1.00  0.00     0.044 C 
BRANCH  72  74
ATOM     74  C   UNL     1      -2.296   8.115   5.193  1.00  0.00     0.038 C 
ATOM     75  C   UNL     1      -2.363   9.634   4.994  1.00  0.00     0.015 C 
BRANCH  74  76
ATOM     76  C   UNL     1      -2.043   7.659   6.661  1.00  0.00     0.128 C 
BRANCH  76  77
ATOM     77  O   UNL     1      -1.532   8.758   7.435  1.00  0.00    -0.381 OA
ATOM     78  C   UNL     1      -2.162   8.907   8.700  1.00  0.00     0.195 C 
ENDBRANCH  76  77
BRANCH  76  79
ATOM     79  C   UNL     1      -3.263   6.973   7.326  1.00  0.00     0.068 C 
BRANCH  79  80
ATOM     80  C   UNL     1      -3.838   5.749   6.656  1.00  0.00    -0.045 A 
ATOM     81  C   UNL     1      -5.223   5.551   6.580  1.00  0.00     0.004 A 
ATOM     82  C   UNL     1      -2.986   4.770   6.121  1.00  0.00     0.004 A 
ATOM     83  C   UNL     1      -5.746   4.408   5.971  1.00  0.00     0.000 A 
ATOM     84  C   UNL     1      -3.511   3.627   5.513  1.00  0.00     0.000 A 
ATOM     85  C   UNL     1      -4.890   3.448   5.437  1.00  0.00     0.000 A 
ENDBRANCH  79  80
ENDBRANCH  76  79
ENDBRANCH  74  76
ENDBRANCH  72  74
ENDBRANCH  70  71
ENDBRANCH   1  69
TORSDOF 17
ENDMDL
MODEL 45
REMARK VINA RESULT:    -5.625      5.205     11.557
REMARK INTER + INTRA:         -24.086
REMARK INTER:                 -18.000
REMARK INTRA:                  -6.087
REMARK UNBOUND:                -7.281
REMARK SMILES C=C1C(=O)N[C@H](C)C(=O)N[C@@H](CC(C)C)C(=O)N[C@@H](C(=O)O)[C@H](C)C(=O)N[C@@H](CCCN=C(N)N)C(=O)N[C@@H](/C=C/C(C)=C/[C@H](C)[C@H](Cc2ccccc2)OC)[C@H](C)C(=O)N[C@@H](C(=O)O)CCC(=O)N1C
REMARK SMILES IDX 39 1 38 2 37 3 36 4 28 6 27 7 25 8 26 9 23 11 24 12 19 13
REMARK SMILES IDX 18 14 16 15 17 16 11 18 10 19 8 20 9 21 12 24 13 25 14 26
REMARK SMILES IDX 15 27 20 28 21 29 22 30 29 32 30 33 31 34 32 35 33 36 34 37
REMARK SMILES IDX 35 38 57 43 58 44 59 45 60 46 61 47 62 49 66 50 67 51 68 52
REMARK SMILES IDX 69 53 70 54 71 55 2 56 1 57 3 58 4 59 5 60 6 62 7 63 63 65
REMARK SMILES IDX 64 66 65 67 40 69 41 70 42 71 44 72 43 73 45 74 46 75 47 76
REMARK SMILES IDX 55 77 56 78 48 79 49 80 50 81 54 82 51 83 53 84 52 85
REMARK H PARENT 38 5 27 10 18 17 10 22 22 31 34 39 34 40 35 41 35 42 61 48
REMARK H PARENT 5 61 65 68
REMARK Flexibility Score:  369.900
ROOT
ATOM      1  C   UNL     1      -0.015   1.750   0.028  1.00  0.00     0.117 C 
ENDROOT
BRANCH   1   2
ATOM      2  N   UNL     1       0.668   1.832  -1.263  1.00  0.00    -0.347 N 
ATOM      3  O   UNL     1       1.785  -0.171  -1.156  1.00  0.00    -0.273 OA
ATOM      4  C   UNL     1       1.444   0.820  -1.794  1.00  0.00     0.243 C 
ATOM      5  H   UNL     1       0.538   2.649  -1.840  1.00  0.00     0.164 HD
BRANCH   4   6
ATOM      6  C   UNL     1       1.982   1.126  -3.215  1.00  0.00     0.171 C 
BRANCH   6   7
ATOM      7  N   UNL     1       3.422   0.831  -3.294  1.00  0.00    -0.344 N 
ATOM      8  C   UNL     1       4.335   1.839  -3.517  1.00  0.00     0.226 C 
ATOM      9  O   UNL     1       4.002   3.007  -3.680  1.00  0.00    -0.275 OA
ATOM     10  H   UNL     1       3.729  -0.131  -3.232  1.00  0.00     0.164 HD
BRANCH   8  11
ATOM     11  C   UNL     1       5.783   1.382  -3.518  1.00  0.00     0.109 C 
ATOM     12  C   UNL     1       6.652   2.392  -4.268  1.00  0.00     0.021 C 
BRANCH  11  13
ATOM     13  C   UNL     1       6.236   1.082  -2.075  1.00  0.00     0.204 C 
BRANCH  13  14
ATOM     14  N   UNL     1       7.570   1.620  -1.793  1.00  0.00    -0.340 N 
ATOM     15  C   UNL     1       8.385   1.119  -0.800  1.00  0.00     0.243 C 
ATOM     16  O   UNL     1       8.073   0.143  -0.120  1.00  0.00    -0.273 OA
ATOM     17  H   UNL     1       7.825   2.518  -2.213  1.00  0.00     0.164 HD
BRANCH  15  18
ATOM     18  C   UNL     1       9.651   1.974  -0.549  1.00  0.00     0.171 C 
BRANCH  18  19
ATOM     19  N   UNL     1      10.584   1.668  -1.632  1.00  0.00    -0.343 N 
ATOM     20  C   UNL     1      11.351   0.519  -1.631  1.00  0.00     0.242 CG0
ATOM     21  O   UNL     1      11.383  -0.232  -0.659  1.00  0.00    -0.273 OA
ATOM     22  H   UNL     1      10.679   2.318  -2.404  1.00  0.00     0.164 HD
ATOM     23  G   UNL     1      12.216   0.330  -2.894  1.00  0.00     0.000 G0
ENDBRANCH  18  19
BRANCH  18  24
ATOM     24  C   UNL     1       9.299   3.466  -0.514  1.00  0.00     0.038 C 
BRANCH  24  25
ATOM     25  C   UNL     1       9.659   4.182   0.805  1.00  0.00    -0.015 C 
ATOM     26  C   UNL     1      11.114   4.653   0.837  1.00  0.00     0.007 C 
ATOM     27  C   UNL     1       9.394   3.248   1.988  1.00  0.00     0.007 C 
ENDBRANCH  24  25
ENDBRANCH  18  24
ENDBRANCH  15  18
ENDBRANCH  13  14
BRANCH  13  28
ATOM     28  C   UNL     1       5.286   1.647  -1.014  1.00  0.00     0.327 C 
ATOM     29  O   UNL     1       4.520   1.002  -0.314  1.00  0.00    -0.250 OA
BRANCH  28  30
ATOM     30  O   UNL     1       5.269   2.995  -0.982  1.00  0.00    -0.480 OA
ATOM     31  H   UNL     1       6.215   3.248  -1.009  1.00  0.00     0.296 HD
ENDBRANCH  28  30
ENDBRANCH  13  28
ENDBRANCH  11  13
ENDBRANCH   8  11
ENDBRANCH   6   7
BRANCH   6  32
ATOM     32  C   UNL     1       1.197   0.301  -4.239  1.00  0.00     0.037 C 
BRANCH  32  33
ATOM     33  C   UNL     1       1.936  -0.985  -4.637  1.00  0.00     0.026 C 
BRANCH  33  34
ATOM     34  C   UNL     1       1.064  -2.232  -4.487  1.00  0.00     0.146 C 
BRANCH  34  35
ATOM     35  N   UNL     1       0.014  -1.957  -3.515  1.00  0.00    -0.254 NA
ATOM     36  C   UNL     1       0.139  -2.421  -2.328  1.00  0.00     0.185 C 
ATOM     37  N   UNL     1      -0.819  -2.169  -1.423  1.00  0.00    -0.370 N 
ATOM     38  N   UNL     1       1.135  -3.162  -1.811  1.00  0.00    -0.370 N 
ATOM     39  H   UNL     1      -1.601  -1.606  -1.734  1.00  0.00     0.159 HD
ATOM     40  H   UNL     1      -0.715  -2.345  -0.439  1.00  0.00     0.159 HD
ATOM     41  H   UNL     1       1.052  -3.584  -0.901  1.00  0.00     0.159 HD
ATOM     42  H   UNL     1       1.917  -3.441  -2.383  1.00  0.00     0.159 HD
ENDBRANCH  34  35
ENDBRANCH  33  34
ENDBRANCH  32  33
ENDBRANCH   6  32
ENDBRANCH   4   6
ENDBRANCH   1   2
BRANCH   1  43
ATOM     43  C   UNL     1      -1.525   2.055  -0.189  1.00  0.00     0.102 C 
ATOM     44  C   UNL     1      -1.846   2.578  -1.599  1.00  0.00     0.020 C 
BRANCH  43  45
ATOM     45  C   UNL     1      -2.077   2.930   0.940  1.00  0.00     0.225 C 
ATOM     46  O   UNL     1      -2.542   2.471   1.979  1.00  0.00    -0.275 OA
ATOM     47  N   UNL     1      -2.109   4.281   0.680  1.00  0.00    -0.342 N 
ATOM     48  H   UNL     1      -1.591   4.652  -0.104  1.00  0.00     0.164 HD
BRANCH  47  49
ATOM     49  C   UNL     1      -2.579   5.243   1.682  1.00  0.00     0.192 C 
BRANCH  49  50
ATOM     50  C   UNL     1      -3.309   6.395   0.986  1.00  0.00     0.047 C 
BRANCH  50  51
ATOM     51  C   UNL     1      -4.237   7.158   1.942  1.00  0.00     0.103 C 
BRANCH  51  52
ATOM     52  C   UNL     1      -5.663   7.251   1.403  1.00  0.00     0.226 C 
ATOM     53  O   UNL     1      -6.438   6.306   1.562  1.00  0.00    -0.275 OA
BRANCH  52  54
ATOM     54  N   UNL     1      -6.030   8.474   0.811  1.00  0.00    -0.311 N 
ATOM     55  C   UNL     1      -6.101   8.616  -0.649  1.00  0.00     0.153 C 
BRANCH  54  56
ATOM     56  C   UNL     1      -6.348   9.599   1.591  1.00  0.00     0.102 C 
ATOM     57  C   UNL     1      -5.671  10.759   1.577  1.00  0.00     0.043 C 
BRANCH  56  58
ATOM     58  C   UNL     1      -7.551   9.595   2.504  1.00  0.00     0.268 C 
ATOM     59  O   UNL     1      -8.575  10.221   2.265  1.00  0.00    -0.268 OA
ATOM     60  N   UNL     1      -7.403   8.766   3.590  1.00  0.00    -0.339 N 
ATOM     61  H   UNL     1      -6.519   8.289   3.721  1.00  0.00     0.164 HD
BRANCH  60  62
ATOM     62  C   UNL     1      -8.471   8.564   4.568  1.00  0.00     0.168 CG0
ATOM     63  C   UNL     1      -8.077   7.513   5.599  1.00  0.00     0.041 C 
ATOM     64  G   UNL     1      -9.768   8.156   3.840  1.00  0.00     0.000 G0
ENDBRANCH  60  62
ENDBRANCH  56  58
ENDBRANCH  54  56
ENDBRANCH  52  54
ENDBRANCH  51  52
ENDBRANCH  50  51
ENDBRANCH  49  50
BRANCH  49  65
ATOM     65  C   UNL     1      -1.417   5.806   2.515  1.00  0.00     0.326 C 
ATOM     66  O   UNL     1      -1.114   5.448   3.644  1.00  0.00    -0.250 OA
BRANCH  65  67
ATOM     67  O   UNL     1      -0.740   6.817   1.928  1.00  0.00    -0.480 OA
ATOM     68  H   UNL     1      -0.119   6.358   1.322  1.00  0.00     0.296 HD
ENDBRANCH  65  67
ENDBRANCH  49  65
ENDBRANCH  47  49
ENDBRANCH  43  45
ENDBRANCH   1  43
BRANCH   1  69
ATOM     69  C   UNL     1       0.780   2.621   0.984  1.00  0.00    -0.001 C 
ATOM     70  C   UNL     1       2.117   2.716   1.083  1.00  0.00     0.001 C 
BRANCH  70  71
ATOM     71  C   UNL     1       2.873   3.578   1.995  1.00  0.00    -0.055 C 
ATOM     72  C   UNL     1       3.816   4.382   1.462  1.00  0.00    -0.018 C 
ATOM     73  C   UNL     1       2.538   3.511   3.463  1.00  0.00     0.044 C 
BRANCH  72  74
ATOM     74  C   UNL     1       4.741   5.372   2.155  1.00  0.00     0.038 C 
ATOM     75  C   UNL     1       3.867   6.519   2.678  1.00  0.00     0.015 C 
BRANCH  74  76
ATOM     76  C   UNL     1       5.853   5.804   1.154  1.00  0.00     0.128 C 
BRANCH  76  77
ATOM     77  O   UNL     1       5.372   5.686  -0.196  1.00  0.00    -0.381 OA
ATOM     78  C   UNL     1       5.500   6.881  -0.954  1.00  0.00     0.195 C 
ENDBRANCH  76  77
BRANCH  76  79
ATOM     79  C   UNL     1       6.464   7.196   1.453  1.00  0.00     0.068 C 
BRANCH  79  80
ATOM     80  C   UNL     1       7.833   7.246   2.088  1.00  0.00    -0.045 A 
ATOM     81  C   UNL     1       8.862   8.013   1.525  1.00  0.00     0.004 A 
ATOM     82  C   UNL     1       8.104   6.498   3.243  1.00  0.00     0.004 A 
ATOM     83  C   UNL     1      10.129   8.043   2.111  1.00  0.00     0.000 A 
ATOM     84  C   UNL     1       9.372   6.528   3.828  1.00  0.00     0.000 A 
ATOM     85  C   UNL     1      10.383   7.301   3.263  1.00  0.00     0.000 A 
ENDBRANCH  79  80
ENDBRANCH  76  79
ENDBRANCH  74  76
ENDBRANCH  72  74
ENDBRANCH  70  71
ENDBRANCH   1  69
TORSDOF 17
ENDMDL
MODEL 46
REMARK VINA RESULT:    -5.625      2.991      8.075
REMARK INTER + INTRA:         -24.086
REMARK INTER:                 -19.727
REMARK INTRA:                  -4.359
REMARK UNBOUND:                -7.281
REMARK SMILES C=C1C(=O)N[C@H](C)C(=O)N[C@@H](CC(C)C)C(=O)N[C@@H](C(=O)O)[C@H](C)C(=O)N[C@@H](CCCN=C(N)N)C(=O)N[C@@H](/C=C/C(C)=C/[C@H](C)[C@H](Cc2ccccc2)OC)[C@H](C)C(=O)N[C@@H](C(=O)O)CCC(=O)N1C
REMARK SMILES IDX 39 1 38 2 37 3 36 4 28 6 27 7 25 8 26 9 23 11 24 12 19 13
REMARK SMILES IDX 18 14 16 15 17 16 11 18 10 19 8 20 9 21 12 24 13 25 14 26
REMARK SMILES IDX 15 27 20 28 21 29 22 30 29 32 30 33 31 34 32 35 33 36 34 37
REMARK SMILES IDX 35 38 57 43 58 44 59 45 60 46 61 47 62 49 66 50 67 51 68 52
REMARK SMILES IDX 69 53 70 54 71 55 2 56 1 57 3 58 4 59 5 60 6 62 7 63 63 65
REMARK SMILES IDX 64 66 65 67 40 69 41 70 42 71 44 72 43 73 45 74 46 75 47 76
REMARK SMILES IDX 55 77 56 78 48 79 49 80 50 81 54 82 51 83 53 84 52 85
REMARK H PARENT 38 5 27 10 18 17 10 22 22 31 34 39 34 40 35 41 35 42 61 48
REMARK H PARENT 5 61 65 68
REMARK Flexibility Score:  369.900
ROOT
ATOM      1  C   UNL     1       6.010   1.142  -0.600  1.00  0.00     0.117 C 
ENDROOT
BRANCH   1   2
ATOM      2  N   UNL     1       6.464   0.620  -1.890  1.00  0.00    -0.347 N 
ATOM      3  O   UNL     1       5.950   2.456  -3.168  1.00  0.00    -0.273 OA
ATOM      4  C   UNL     1       6.481   1.356  -3.059  1.00  0.00     0.243 C 
ATOM      5  H   UNL     1       6.836  -0.316  -1.941  1.00  0.00     0.164 HD
BRANCH   4   6
ATOM      6  C   UNL     1       7.089   0.596  -4.265  1.00  0.00     0.171 C 
BRANCH   6   7
ATOM      7  N   UNL     1       6.068   0.373  -5.300  1.00  0.00    -0.344 N 
ATOM      8  C   UNL     1       6.395  -0.243  -6.489  1.00  0.00     0.226 C 
ATOM      9  O   UNL     1       7.534  -0.611  -6.750  1.00  0.00    -0.275 OA
ATOM     10  H   UNL     1       5.130   0.723  -5.148  1.00  0.00     0.164 HD
BRANCH   8  11
ATOM     11  C   UNL     1       5.221  -0.450  -7.430  1.00  0.00     0.109 C 
ATOM     12  C   UNL     1       5.250   0.598  -8.543  1.00  0.00     0.021 C 
BRANCH  11  13
ATOM     13  C   UNL     1       5.193  -1.912  -7.916  1.00  0.00     0.204 C 
BRANCH  13  14
ATOM     14  N   UNL     1       6.263  -2.194  -8.879  1.00  0.00    -0.340 N 
ATOM     15  C   UNL     1       6.044  -2.853 -10.070  1.00  0.00     0.243 C 
ATOM     16  O   UNL     1       4.922  -3.197 -10.437  1.00  0.00    -0.273 OA
ATOM     17  H   UNL     1       7.231  -2.072  -8.571  1.00  0.00     0.164 HD
BRANCH  15  18
ATOM     18  C   UNL     1       7.346  -3.220 -10.822  1.00  0.00     0.171 C 
BRANCH  18  19
ATOM     19  N   UNL     1       6.942  -3.757 -12.120  1.00  0.00    -0.343 N 
ATOM     20  C   UNL     1       7.602  -4.819 -12.707  1.00  0.00     0.242 CG0
ATOM     21  O   UNL     1       8.638  -5.276 -12.230  1.00  0.00    -0.273 OA
ATOM     22  H   UNL     1       6.161  -3.337 -12.611  1.00  0.00     0.164 HD
ATOM     23  G   UNL     1       6.984  -5.296 -14.038  1.00  0.00     0.000 G0
ENDBRANCH  18  19
BRANCH  18  24
ATOM     24  C   UNL     1       8.247  -1.989 -10.978  1.00  0.00     0.038 C 
BRANCH  24  25
ATOM     25  C   UNL     1       9.645  -2.128 -10.338  1.00  0.00    -0.015 C 
ATOM     26  C   UNL     1      10.723  -2.493 -11.359  1.00  0.00     0.007 C 
ATOM     27  C   UNL     1       9.602  -3.188  -9.234  1.00  0.00     0.007 C 
ENDBRANCH  24  25
ENDBRANCH  18  24
ENDBRANCH  15  18
ENDBRANCH  13  14
BRANCH  13  28
ATOM     28  C   UNL     1       5.327  -2.929  -6.779  1.00  0.00     0.327 C 
ATOM     29  O   UNL     1       6.202  -3.775  -6.664  1.00  0.00    -0.250 OA
BRANCH  28  30
ATOM     30  O   UNL     1       4.289  -2.900  -5.918  1.00  0.00    -0.480 OA
ATOM     31  H   UNL     1       4.406  -3.705  -5.373  1.00  0.00     0.296 HD
ENDBRANCH  28  30
ENDBRANCH  13  28
ENDBRANCH  11  13
ENDBRANCH   8  11
ENDBRANCH   6   7
BRANCH   6  32
ATOM     32  C   UNL     1       8.269   1.400  -4.823  1.00  0.00     0.037 C 
BRANCH  32  33
ATOM     33  C   UNL     1       9.459   1.431  -3.855  1.00  0.00     0.026 C 
BRANCH  33  34
ATOM     34  C   UNL     1       9.891   0.032  -3.414  1.00  0.00     0.146 C 
BRANCH  34  35
ATOM     35  N   UNL     1       9.805  -0.051  -1.963  1.00  0.00    -0.254 NA
ATOM     36  C   UNL     1      10.856   0.190  -1.270  1.00  0.00     0.185 C 
ATOM     37  N   UNL     1      10.786   0.121   0.068  1.00  0.00    -0.370 N 
ATOM     38  N   UNL     1      12.089   0.520  -1.693  1.00  0.00    -0.370 N 
ATOM     39  H   UNL     1       9.885  -0.113   0.465  1.00  0.00     0.159 HD
ATOM     40  H   UNL     1      11.508   0.461   0.681  1.00  0.00     0.159 HD
ATOM     41  H   UNL     1      12.868   0.548  -1.056  1.00  0.00     0.159 HD
ATOM     42  H   UNL     1      12.291   0.593  -2.678  1.00  0.00     0.159 HD
ENDBRANCH  34  35
ENDBRANCH  33  34
ENDBRANCH  32  33
ENDBRANCH   6  32
ENDBRANCH   4   6
ENDBRANCH   1   2
BRANCH   1  43
ATOM     43  C   UNL     1       4.757   2.032  -0.839  1.00  0.00     0.102 C 
ATOM     44  C   UNL     1       4.642   3.205   0.150  1.00  0.00     0.020 C 
BRANCH  43  45
ATOM     45  C   UNL     1       3.488   1.180  -0.942  1.00  0.00     0.225 C 
ATOM     46  O   UNL     1       3.321   0.146  -0.301  1.00  0.00    -0.275 OA
ATOM     47  N   UNL     1       2.570   1.595  -1.880  1.00  0.00    -0.342 N 
ATOM     48  H   UNL     1       2.651   2.517  -2.284  1.00  0.00     0.164 HD
BRANCH  47  49
ATOM     49  C   UNL     1       1.294   0.897  -2.064  1.00  0.00     0.192 C 
BRANCH  49  50
ATOM     50  C   UNL     1       0.559   0.807  -0.724  1.00  0.00     0.047 C 
BRANCH  50  51
ATOM     51  C   UNL     1      -0.635   1.769  -0.650  1.00  0.00     0.103 C 
BRANCH  51  52
ATOM     52  C   UNL     1      -0.502   2.760   0.504  1.00  0.00     0.226 C 
ATOM     53  O   UNL     1       0.593   2.923   1.046  1.00  0.00    -0.275 OA
BRANCH  52  54
ATOM     54  N   UNL     1      -1.654   3.498   0.833  1.00  0.00    -0.311 N 
ATOM     55  C   UNL     1      -2.984   2.875   0.804  1.00  0.00     0.153 C 
BRANCH  54  56
ATOM     56  C   UNL     1      -1.577   4.850   1.205  1.00  0.00     0.102 C 
ATOM     57  C   UNL     1      -1.508   5.880   0.346  1.00  0.00     0.043 C 
BRANCH  56  58
ATOM     58  C   UNL     1      -1.613   5.258   2.659  1.00  0.00     0.268 C 
ATOM     59  O   UNL     1      -1.818   4.468   3.571  1.00  0.00    -0.268 OA
ATOM     60  N   UNL     1      -1.327   6.588   2.854  1.00  0.00    -0.339 N 
ATOM     61  H   UNL     1      -1.179   7.178   2.045  1.00  0.00     0.164 HD
BRANCH  60  62
ATOM     62  C   UNL     1      -1.247   7.179   4.189  1.00  0.00     0.168 CG0
ATOM     63  C   UNL     1      -2.573   7.815   4.586  1.00  0.00     0.041 C 
ATOM     64  G   UNL     1      -0.109   8.220   4.226  1.00  0.00     0.000 G0
ENDBRANCH  60  62
ENDBRANCH  56  58
ENDBRANCH  54  56
ENDBRANCH  52  54
ENDBRANCH  51  52
ENDBRANCH  50  51
ENDBRANCH  49  50
BRANCH  49  65
ATOM     65  C   UNL     1       1.499  -0.518  -2.628  1.00  0.00     0.326 C 
ATOM     66  O   UNL     1       1.070  -1.549  -2.132  1.00  0.00    -0.250 OA
BRANCH  65  67
ATOM     67  O   UNL     1       2.270  -0.577  -3.736  1.00  0.00    -0.480 OA
ATOM     68  H   UNL     1       1.849  -1.282  -4.274  1.00  0.00     0.296 HD
ENDBRANCH  65  67
ENDBRANCH  49  65
ENDBRANCH  47  49
ENDBRANCH  43  45
ENDBRANCH   1  43
BRANCH   1  69
ATOM     69  C   UNL     1       7.231   1.756   0.062  1.00  0.00    -0.001 C 
ATOM     70  C   UNL     1       7.935   2.823  -0.354  1.00  0.00     0.001 C 
BRANCH  70  71
ATOM     71  C   UNL     1       9.099   3.420   0.305  1.00  0.00    -0.055 C 
ATOM     72  C   UNL     1       9.742   4.417  -0.339  1.00  0.00    -0.018 C 
ATOM     73  C   UNL     1       9.491   2.884   1.657  1.00  0.00     0.044 C 
BRANCH  72  74
ATOM     74  C   UNL     1      10.962   5.216   0.097  1.00  0.00     0.038 C 
ATOM     75  C   UNL     1      12.198   4.374  -0.241  1.00  0.00     0.015 C 
BRANCH  74  76
ATOM     76  C   UNL     1      10.811   5.578   1.604  1.00  0.00     0.128 C 
BRANCH  76  77
ATOM     77  O   UNL     1      12.108   5.731   2.205  1.00  0.00    -0.381 OA
ATOM     78  C   UNL     1      12.065   6.196   3.547  1.00  0.00     0.195 C 
ENDBRANCH  76  77
BRANCH  76  79
ATOM     79  C   UNL     1       9.880   6.787   1.871  1.00  0.00     0.068 C 
BRANCH  79  80
ATOM     80  C   UNL     1       8.397   6.528   1.984  1.00  0.00    -0.045 A 
ATOM     81  C   UNL     1       7.884   5.701   2.993  1.00  0.00     0.004 A 
ATOM     82  C   UNL     1       7.508   7.091   1.057  1.00  0.00     0.004 A 
ATOM     83  C   UNL     1       6.513   5.454   3.082  1.00  0.00     0.000 A 
ATOM     84  C   UNL     1       6.136   6.843   1.147  1.00  0.00     0.000 A 
ATOM     85  C   UNL     1       5.639   6.026   2.160  1.00  0.00     0.000 A 
ENDBRANCH  79  80
ENDBRANCH  76  79
ENDBRANCH  74  76
ENDBRANCH  72  74
ENDBRANCH  70  71
ENDBRANCH   1  69
TORSDOF 17
ENDMDL
MODEL 47
REMARK VINA RESULT:    -5.620      3.283     10.743
REMARK INTER + INTRA:         -24.072
REMARK INTER:                 -16.443
REMARK INTRA:                  -7.629
REMARK UNBOUND:                -7.281
REMARK SMILES C=C1C(=O)N[C@H](C)C(=O)N[C@@H](CC(C)C)C(=O)N[C@@H](C(=O)O)[C@H](C)C(=O)N[C@@H](CCCN=C(N)N)C(=O)N[C@@H](/C=C/C(C)=C/[C@H](C)[C@H](Cc2ccccc2)OC)[C@H](C)C(=O)N[C@@H](C(=O)O)CCC(=O)N1C
REMARK SMILES IDX 39 1 38 2 37 3 36 4 28 6 27 7 25 8 26 9 23 11 24 12 19 13
REMARK SMILES IDX 18 14 16 15 17 16 11 18 10 19 8 20 9 21 12 24 13 25 14 26
REMARK SMILES IDX 15 27 20 28 21 29 22 30 29 32 30 33 31 34 32 35 33 36 34 37
REMARK SMILES IDX 35 38 57 43 58 44 59 45 60 46 61 47 62 49 66 50 67 51 68 52
REMARK SMILES IDX 69 53 70 54 71 55 2 56 1 57 3 58 4 59 5 60 6 62 7 63 63 65
REMARK SMILES IDX 64 66 65 67 40 69 41 70 42 71 44 72 43 73 45 74 46 75 47 76
REMARK SMILES IDX 55 77 56 78 48 79 49 80 50 81 54 82 51 83 53 84 52 85
REMARK H PARENT 38 5 27 10 18 17 10 22 22 31 34 39 34 40 35 41 35 42 61 48
REMARK H PARENT 5 61 65 68
REMARK Flexibility Score:  369.900
ROOT
ATOM      1  C   UNL     1       1.815  -0.217  -2.549  1.00  0.00     0.117 C 
ENDROOT
BRANCH   1   2
ATOM      2  N   UNL     1       2.925   0.737  -2.531  1.00  0.00    -0.347 N 
ATOM      3  O   UNL     1       3.542   0.456  -0.338  1.00  0.00    -0.273 OA
ATOM      4  C   UNL     1       3.760   0.930  -1.448  1.00  0.00     0.243 C 
ATOM      5  H   UNL     1       3.141   1.260  -3.366  1.00  0.00     0.164 HD
BRANCH   4   6
ATOM      6  C   UNL     1       4.909   1.935  -1.719  1.00  0.00     0.171 C 
BRANCH   6   7
ATOM      7  N   UNL     1       6.200   1.232  -1.795  1.00  0.00    -0.344 N 
ATOM      8  C   UNL     1       7.095   1.291  -0.749  1.00  0.00     0.226 C 
ATOM      9  O   UNL     1       6.878   1.936   0.270  1.00  0.00    -0.275 OA
ATOM     10  H   UNL     1       6.443   0.743  -2.648  1.00  0.00     0.164 HD
BRANCH   8  11
ATOM     11  C   UNL     1       8.355   0.469  -0.957  1.00  0.00     0.109 C 
ATOM     12  C   UNL     1       8.201  -0.429  -2.184  1.00  0.00     0.021 C 
BRANCH  11  13
ATOM     13  C   UNL     1       9.585   1.399  -0.983  1.00  0.00     0.204 C 
BRANCH  13  14
ATOM     14  N   UNL     1       9.638   2.277   0.189  1.00  0.00    -0.340 N 
ATOM     15  C   UNL     1      10.208   3.531   0.159  1.00  0.00     0.243 C 
ATOM     16  O   UNL     1      10.660   4.027  -0.871  1.00  0.00    -0.273 OA
ATOM     17  H   UNL     1       9.420   1.872   1.103  1.00  0.00     0.164 HD
BRANCH  15  18
ATOM     18  C   UNL     1      10.335   4.187   1.557  1.00  0.00     0.171 C 
BRANCH  18  19
ATOM     19  N   UNL     1      11.721   4.633   1.685  1.00  0.00    -0.343 N 
ATOM     20  C   UNL     1      12.352   4.705   2.912  1.00  0.00     0.242 CG0
ATOM     21  O   UNL     1      11.740   4.526   3.962  1.00  0.00    -0.273 OA
ATOM     22  H   UNL     1      12.235   4.904   0.855  1.00  0.00     0.164 HD
ATOM     23  G   UNL     1      13.836   5.121   2.841  1.00  0.00     0.000 G0
ENDBRANCH  18  19
BRANCH  18  24
ATOM     24  C   UNL     1       9.353   5.356   1.697  1.00  0.00     0.038 C 
BRANCH  24  25
ATOM     25  C   UNL     1       8.198   5.112   2.692  1.00  0.00    -0.015 C 
ATOM     26  C   UNL     1       6.825   5.180   2.024  1.00  0.00     0.007 C 
ATOM     27  C   UNL     1       8.271   6.137   3.827  1.00  0.00     0.007 C 
ENDBRANCH  24  25
ENDBRANCH  18  24
ENDBRANCH  15  18
ENDBRANCH  13  14
BRANCH  13  28
ATOM     28  C   UNL     1      10.914   0.640  -1.042  1.00  0.00     0.327 C 
ATOM     29  O   UNL     1      11.262  -0.267  -0.301  1.00  0.00    -0.250 OA
BRANCH  28  30
ATOM     30  O   UNL     1      11.772   1.145  -1.951  1.00  0.00    -0.480 OA
ATOM     31  H   UNL     1      12.649   0.819  -1.663  1.00  0.00     0.296 HD
ENDBRANCH  28  30
ENDBRANCH  13  28
ENDBRANCH  11  13
ENDBRANCH   8  11
ENDBRANCH   6   7
BRANCH   6  32
ATOM     32  C   UNL     1       4.620   2.691  -3.021  1.00  0.00     0.037 C 
BRANCH  32  33
ATOM     33  C   UNL     1       4.889   4.196  -2.888  1.00  0.00     0.026 C 
BRANCH  33  34
ATOM     34  C   UNL     1       5.292   4.596  -1.468  1.00  0.00     0.146 C 
BRANCH  34  35
ATOM     35  N   UNL     1       5.529   6.032  -1.433  1.00  0.00    -0.254 NA
ATOM     36  C   UNL     1       6.738   6.456  -1.452  1.00  0.00     0.185 C 
ATOM     37  N   UNL     1       6.968   7.778  -1.426  1.00  0.00    -0.370 N 
ATOM     38  N   UNL     1       7.881   5.748  -1.497  1.00  0.00    -0.370 N 
ATOM     39  H   UNL     1       6.155   8.380  -1.402  1.00  0.00     0.159 HD
ATOM     40  H   UNL     1       7.867   8.189  -1.611  1.00  0.00     0.159 HD
ATOM     41  H   UNL     1       8.774   6.192  -1.366  1.00  0.00     0.159 HD
ATOM     42  H   UNL     1       7.859   4.740  -1.505  1.00  0.00     0.159 HD
ENDBRANCH  34  35
ENDBRANCH  33  34
ENDBRANCH  32  33
ENDBRANCH   6  32
ENDBRANCH   4   6
ENDBRANCH   1   2
BRANCH   1  43
ATOM     43  C   UNL     1       1.531  -0.618  -4.026  1.00  0.00     0.102 C 
ATOM     44  C   UNL     1       1.590  -2.136  -4.270  1.00  0.00     0.020 C 
BRANCH  43  45
ATOM     45  C   UNL     1       2.392   0.200  -4.993  1.00  0.00     0.225 C 
ATOM     46  O   UNL     1       2.165   1.376  -5.262  1.00  0.00    -0.275 OA
ATOM     47  N   UNL     1       3.396  -0.496  -5.627  1.00  0.00    -0.342 N 
ATOM     48  H   UNL     1       3.663  -1.408  -5.287  1.00  0.00     0.164 HD
BRANCH  47  49
ATOM     49  C   UNL     1       4.320   0.166  -6.552  1.00  0.00     0.192 C 
BRANCH  49  50
ATOM     50  C   UNL     1       4.591  -0.748  -7.750  1.00  0.00     0.047 C 
BRANCH  50  51
ATOM     51  C   UNL     1       3.526  -1.842  -7.900  1.00  0.00     0.103 C 
BRANCH  51  52
ATOM     52  C   UNL     1       3.255  -2.182  -9.364  1.00  0.00     0.226 C 
ATOM     53  O   UNL     1       3.693  -3.232  -9.838  1.00  0.00    -0.275 OA
BRANCH  52  54
ATOM     54  N   UNL     1       2.436  -1.285 -10.075  1.00  0.00    -0.311 N 
ATOM     55  C   UNL     1       2.734  -0.930 -11.469  1.00  0.00     0.153 C 
BRANCH  54  56
ATOM     56  C   UNL     1       1.303  -0.701  -9.483  1.00  0.00     0.102 C 
ATOM     57  C   UNL     1       1.261   0.536  -8.960  1.00  0.00     0.043 C 
BRANCH  56  58
ATOM     58  C   UNL     1      -0.013  -1.440  -9.432  1.00  0.00     0.268 C 
ATOM     59  O   UNL     1      -0.765  -1.535 -10.393  1.00  0.00    -0.268 OA
ATOM     60  N   UNL     1      -0.246  -2.047  -8.221  1.00  0.00    -0.339 N 
ATOM     61  H   UNL     1       0.422  -1.911  -7.472  1.00  0.00     0.164 HD
BRANCH  60  62
ATOM     62  C   UNL     1      -1.432  -2.866  -7.976  1.00  0.00     0.168 CG0
ATOM     63  C   UNL     1      -1.131  -3.979  -6.979  1.00  0.00     0.041 C 
ATOM     64  G   UNL     1      -1.941  -3.451  -9.310  1.00  0.00     0.000 G0
ENDBRANCH  60  62
ENDBRANCH  56  58
ENDBRANCH  54  56
ENDBRANCH  52  54
ENDBRANCH  51  52
ENDBRANCH  50  51
ENDBRANCH  49  50
BRANCH  49  65
ATOM     65  C   UNL     1       5.651   0.518  -5.869  1.00  0.00     0.326 C 
ATOM     66  O   UNL     1       6.000   0.144  -4.759  1.00  0.00    -0.250 OA
BRANCH  65  67
ATOM     67  O   UNL     1       6.441   1.359  -6.573  1.00  0.00    -0.480 OA
ATOM     68  H   UNL     1       7.076   0.759  -7.020  1.00  0.00     0.296 HD
ENDBRANCH  65  67
ENDBRANCH  49  65
ENDBRANCH  47  49
ENDBRANCH  43  45
ENDBRANCH   1  43
BRANCH   1  69
ATOM     69  C   UNL     1       0.701   0.413  -1.734  1.00  0.00    -0.001 C 
ATOM     70  C   UNL     1      -0.301   1.189  -2.182  1.00  0.00     0.001 C 
BRANCH  70  71
ATOM     71  C   UNL     1      -1.384   1.774  -1.388  1.00  0.00    -0.055 C 
ATOM     72  C   UNL     1      -1.108   2.886  -0.674  1.00  0.00    -0.018 C 
ATOM     73  C   UNL     1      -2.729   1.098  -1.429  1.00  0.00     0.044 C 
BRANCH  72  74
ATOM     74  C   UNL     1      -2.023   3.703   0.227  1.00  0.00     0.038 C 
ATOM     75  C   UNL     1      -1.905   5.167  -0.216  1.00  0.00     0.015 C 
BRANCH  74  76
ATOM     76  C   UNL     1      -1.632   3.436   1.711  1.00  0.00     0.128 C 
BRANCH  76  77
ATOM     77  O   UNL     1      -2.709   2.768   2.389  1.00  0.00    -0.381 OA
ATOM     78  C   UNL     1      -2.760   3.037   3.784  1.00  0.00     0.195 C 
ENDBRANCH  76  77
BRANCH  76  79
ATOM     79  C   UNL     1      -0.273   2.712   1.883  1.00  0.00     0.068 C 
BRANCH  79  80
ATOM     80  C   UNL     1       0.964   3.561   2.047  1.00  0.00    -0.045 A 
ATOM     81  C   UNL     1       0.910   4.798   2.702  1.00  0.00     0.004 A 
ATOM     82  C   UNL     1       2.190   3.133   1.516  1.00  0.00     0.004 A 
ATOM     83  C   UNL     1       2.056   5.584   2.837  1.00  0.00     0.000 A 
ATOM     84  C   UNL     1       3.336   3.920   1.651  1.00  0.00     0.000 A 
ATOM     85  C   UNL     1       3.270   5.143   2.312  1.00  0.00     0.000 A 
ENDBRANCH  79  80
ENDBRANCH  76  79
ENDBRANCH  74  76
ENDBRANCH  72  74
ENDBRANCH  70  71
ENDBRANCH   1  69
TORSDOF 17
ENDMDL
MODEL 48
REMARK VINA RESULT:    -5.573      4.615      9.089
REMARK INTER + INTRA:         -23.932
REMARK INTER:                 -15.744
REMARK INTRA:                  -8.188
REMARK UNBOUND:                -7.281
REMARK SMILES C=C1C(=O)N[C@H](C)C(=O)N[C@@H](CC(C)C)C(=O)N[C@@H](C(=O)O)[C@H](C)C(=O)N[C@@H](CCCN=C(N)N)C(=O)N[C@@H](/C=C/C(C)=C/[C@H](C)[C@H](Cc2ccccc2)OC)[C@H](C)C(=O)N[C@@H](C(=O)O)CCC(=O)N1C
REMARK SMILES IDX 39 1 38 2 37 3 36 4 28 6 27 7 25 8 26 9 23 11 24 12 19 13
REMARK SMILES IDX 18 14 16 15 17 16 11 18 10 19 8 20 9 21 12 24 13 25 14 26
REMARK SMILES IDX 15 27 20 28 21 29 22 30 29 32 30 33 31 34 32 35 33 36 34 37
REMARK SMILES IDX 35 38 57 43 58 44 59 45 60 46 61 47 62 49 66 50 67 51 68 52
REMARK SMILES IDX 69 53 70 54 71 55 2 56 1 57 3 58 4 59 5 60 6 62 7 63 63 65
REMARK SMILES IDX 64 66 65 67 40 69 41 70 42 71 44 72 43 73 45 74 46 75 47 76
REMARK SMILES IDX 55 77 56 78 48 79 49 80 50 81 54 82 51 83 53 84 52 85
REMARK H PARENT 38 5 27 10 18 17 10 22 22 31 34 39 34 40 35 41 35 42 61 48
REMARK H PARENT 5 61 65 68
REMARK Flexibility Score:  369.900
ROOT
ATOM      1  C   UNL     1       2.431   3.407  -4.790  1.00  0.00     0.117 C 
ENDROOT
BRANCH   1   2
ATOM      2  N   UNL     1       1.675   2.163  -4.939  1.00  0.00    -0.347 N 
ATOM      3  O   UNL     1      -0.037   2.663  -3.494  1.00  0.00    -0.273 OA
ATOM      4  C   UNL     1       0.449   1.928  -4.346  1.00  0.00     0.243 C 
ATOM      5  H   UNL     1       2.028   1.440  -5.546  1.00  0.00     0.164 HD
BRANCH   4   6
ATOM      6  C   UNL     1      -0.179   0.565  -4.734  1.00  0.00     0.171 C 
BRANCH   6   7
ATOM      7  N   UNL     1       0.742  -0.536  -4.412  1.00  0.00    -0.344 N 
ATOM      8  C   UNL     1       1.251  -1.341  -5.409  1.00  0.00     0.226 C 
ATOM      9  O   UNL     1       0.952  -1.200  -6.589  1.00  0.00    -0.275 OA
ATOM     10  H   UNL     1       0.960  -0.727  -3.442  1.00  0.00     0.164 HD
BRANCH   8  11
ATOM     11  C   UNL     1       2.229  -2.396  -4.923  1.00  0.00     0.109 C 
ATOM     12  C   UNL     1       1.513  -3.400  -4.019  1.00  0.00     0.021 C 
BRANCH  11  13
ATOM     13  C   UNL     1       2.966  -3.018  -6.126  1.00  0.00     0.204 C 
BRANCH  13  14
ATOM     14  N   UNL     1       4.168  -2.261  -6.488  1.00  0.00    -0.340 N 
ATOM     15  C   UNL     1       4.585  -2.097  -7.791  1.00  0.00     0.243 C 
ATOM     16  O   UNL     1       3.943  -2.524  -8.749  1.00  0.00    -0.273 OA
ATOM     17  H   UNL     1       4.823  -2.013  -5.741  1.00  0.00     0.164 HD
BRANCH  15  18
ATOM     18  C   UNL     1       5.984  -1.444  -7.915  1.00  0.00     0.171 C 
BRANCH  18  19
ATOM     19  N   UNL     1       6.817  -2.379  -8.669  1.00  0.00    -0.343 N 
ATOM     20  C   UNL     1       7.118  -3.639  -8.187  1.00  0.00     0.242 CG0
ATOM     21  O   UNL     1       6.812  -3.982  -7.048  1.00  0.00    -0.273 OA
ATOM     22  H   UNL     1       7.191  -2.098  -9.568  1.00  0.00     0.164 HD
ATOM     23  G   UNL     1       7.942  -4.511  -9.157  1.00  0.00     0.000 G0
ENDBRANCH  18  19
BRANCH  18  24
ATOM     24  C   UNL     1       5.887  -0.085  -8.618  1.00  0.00     0.038 C 
BRANCH  24  25
ATOM     25  C   UNL     1       5.282   1.044  -7.757  1.00  0.00    -0.015 C 
ATOM     26  C   UNL     1       3.833   1.353  -8.132  1.00  0.00     0.007 C 
ATOM     27  C   UNL     1       6.132   2.310  -7.898  1.00  0.00     0.007 C 
ENDBRANCH  24  25
ENDBRANCH  18  24
ENDBRANCH  15  18
ENDBRANCH  13  14
BRANCH  13  28
ATOM     28  C   UNL     1       3.397  -4.468  -5.886  1.00  0.00     0.327 C 
ATOM     29  O   UNL     1       2.768  -5.469  -6.191  1.00  0.00    -0.250 OA
BRANCH  28  30
ATOM     30  O   UNL     1       4.536  -4.569  -5.171  1.00  0.00    -0.480 OA
ATOM     31  H   UNL     1       4.279  -4.294  -4.267  1.00  0.00     0.296 HD
ENDBRANCH  28  30
ENDBRANCH  13  28
ENDBRANCH  11  13
ENDBRANCH   8  11
ENDBRANCH   6   7
BRANCH   6  32
ATOM     32  C   UNL     1      -1.512   0.397  -3.996  1.00  0.00     0.037 C 
BRANCH  32  33
ATOM     33  C   UNL     1      -1.438  -0.681  -2.906  1.00  0.00     0.026 C 
BRANCH  33  34
ATOM     34  C   UNL     1      -0.962  -0.124  -1.564  1.00  0.00     0.146 C 
BRANCH  34  35
ATOM     35  N   UNL     1       0.440  -0.471  -1.382  1.00  0.00    -0.254 NA
ATOM     36  C   UNL     1       1.260   0.448  -1.027  1.00  0.00     0.185 C 
ATOM     37  N   UNL     1       2.554   0.138  -0.852  1.00  0.00    -0.370 N 
ATOM     38  N   UNL     1       1.018   1.749  -0.787  1.00  0.00    -0.370 N 
ATOM     39  H   UNL     1       2.814  -0.828  -1.004  1.00  0.00     0.159 HD
ATOM     40  H   UNL     1       3.218   0.751  -0.412  1.00  0.00     0.159 HD
ATOM     41  H   UNL     1       1.772   2.402  -0.650  1.00  0.00     0.159 HD
ATOM     42  H   UNL     1       0.089   2.126  -0.895  1.00  0.00     0.159 HD
ENDBRANCH  34  35
ENDBRANCH  33  34
ENDBRANCH  32  33
ENDBRANCH   6  32
ENDBRANCH   4   6
ENDBRANCH   1   2
BRANCH   1  43
ATOM     43  C   UNL     1       2.427   4.155  -6.155  1.00  0.00     0.102 C 
ATOM     44  C   UNL     1       3.768   4.832  -6.485  1.00  0.00     0.020 C 
BRANCH  43  45
ATOM     45  C   UNL     1       1.216   5.086  -6.269  1.00  0.00     0.225 C 
ATOM     46  O   UNL     1       1.027   5.824  -7.231  1.00  0.00    -0.275 OA
ATOM     47  N   UNL     1       0.387   5.116  -5.172  1.00  0.00    -0.342 N 
ATOM     48  H   UNL     1       0.469   4.401  -4.463  1.00  0.00     0.164 HD
BRANCH  47  49
ATOM     49  C   UNL     1      -0.830   5.933  -5.154  1.00  0.00     0.192 C 
BRANCH  49  50
ATOM     50  C   UNL     1      -1.428   5.935  -3.744  1.00  0.00     0.047 C 
BRANCH  50  51
ATOM     51  C   UNL     1      -2.348   7.139  -3.503  1.00  0.00     0.103 C 
BRANCH  51  52
ATOM     52  C   UNL     1      -2.281   7.632  -2.059  1.00  0.00     0.226 C 
ATOM     53  O   UNL     1      -1.864   8.767  -1.820  1.00  0.00    -0.275 OA
BRANCH  52  54
ATOM     54  N   UNL     1      -2.785   6.761  -1.076  1.00  0.00    -0.311 N 
ATOM     55  C   UNL     1      -1.893   6.131  -0.094  1.00  0.00     0.153 C 
BRANCH  54  56
ATOM     56  C   UNL     1      -4.156   6.466  -0.992  1.00  0.00     0.102 C 
ATOM     57  C   UNL     1      -4.714   5.297  -1.348  1.00  0.00     0.043 C 
BRANCH  56  58
ATOM     58  C   UNL     1      -5.132   7.472  -0.429  1.00  0.00     0.268 C 
ATOM     59  O   UNL     1      -6.107   7.878  -1.047  1.00  0.00    -0.268 OA
ATOM     60  N   UNL     1      -4.850   7.831   0.868  1.00  0.00    -0.339 N 
ATOM     61  H   UNL     1      -4.017   7.458   1.306  1.00  0.00     0.164 HD
BRANCH  60  62
ATOM     62  C   UNL     1      -5.703   8.746   1.626  1.00  0.00     0.168 CG0
ATOM     63  C   UNL     1      -4.871   9.805   2.338  1.00  0.00     0.041 C 
ATOM     64  G   UNL     1      -6.549   7.945   2.637  1.00  0.00     0.000 G0
ENDBRANCH  60  62
ENDBRANCH  56  58
ENDBRANCH  54  56
ENDBRANCH  52  54
ENDBRANCH  51  52
ENDBRANCH  50  51
ENDBRANCH  49  50
BRANCH  49  65
ATOM     65  C   UNL     1      -1.878   5.412  -6.150  1.00  0.00     0.326 C 
ATOM     66  O   UNL     1      -2.503   4.368  -6.042  1.00  0.00    -0.250 OA
BRANCH  65  67
ATOM     67  O   UNL     1      -2.044   6.183  -7.247  1.00  0.00    -0.480 OA
ATOM     68  H   UNL     1      -2.966   6.510  -7.163  1.00  0.00     0.296 HD
ENDBRANCH  65  67
ENDBRANCH  49  65
ENDBRANCH  47  49
ENDBRANCH  43  45
ENDBRANCH   1  43
BRANCH   1  69
ATOM     69  C   UNL     1       3.761   3.024  -4.168  1.00  0.00    -0.001 C 
ATOM     70  C   UNL     1       4.348   1.814  -4.177  1.00  0.00     0.001 C 
BRANCH  70  71
ATOM     71  C   UNL     1       5.643   1.461  -3.591  1.00  0.00    -0.055 C 
ATOM     72  C   UNL     1       5.803   1.648  -2.264  1.00  0.00    -0.018 C 
ATOM     73  C   UNL     1       6.701   0.906  -4.508  1.00  0.00     0.044 C 
BRANCH  72  74
ATOM     74  C   UNL     1       7.019   1.371  -1.392  1.00  0.00     0.038 C 
ATOM     75  C   UNL     1       6.755   0.056  -0.649  1.00  0.00     0.015 C 
BRANCH  74  76
ATOM     76  C   UNL     1       7.266   2.603  -0.471  1.00  0.00     0.128 C 
BRANCH  76  77
ATOM     77  O   UNL     1       8.640   3.016  -0.562  1.00  0.00    -0.381 OA
ATOM     78  C   UNL     1       9.477   2.076  -1.223  1.00  0.00     0.195 C 
ENDBRANCH  76  77
BRANCH  76  79
ATOM     79  C   UNL     1       6.273   3.770  -0.701  1.00  0.00     0.068 C 
BRANCH  79  80
ATOM     80  C   UNL     1       5.347   4.143   0.431  1.00  0.00    -0.045 A 
ATOM     81  C   UNL     1       5.749   5.046   1.424  1.00  0.00     0.004 A 
ATOM     82  C   UNL     1       4.071   3.567   0.521  1.00  0.00     0.004 A 
ATOM     83  C   UNL     1       4.892   5.376   2.476  1.00  0.00     0.000 A 
ATOM     84  C   UNL     1       3.215   3.897   1.573  1.00  0.00     0.000 A 
ATOM     85  C   UNL     1       3.625   4.802   2.550  1.00  0.00     0.000 A 
ENDBRANCH  79  80
ENDBRANCH  76  79
ENDBRANCH  74  76
ENDBRANCH  72  74
ENDBRANCH  70  71
ENDBRANCH   1  69
TORSDOF 17
ENDMDL
MODEL 49
REMARK VINA RESULT:    -5.567      3.204     12.720
REMARK INTER + INTRA:         -23.912
REMARK INTER:                 -15.782
REMARK INTRA:                  -8.130
REMARK UNBOUND:                -7.281
REMARK SMILES C=C1C(=O)N[C@H](C)C(=O)N[C@@H](CC(C)C)C(=O)N[C@@H](C(=O)O)[C@H](C)C(=O)N[C@@H](CCCN=C(N)N)C(=O)N[C@@H](/C=C/C(C)=C/[C@H](C)[C@H](Cc2ccccc2)OC)[C@H](C)C(=O)N[C@@H](C(=O)O)CCC(=O)N1C
REMARK SMILES IDX 39 1 38 2 37 3 36 4 28 6 27 7 25 8 26 9 23 11 24 12 19 13
REMARK SMILES IDX 18 14 16 15 17 16 11 18 10 19 8 20 9 21 12 24 13 25 14 26
REMARK SMILES IDX 15 27 20 28 21 29 22 30 29 32 30 33 31 34 32 35 33 36 34 37
REMARK SMILES IDX 35 38 57 43 58 44 59 45 60 46 61 47 62 49 66 50 67 51 68 52
REMARK SMILES IDX 69 53 70 54 71 55 2 56 1 57 3 58 4 59 5 60 6 62 7 63 63 65
REMARK SMILES IDX 64 66 65 67 40 69 41 70 42 71 44 72 43 73 45 74 46 75 47 76
REMARK SMILES IDX 55 77 56 78 48 79 49 80 50 81 54 82 51 83 53 84 52 85
REMARK H PARENT 38 5 27 10 18 17 10 22 22 31 34 39 34 40 35 41 35 42 61 48
REMARK H PARENT 5 61 65 68
REMARK Flexibility Score:  369.900
ROOT
ATOM      1  C   UNL     1       5.197  -1.704  -7.197  1.00  0.00     0.117 C 
ENDROOT
BRANCH   1   2
ATOM      2  N   UNL     1       5.882  -0.577  -6.563  1.00  0.00    -0.347 N 
ATOM      3  O   UNL     1       4.144   0.145  -5.248  1.00  0.00    -0.273 OA
ATOM      4  C   UNL     1       5.327   0.204  -5.568  1.00  0.00     0.243 C 
ATOM      5  H   UNL     1       6.836  -0.371  -6.818  1.00  0.00     0.164 HD
BRANCH   4   6
ATOM      6  C   UNL     1       6.294   1.277  -5.006  1.00  0.00     0.171 C 
BRANCH   6   7
ATOM      7  N   UNL     1       7.234   0.672  -4.049  1.00  0.00    -0.344 N 
ATOM      8  C   UNL     1       7.407   1.216  -2.794  1.00  0.00     0.226 C 
ATOM      9  O   UNL     1       6.818   2.224  -2.425  1.00  0.00    -0.275 OA
ATOM     10  H   UNL     1       7.789  -0.123  -4.341  1.00  0.00     0.164 HD
BRANCH   8  11
ATOM     11  C   UNL     1       8.368   0.445  -1.906  1.00  0.00     0.109 C 
ATOM     12  C   UNL     1       8.718  -0.897  -2.549  1.00  0.00     0.021 C 
BRANCH  11  13
ATOM     13  C   UNL     1       9.580   1.332  -1.556  1.00  0.00     0.204 C 
BRANCH  13  14
ATOM     14  N   UNL     1       9.265   2.309  -0.509  1.00  0.00    -0.340 N 
ATOM     15  C   UNL     1       8.393   2.042   0.525  1.00  0.00     0.243 C 
ATOM     16  O   UNL     1       7.863   0.943   0.675  1.00  0.00    -0.273 OA
ATOM     17  H   UNL     1       9.549   3.281  -0.657  1.00  0.00     0.164 HD
BRANCH  15  18
ATOM     18  C   UNL     1       8.057   3.285   1.386  1.00  0.00     0.171 C 
BRANCH  18  19
ATOM     19  N   UNL     1       9.328   3.937   1.694  1.00  0.00    -0.343 N 
ATOM     20  C   UNL     1       9.965   3.754   2.906  1.00  0.00     0.242 CG0
ATOM     21  O   UNL     1       9.430   3.144   3.829  1.00  0.00    -0.273 OA
ATOM     22  H   UNL     1       9.755   4.545   1.005  1.00  0.00     0.164 HD
ATOM     23  G   UNL     1      11.333   4.459   3.019  1.00  0.00     0.000 G0
ENDBRANCH  18  19
BRANCH  18  24
ATOM     24  C   UNL     1       7.110   4.226   0.631  1.00  0.00     0.038 C 
BRANCH  24  25
ATOM     25  C   UNL     1       7.771   5.518   0.106  1.00  0.00    -0.015 C 
ATOM     26  C   UNL     1       7.206   6.776   0.767  1.00  0.00     0.007 C 
ATOM     27  C   UNL     1       7.589   5.609  -1.412  1.00  0.00     0.007 C 
ENDBRANCH  24  25
ENDBRANCH  18  24
ENDBRANCH  15  18
ENDBRANCH  13  14
BRANCH  13  28
ATOM     28  C   UNL     1      10.796   0.532  -1.081  1.00  0.00     0.327 C 
ATOM     29  O   UNL     1      10.812  -0.290  -0.178  1.00  0.00    -0.250 OA
BRANCH  28  30
ATOM     30  O   UNL     1      11.942   0.901  -1.688  1.00  0.00    -0.480 OA
ATOM     31  H   UNL     1      12.139   1.785  -1.315  1.00  0.00     0.296 HD
ENDBRANCH  28  30
ENDBRANCH  13  28
ENDBRANCH  11  13
ENDBRANCH   8  11
ENDBRANCH   6   7
BRANCH   6  32
ATOM     32  C   UNL     1       7.045   1.936  -6.168  1.00  0.00     0.037 C 
BRANCH  32  33
ATOM     33  C   UNL     1       7.741   3.237  -5.745  1.00  0.00     0.026 C 
BRANCH  33  34
ATOM     34  C   UNL     1       9.222   3.259  -6.125  1.00  0.00     0.146 C 
BRANCH  34  35
ATOM     35  N   UNL     1       9.829   1.996  -5.727  1.00  0.00    -0.254 NA
ATOM     36  C   UNL     1      10.715   2.005  -4.802  1.00  0.00     0.185 C 
ATOM     37  N   UNL     1      11.276   0.847  -4.423  1.00  0.00    -0.370 N 
ATOM     38  N   UNL     1      11.200   3.049  -4.107  1.00  0.00    -0.370 N 
ATOM     39  H   UNL     1      10.955   0.011  -4.894  1.00  0.00     0.159 HD
ATOM     40  H   UNL     1      11.842   0.746  -3.598  1.00  0.00     0.159 HD
ATOM     41  H   UNL     1      11.997   2.946  -3.500  1.00  0.00     0.159 HD
ATOM     42  H   UNL     1      10.879   3.986  -4.297  1.00  0.00     0.159 HD
ENDBRANCH  34  35
ENDBRANCH  33  34
ENDBRANCH  32  33
ENDBRANCH   6  32
ENDBRANCH   4   6
ENDBRANCH   1   2
BRANCH   1  43
ATOM     43  C   UNL     1       5.365  -2.959  -6.292  1.00  0.00     0.102 C 
ATOM     44  C   UNL     1       6.374  -3.981  -6.844  1.00  0.00     0.020 C 
BRANCH  43  45
ATOM     45  C   UNL     1       4.005  -3.562  -5.929  1.00  0.00     0.225 C 
ATOM     46  O   UNL     1       3.787  -4.770  -5.923  1.00  0.00    -0.275 OA
ATOM     47  N   UNL     1       2.998  -2.653  -5.696  1.00  0.00    -0.342 N 
ATOM     48  H   UNL     1       3.225  -1.679  -5.556  1.00  0.00     0.164 HD
BRANCH  47  49
ATOM     49  C   UNL     1       1.653  -3.085  -5.304  1.00  0.00     0.192 C 
BRANCH  49  50
ATOM     50  C   UNL     1       0.698  -2.937  -6.491  1.00  0.00     0.047 C 
BRANCH  50  51
ATOM     51  C   UNL     1       0.336  -1.472  -6.768  1.00  0.00     0.103 C 
BRANCH  51  52
ATOM     52  C   UNL     1       1.026  -0.937  -8.021  1.00  0.00     0.226 C 
ATOM     53  O   UNL     1       2.228  -0.665  -7.987  1.00  0.00    -0.275 OA
BRANCH  52  54
ATOM     54  N   UNL     1       0.239  -0.858  -9.185  1.00  0.00    -0.311 N 
ATOM     55  C   UNL     1      -0.187   0.440  -9.723  1.00  0.00     0.153 C 
BRANCH  54  56
ATOM     56  C   UNL     1      -0.162  -2.013  -9.877  1.00  0.00     0.102 C 
ATOM     57  C   UNL     1      -1.429  -2.447  -9.979  1.00  0.00     0.043 C 
BRANCH  56  58
ATOM     58  C   UNL     1       0.844  -2.857 -10.625  1.00  0.00     0.268 C 
ATOM     59  O   UNL     1       1.693  -3.538 -10.067  1.00  0.00    -0.268 OA
ATOM     60  N   UNL     1       0.663  -2.831 -11.988  1.00  0.00    -0.339 N 
ATOM     61  H   UNL     1      -0.057  -2.233 -12.373  1.00  0.00     0.164 HD
BRANCH  60  62
ATOM     62  C   UNL     1       1.487  -3.626 -12.897  1.00  0.00     0.168 CG0
ATOM     63  C   UNL     1       2.499  -2.750 -13.626  1.00  0.00     0.041 C 
ATOM     64  G   UNL     1       0.581  -4.365 -13.903  1.00  0.00     0.000 G0
ENDBRANCH  60  62
ENDBRANCH  56  58
ENDBRANCH  54  56
ENDBRANCH  52  54
ENDBRANCH  51  52
ENDBRANCH  50  51
ENDBRANCH  49  50
BRANCH  49  65
ATOM     65  C   UNL     1       1.119  -2.267  -4.117  1.00  0.00     0.326 C 
ATOM     66  O   UNL     1       0.056  -2.457  -3.544  1.00  0.00    -0.250 OA
BRANCH  65  67
ATOM     67  O   UNL     1       1.901  -1.229  -3.750  1.00  0.00    -0.480 OA
ATOM     68  H   UNL     1       2.806  -1.525  -3.990  1.00  0.00     0.296 HD
ENDBRANCH  65  67
ENDBRANCH  49  65
ENDBRANCH  47  49
ENDBRANCH  43  45
ENDBRANCH   1  43
BRANCH   1  69
ATOM     69  C   UNL     1       5.704  -1.758  -8.627  1.00  0.00    -0.001 C 
ATOM     70  C   UNL     1       5.013  -2.109  -9.726  1.00  0.00     0.001 C 
BRANCH  70  71
ATOM     71  C   UNL     1       5.507  -2.137 -11.104  1.00  0.00    -0.055 C 
ATOM     72  C   UNL     1       6.109  -3.266 -11.532  1.00  0.00    -0.018 C 
ATOM     73  C   UNL     1       5.300  -0.907 -11.949  1.00  0.00     0.044 C 
BRANCH  72  74
ATOM     74  C   UNL     1       6.709  -3.580 -12.895  1.00  0.00     0.038 C 
ATOM     75  C   UNL     1       5.756  -4.556 -13.595  1.00  0.00     0.015 C 
BRANCH  74  76
ATOM     76  C   UNL     1       8.158  -4.114 -12.694  1.00  0.00     0.128 C 
BRANCH  76  77
ATOM     77  O   UNL     1       8.534  -4.945 -13.805  1.00  0.00    -0.381 OA
ATOM     78  C   UNL     1       9.009  -6.229 -13.423  1.00  0.00     0.195 C 
ENDBRANCH  76  77
BRANCH  76  79
ATOM     79  C   UNL     1       9.200  -3.008 -12.392  1.00  0.00     0.068 C 
BRANCH  79  80
ATOM     80  C   UNL     1       9.157  -2.347 -11.036  1.00  0.00    -0.045 A 
ATOM     81  C   UNL     1       9.280  -3.100  -9.861  1.00  0.00     0.004 A 
ATOM     82  C   UNL     1       8.964  -0.961 -10.931  1.00  0.00     0.004 A 
ATOM     83  C   UNL     1       9.225  -2.482  -8.610  1.00  0.00     0.000 A 
ATOM     84  C   UNL     1       8.908  -0.344  -9.679  1.00  0.00     0.000 A 
ATOM     85  C   UNL     1       9.041  -1.104  -8.519  1.00  0.00     0.000 A 
ENDBRANCH  79  80
ENDBRANCH  76  79
ENDBRANCH  74  76
ENDBRANCH  72  74
ENDBRANCH  70  71
ENDBRANCH   1  69
TORSDOF 17
ENDMDL
MODEL 50
REMARK VINA RESULT:    -5.543      3.347     10.633
REMARK INTER + INTRA:         -23.841
REMARK INTER:                 -15.687
REMARK INTRA:                  -8.154
REMARK UNBOUND:                -7.281
REMARK SMILES C=C1C(=O)N[C@H](C)C(=O)N[C@@H](CC(C)C)C(=O)N[C@@H](C(=O)O)[C@H](C)C(=O)N[C@@H](CCCN=C(N)N)C(=O)N[C@@H](/C=C/C(C)=C/[C@H](C)[C@H](Cc2ccccc2)OC)[C@H](C)C(=O)N[C@@H](C(=O)O)CCC(=O)N1C
REMARK SMILES IDX 39 1 38 2 37 3 36 4 28 6 27 7 25 8 26 9 23 11 24 12 19 13
REMARK SMILES IDX 18 14 16 15 17 16 11 18 10 19 8 20 9 21 12 24 13 25 14 26
REMARK SMILES IDX 15 27 20 28 21 29 22 30 29 32 30 33 31 34 32 35 33 36 34 37
REMARK SMILES IDX 35 38 57 43 58 44 59 45 60 46 61 47 62 49 66 50 67 51 68 52
REMARK SMILES IDX 69 53 70 54 71 55 2 56 1 57 3 58 4 59 5 60 6 62 7 63 63 65
REMARK SMILES IDX 64 66 65 67 40 69 41 70 42 71 44 72 43 73 45 74 46 75 47 76
REMARK SMILES IDX 55 77 56 78 48 79 49 80 50 81 54 82 51 83 53 84 52 85
REMARK H PARENT 38 5 27 10 18 17 10 22 22 31 34 39 34 40 35 41 35 42 61 48
REMARK H PARENT 5 61 65 68
REMARK Flexibility Score:  369.900
ROOT
ATOM      1  C   UNL     1       1.662  -0.188  -2.837  1.00  0.00     0.117 C 
ENDROOT
BRANCH   1   2
ATOM      2  N   UNL     1       2.829   0.691  -2.918  1.00  0.00    -0.347 N 
ATOM      3  O   UNL     1       3.515   0.501  -0.736  1.00  0.00    -0.273 OA
ATOM      4  C   UNL     1       3.718   0.893  -1.880  1.00  0.00     0.243 C 
ATOM      5  H   UNL     1       3.044   1.148  -3.791  1.00  0.00     0.164 HD
BRANCH   4   6
ATOM      6  C   UNL     1       4.916   1.803  -2.254  1.00  0.00     0.171 C 
BRANCH   6   7
ATOM      7  N   UNL     1       6.163   1.023  -2.287  1.00  0.00    -0.344 N 
ATOM      8  C   UNL     1       7.057   1.081  -1.240  1.00  0.00     0.226 C 
ATOM      9  O   UNL     1       6.875   1.788  -0.256  1.00  0.00    -0.275 OA
ATOM     10  H   UNL     1       6.380   0.480  -3.113  1.00  0.00     0.164 HD
BRANCH   8  11
ATOM     11  C   UNL     1       8.268   0.179  -1.400  1.00  0.00     0.109 C 
ATOM     12  C   UNL     1       8.041  -0.806  -2.546  1.00  0.00     0.021 C 
BRANCH  11  13
ATOM     13  C   UNL     1       9.544   1.035  -1.522  1.00  0.00     0.204 C 
BRANCH  13  14
ATOM     14  N   UNL     1       9.576   2.122  -0.539  1.00  0.00    -0.340 N 
ATOM     15  C   UNL     1      10.160   3.344  -0.793  1.00  0.00     0.243 C 
ATOM     16  O   UNL     1      10.644   3.630  -1.886  1.00  0.00    -0.273 OA
ATOM     17  H   UNL     1       9.330   1.901   0.430  1.00  0.00     0.164 HD
BRANCH  15  18
ATOM     18  C   UNL     1      10.258   4.254   0.456  1.00  0.00     0.171 C 
BRANCH  18  19
ATOM     19  N   UNL     1      11.507   5.002   0.332  1.00  0.00    -0.343 N 
ATOM     20  C   UNL     1      12.450   5.018   1.342  1.00  0.00     0.242 CG0
ATOM     21  O   UNL     1      12.226   4.515   2.440  1.00  0.00    -0.273 OA
ATOM     22  H   UNL     1      11.689   5.531  -0.514  1.00  0.00     0.164 HD
ATOM     23  G   UNL     1      13.738   5.796   0.998  1.00  0.00     0.000 G0
ENDBRANCH  18  19
BRANCH  18  24
ATOM     24  C   UNL     1       9.047   5.192   0.538  1.00  0.00     0.038 C 
BRANCH  24  25
ATOM     25  C   UNL     1       8.212   5.055   1.829  1.00  0.00    -0.015 C 
ATOM     26  C   UNL     1       8.675   3.890   2.705  1.00  0.00     0.007 C 
ATOM     27  C   UNL     1       6.735   4.874   1.470  1.00  0.00     0.007 C 
ENDBRANCH  24  25
ENDBRANCH  18  24
ENDBRANCH  15  18
ENDBRANCH  13  14
BRANCH  13  28
ATOM     28  C   UNL     1      10.833   0.226  -1.346  1.00  0.00     0.327 C 
ATOM     29  O   UNL     1      11.261  -0.232  -0.298  1.00  0.00    -0.250 OA
BRANCH  28  30
ATOM     30  O   UNL     1      11.563   0.143  -2.477  1.00  0.00    -0.480 OA
ATOM     31  H   UNL     1      11.136   0.780  -3.087  1.00  0.00     0.296 HD
ENDBRANCH  28  30
ENDBRANCH  13  28
ENDBRANCH  11  13
ENDBRANCH   8  11
ENDBRANCH   6   7
BRANCH   6  32
ATOM     32  C   UNL     1       4.644   2.460  -3.611  1.00  0.00     0.037 C 
BRANCH  32  33
ATOM     33  C   UNL     1       5.373   3.803  -3.761  1.00  0.00     0.026 C 
BRANCH  33  34
ATOM     34  C   UNL     1       6.146   3.906  -5.076  1.00  0.00     0.146 C 
BRANCH  34  35
ATOM     35  N   UNL     1       7.546   4.175  -4.778  1.00  0.00    -0.254 NA
ATOM     36  C   UNL     1       8.374   3.197  -4.779  1.00  0.00     0.185 C 
ATOM     37  N   UNL     1       9.667   3.435  -4.510  1.00  0.00    -0.370 N 
ATOM     38  N   UNL     1       8.142   1.895  -5.020  1.00  0.00    -0.370 N 
ATOM     39  H   UNL     1       9.924   4.396  -4.328  1.00  0.00     0.159 HD
ATOM     40  H   UNL     1      10.399   2.762  -4.661  1.00  0.00     0.159 HD
ATOM     41  H   UNL     1       8.851   1.200  -4.853  1.00  0.00     0.159 HD
ATOM     42  H   UNL     1       7.210   1.568  -5.221  1.00  0.00     0.159 HD
ENDBRANCH  34  35
ENDBRANCH  33  34
ENDBRANCH  32  33
ENDBRANCH   6  32
ENDBRANCH   4   6
ENDBRANCH   1   2
BRANCH   1  43
ATOM     43  C   UNL     1       1.511  -0.937  -4.193  1.00  0.00     0.102 C 
ATOM     44  C   UNL     1       1.652  -2.463  -4.069  1.00  0.00     0.020 C 
BRANCH  43  45
ATOM     45  C   UNL     1       2.409  -0.315  -5.267  1.00  0.00     0.225 C 
ATOM     46  O   UNL     1       2.256   0.826  -5.692  1.00  0.00    -0.275 OA
ATOM     47  N   UNL     1       3.357  -1.155  -5.806  1.00  0.00    -0.342 N 
ATOM     48  H   UNL     1       3.570  -2.030  -5.346  1.00  0.00     0.164 HD
BRANCH  47  49
ATOM     49  C   UNL     1       4.310  -0.688  -6.817  1.00  0.00     0.192 C 
BRANCH  49  50
ATOM     50  C   UNL     1       4.193  -1.555  -8.073  1.00  0.00     0.047 C 
BRANCH  50  51
ATOM     51  C   UNL     1       3.425  -2.857  -7.812  1.00  0.00     0.103 C 
BRANCH  51  52
ATOM     52  C   UNL     1       2.008  -2.811  -8.380  1.00  0.00     0.226 C 
ATOM     53  O   UNL     1       1.053  -2.623  -7.623  1.00  0.00    -0.275 OA
BRANCH  52  54
ATOM     54  N   UNL     1       1.889  -2.914  -9.779  1.00  0.00    -0.311 N 
ATOM     55  C   UNL     1       2.635  -3.934 -10.528  1.00  0.00     0.153 C 
BRANCH  54  56
ATOM     56  C   UNL     1       1.053  -2.052 -10.508  1.00  0.00     0.102 C 
ATOM     57  C   UNL     1       1.412  -0.846 -10.976  1.00  0.00     0.043 C 
BRANCH  56  58
ATOM     58  C   UNL     1      -0.355  -2.462 -10.869  1.00  0.00     0.268 C 
ATOM     59  O   UNL     1      -0.678  -2.835 -11.990  1.00  0.00    -0.268 OA
ATOM     60  N   UNL     1      -1.217  -2.437  -9.799  1.00  0.00    -0.339 N 
ATOM     61  H   UNL     1      -0.874  -2.105  -8.905  1.00  0.00     0.164 HD
BRANCH  60  62
ATOM     62  C   UNL     1      -2.614  -2.856  -9.913  1.00  0.00     0.168 CG0
ATOM     63  C   UNL     1      -3.532  -1.654 -10.101  1.00  0.00     0.041 C 
ATOM     64  G   UNL     1      -3.016  -3.660  -8.659  1.00  0.00     0.000 G0
ENDBRANCH  60  62
ENDBRANCH  56  58
ENDBRANCH  54  56
ENDBRANCH  52  54
ENDBRANCH  51  52
ENDBRANCH  50  51
ENDBRANCH  49  50
BRANCH  49  65
ATOM     65  C   UNL     1       5.756  -0.734  -6.299  1.00  0.00     0.326 C 
ATOM     66  O   UNL     1       6.181  -0.130  -5.325  1.00  0.00    -0.250 OA
BRANCH  65  67
ATOM     67  O   UNL     1       6.600  -1.476  -7.049  1.00  0.00    -0.480 OA
ATOM     68  H   UNL     1       6.545  -1.062  -7.937  1.00  0.00     0.296 HD
ENDBRANCH  65  67
ENDBRANCH  49  65
ENDBRANCH  47  49
ENDBRANCH  43  45
ENDBRANCH   1  43
BRANCH   1  69
ATOM     69  C   UNL     1       0.515   0.674  -2.344  1.00  0.00    -0.001 C 
ATOM     70  C   UNL     1      -0.660   0.259  -1.839  1.00  0.00     0.001 C 
BRANCH  70  71
ATOM     71  C   UNL     1      -1.752   1.102  -1.346  1.00  0.00    -0.055 C 
ATOM     72  C   UNL     1      -1.651   2.434  -1.535  1.00  0.00    -0.018 C 
ATOM     73  C   UNL     1      -2.914   0.421  -0.671  1.00  0.00     0.044 C 
BRANCH  72  74
ATOM     74  C   UNL     1      -2.619   3.539  -1.138  1.00  0.00     0.038 C 
ATOM     75  C   UNL     1      -3.113   4.196  -2.433  1.00  0.00     0.015 C 
BRANCH  74  76
ATOM     76  C   UNL     1      -1.900   4.504  -0.149  1.00  0.00     0.128 C 
BRANCH  76  77
ATOM     77  O   UNL     1      -2.667   5.710   0.006  1.00  0.00    -0.381 OA
ATOM     78  C   UNL     1      -1.943   6.892  -0.306  1.00  0.00     0.195 C 
ENDBRANCH  76  77
BRANCH  76  79
ATOM     79  C   UNL     1      -1.526   3.853   1.206  1.00  0.00     0.068 C 
BRANCH  79  80
ATOM     80  C   UNL     1      -0.074   3.867   1.620  1.00  0.00    -0.045 A 
ATOM     81  C   UNL     1       0.463   4.948   2.332  1.00  0.00     0.004 A 
ATOM     82  C   UNL     1       0.771   2.802   1.272  1.00  0.00     0.004 A 
ATOM     83  C   UNL     1       1.810   4.959   2.699  1.00  0.00     0.000 A 
ATOM     84  C   UNL     1       2.118   2.815   1.639  1.00  0.00     0.000 A 
ATOM     85  C   UNL     1       2.637   3.892   2.354  1.00  0.00     0.000 A 
ENDBRANCH  79  80
ENDBRANCH  76  79
ENDBRANCH  74  76
ENDBRANCH  72  74
ENDBRANCH  70  71
ENDBRANCH   1  69
TORSDOF 17
ENDMDL
