MODEL 1
REMARK VINA RESULT:    -5.649      0.000      0.000
REMARK INTER + INTRA:         -12.626
REMARK INTER:                 -10.108
REMARK INTRA:                  -2.518
REMARK UNBOUND:                -2.518
REMARK SMILES CC[C@H](C)[C@H]1NC(=O)c2coc(n2)[C@H](C(C)C)NC(=O)[C@H]([C@@H](C)O)NC(=O)[C@H](C)NC(=O)c2csc1n2
REMARK SMILES IDX 11 1 13 2 12 3 9 4 10 5 7 6 6 7 8 8 5 10 36 11 35 12 34 13
REMARK SMILES IDX 37 14 33 15 31 16 32 17 30 18 28 20 29 21 3 23 4 24 2 25
REMARK SMILES IDX 1 26 14 27 18 28 19 29 20 30 21 32 25 33 26 34 27 35 22 38
REMARK SMILES IDX 23 39 24 40 15 42 16 43 17 44
REMARK H PARENT 6 9 30 19 18 31 25 36 24 41
REMARK Flexibility Score:   94.900
ROOT
ATOM      1  O   UNL     1      -1.665  12.398   3.817  1.00  0.00    -0.446 OA
ATOM      2  N   UNL     1      -3.660  12.906   2.899  1.00  0.00    -0.207 NA
ATOM      3  C   UNL     1      -2.362  12.764   2.697  1.00  0.00     0.217 A 
ATOM      4  C   UNL     1      -3.832  12.587   4.234  1.00  0.00     0.167 A 
ATOM      5  C   UNL     1      -2.614  12.278   4.788  1.00  0.00     0.231 A 
ENDROOT
BRANCH   4   6
ATOM      6  C   UNL     1      -5.123  12.625   4.899  1.00  0.00     0.273 C 
ATOM      7  N   UNL     1      -6.014  13.432   4.237  1.00  0.00    -0.341 N 
ATOM      8  O   UNL     1      -5.368  12.025   5.939  1.00  0.00    -0.267 OA
ATOM      9  H   UNL     1      -5.641  13.939   3.440  1.00  0.00     0.164 HD
BRANCH   7  10
ATOM     10  C   UNL     1      -7.282  13.845   4.806  1.00  0.00     0.145 C 
BRANCH  10  11
ATOM     11  C   UNL     1      -7.313  15.366   4.806  1.00  0.00     0.116 A 
ATOM     12  S   UNL     1      -8.219  16.202   6.011  1.00  0.00    -0.124 S 
ATOM     13  C   UNL     1      -7.710  17.693   5.348  1.00  0.00     0.101 A 
ATOM     14  N   UNL     1      -6.674  16.138   3.943  1.00  0.00    -0.234 NA
ATOM     15  C   UNL     1      -6.885  17.482   4.261  1.00  0.00     0.139 A 
BRANCH  15  16
ATOM     16  C   UNL     1      -6.263  18.562   3.491  1.00  0.00     0.271 C 
ATOM     17  O   UNL     1      -6.887  19.538   3.090  1.00  0.00    -0.267 OA
ATOM     18  N   UNL     1      -4.915  18.372   3.267  1.00  0.00    -0.339 N 
ATOM     19  H   UNL     1      -4.539  17.472   3.554  1.00  0.00     0.164 HD
BRANCH  18  20
ATOM     20  C   UNL     1      -4.145  19.311   2.462  1.00  0.00     0.168 CG0
ATOM     21  C   UNL     1      -3.199  20.143   3.330  1.00  0.00     0.041 C 
ATOM     22  G   UNL     1      -3.302  18.614   1.382  1.00  0.00     0.000 G0
ENDBRANCH  18  20
ENDBRANCH  15  16
ENDBRANCH  10  11
BRANCH  10  23
ATOM     23  C   UNL     1      -8.490  13.229   4.051  1.00  0.00     0.015 C 
ATOM     24  C   UNL     1      -8.250  13.074   2.540  1.00  0.00     0.010 C 
BRANCH  23  25
ATOM     25  C   UNL     1      -8.919  11.860   4.627  1.00  0.00     0.002 C 
ATOM     26  C   UNL     1      -9.726  11.956   5.914  1.00  0.00     0.004 C 
ENDBRANCH  23  25
ENDBRANCH  10  23
ENDBRANCH   7  10
ENDBRANCH   4   6
BRANCH   3  27
ATOM     27  C   UNL     1      -1.611  13.009   1.417  1.00  0.00     0.171 C 
BRANCH  27  28
ATOM     28  N   UNL     1      -1.280  14.429   1.359  1.00  0.00    -0.342 N 
ATOM     29  C   UNL     1      -2.096  15.363   0.762  1.00  0.00     0.245 C 
ATOM     30  O   UNL     1      -3.173  15.072   0.245  1.00  0.00    -0.273 OA
ATOM     31  H   UNL     1      -0.460  14.762   1.865  1.00  0.00     0.164 HD
BRANCH  29  32
ATOM     32  C   UNL     1      -1.640  16.830   0.914  1.00  0.00     0.200 C 
BRANCH  32  33
ATOM     33  N   UNL     1      -2.585  17.516   1.804  1.00  0.00    -0.340 N 
ATOM     34  C   UNL     1      -3.296  18.620   1.381  1.00  0.00     0.243 CG0
ATOM     35  O   UNL     1      -3.125  19.115   0.269  1.00  0.00    -0.273 OA
ATOM     36  H   UNL     1      -2.725  17.149   2.738  1.00  0.00     0.164 HD
ATOM     37  G   UNL     1      -4.143  19.319   2.456  1.00  0.00     0.000 G0
ENDBRANCH  32  33
BRANCH  32  38
ATOM     38  C   UNL     1      -0.176  16.920   1.403  1.00  0.00     0.143 C 
ATOM     39  C   UNL     1       0.485  18.268   1.143  1.00  0.00     0.041 C 
BRANCH  38  40
ATOM     40  O   UNL     1      -0.110  16.631   2.814  1.00  0.00    -0.391 OA
ATOM     41  H   UNL     1      -0.269  15.673   2.910  1.00  0.00     0.211 HD
ENDBRANCH  38  40
ENDBRANCH  32  38
ENDBRANCH  29  32
ENDBRANCH  27  28
BRANCH  27  42
ATOM     42  C   UNL     1      -0.373  12.123   1.135  1.00  0.00     0.015 C 
ATOM     43  C   UNL     1      -0.675  10.697   0.660  1.00  0.00     0.010 C 
ATOM     44  C   UNL     1       0.612  12.804   0.179  1.00  0.00     0.010 C 
ENDBRANCH  27  42
ENDBRANCH   3  27
TORSDOF 5
ENDMDL
MODEL 2
REMARK VINA RESULT:    -5.186      3.242      3.993
REMARK INTER + INTRA:         -11.797
REMARK INTER:                  -9.471
REMARK INTRA:                  -2.326
REMARK UNBOUND:                -2.518
REMARK SMILES CC[C@H](C)[C@H]1NC(=O)c2coc(n2)[C@H](C(C)C)NC(=O)[C@H]([C@@H](C)O)NC(=O)[C@H](C)NC(=O)c2csc1n2
REMARK SMILES IDX 11 1 13 2 12 3 9 4 10 5 7 6 6 7 8 8 5 10 36 11 35 12 34 13
REMARK SMILES IDX 37 14 33 15 31 16 32 17 30 18 28 20 29 21 3 23 4 24 2 25
REMARK SMILES IDX 1 26 14 27 18 28 19 29 20 30 21 32 25 33 26 34 27 35 22 38
REMARK SMILES IDX 23 39 24 40 15 42 16 43 17 44
REMARK H PARENT 6 9 30 19 18 31 25 36 24 41
REMARK Flexibility Score:   94.900
ROOT
ATOM      1  O   UNL     1      -2.688  14.149   1.132  1.00  0.00    -0.446 OA
ATOM      2  N   UNL     1      -1.650  13.620   3.062  1.00  0.00    -0.207 NA
ATOM      3  C   UNL     1      -1.579  14.287   1.924  1.00  0.00     0.217 A 
ATOM      4  C   UNL     1      -2.898  13.025   3.029  1.00  0.00     0.167 A 
ATOM      5  C   UNL     1      -3.526  13.351   1.852  1.00  0.00     0.231 A 
ENDROOT
BRANCH   4   6
ATOM      6  C   UNL     1      -3.398  12.170   4.092  1.00  0.00     0.273 C 
ATOM      7  N   UNL     1      -4.710  12.439   4.388  1.00  0.00    -0.341 N 
ATOM      8  O   UNL     1      -2.714  11.330   4.664  1.00  0.00    -0.267 OA
ATOM      9  H   UNL     1      -5.121  13.226   3.894  1.00  0.00     0.164 HD
BRANCH   7  10
ATOM     10  C   UNL     1      -5.381  11.914   5.561  1.00  0.00     0.145 C 
BRANCH  10  11
ATOM     11  C   UNL     1      -5.209  12.929   6.682  1.00  0.00     0.116 A 
ATOM     12  S   UNL     1      -6.267  12.887   8.043  1.00  0.00    -0.124 S 
ATOM     13  C   UNL     1      -5.416  14.198   8.735  1.00  0.00     0.101 A 
ATOM     14  N   UNL     1      -4.279  13.868   6.719  1.00  0.00    -0.234 NA
ATOM     15  C   UNL     1      -4.382  14.593   7.909  1.00  0.00     0.139 A 
BRANCH  15  16
ATOM     16  C   UNL     1      -3.451  15.676   8.234  1.00  0.00     0.271 C 
ATOM     17  O   UNL     1      -3.352  16.152   9.359  1.00  0.00    -0.267 OA
ATOM     18  N   UNL     1      -2.701  16.099   7.157  1.00  0.00    -0.339 N 
ATOM     19  H   UNL     1      -2.954  15.703   6.256  1.00  0.00     0.164 HD
BRANCH  18  20
ATOM     20  C   UNL     1      -1.770  17.213   7.277  1.00  0.00     0.168 CG0
ATOM     21  C   UNL     1      -0.377  16.732   7.688  1.00  0.00     0.041 C 
ATOM     22  G   UNL     1      -1.626  18.010   5.971  1.00  0.00     0.000 G0
ENDBRANCH  18  20
ENDBRANCH  15  16
ENDBRANCH  10  11
BRANCH  10  23
ATOM     23  C   UNL     1      -6.872  11.585   5.285  1.00  0.00     0.015 C 
ATOM     24  C   UNL     1      -7.427  12.279   4.031  1.00  0.00     0.010 C 
BRANCH  23  25
ATOM     25  C   UNL     1      -7.137  10.066   5.169  1.00  0.00     0.002 C 
ATOM     26  C   UNL     1      -6.350   9.223   6.162  1.00  0.00     0.004 C 
ENDBRANCH  23  25
ENDBRANCH  10  23
ENDBRANCH   7  10
ENDBRANCH   4   6
BRANCH   3  27
ATOM     27  C   UNL     1      -0.419  15.103   1.422  1.00  0.00     0.171 C 
BRANCH  27  28
ATOM     28  N   UNL     1      -0.117  16.116   2.427  1.00  0.00    -0.342 N 
ATOM     29  C   UNL     1      -0.849  17.274   2.565  1.00  0.00     0.245 C 
ATOM     30  O   UNL     1      -1.823  17.533   1.859  1.00  0.00    -0.273 OA
ATOM     31  H   UNL     1       0.603  15.918   3.121  1.00  0.00     0.164 HD
BRANCH  29  32
ATOM     32  C   UNL     1      -0.459  18.162   3.765  1.00  0.00     0.200 C 
BRANCH  32  33
ATOM     33  N   UNL     1      -0.794  17.441   5.000  1.00  0.00    -0.340 N 
ATOM     34  C   UNL     1      -1.608  18.005   5.960  1.00  0.00     0.243 CG0
ATOM     35  O   UNL     1      -2.034  19.154   5.857  1.00  0.00    -0.273 OA
ATOM     36  H   UNL     1      -0.433  16.503   5.127  1.00  0.00     0.164 HD
ATOM     37  G   UNL     1      -1.764  17.199   7.259  1.00  0.00     0.000 G0
ENDBRANCH  32  33
BRANCH  32  38
ATOM     38  C   UNL     1       1.027  18.583   3.698  1.00  0.00     0.143 C 
ATOM     39  C   UNL     1       1.928  17.849   4.685  1.00  0.00     0.041 C 
BRANCH  38  40
ATOM     40  O   UNL     1       1.536  18.385   2.365  1.00  0.00    -0.391 OA
ATOM     41  H   UNL     1       1.636  19.272   1.969  1.00  0.00     0.211 HD
ENDBRANCH  38  40
ENDBRANCH  32  38
ENDBRANCH  29  32
ENDBRANCH  27  28
BRANCH  27  42
ATOM     42  C   UNL     1       0.854  14.338   0.983  1.00  0.00     0.015 C 
ATOM     43  C   UNL     1       0.633  13.222  -0.045  1.00  0.00     0.010 C 
ATOM     44  C   UNL     1       1.957  15.288   0.507  1.00  0.00     0.010 C 
ENDBRANCH  27  42
ENDBRANCH   3  27
TORSDOF 5
ENDMDL
MODEL 3
REMARK VINA RESULT:    -5.132      3.265      7.446
REMARK INTER + INTRA:         -11.701
REMARK INTER:                  -9.601
REMARK INTRA:                  -2.100
REMARK UNBOUND:                -2.518
REMARK SMILES CC[C@H](C)[C@H]1NC(=O)c2coc(n2)[C@H](C(C)C)NC(=O)[C@H]([C@@H](C)O)NC(=O)[C@H](C)NC(=O)c2csc1n2
REMARK SMILES IDX 11 1 13 2 12 3 9 4 10 5 7 6 6 7 8 8 5 10 36 11 35 12 34 13
REMARK SMILES IDX 37 14 33 15 31 16 32 17 30 18 28 20 29 21 3 23 4 24 2 25
REMARK SMILES IDX 1 26 14 27 18 28 19 29 20 30 21 32 25 33 26 34 27 35 22 38
REMARK SMILES IDX 23 39 24 40 15 42 16 43 17 44
REMARK H PARENT 6 9 30 19 18 31 25 36 24 41
REMARK Flexibility Score:   94.900
ROOT
ATOM      1  O   UNL     1      -6.239  16.247   0.761  1.00  0.00    -0.446 OA
ATOM      2  N   UNL     1      -4.331  15.118   1.167  1.00  0.00    -0.207 NA
ATOM      3  C   UNL     1      -5.633  15.186   1.380  1.00  0.00     0.217 A 
ATOM      4  C   UNL     1      -4.067  16.189   0.332  1.00  0.00     0.167 A 
ATOM      5  C   UNL     1      -5.233  16.872   0.087  1.00  0.00     0.231 A 
ENDROOT
BRANCH   4   6
ATOM      6  C   UNL     1      -2.735  16.509  -0.152  1.00  0.00     0.273 C 
ATOM      7  N   UNL     1      -1.795  15.631   0.325  1.00  0.00    -0.341 N 
ATOM      8  O   UNL     1      -2.489  17.465  -0.877  1.00  0.00    -0.267 OA
ATOM      9  H   UNL     1      -2.133  14.943   0.992  1.00  0.00     0.164 HD
BRANCH   7  10
ATOM     10  C   UNL     1      -0.368  15.856   0.205  1.00  0.00     0.145 C 
BRANCH  10  11
ATOM     11  C   UNL     1       0.115  16.456   1.518  1.00  0.00     0.116 A 
ATOM     12  S   UNL     1       1.629  17.278   1.575  1.00  0.00    -0.124 S 
ATOM     13  C   UNL     1       1.372  17.618   3.231  1.00  0.00     0.101 A 
ATOM     14  N   UNL     1      -0.550  16.415   2.660  1.00  0.00    -0.234 NA
ATOM     15  C   UNL     1       0.162  17.099   3.649  1.00  0.00     0.139 A 
BRANCH  15  16
ATOM     16  C   UNL     1      -0.359  17.247   5.009  1.00  0.00     0.271 C 
ATOM     17  O   UNL     1       0.307  17.706   5.930  1.00  0.00    -0.267 OA
ATOM     18  N   UNL     1      -1.664  16.824   5.148  1.00  0.00    -0.339 N 
ATOM     19  H   UNL     1      -2.070  16.361   4.339  1.00  0.00     0.164 HD
BRANCH  18  20
ATOM     20  C   UNL     1      -2.326  16.833   6.446  1.00  0.00     0.168 CG0
ATOM     21  C   UNL     1      -3.208  18.073   6.612  1.00  0.00     0.041 C 
ATOM     22  G   UNL     1      -3.209  15.595   6.671  1.00  0.00     0.000 G0
ENDBRANCH  18  20
ENDBRANCH  15  16
ENDBRANCH  10  11
BRANCH  10  23
ATOM     23  C   UNL     1       0.400  14.562  -0.172  1.00  0.00     0.015 C 
ATOM     24  C   UNL     1       1.766  14.832  -0.824  1.00  0.00     0.010 C 
BRANCH  23  25
ATOM     25  C   UNL     1       0.605  13.615   1.032  1.00  0.00     0.002 C 
ATOM     26  C   UNL     1       0.022  12.223   0.831  1.00  0.00     0.004 C 
ENDBRANCH  23  25
ENDBRANCH  10  23
ENDBRANCH   7  10
ENDBRANCH   4   6
BRANCH   3  27
ATOM     27  C   UNL     1      -6.459  14.276   2.246  1.00  0.00     0.171 C 
BRANCH  27  28
ATOM     28  N   UNL     1      -6.132  14.565   3.638  1.00  0.00    -0.342 N 
ATOM     29  C   UNL     1      -5.460  13.676   4.448  1.00  0.00     0.245 C 
ATOM     30  O   UNL     1      -5.073  12.577   4.052  1.00  0.00    -0.273 OA
ATOM     31  H   UNL     1      -6.319  15.498   4.002  1.00  0.00     0.164 HD
BRANCH  29  32
ATOM     32  C   UNL     1      -5.091  14.209   5.848  1.00  0.00     0.200 C 
BRANCH  32  33
ATOM     33  N   UNL     1      -4.115  15.294   5.685  1.00  0.00    -0.340 N 
ATOM     34  C   UNL     1      -3.211  15.599   6.681  1.00  0.00     0.243 CG0
ATOM     35  O   UNL     1      -3.222  15.023   7.767  1.00  0.00    -0.273 OA
ATOM     36  H   UNL     1      -4.102  15.807   4.812  1.00  0.00     0.164 HD
ATOM     37  G   UNL     1      -2.342  16.843   6.434  1.00  0.00     0.000 G0
ENDBRANCH  32  33
BRANCH  32  38
ATOM     38  C   UNL     1      -6.347  14.642   6.638  1.00  0.00     0.143 C 
ATOM     39  C   UNL     1      -6.663  16.130   6.539  1.00  0.00     0.041 C 
BRANCH  38  40
ATOM     40  O   UNL     1      -7.493  13.890   6.192  1.00  0.00    -0.391 OA
ATOM     41  H   UNL     1      -8.004  14.481   5.607  1.00  0.00     0.211 HD
ENDBRANCH  38  40
ENDBRANCH  32  38
ENDBRANCH  29  32
ENDBRANCH  27  28
BRANCH  27  42
ATOM     42  C   UNL     1      -7.990  14.264   2.012  1.00  0.00     0.015 C 
ATOM     43  C   UNL     1      -8.709  12.969   2.407  1.00  0.00     0.010 C 
ATOM     44  C   UNL     1      -8.678  15.471   2.658  1.00  0.00     0.010 C 
ENDBRANCH  27  42
ENDBRANCH   3  27
TORSDOF 5
ENDMDL
MODEL 4
REMARK VINA RESULT:    -4.964      3.010      3.605
REMARK INTER + INTRA:         -11.400
REMARK INTER:                  -8.878
REMARK INTRA:                  -2.522
REMARK UNBOUND:                -2.518
REMARK SMILES CC[C@H](C)[C@H]1NC(=O)c2coc(n2)[C@H](C(C)C)NC(=O)[C@H]([C@@H](C)O)NC(=O)[C@H](C)NC(=O)c2csc1n2
REMARK SMILES IDX 11 1 13 2 12 3 9 4 10 5 7 6 6 7 8 8 5 10 36 11 35 12 34 13
REMARK SMILES IDX 37 14 33 15 31 16 32 17 30 18 28 20 29 21 3 23 4 24 2 25
REMARK SMILES IDX 1 26 14 27 18 28 19 29 20 30 21 32 25 33 26 34 27 35 22 38
REMARK SMILES IDX 23 39 24 40 15 42 16 43 17 44
REMARK H PARENT 6 9 30 19 18 31 25 36 24 41
REMARK Flexibility Score:   94.900
ROOT
ATOM      1  O   UNL     1      -3.924  13.838   1.384  1.00  0.00    -0.446 OA
ATOM      2  N   UNL     1      -2.599  13.639   3.197  1.00  0.00    -0.207 NA
ATOM      3  C   UNL     1      -2.651  13.757   1.882  1.00  0.00     0.217 A 
ATOM      4  C   UNL     1      -3.925  13.671   3.593  1.00  0.00     0.167 A 
ATOM      5  C   UNL     1      -4.727  13.793   2.484  1.00  0.00     0.231 A 
ENDROOT
BRANCH   4   6
ATOM      6  C   UNL     1      -4.343  13.556   4.979  1.00  0.00     0.273 C 
ATOM      7  N   UNL     1      -5.020  14.672   5.402  1.00  0.00    -0.341 N 
ATOM      8  O   UNL     1      -4.093  12.586   5.684  1.00  0.00    -0.267 OA
ATOM      9  H   UNL     1      -5.071  15.436   4.734  1.00  0.00     0.164 HD
BRANCH   7  10
ATOM     10  C   UNL     1      -5.331  14.929   6.794  1.00  0.00     0.145 C 
BRANCH  10  11
ATOM     11  C   UNL     1      -4.285  15.897   7.328  1.00  0.00     0.116 A 
ATOM     12  S   UNL     1      -4.259  16.286   9.007  1.00  0.00    -0.124 S 
ATOM     13  C   UNL     1      -2.896  17.285   8.747  1.00  0.00     0.101 A 
ATOM     14  N   UNL     1      -3.349  16.480   6.598  1.00  0.00    -0.234 NA
ATOM     15  C   UNL     1      -2.533  17.269   7.414  1.00  0.00     0.139 A 
BRANCH  15  16
ATOM     16  C   UNL     1      -1.387  18.004   6.875  1.00  0.00     0.271 C 
ATOM     17  O   UNL     1      -0.796  18.872   7.508  1.00  0.00    -0.267 OA
ATOM     18  N   UNL     1      -1.040  17.623   5.596  1.00  0.00    -0.339 N 
ATOM     19  H   UNL     1      -1.675  16.973   5.138  1.00  0.00     0.164 HD
BRANCH  18  20
ATOM     20  C   UNL     1       0.034  18.292   4.874  1.00  0.00     0.168 CG0
ATOM     21  C   UNL     1       1.349  17.520   4.994  1.00  0.00     0.041 C 
ATOM     22  G   UNL     1      -0.275  18.467   3.378  1.00  0.00     0.000 G0
ENDBRANCH  18  20
ENDBRANCH  15  16
ENDBRANCH  10  11
BRANCH  10  23
ATOM     23  C   UNL     1      -6.778  15.458   6.984  1.00  0.00     0.015 C 
ATOM     24  C   UNL     1      -7.392  16.026   5.694  1.00  0.00     0.010 C 
BRANCH  23  25
ATOM     25  C   UNL     1      -7.735  14.389   7.558  1.00  0.00     0.002 C 
ATOM     26  C   UNL     1      -7.025  13.202   8.196  1.00  0.00     0.004 C 
ENDBRANCH  23  25
ENDBRANCH  10  23
ENDBRANCH   7  10
ENDBRANCH   4   6
BRANCH   3  27
ATOM     27  C   UNL     1      -1.490  13.755   0.926  1.00  0.00     0.171 C 
BRANCH  27  28
ATOM     28  N   UNL     1      -0.729  14.980   1.145  1.00  0.00    -0.342 N 
ATOM     29  C   UNL     1      -1.141  16.209   0.678  1.00  0.00     0.245 C 
ATOM     30  O   UNL     1      -2.189  16.366   0.054  1.00  0.00    -0.273 OA
ATOM     31  H   UNL     1       0.090  14.947   1.750  1.00  0.00     0.164 HD
BRANCH  29  32
ATOM     32  C   UNL     1      -0.272  17.406   1.118  1.00  0.00     0.200 C 
BRANCH  32  33
ATOM     33  N   UNL     1      -0.107  17.345   2.575  1.00  0.00    -0.340 N 
ATOM     34  C   UNL     1      -0.284  18.463   3.363  1.00  0.00     0.243 CG0
ATOM     35  O   UNL     1      -0.522  19.568   2.880  1.00  0.00    -0.273 OA
ATOM     36  H   UNL     1       0.119  16.454   3.001  1.00  0.00     0.164 HD
ATOM     37  G   UNL     1       0.054  18.289   4.853  1.00  0.00     0.000 G0
ENDBRANCH  32  33
BRANCH  32  38
ATOM     38  C   UNL     1       1.075  17.437   0.359  1.00  0.00     0.143 C 
ATOM     39  C   UNL     1       2.234  16.806   1.123  1.00  0.00     0.041 C 
BRANCH  38  40
ATOM     40  O   UNL     1       0.939  16.775  -0.913  1.00  0.00    -0.391 OA
ATOM     41  H   UNL     1       0.301  17.299  -1.434  1.00  0.00     0.211 HD
ENDBRANCH  38  40
ENDBRANCH  32  38
ENDBRANCH  29  32
ENDBRANCH  27  28
BRANCH  27  42
ATOM     42  C   UNL     1      -0.572  12.508   0.921  1.00  0.00     0.015 C 
ATOM     43  C   UNL     1      -1.276  11.170   0.669  1.00  0.00     0.010 C 
ATOM     44  C   UNL     1       0.613  12.673  -0.036  1.00  0.00     0.010 C 
ENDBRANCH  27  42
ENDBRANCH   3  27
TORSDOF 5
ENDMDL
MODEL 5
REMARK VINA RESULT:    -4.444      2.103      3.483
REMARK INTER + INTRA:         -10.469
REMARK INTER:                  -8.563
REMARK INTRA:                  -1.907
REMARK UNBOUND:                -2.518
REMARK SMILES CC[C@H](C)[C@H]1NC(=O)c2coc(n2)[C@H](C(C)C)NC(=O)[C@H]([C@@H](C)O)NC(=O)[C@H](C)NC(=O)c2csc1n2
REMARK SMILES IDX 11 1 13 2 12 3 9 4 10 5 7 6 6 7 8 8 5 10 36 11 35 12 34 13
REMARK SMILES IDX 37 14 33 15 31 16 32 17 30 18 28 20 29 21 3 23 4 24 2 25
REMARK SMILES IDX 1 26 14 27 18 28 19 29 20 30 21 32 25 33 26 34 27 35 22 38
REMARK SMILES IDX 23 39 24 40 15 42 16 43 17 44
REMARK H PARENT 6 9 30 19 18 31 25 36 24 41
REMARK Flexibility Score:   94.900
ROOT
ATOM      1  O   UNL     1      -1.538  13.058   0.811  1.00  0.00    -0.446 OA
ATOM      2  N   UNL     1      -2.470  14.250   2.482  1.00  0.00    -0.207 NA
ATOM      3  C   UNL     1      -1.953  14.281   1.267  1.00  0.00     0.217 A 
ATOM      4  C   UNL     1      -2.416  12.913   2.839  1.00  0.00     0.167 A 
ATOM      5  C   UNL     1      -1.848  12.193   1.817  1.00  0.00     0.231 A 
ENDROOT
BRANCH   4   6
ATOM      6  C   UNL     1      -2.874  12.417   4.125  1.00  0.00     0.273 C 
ATOM      7  N   UNL     1      -4.191  12.033   4.083  1.00  0.00    -0.341 N 
ATOM      8  O   UNL     1      -2.168  12.374   5.125  1.00  0.00    -0.267 OA
ATOM      9  H   UNL     1      -4.674  12.213   3.208  1.00  0.00     0.164 HD
BRANCH   7  10
ATOM     10  C   UNL     1      -4.967  11.735   5.271  1.00  0.00     0.145 C 
BRANCH  10  11
ATOM     11  C   UNL     1      -5.420  13.059   5.869  1.00  0.00     0.116 A 
ATOM     12  S   UNL     1      -5.605  13.208   7.576  1.00  0.00    -0.124 S 
ATOM     13  C   UNL     1      -6.046  14.847   7.378  1.00  0.00     0.101 A 
ATOM     14  N   UNL     1      -5.681  14.155   5.174  1.00  0.00    -0.234 NA
ATOM     15  C   UNL     1      -6.027  15.195   6.041  1.00  0.00     0.139 A 
BRANCH  15  16
ATOM     16  C   UNL     1      -6.332  16.539   5.547  1.00  0.00     0.271 C 
ATOM     17  O   UNL     1      -6.992  17.350   6.188  1.00  0.00    -0.267 OA
ATOM     18  N   UNL     1      -5.807  16.799   4.299  1.00  0.00    -0.339 N 
ATOM     19  H   UNL     1      -5.376  16.010   3.824  1.00  0.00     0.164 HD
BRANCH  18  20
ATOM     20  C   UNL     1      -6.065  18.062   3.619  1.00  0.00     0.168 CG0
ATOM     21  C   UNL     1      -4.949  19.074   3.883  1.00  0.00     0.041 C 
ATOM     22  G   UNL     1      -6.203  17.900   2.097  1.00  0.00     0.000 G0
ENDBRANCH  18  20
ENDBRANCH  15  16
ENDBRANCH  10  11
BRANCH  10  23
ATOM     23  C   UNL     1      -6.155  10.784   4.971  1.00  0.00     0.015 C 
ATOM     24  C   UNL     1      -5.974   9.377   5.565  1.00  0.00     0.010 C 
BRANCH  23  25
ATOM     25  C   UNL     1      -7.511  11.352   5.449  1.00  0.00     0.002 C 
ATOM     26  C   UNL     1      -8.259  10.440   6.412  1.00  0.00     0.004 C 
ENDBRANCH  23  25
ENDBRANCH  10  23
ENDBRANCH   7  10
ENDBRANCH   4   6
BRANCH   3  27
ATOM     27  C   UNL     1      -1.741  15.494   0.403  1.00  0.00     0.171 C 
BRANCH  27  28
ATOM     28  N   UNL     1      -2.894  16.372   0.574  1.00  0.00    -0.342 N 
ATOM     29  C   UNL     1      -3.798  16.623  -0.433  1.00  0.00     0.245 C 
ATOM     30  O   UNL     1      -3.709  16.114  -1.550  1.00  0.00    -0.273 OA
ATOM     31  H   UNL     1      -3.096  16.738   1.503  1.00  0.00     0.164 HD
BRANCH  29  32
ATOM     32  C   UNL     1      -5.020  17.472  -0.026  1.00  0.00     0.200 C 
BRANCH  32  33
ATOM     33  N   UNL     1      -5.046  17.569   1.439  1.00  0.00    -0.340 N 
ATOM     34  C   UNL     1      -6.209  17.876   2.115  1.00  0.00     0.243 CG0
ATOM     35  O   UNL     1      -7.253  18.143   1.525  1.00  0.00    -0.273 OA
ATOM     36  H   UNL     1      -4.193  17.384   1.952  1.00  0.00     0.164 HD
ATOM     37  G   UNL     1      -6.063  18.080   3.632  1.00  0.00     0.000 G0
ENDBRANCH  32  33
BRANCH  32  38
ATOM     38  C   UNL     1      -5.006  18.854  -0.721  1.00  0.00     0.143 C 
ATOM     39  C   UNL     1      -4.383  19.965   0.115  1.00  0.00     0.041 C 
BRANCH  38  40
ATOM     40  O   UNL     1      -4.306  18.766  -1.978  1.00  0.00    -0.391 OA
ATOM     41  H   UNL     1      -4.324  19.659  -2.370  1.00  0.00     0.211 HD
ENDBRANCH  38  40
ENDBRANCH  32  38
ENDBRANCH  29  32
ENDBRANCH  27  28
BRANCH  27  42
ATOM     42  C   UNL     1      -0.408  16.264   0.570  1.00  0.00     0.015 C 
ATOM     43  C   UNL     1       0.762  15.753  -0.278  1.00  0.00     0.010 C 
ATOM     44  C   UNL     1      -0.590  17.773   0.370  1.00  0.00     0.010 C 
ENDBRANCH  27  42
ENDBRANCH   3  27
TORSDOF 5
ENDMDL
MODEL 6
REMARK VINA RESULT:    -4.393      3.791      6.426
REMARK INTER + INTRA:         -10.378
REMARK INTER:                  -8.154
REMARK INTRA:                  -2.224
REMARK UNBOUND:                -2.518
REMARK SMILES CC[C@H](C)[C@H]1NC(=O)c2coc(n2)[C@H](C(C)C)NC(=O)[C@H]([C@@H](C)O)NC(=O)[C@H](C)NC(=O)c2csc1n2
REMARK SMILES IDX 11 1 13 2 12 3 9 4 10 5 7 6 6 7 8 8 5 10 36 11 35 12 34 13
REMARK SMILES IDX 37 14 33 15 31 16 32 17 30 18 28 20 29 21 3 23 4 24 2 25
REMARK SMILES IDX 1 26 14 27 18 28 19 29 20 30 21 32 25 33 26 34 27 35 22 38
REMARK SMILES IDX 23 39 24 40 15 42 16 43 17 44
REMARK H PARENT 6 9 30 19 18 31 25 36 24 41
REMARK Flexibility Score:   94.900
ROOT
ATOM      1  O   UNL     1       2.108  17.048   2.115  1.00  0.00    -0.446 OA
ATOM      2  N   UNL     1       0.021  17.271   2.939  1.00  0.00    -0.207 NA
ATOM      3  C   UNL     1       0.782  16.721   2.009  1.00  0.00     0.217 A 
ATOM      4  C   UNL     1       0.909  17.986   3.724  1.00  0.00     0.167 A 
ATOM      5  C   UNL     1       2.178  17.845   3.218  1.00  0.00     0.231 A 
ENDROOT
BRANCH   4   6
ATOM      6  C   UNL     1       0.496  18.771   4.875  1.00  0.00     0.273 C 
ATOM      7  N   UNL     1       0.158  17.975   5.940  1.00  0.00    -0.341 N 
ATOM      8  O   UNL     1       0.437  19.994   4.874  1.00  0.00    -0.267 OA
ATOM      9  H   UNL     1       0.167  16.975   5.763  1.00  0.00     0.164 HD
BRANCH   7  10
ATOM     10  C   UNL     1      -0.518  18.477   7.120  1.00  0.00     0.145 C 
BRANCH  10  11
ATOM     11  C   UNL     1      -1.929  17.905   7.121  1.00  0.00     0.116 A 
ATOM     12  S   UNL     1      -3.210  18.791   7.858  1.00  0.00    -0.124 S 
ATOM     13  C   UNL     1      -4.310  17.564   7.404  1.00  0.00     0.101 A 
ATOM     14  N   UNL     1      -2.279  16.752   6.576  1.00  0.00    -0.234 NA
ATOM     15  C   UNL     1      -3.655  16.557   6.721  1.00  0.00     0.139 A 
BRANCH  15  16
ATOM     16  C   UNL     1      -4.327  15.375   6.176  1.00  0.00     0.271 C 
ATOM     17  O   UNL     1      -4.360  14.299   6.762  1.00  0.00    -0.267 OA
ATOM     18  N   UNL     1      -4.915  15.594   4.948  1.00  0.00    -0.339 N 
ATOM     19  H   UNL     1      -4.723  16.494   4.517  1.00  0.00     0.164 HD
BRANCH  18  20
ATOM     20  C   UNL     1      -5.571  14.514   4.222  1.00  0.00     0.168 CG0
ATOM     21  C   UNL     1      -7.088  14.709   4.186  1.00  0.00     0.041 C 
ATOM     22  G   UNL     1      -5.078  14.388   2.772  1.00  0.00     0.000 G0
ENDBRANCH  18  20
ENDBRANCH  15  16
ENDBRANCH  10  11
BRANCH  10  23
ATOM     23  C   UNL     1       0.255  18.147   8.423  1.00  0.00     0.015 C 
ATOM     24  C   UNL     1      -0.170  19.014   9.620  1.00  0.00     0.010 C 
BRANCH  23  25
ATOM     25  C   UNL     1       0.142  16.659   8.825  1.00  0.00     0.002 C 
ATOM     26  C   UNL     1       0.628  16.361  10.237  1.00  0.00     0.004 C 
ENDBRANCH  23  25
ENDBRANCH  10  23
ENDBRANCH   7  10
ENDBRANCH   4   6
BRANCH   3  27
ATOM     27  C   UNL     1       0.332  15.853   0.866  1.00  0.00     0.171 C 
BRANCH  27  28
ATOM     28  N   UNL     1      -1.121  15.945   0.781  1.00  0.00    -0.342 N 
ATOM     29  C   UNL     1      -1.955  14.891   1.080  1.00  0.00     0.245 C 
ATOM     30  O   UNL     1      -1.537  13.797   1.456  1.00  0.00    -0.273 OA
ATOM     31  H   UNL     1      -1.544  16.852   0.587  1.00  0.00     0.164 HD
BRANCH  29  32
ATOM     32  C   UNL     1      -3.464  15.216   1.056  1.00  0.00     0.200 C 
BRANCH  32  33
ATOM     33  N   UNL     1      -3.971  15.151   2.432  1.00  0.00    -0.340 N 
ATOM     34  C   UNL     1      -5.072  14.384   2.753  1.00  0.00     0.243 CG0
ATOM     35  O   UNL     1      -5.712  13.776   1.898  1.00  0.00    -0.273 OA
ATOM     36  H   UNL     1      -3.482  15.666   3.154  1.00  0.00     0.164 HD
ATOM     37  G   UNL     1      -5.576  14.515   4.200  1.00  0.00     0.000 G0
ENDBRANCH  32  33
BRANCH  32  38
ATOM     38  C   UNL     1      -3.738  16.579   0.377  1.00  0.00     0.143 C 
ATOM     39  C   UNL     1      -5.171  16.754  -0.111  1.00  0.00     0.041 C 
BRANCH  38  40
ATOM     40  O   UNL     1      -3.417  17.653   1.281  1.00  0.00    -0.391 OA
ATOM     41  H   UNL     1      -2.815  18.252   0.800  1.00  0.00     0.211 HD
ENDBRANCH  38  40
ENDBRANCH  32  38
ENDBRANCH  29  32
ENDBRANCH  27  28
BRANCH  27  42
ATOM     42  C   UNL     1       1.000  16.085  -0.511  1.00  0.00     0.015 C 
ATOM     43  C   UNL     1       1.559  14.831  -1.195  1.00  0.00     0.010 C 
ATOM     44  C   UNL     1       0.082  16.848  -1.471  1.00  0.00     0.010 C 
ENDBRANCH  27  42
ENDBRANCH   3  27
TORSDOF 5
ENDMDL
MODEL 7
REMARK VINA RESULT:    -4.352      2.648      3.911
REMARK INTER + INTRA:         -10.305
REMARK INTER:                  -7.837
REMARK INTRA:                  -2.468
REMARK UNBOUND:                -2.518
REMARK SMILES CC[C@H](C)[C@H]1NC(=O)c2coc(n2)[C@H](C(C)C)NC(=O)[C@H]([C@@H](C)O)NC(=O)[C@H](C)NC(=O)c2csc1n2
REMARK SMILES IDX 11 1 13 2 12 3 9 4 10 5 7 6 6 7 8 8 5 10 36 11 35 12 34 13
REMARK SMILES IDX 37 14 33 15 31 16 32 17 30 18 28 20 29 21 3 23 4 24 2 25
REMARK SMILES IDX 1 26 14 27 18 28 19 29 20 30 21 32 25 33 26 34 27 35 22 38
REMARK SMILES IDX 23 39 24 40 15 42 16 43 17 44
REMARK H PARENT 6 9 30 19 18 31 25 36 24 41
REMARK Flexibility Score:   94.900
ROOT
ATOM      1  O   UNL     1      -2.021  13.246   3.664  1.00  0.00    -0.446 OA
ATOM      2  N   UNL     1      -3.466  14.630   4.703  1.00  0.00    -0.207 NA
ATOM      3  C   UNL     1      -2.540  14.509   3.768  1.00  0.00     0.217 A 
ATOM      4  C   UNL     1      -3.583  13.356   5.231  1.00  0.00     0.167 A 
ATOM      5  C   UNL     1      -2.701  12.518   4.594  1.00  0.00     0.231 A 
ENDROOT
BRANCH   4   6
ATOM      6  C   UNL     1      -4.493  13.027   6.314  1.00  0.00     0.273 C 
ATOM      7  N   UNL     1      -5.452  12.128   5.919  1.00  0.00    -0.341 N 
ATOM      8  O   UNL     1      -4.420  13.518   7.434  1.00  0.00    -0.267 OA
ATOM      9  H   UNL     1      -5.443  11.880   4.934  1.00  0.00     0.164 HD
BRANCH   7  10
ATOM     10  C   UNL     1      -6.622  11.818   6.716  1.00  0.00     0.145 C 
BRANCH  10  11
ATOM     11  C   UNL     1      -7.693  12.846   6.381  1.00  0.00     0.116 A 
ATOM     12  S   UNL     1      -9.034  13.060   7.442  1.00  0.00    -0.124 S 
ATOM     13  C   UNL     1      -9.633  14.296   6.424  1.00  0.00     0.101 A 
ATOM     14  N   UNL     1      -7.684  13.632   5.316  1.00  0.00    -0.234 NA
ATOM     15  C   UNL     1      -8.791  14.482   5.344  1.00  0.00     0.139 A 
BRANCH  15  16
ATOM     16  C   UNL     1      -9.015  15.489   4.304  1.00  0.00     0.271 C 
ATOM     17  O   UNL     1     -10.115  15.986   4.085  1.00  0.00    -0.267 OA
ATOM     18  N   UNL     1      -7.875  15.819   3.602  1.00  0.00    -0.339 N 
ATOM     19  H   UNL     1      -7.052  15.257   3.803  1.00  0.00     0.164 HD
BRANCH  18  20
ATOM     20  C   UNL     1      -7.920  16.753   2.486  1.00  0.00     0.168 CG0
ATOM     21  C   UNL     1      -7.452  18.147   2.907  1.00  0.00     0.041 C 
ATOM     22  G   UNL     1      -7.051  16.303   1.300  1.00  0.00     0.000 G0
ENDBRANCH  18  20
ENDBRANCH  15  16
ENDBRANCH  10  11
BRANCH  10  23
ATOM     23  C   UNL     1      -7.111  10.362   6.496  1.00  0.00     0.015 C 
ATOM     24  C   UNL     1      -7.994  10.198   5.247  1.00  0.00     0.010 C 
BRANCH  23  25
ATOM     25  C   UNL     1      -5.949   9.346   6.418  1.00  0.00     0.002 C 
ATOM     26  C   UNL     1      -5.977   8.470   5.173  1.00  0.00     0.004 C 
ENDBRANCH  23  25
ENDBRANCH  10  23
ENDBRANCH   7  10
ENDBRANCH   4   6
BRANCH   3  27
ATOM     27  C   UNL     1      -1.993  15.599   2.887  1.00  0.00     0.171 C 
BRANCH  27  28
ATOM     28  N   UNL     1      -3.107  16.165   2.134  1.00  0.00    -0.342 N 
ATOM     29  C   UNL     1      -3.501  15.682   0.907  1.00  0.00     0.245 C 
ATOM     30  O   UNL     1      -2.953  14.725   0.361  1.00  0.00    -0.273 OA
ATOM     31  H   UNL     1      -3.680  16.885   2.573  1.00  0.00     0.164 HD
BRANCH  29  32
ATOM     32  C   UNL     1      -4.778  16.324   0.324  1.00  0.00     0.200 C 
BRANCH  32  33
ATOM     33  N   UNL     1      -5.705  16.592   1.430  1.00  0.00    -0.340 N 
ATOM     34  C   UNL     1      -7.050  16.307   1.322  1.00  0.00     0.243 CG0
ATOM     35  O   UNL     1      -7.542  15.879   0.280  1.00  0.00    -0.273 OA
ATOM     36  H   UNL     1      -5.334  16.974   2.292  1.00  0.00     0.164 HD
ATOM     37  G   UNL     1      -7.925  16.765   2.500  1.00  0.00     0.000 G0
ENDBRANCH  32  33
BRANCH  32  38
ATOM     38  C   UNL     1      -4.447  17.587  -0.505  1.00  0.00     0.143 C 
ATOM     39  C   UNL     1      -4.755  18.898   0.208  1.00  0.00     0.041 C 
BRANCH  38  40
ATOM     40  O   UNL     1      -3.057  17.577  -0.885  1.00  0.00    -0.391 OA
ATOM     41  H   UNL     1      -2.895  16.721  -1.326  1.00  0.00     0.211 HD
ENDBRANCH  38  40
ENDBRANCH  32  38
ENDBRANCH  29  32
ENDBRANCH  27  28
BRANCH  27  42
ATOM     42  C   UNL     1      -1.142  16.702   3.563  1.00  0.00     0.015 C 
ATOM     43  C   UNL     1       0.117  17.127   2.799  1.00  0.00     0.010 C 
ATOM     44  C   UNL     1      -1.983  17.931   3.926  1.00  0.00     0.010 C 
ENDBRANCH  27  42
ENDBRANCH   3  27
TORSDOF 5
ENDMDL
MODEL 8
REMARK VINA RESULT:    -4.290      3.575      7.190
REMARK INTER + INTRA:         -10.194
REMARK INTER:                  -8.495
REMARK INTRA:                  -1.700
REMARK UNBOUND:                -2.518
REMARK SMILES CC[C@H](C)[C@H]1NC(=O)c2coc(n2)[C@H](C(C)C)NC(=O)[C@H]([C@@H](C)O)NC(=O)[C@H](C)NC(=O)c2csc1n2
REMARK SMILES IDX 11 1 13 2 12 3 9 4 10 5 7 6 6 7 8 8 5 10 36 11 35 12 34 13
REMARK SMILES IDX 37 14 33 15 31 16 32 17 30 18 28 20 29 21 3 23 4 24 2 25
REMARK SMILES IDX 1 26 14 27 18 28 19 29 20 30 21 32 25 33 26 34 27 35 22 38
REMARK SMILES IDX 23 39 24 40 15 42 16 43 17 44
REMARK H PARENT 6 9 30 19 18 31 25 36 24 41
REMARK Flexibility Score:   94.900
ROOT
ATOM      1  O   UNL     1       1.123  14.047   0.544  1.00  0.00    -0.446 OA
ATOM      2  N   UNL     1      -0.025  15.166   2.130  1.00  0.00    -0.207 NA
ATOM      3  C   UNL     1       0.116  14.028   1.473  1.00  0.00     0.217 A 
ATOM      4  C   UNL     1       0.972  15.979   1.618  1.00  0.00     0.167 A 
ATOM      5  C   UNL     1       1.667  15.291   0.653  1.00  0.00     0.231 A 
ENDROOT
BRANCH   4   6
ATOM      6  C   UNL     1       1.179  17.350   2.051  1.00  0.00     0.273 C 
ATOM      7  N   UNL     1       1.609  17.413   3.353  1.00  0.00    -0.341 N 
ATOM      8  O   UNL     1       0.967  18.325   1.341  1.00  0.00    -0.267 OA
ATOM      9  H   UNL     1       1.651  16.526   3.847  1.00  0.00     0.164 HD
BRANCH   7  10
ATOM     10  C   UNL     1       1.656  18.647   4.112  1.00  0.00     0.145 C 
BRANCH  10  11
ATOM     11  C   UNL     1       0.295  18.837   4.767  1.00  0.00     0.116 A 
ATOM     12  S   UNL     1      -0.527  20.343   4.609  1.00  0.00    -0.124 S 
ATOM     13  C   UNL     1      -1.835  19.715   5.513  1.00  0.00     0.101 A 
ATOM     14  N   UNL     1      -0.347  17.912   5.462  1.00  0.00    -0.234 NA
ATOM     15  C   UNL     1      -1.585  18.407   5.881  1.00  0.00     0.139 A 
BRANCH  15  16
ATOM     16  C   UNL     1      -2.526  17.582   6.641  1.00  0.00     0.271 C 
ATOM     17  O   UNL     1      -2.471  17.461   7.860  1.00  0.00    -0.267 OA
ATOM     18  N   UNL     1      -3.474  16.962   5.854  1.00  0.00    -0.339 N 
ATOM     19  H   UNL     1      -3.346  17.052   4.850  1.00  0.00     0.164 HD
BRANCH  18  20
ATOM     20  C   UNL     1      -4.452  16.048   6.430  1.00  0.00     0.168 CG0
ATOM     21  C   UNL     1      -5.818  16.720   6.583  1.00  0.00     0.041 C 
ATOM     22  G   UNL     1      -4.644  14.777   5.588  1.00  0.00     0.000 G0
ENDBRANCH  18  20
ENDBRANCH  15  16
ENDBRANCH  10  11
BRANCH  10  23
ATOM     23  C   UNL     1       2.815  18.657   5.143  1.00  0.00     0.015 C 
ATOM     24  C   UNL     1       4.003  19.534   4.714  1.00  0.00     0.010 C 
BRANCH  23  25
ATOM     25  C   UNL     1       2.358  19.098   6.552  1.00  0.00     0.002 C 
ATOM     26  C   UNL     1       2.914  20.447   6.989  1.00  0.00     0.004 C 
ENDBRANCH  23  25
ENDBRANCH  10  23
ENDBRANCH   7  10
ENDBRANCH   4   6
BRANCH   3  27
ATOM     27  C   UNL     1      -0.727  12.791   1.611  1.00  0.00     0.171 C 
BRANCH  27  28
ATOM     28  N   UNL     1      -2.074  13.208   1.987  1.00  0.00    -0.342 N 
ATOM     29  C   UNL     1      -2.600  12.994   3.242  1.00  0.00     0.245 C 
ATOM     30  O   UNL     1      -1.967  12.448   4.144  1.00  0.00    -0.273 OA
ATOM     31  H   UNL     1      -2.615  13.768   1.329  1.00  0.00     0.164 HD
BRANCH  29  32
ATOM     32  C   UNL     1      -3.988  13.620   3.491  1.00  0.00     0.200 C 
BRANCH  32  33
ATOM     33  N   UNL     1      -3.835  14.709   4.464  1.00  0.00    -0.340 N 
ATOM     34  C   UNL     1      -4.631  14.783   5.587  1.00  0.00     0.243 CG0
ATOM     35  O   UNL     1      -5.542  13.983   5.792  1.00  0.00    -0.273 OA
ATOM     36  H   UNL     1      -3.112  15.402   4.306  1.00  0.00     0.164 HD
ATOM     37  G   UNL     1      -4.457  16.046   6.446  1.00  0.00     0.000 G0
ENDBRANCH  32  33
BRANCH  32  38
ATOM     38  C   UNL     1      -4.646  14.080   2.169  1.00  0.00     0.143 C 
ATOM     39  C   UNL     1      -6.162  14.224   2.246  1.00  0.00     0.041 C 
BRANCH  38  40
ATOM     40  O   UNL     1      -4.078  15.336   1.747  1.00  0.00    -0.391 OA
ATOM     41  H   UNL     1      -4.815  15.872   1.399  1.00  0.00     0.211 HD
ENDBRANCH  38  40
ENDBRANCH  32  38
ENDBRANCH  29  32
ENDBRANCH  27  28
BRANCH  27  42
ATOM     42  C   UNL     1      -0.750  11.805   0.417  1.00  0.00     0.015 C 
ATOM     43  C   UNL     1       0.624  11.357  -0.095  1.00  0.00     0.010 C 
ATOM     44  C   UNL     1      -1.636  10.587   0.697  1.00  0.00     0.010 C 
ENDBRANCH  27  42
ENDBRANCH   3  27
TORSDOF 5
ENDMDL
MODEL 9
REMARK VINA RESULT:    -3.982      2.670      4.048
REMARK INTER + INTRA:          -9.643
REMARK INTER:                  -8.247
REMARK INTRA:                  -1.396
REMARK UNBOUND:                -2.518
REMARK SMILES CC[C@H](C)[C@H]1NC(=O)c2coc(n2)[C@H](C(C)C)NC(=O)[C@H]([C@@H](C)O)NC(=O)[C@H](C)NC(=O)c2csc1n2
REMARK SMILES IDX 11 1 13 2 12 3 9 4 10 5 7 6 6 7 8 8 5 10 36 11 35 12 34 13
REMARK SMILES IDX 37 14 33 15 31 16 32 17 30 18 28 20 29 21 3 23 4 24 2 25
REMARK SMILES IDX 1 26 14 27 18 28 19 29 20 30 21 32 25 33 26 34 27 35 22 38
REMARK SMILES IDX 23 39 24 40 15 42 16 43 17 44
REMARK H PARENT 6 9 30 19 18 31 25 36 24 41
REMARK Flexibility Score:   94.900
ROOT
ATOM      1  O   UNL     1      -5.058  13.717   1.533  1.00  0.00    -0.446 OA
ATOM      2  N   UNL     1      -3.791  14.849   3.015  1.00  0.00    -0.207 NA
ATOM      3  C   UNL     1      -3.813  14.164   1.885  1.00  0.00     0.217 A 
ATOM      4  C   UNL     1      -5.115  14.875   3.420  1.00  0.00     0.167 A 
ATOM      5  C   UNL     1      -5.881  14.185   2.513  1.00  0.00     0.231 A 
ENDROOT
BRANCH   4   6
ATOM      6  C   UNL     1      -5.557  15.522   4.643  1.00  0.00     0.273 C 
ATOM      7  N   UNL     1      -6.247  16.680   4.387  1.00  0.00    -0.341 N 
ATOM      8  O   UNL     1      -5.316  15.090   5.764  1.00  0.00    -0.267 OA
ATOM      9  H   UNL     1      -6.289  16.961   3.411  1.00  0.00     0.164 HD
BRANCH   7  10
ATOM     10  C   UNL     1      -6.585  17.645   5.414  1.00  0.00     0.145 C 
BRANCH  10  11
ATOM     11  C   UNL     1      -5.290  18.294   5.879  1.00  0.00     0.116 A 
ATOM     12  S   UNL     1      -5.077  18.680   7.546  1.00  0.00    -0.124 S 
ATOM     13  C   UNL     1      -3.508  19.264   7.203  1.00  0.00     0.101 A 
ATOM     14  N   UNL     1      -4.265  18.590   5.096  1.00  0.00    -0.234 NA
ATOM     15  C   UNL     1      -3.227  19.134   5.856  1.00  0.00     0.139 A 
BRANCH  15  16
ATOM     16  C   UNL     1      -1.951  19.519   5.251  1.00  0.00     0.271 C 
ATOM     17  O   UNL     1      -1.252  20.424   5.693  1.00  0.00    -0.267 OA
ATOM     18  N   UNL     1      -1.616  18.768   4.144  1.00  0.00    -0.339 N 
ATOM     19  H   UNL     1      -2.330  18.124   3.812  1.00  0.00     0.164 HD
BRANCH  18  20
ATOM     20  C   UNL     1      -0.414  19.054   3.373  1.00  0.00     0.168 CG0
ATOM     21  C   UNL     1       0.762  18.190   3.834  1.00  0.00     0.041 C 
ATOM     22  G   UNL     1      -0.606  18.821   1.866  1.00  0.00     0.000 G0
ENDBRANCH  18  20
ENDBRANCH  15  16
ENDBRANCH  10  11
BRANCH  10  23
ATOM     23  C   UNL     1      -7.625  18.686   4.922  1.00  0.00     0.015 C 
ATOM     24  C   UNL     1      -8.423  19.336   6.065  1.00  0.00     0.010 C 
BRANCH  23  25
ATOM     25  C   UNL     1      -6.992  19.803   4.062  1.00  0.00     0.002 C 
ATOM     26  C   UNL     1      -7.183  21.203   4.630  1.00  0.00     0.004 C 
ENDBRANCH  23  25
ENDBRANCH  10  23
ENDBRANCH   7  10
ENDBRANCH   4   6
BRANCH   3  27
ATOM     27  C   UNL     1      -2.635  13.805   1.021  1.00  0.00     0.171 C 
BRANCH  27  28
ATOM     28  N   UNL     1      -1.787  14.987   0.907  1.00  0.00    -0.342 N 
ATOM     29  C   UNL     1      -1.967  15.944  -0.066  1.00  0.00     0.245 C 
ATOM     30  O   UNL     1      -2.866  15.882  -0.903  1.00  0.00    -0.273 OA
ATOM     31  H   UNL     1      -1.095  15.165   1.633  1.00  0.00     0.164 HD
BRANCH  29  32
ATOM     32  C   UNL     1      -1.056  17.184   0.052  1.00  0.00     0.200 C 
BRANCH  32  33
ATOM     33  N   UNL     1      -0.951  17.545   1.471  1.00  0.00    -0.340 N 
ATOM     34  C   UNL     1      -0.629  18.828   1.862  1.00  0.00     0.243 CG0
ATOM     35  O   UNL     1      -0.354  19.706   1.046  1.00  0.00    -0.273 OA
ATOM     36  H   UNL     1      -1.141  16.834   2.168  1.00  0.00     0.164 HD
ATOM     37  G   UNL     1      -0.418  19.032   3.371  1.00  0.00     0.000 G0
ENDBRANCH  32  33
BRANCH  32  38
ATOM     38  C   UNL     1       0.320  16.940  -0.611  1.00  0.00     0.143 C 
ATOM     39  C   UNL     1       0.984  15.630  -0.204  1.00  0.00     0.041 C 
BRANCH  38  40
ATOM     40  O   UNL     1       0.187  16.970  -2.046  1.00  0.00    -0.391 OA
ATOM     41  H   UNL     1       0.479  16.098  -2.372  1.00  0.00     0.211 HD
ENDBRANCH  38  40
ENDBRANCH  32  38
ENDBRANCH  29  32
ENDBRANCH  27  28
BRANCH  27  42
ATOM     42  C   UNL     1      -1.816  12.552   1.417  1.00  0.00     0.015 C 
ATOM     43  C   UNL     1      -0.595  12.256   0.538  1.00  0.00     0.010 C 
ATOM     44  C   UNL     1      -1.413  12.575   2.895  1.00  0.00     0.010 C 
ENDBRANCH  27  42
ENDBRANCH   3  27
TORSDOF 5
ENDMDL
MODEL 10
REMARK VINA RESULT:    -3.967      4.490      7.557
REMARK INTER + INTRA:          -9.617
REMARK INTER:                  -7.027
REMARK INTRA:                  -2.590
REMARK UNBOUND:                -2.518
REMARK SMILES CC[C@H](C)[C@H]1NC(=O)c2coc(n2)[C@H](C(C)C)NC(=O)[C@H]([C@@H](C)O)NC(=O)[C@H](C)NC(=O)c2csc1n2
REMARK SMILES IDX 11 1 13 2 12 3 9 4 10 5 7 6 6 7 8 8 5 10 36 11 35 12 34 13
REMARK SMILES IDX 37 14 33 15 31 16 32 17 30 18 28 20 29 21 3 23 4 24 2 25
REMARK SMILES IDX 1 26 14 27 18 28 19 29 20 30 21 32 25 33 26 34 27 35 22 38
REMARK SMILES IDX 23 39 24 40 15 42 16 43 17 44
REMARK H PARENT 6 9 30 19 18 31 25 36 24 41
REMARK Flexibility Score:   94.900
ROOT
ATOM      1  O   UNL     1      -1.048  15.886   2.955  1.00  0.00    -0.446 OA
ATOM      2  N   UNL     1      -1.914  15.466   4.993  1.00  0.00    -0.207 NA
ATOM      3  C   UNL     1      -1.632  14.979   3.798  1.00  0.00     0.217 A 
ATOM      4  C   UNL     1      -1.462  16.773   4.943  1.00  0.00     0.167 A 
ATOM      5  C   UNL     1      -0.935  17.022   3.699  1.00  0.00     0.231 A 
ENDROOT
BRANCH   4   6
ATOM      6  C   UNL     1      -1.584  17.699   6.055  1.00  0.00     0.273 C 
ATOM      7  N   UNL     1      -1.774  17.043   7.245  1.00  0.00    -0.341 N 
ATOM      8  O   UNL     1      -1.547  18.917   5.930  1.00  0.00    -0.267 OA
ATOM      9  H   UNL     1      -1.876  16.034   7.181  1.00  0.00     0.164 HD
BRANCH   7  10
ATOM     10  C   UNL     1      -2.170  17.717   8.466  1.00  0.00     0.145 C 
BRANCH  10  11
ATOM     11  C   UNL     1      -3.278  16.894   9.108  1.00  0.00     0.116 A 
ATOM     12  S   UNL     1      -4.437  17.665  10.123  1.00  0.00    -0.124 S 
ATOM     13  C   UNL     1      -5.231  16.167  10.342  1.00  0.00     0.101 A 
ATOM     14  N   UNL     1      -3.449  15.593   8.941  1.00  0.00    -0.234 NA
ATOM     15  C   UNL     1      -4.584  15.170   9.637  1.00  0.00     0.139 A 
BRANCH  15  16
ATOM     16  C   UNL     1      -5.037  13.778   9.599  1.00  0.00     0.271 C 
ATOM     17  O   UNL     1      -4.617  12.921  10.369  1.00  0.00    -0.267 OA
ATOM     18  N   UNL     1      -5.974  13.530   8.619  1.00  0.00    -0.339 N 
ATOM     19  H   UNL     1      -6.157  14.295   7.975  1.00  0.00     0.164 HD
BRANCH  18  20
ATOM     20  C   UNL     1      -6.488  12.186   8.389  1.00  0.00     0.168 CG0
ATOM     21  C   UNL     1      -7.985  12.102   8.698  1.00  0.00     0.041 C 
ATOM     22  G   UNL     1      -6.279  11.710   6.942  1.00  0.00     0.000 G0
ENDBRANCH  18  20
ENDBRANCH  15  16
ENDBRANCH  10  11
BRANCH  10  23
ATOM     23  C   UNL     1      -0.972  17.946   9.425  1.00  0.00     0.015 C 
ATOM     24  C   UNL     1       0.016  16.767   9.456  1.00  0.00     0.010 C 
BRANCH  23  25
ATOM     25  C   UNL     1      -0.189  19.239   9.106  1.00  0.00     0.002 C 
ATOM     26  C   UNL     1       1.180  18.997   8.486  1.00  0.00     0.004 C 
ENDBRANCH  23  25
ENDBRANCH  10  23
ENDBRANCH   7  10
ENDBRANCH   4   6
BRANCH   3  27
ATOM     27  C   UNL     1      -1.932  13.596   3.289  1.00  0.00     0.171 C 
BRANCH  27  28
ATOM     28  N   UNL     1      -3.327  13.299   3.597  1.00  0.00    -0.342 N 
ATOM     29  C   UNL     1      -3.704  12.298   4.465  1.00  0.00     0.245 C 
ATOM     30  O   UNL     1      -2.891  11.590   5.057  1.00  0.00    -0.273 OA
ATOM     31  H   UNL     1      -4.051  13.917   3.234  1.00  0.00     0.164 HD
BRANCH  29  32
ATOM     32  C   UNL     1      -5.216  12.220   4.764  1.00  0.00     0.200 C 
BRANCH  32  33
ATOM     33  N   UNL     1      -5.416  12.480   6.195  1.00  0.00    -0.340 N 
ATOM     34  C   UNL     1      -6.277  11.711   6.949  1.00  0.00     0.243 CG0
ATOM     35  O   UNL     1      -6.959  10.819   6.448  1.00  0.00    -0.273 OA
ATOM     36  H   UNL     1      -4.890  13.229   6.630  1.00  0.00     0.164 HD
ATOM     37  G   UNL     1      -6.496  12.179   8.397  1.00  0.00     0.000 G0
ENDBRANCH  32  33
BRANCH  32  38
ATOM     38  C   UNL     1      -6.022  13.179   3.858  1.00  0.00     0.143 C 
ATOM     39  C   UNL     1      -7.456  12.732   3.600  1.00  0.00     0.041 C 
BRANCH  38  40
ATOM     40  O   UNL     1      -6.040  14.500   4.431  1.00  0.00    -0.391 OA
ATOM     41  H   UNL     1      -6.662  14.470   5.182  1.00  0.00     0.211 HD
ENDBRANCH  38  40
ENDBRANCH  32  38
ENDBRANCH  29  32
ENDBRANCH  27  28
BRANCH  27  42
ATOM     42  C   UNL     1      -1.600  13.294   1.807  1.00  0.00     0.015 C 
ATOM     43  C   UNL     1      -1.095  11.875   1.518  1.00  0.00     0.010 C 
ATOM     44  C   UNL     1      -2.766  13.643   0.876  1.00  0.00     0.010 C 
ENDBRANCH  27  42
ENDBRANCH   3  27
TORSDOF 5
ENDMDL
