MODEL 1
REMARK VINA RESULT:    -5.857      0.000      0.000
REMARK INTER + INTRA:         -12.970
REMARK INTER:                 -10.479
REMARK INTRA:                  -2.491
REMARK UNBOUND:                -2.491
REMARK SMILES CC[C@H](C)[C@H]1NC(=O)c2coc(n2)[C@H](C(C)C)NC(=O)[C@H]([C@@H](C)O)NC(=O)[C@H](C)NC(=O)c2csc1n2
REMARK SMILES IDX 11 1 13 2 12 3 9 4 10 5 7 6 6 7 8 8 5 10 36 11 35 12 34 13
REMARK SMILES IDX 37 14 33 15 31 16 32 17 30 18 28 20 29 21 3 23 4 24 2 25
REMARK SMILES IDX 1 26 14 27 18 28 19 29 20 30 21 32 25 33 26 34 27 35 22 38
REMARK SMILES IDX 23 39 24 40 15 42 16 43 17 44
REMARK H PARENT 6 9 30 19 18 31 25 36 24 41
REMARK Flexibility Score:   94.900
ROOT
ATOM      1  O   UNL     1       1.556  -4.828   8.300  1.00  0.00    -0.446 OA
ATOM      2  N   UNL     1       2.200  -2.668   8.272  1.00  0.00    -0.207 NA
ATOM      3  C   UNL     1       1.860  -3.703   9.019  1.00  0.00     0.217 A 
ATOM      4  C   UNL     1       2.142  -3.151   6.977  1.00  0.00     0.167 A 
ATOM      5  C   UNL     1       1.750  -4.467   7.001  1.00  0.00     0.231 A 
ENDROOT
BRANCH   4   6
ATOM      6  C   UNL     1       2.431  -2.334   5.811  1.00  0.00     0.273 C 
ATOM      7  N   UNL     1       3.703  -2.544   5.344  1.00  0.00    -0.341 N 
ATOM      8  O   UNL     1       1.635  -1.538   5.328  1.00  0.00    -0.267 OA
ATOM      9  H   UNL     1       4.281  -3.166   5.902  1.00  0.00     0.164 HD
BRANCH   7  10
ATOM     10  C   UNL     1       4.335  -1.692   4.356  1.00  0.00     0.145 C 
BRANCH  10  11
ATOM     11  C   UNL     1       5.366  -0.836   5.077  1.00  0.00     0.116 A 
ATOM     12  S   UNL     1       6.082   0.505   4.266  1.00  0.00    -0.124 S 
ATOM     13  C   UNL     1       6.977   0.870   5.675  1.00  0.00     0.101 A 
ATOM     14  N   UNL     1       5.770  -1.025   6.322  1.00  0.00    -0.234 NA
ATOM     15  C   UNL     1       6.687  -0.033   6.679  1.00  0.00     0.139 A 
BRANCH  15  16
ATOM     16  C   UNL     1       7.273   0.026   8.020  1.00  0.00     0.271 C 
ATOM     17  O   UNL     1       8.344   0.577   8.254  1.00  0.00    -0.267 OA
ATOM     18  N   UNL     1       6.506  -0.593   8.985  1.00  0.00    -0.339 N 
ATOM     19  H   UNL     1       5.698  -1.108   8.646  1.00  0.00     0.164 HD
BRANCH  18  20
ATOM     20  C   UNL     1       6.964  -0.692  10.364  1.00  0.00     0.168 CG0
ATOM     21  C   UNL     1       6.158   0.227  11.285  1.00  0.00     0.041 C 
ATOM     22  G   UNL     1       6.866  -2.121  10.922  1.00  0.00     0.000 G0
ENDBRANCH  18  20
ENDBRANCH  15  16
ENDBRANCH  10  11
BRANCH  10  23
ATOM     23  C   UNL     1       4.954  -2.506   3.189  1.00  0.00     0.015 C 
ATOM     24  C   UNL     1       4.956  -4.024   3.440  1.00  0.00     0.010 C 
BRANCH  23  25
ATOM     25  C   UNL     1       4.264  -2.230   1.834  1.00  0.00     0.002 C 
ATOM     26  C   UNL     1       3.083  -1.274   1.925  1.00  0.00     0.004 C 
ENDBRANCH  23  25
ENDBRANCH  10  23
ENDBRANCH   7  10
ENDBRANCH   4   6
BRANCH   3  27
ATOM     27  C   UNL     1       1.730  -3.736  10.518  1.00  0.00     0.171 C 
BRANCH  27  28
ATOM     28  N   UNL     1       3.038  -3.427  11.086  1.00  0.00    -0.342 N 
ATOM     29  C   UNL     1       3.980  -4.393  11.358  1.00  0.00     0.245 C 
ATOM     30  O   UNL     1       3.795  -5.587  11.128  1.00  0.00    -0.273 OA
ATOM     31  H   UNL     1       3.306  -2.450  11.197  1.00  0.00     0.164 HD
BRANCH  29  32
ATOM     32  C   UNL     1       5.349  -3.863  11.835  1.00  0.00     0.200 C 
BRANCH  32  33
ATOM     33  N   UNL     1       5.590  -2.565  11.192  1.00  0.00    -0.340 N 
ATOM     34  C   UNL     1       6.870  -2.120  10.937  1.00  0.00     0.243 CG0
ATOM     35  O   UNL     1       7.862  -2.754  11.290  1.00  0.00    -0.273 OA
ATOM     36  H   UNL     1       4.792  -2.005  10.917  1.00  0.00     0.164 HD
ATOM     37  G   UNL     1       6.980  -0.688  10.388  1.00  0.00     0.000 G0
ENDBRANCH  32  33
BRANCH  32  38
ATOM     38  C   UNL     1       5.423  -3.795  13.378  1.00  0.00     0.143 C 
ATOM     39  C   UNL     1       4.592  -2.675  13.992  1.00  0.00     0.041 C 
BRANCH  38  40
ATOM     40  O   UNL     1       5.006  -5.052  13.947  1.00  0.00    -0.391 OA
ATOM     41  H   UNL     1       5.794  -5.627  13.959  1.00  0.00     0.211 HD
ENDBRANCH  38  40
ENDBRANCH  32  38
ENDBRANCH  29  32
ENDBRANCH  27  28
BRANCH  27  42
ATOM     42  C   UNL     1       0.614  -2.873  11.156  1.00  0.00     0.015 C 
ATOM     43  C   UNL     1      -0.473  -3.649  11.909  1.00  0.00     0.010 C 
ATOM     44  C   UNL     1       1.185  -1.763  12.044  1.00  0.00     0.010 C 
ENDBRANCH  27  42
ENDBRANCH   3  27
TORSDOF 5
ENDMDL
MODEL 2
REMARK VINA RESULT:    -5.628      2.430      6.835
REMARK INTER + INTRA:         -12.560
REMARK INTER:                 -10.412
REMARK INTRA:                  -2.148
REMARK UNBOUND:                -2.491
REMARK SMILES CC[C@H](C)[C@H]1NC(=O)c2coc(n2)[C@H](C(C)C)NC(=O)[C@H]([C@@H](C)O)NC(=O)[C@H](C)NC(=O)c2csc1n2
REMARK SMILES IDX 11 1 13 2 12 3 9 4 10 5 7 6 6 7 8 8 5 10 36 11 35 12 34 13
REMARK SMILES IDX 37 14 33 15 31 16 32 17 30 18 28 20 29 21 3 23 4 24 2 25
REMARK SMILES IDX 1 26 14 27 18 28 19 29 20 30 21 32 25 33 26 34 27 35 22 38
REMARK SMILES IDX 23 39 24 40 15 42 16 43 17 44
REMARK H PARENT 6 9 30 19 18 31 25 36 24 41
REMARK Flexibility Score:   94.900
ROOT
ATOM      1  O   UNL     1       1.831  -2.718   4.386  1.00  0.00    -0.446 OA
ATOM      2  N   UNL     1       3.429  -2.861   5.970  1.00  0.00    -0.207 NA
ATOM      3  C   UNL     1       3.135  -2.488   4.738  1.00  0.00     0.217 A 
ATOM      4  C   UNL     1       2.233  -3.345   6.472  1.00  0.00     0.167 A 
ATOM      5  C   UNL     1       1.264  -3.254   5.503  1.00  0.00     0.231 A 
ENDROOT
BRANCH   4   6
ATOM      6  C   UNL     1       2.096  -3.883   7.815  1.00  0.00     0.273 C 
ATOM      7  N   UNL     1       1.884  -2.893   8.741  1.00  0.00    -0.341 N 
ATOM      8  O   UNL     1       2.186  -5.075   8.079  1.00  0.00    -0.267 OA
ATOM      9  H   UNL     1       1.926  -1.942   8.387  1.00  0.00     0.164 HD
BRANCH   7  10
ATOM     10  C   UNL     1       1.959  -3.118  10.171  1.00  0.00     0.145 C 
BRANCH  10  11
ATOM     11  C   UNL     1       3.269  -2.522  10.664  1.00  0.00     0.116 A 
ATOM     12  S   UNL     1       4.156  -3.318  11.908  1.00  0.00    -0.124 S 
ATOM     13  C   UNL     1       5.365  -2.114  11.807  1.00  0.00     0.101 A 
ATOM     14  N   UNL     1       3.820  -1.413  10.198  1.00  0.00    -0.234 NA
ATOM     15  C   UNL     1       5.038  -1.181  10.842  1.00  0.00     0.139 A 
BRANCH  15  16
ATOM     16  C   UNL     1       5.886  -0.038  10.497  1.00  0.00     0.271 C 
ATOM     17  O   UNL     1       5.835   1.032  11.094  1.00  0.00    -0.267 OA
ATOM     18  N   UNL     1       6.739  -0.284   9.442  1.00  0.00    -0.339 N 
ATOM     19  H   UNL     1       6.607  -1.169   8.960  1.00  0.00     0.164 HD
BRANCH  18  20
ATOM     20  C   UNL     1       7.609   0.760   8.916  1.00  0.00     0.168 CG0
ATOM     21  C   UNL     1       8.914   0.848   9.709  1.00  0.00     0.041 C 
ATOM     22  G   UNL     1       7.971   0.542   7.438  1.00  0.00     0.000 G0
ENDBRANCH  18  20
ENDBRANCH  15  16
ENDBRANCH  10  11
BRANCH  10  23
ATOM     23  C   UNL     1       0.728  -2.542  10.920  1.00  0.00     0.015 C 
ATOM     24  C   UNL     1      -0.310  -3.611  11.299  1.00  0.00     0.010 C 
BRANCH  23  25
ATOM     25  C   UNL     1       1.116  -1.756  12.193  1.00  0.00     0.002 C 
ATOM     26  C   UNL     1       0.587  -2.368  13.483  1.00  0.00     0.004 C 
ENDBRANCH  23  25
ENDBRANCH  10  23
ENDBRANCH   7  10
ENDBRANCH   4   6
BRANCH   3  27
ATOM     27  C   UNL     1       4.076  -1.910   3.717  1.00  0.00     0.171 C 
BRANCH  27  28
ATOM     28  N   UNL     1       5.390  -1.788   4.339  1.00  0.00    -0.342 N 
ATOM     29  C   UNL     1       6.002  -0.575   4.562  1.00  0.00     0.245 C 
ATOM     30  O   UNL     1       5.478   0.498   4.267  1.00  0.00    -0.273 OA
ATOM     31  H   UNL     1       5.834  -2.626   4.713  1.00  0.00     0.164 HD
BRANCH  29  32
ATOM     32  C   UNL     1       7.329  -0.640   5.346  1.00  0.00     0.200 C 
BRANCH  32  33
ATOM     33  N   UNL     1       7.064  -0.239   6.733  1.00  0.00    -0.340 N 
ATOM     34  C   UNL     1       7.958   0.543   7.436  1.00  0.00     0.243 CG0
ATOM     35  O   UNL     1       9.038   0.884   6.958  1.00  0.00    -0.273 OA
ATOM     36  H   UNL     1       6.196  -0.531   7.165  1.00  0.00     0.164 HD
ATOM     37  G   UNL     1       7.622   0.772   8.918  1.00  0.00     0.000 G0
ENDBRANCH  32  33
BRANCH  32  38
ATOM     38  C   UNL     1       7.983  -2.037   5.237  1.00  0.00     0.143 C 
ATOM     39  C   UNL     1       9.506  -2.011   5.201  1.00  0.00     0.041 C 
BRANCH  38  40
ATOM     40  O   UNL     1       7.555  -2.868   6.334  1.00  0.00    -0.391 OA
ATOM     41  H   UNL     1       6.661  -2.566   6.581  1.00  0.00     0.211 HD
ENDBRANCH  38  40
ENDBRANCH  32  38
ENDBRANCH  29  32
ENDBRANCH  27  28
BRANCH  27  42
ATOM     42  C   UNL     1       4.160  -2.618   2.342  1.00  0.00     0.015 C 
ATOM     43  C   UNL     1       3.613  -1.820   1.153  1.00  0.00     0.010 C 
ATOM     44  C   UNL     1       5.577  -3.118   2.041  1.00  0.00     0.010 C 
ENDBRANCH  27  42
ENDBRANCH   3  27
TORSDOF 5
ENDMDL
MODEL 3
REMARK VINA RESULT:    -5.488      2.969      7.208
REMARK INTER + INTRA:         -12.310
REMARK INTER:                 -10.142
REMARK INTRA:                  -2.168
REMARK UNBOUND:                -2.491
REMARK SMILES CC[C@H](C)[C@H]1NC(=O)c2coc(n2)[C@H](C(C)C)NC(=O)[C@H]([C@@H](C)O)NC(=O)[C@H](C)NC(=O)c2csc1n2
REMARK SMILES IDX 11 1 13 2 12 3 9 4 10 5 7 6 6 7 8 8 5 10 36 11 35 12 34 13
REMARK SMILES IDX 37 14 33 15 31 16 32 17 30 18 28 20 29 21 3 23 4 24 2 25
REMARK SMILES IDX 1 26 14 27 18 28 19 29 20 30 21 32 25 33 26 34 27 35 22 38
REMARK SMILES IDX 23 39 24 40 15 42 16 43 17 44
REMARK H PARENT 6 9 30 19 18 31 25 36 24 41
REMARK Flexibility Score:   94.900
ROOT
ATOM      1  O   UNL     1       4.081  -2.469   4.617  1.00  0.00    -0.446 OA
ATOM      2  N   UNL     1       5.240  -2.534   6.549  1.00  0.00    -0.207 NA
ATOM      3  C   UNL     1       5.256  -2.207   5.270  1.00  0.00     0.217 A 
ATOM      4  C   UNL     1       3.961  -3.019   6.759  1.00  0.00     0.167 A 
ATOM      5  C   UNL     1       3.260  -2.976   5.579  1.00  0.00     0.231 A 
ENDROOT
BRANCH   4   6
ATOM      6  C   UNL     1       3.501  -3.514   8.045  1.00  0.00     0.273 C 
ATOM      7  N   UNL     1       2.419  -2.808   8.506  1.00  0.00    -0.341 N 
ATOM      8  O   UNL     1       4.039  -4.435   8.649  1.00  0.00    -0.267 OA
ATOM      9  H   UNL     1       2.140  -2.011   7.941  1.00  0.00     0.164 HD
BRANCH   7  10
ATOM     10  C   UNL     1       1.916  -2.924   9.861  1.00  0.00     0.145 C 
BRANCH  10  11
ATOM     11  C   UNL     1       2.549  -1.811  10.684  1.00  0.00     0.116 A 
ATOM     12  S   UNL     1       1.813  -1.315  12.161  1.00  0.00    -0.124 S 
ATOM     13  C   UNL     1       3.074  -0.187  12.402  1.00  0.00     0.101 A 
ATOM     14  N   UNL     1       3.664  -1.173  10.366  1.00  0.00    -0.234 NA
ATOM     15  C   UNL     1       3.981  -0.246  11.362  1.00  0.00     0.139 A 
BRANCH  15  16
ATOM     16  C   UNL     1       5.190   0.578  11.289  1.00  0.00     0.271 C 
ATOM     17  O   UNL     1       5.681   1.125  12.270  1.00  0.00    -0.267 OA
ATOM     18  N   UNL     1       5.715   0.674  10.018  1.00  0.00    -0.339 N 
ATOM     19  H   UNL     1       5.155   0.268   9.274  1.00  0.00     0.164 HD
BRANCH  18  20
ATOM     20  C   UNL     1       6.878   1.508   9.743  1.00  0.00     0.168 CG0
ATOM     21  C   UNL     1       8.174   0.699   9.822  1.00  0.00     0.041 C 
ATOM     22  G   UNL     1       6.820   2.170   8.357  1.00  0.00     0.000 G0
ENDBRANCH  18  20
ENDBRANCH  15  16
ENDBRANCH  10  11
BRANCH  10  23
ATOM     23  C   UNL     1       0.366  -2.891   9.915  1.00  0.00     0.015 C 
ATOM     24  C   UNL     1      -0.292  -2.871   8.525  1.00  0.00     0.010 C 
BRANCH  23  25
ATOM     25  C   UNL     1      -0.229  -4.063  10.728  1.00  0.00     0.002 C 
ATOM     26  C   UNL     1      -0.778  -3.656  12.088  1.00  0.00     0.004 C 
ENDBRANCH  23  25
ENDBRANCH  10  23
ENDBRANCH   7  10
ENDBRANCH   4   6
BRANCH   3  27
ATOM     27  C   UNL     1       6.416  -1.648   4.491  1.00  0.00     0.171 C 
BRANCH  27  28
ATOM     28  N   UNL     1       6.948  -0.512   5.235  1.00  0.00    -0.342 N 
ATOM     29  C   UNL     1       6.623   0.793   4.939  1.00  0.00     0.245 C 
ATOM     30  O   UNL     1       5.848   1.097   4.034  1.00  0.00    -0.273 OA
ATOM     31  H   UNL     1       7.505  -0.690   6.070  1.00  0.00     0.164 HD
BRANCH  29  32
ATOM     32  C   UNL     1       7.181   1.849   5.917  1.00  0.00     0.200 C 
BRANCH  32  33
ATOM     33  N   UNL     1       7.061   1.323   7.282  1.00  0.00    -0.340 N 
ATOM     34  C   UNL     1       6.815   2.157   8.352  1.00  0.00     0.243 CG0
ATOM     35  O   UNL     1       6.750   3.378   8.223  1.00  0.00    -0.273 OA
ATOM     36  H   UNL     1       7.141   0.323   7.425  1.00  0.00     0.164 HD
ATOM     37  G   UNL     1       6.851   1.492   9.738  1.00  0.00     0.000 G0
ENDBRANCH  32  33
BRANCH  32  38
ATOM     38  C   UNL     1       8.628   2.251   5.550  1.00  0.00     0.143 C 
ATOM     39  C   UNL     1       9.671   1.824   6.577  1.00  0.00     0.041 C 
BRANCH  38  40
ATOM     40  O   UNL     1       8.983   1.699   4.267  1.00  0.00    -0.391 OA
ATOM     41  H   UNL     1       9.954   1.761   4.195  1.00  0.00     0.211 HD
ENDBRANCH  38  40
ENDBRANCH  32  38
ENDBRANCH  29  32
ENDBRANCH  27  28
BRANCH  27  42
ATOM     42  C   UNL     1       7.537  -2.633   4.077  1.00  0.00     0.015 C 
ATOM     43  C   UNL     1       7.914  -2.617   2.591  1.00  0.00     0.010 C 
ATOM     44  C   UNL     1       8.789  -2.473   4.945  1.00  0.00     0.010 C 
ENDBRANCH  27  42
ENDBRANCH   3  27
TORSDOF 5
ENDMDL
MODEL 4
REMARK VINA RESULT:    -5.378      3.131      7.103
REMARK INTER + INTRA:         -12.114
REMARK INTER:                 -10.118
REMARK INTRA:                  -1.996
REMARK UNBOUND:                -2.491
REMARK SMILES CC[C@H](C)[C@H]1NC(=O)c2coc(n2)[C@H](C(C)C)NC(=O)[C@H]([C@@H](C)O)NC(=O)[C@H](C)NC(=O)c2csc1n2
REMARK SMILES IDX 11 1 13 2 12 3 9 4 10 5 7 6 6 7 8 8 5 10 36 11 35 12 34 13
REMARK SMILES IDX 37 14 33 15 31 16 32 17 30 18 28 20 29 21 3 23 4 24 2 25
REMARK SMILES IDX 1 26 14 27 18 28 19 29 20 30 21 32 25 33 26 34 27 35 22 38
REMARK SMILES IDX 23 39 24 40 15 42 16 43 17 44
REMARK H PARENT 6 9 30 19 18 31 25 36 24 41
REMARK Flexibility Score:   94.900
ROOT
ATOM      1  O   UNL     1       4.753  -1.489   4.813  1.00  0.00    -0.446 OA
ATOM      2  N   UNL     1       5.326  -1.794   6.972  1.00  0.00    -0.207 NA
ATOM      3  C   UNL     1       5.598  -1.167   5.841  1.00  0.00     0.217 A 
ATOM      4  C   UNL     1       4.211  -2.559   6.675  1.00  0.00     0.167 A 
ATOM      5  C   UNL     1       3.868  -2.369   5.359  1.00  0.00     0.231 A 
ENDROOT
BRANCH   4   6
ATOM      6  C   UNL     1       3.570  -3.434   7.641  1.00  0.00     0.273 C 
ATOM      7  N   UNL     1       2.285  -3.038   7.914  1.00  0.00    -0.341 N 
ATOM      8  O   UNL     1       4.127  -4.393   8.162  1.00  0.00    -0.267 OA
ATOM      9  H   UNL     1       1.990  -2.170   7.476  1.00  0.00     0.164 HD
BRANCH   7  10
ATOM     10  C   UNL     1       1.507  -3.576   9.012  1.00  0.00     0.145 C 
BRANCH  10  11
ATOM     11  C   UNL     1       1.705  -2.657  10.209  1.00  0.00     0.116 A 
ATOM     12  S   UNL     1       0.689  -2.825  11.591  1.00  0.00    -0.124 S 
ATOM     13  C   UNL     1       1.550  -1.568  12.367  1.00  0.00     0.101 A 
ATOM     14  N   UNL     1       2.629  -1.715  10.298  1.00  0.00    -0.234 NA
ATOM     15  C   UNL     1       2.556  -1.094  11.547  1.00  0.00     0.139 A 
BRANCH  15  16
ATOM     16  C   UNL     1       3.489  -0.034  11.935  1.00  0.00     0.271 C 
ATOM     17  O   UNL     1       3.555   0.408  13.077  1.00  0.00    -0.267 OA
ATOM     18  N   UNL     1       4.279   0.411  10.897  1.00  0.00    -0.339 N 
ATOM     19  H   UNL     1       4.052   0.045   9.976  1.00  0.00     0.164 HD
BRANCH  18  20
ATOM     20  C   UNL     1       5.218   1.509  11.081  1.00  0.00     0.168 CG0
ATOM     21  C   UNL     1       6.629   0.992  11.369  1.00  0.00     0.041 C 
ATOM     22  G   UNL     1       5.298   2.435   9.856  1.00  0.00     0.000 G0
ENDBRANCH  18  20
ENDBRANCH  15  16
ENDBRANCH  10  11
BRANCH  10  23
ATOM     23  C   UNL     1       0.010  -3.749   8.640  1.00  0.00     0.015 C 
ATOM     24  C   UNL     1      -0.287  -3.459   7.159  1.00  0.00     0.010 C 
BRANCH  23  25
ATOM     25  C   UNL     1      -0.534  -5.153   8.988  1.00  0.00     0.002 C 
ATOM     26  C   UNL     1      -1.747  -5.135   9.908  1.00  0.00     0.004 C 
ENDBRANCH  23  25
ENDBRANCH  10  23
ENDBRANCH   7  10
ENDBRANCH   4   6
BRANCH   3  27
ATOM     27  C   UNL     1       6.735  -0.217   5.583  1.00  0.00     0.171 C 
BRANCH  27  28
ATOM     28  N   UNL     1       6.747   0.769   6.658  1.00  0.00    -0.342 N 
ATOM     29  C   UNL     1       6.534   2.112   6.444  1.00  0.00     0.245 C 
ATOM     30  O   UNL     1       6.302   2.579   5.330  1.00  0.00    -0.273 OA
ATOM     31  H   UNL     1       6.819   0.442   7.621  1.00  0.00     0.164 HD
BRANCH  29  32
ATOM     32  C   UNL     1       6.456   2.979   7.718  1.00  0.00     0.200 C 
BRANCH  32  33
ATOM     33  N   UNL     1       6.195   2.096   8.861  1.00  0.00    -0.340 N 
ATOM     34  C   UNL     1       5.301   2.450   9.850  1.00  0.00     0.243 CG0
ATOM     35  O   UNL     1       4.734   3.541   9.853  1.00  0.00    -0.273 OA
ATOM     36  H   UNL     1       6.671   1.203   8.902  1.00  0.00     0.164 HD
ATOM     37  G   UNL     1       5.228   1.498  11.055  1.00  0.00     0.000 G0
ENDBRANCH  32  33
BRANCH  32  38
ATOM     38  C   UNL     1       7.730   3.837   7.897  1.00  0.00     0.143 C 
ATOM     39  C   UNL     1       7.485   5.183   8.568  1.00  0.00     0.041 C 
BRANCH  38  40
ATOM     40  O   UNL     1       8.712   3.108   8.658  1.00  0.00    -0.391 OA
ATOM     41  H   UNL     1       9.517   3.066   8.107  1.00  0.00     0.211 HD
ENDBRANCH  38  40
ENDBRANCH  32  38
ENDBRANCH  29  32
ENDBRANCH  27  28
BRANCH  27  42
ATOM     42  C   UNL     1       8.139  -0.829   5.356  1.00  0.00     0.015 C 
ATOM     43  C   UNL     1       8.220  -1.915   4.276  1.00  0.00     0.010 C 
ATOM     44  C   UNL     1       9.200   0.247   5.107  1.00  0.00     0.010 C 
ENDBRANCH  27  42
ENDBRANCH   3  27
TORSDOF 5
ENDMDL
MODEL 5
REMARK VINA RESULT:    -5.322      2.477      4.620
REMARK INTER + INTRA:         -12.013
REMARK INTER:                  -9.754
REMARK INTRA:                  -2.259
REMARK UNBOUND:                -2.491
REMARK SMILES CC[C@H](C)[C@H]1NC(=O)c2coc(n2)[C@H](C(C)C)NC(=O)[C@H]([C@@H](C)O)NC(=O)[C@H](C)NC(=O)c2csc1n2
REMARK SMILES IDX 11 1 13 2 12 3 9 4 10 5 7 6 6 7 8 8 5 10 36 11 35 12 34 13
REMARK SMILES IDX 37 14 33 15 31 16 32 17 30 18 28 20 29 21 3 23 4 24 2 25
REMARK SMILES IDX 1 26 14 27 18 28 19 29 20 30 21 32 25 33 26 34 27 35 22 38
REMARK SMILES IDX 23 39 24 40 15 42 16 43 17 44
REMARK H PARENT 6 9 30 19 18 31 25 36 24 41
REMARK Flexibility Score:   94.900
ROOT
ATOM      1  O   UNL     1       4.901  -3.314   4.778  1.00  0.00    -0.446 OA
ATOM      2  N   UNL     1       4.501  -1.366   5.840  1.00  0.00    -0.207 NA
ATOM      3  C   UNL     1       4.077  -2.594   5.602  1.00  0.00     0.217 A 
ATOM      4  C   UNL     1       5.697  -1.280   5.148  1.00  0.00     0.167 A 
ATOM      5  C   UNL     1       5.934  -2.470   4.504  1.00  0.00     0.231 A 
ENDROOT
BRANCH   4   6
ATOM      6  C   UNL     1       6.512  -0.079   5.119  1.00  0.00     0.273 C 
ATOM      7  N   UNL     1       7.841  -0.359   5.313  1.00  0.00    -0.341 N 
ATOM      8  O   UNL     1       6.055   1.047   4.963  1.00  0.00    -0.267 OA
ATOM      9  H   UNL     1       8.060  -1.329   5.521  1.00  0.00     0.164 HD
BRANCH   7  10
ATOM     10  C   UNL     1       8.836   0.662   5.577  1.00  0.00     0.145 C 
BRANCH  10  11
ATOM     11  C   UNL     1       8.853   0.912   7.078  1.00  0.00     0.116 A 
ATOM     12  S   UNL     1      10.141   1.816   7.779  1.00  0.00    -0.124 S 
ATOM     13  C   UNL     1       9.408   1.657   9.314  1.00  0.00     0.101 A 
ATOM     14  N   UNL     1       7.928   0.495   7.926  1.00  0.00    -0.234 NA
ATOM     15  C   UNL     1       8.233   0.936   9.216  1.00  0.00     0.139 A 
BRANCH  15  16
ATOM     16  C   UNL     1       7.357   0.652  10.355  1.00  0.00     0.271 C 
ATOM     17  O   UNL     1       7.493   1.189  11.449  1.00  0.00    -0.267 OA
ATOM     18  N   UNL     1       6.372  -0.272  10.074  1.00  0.00    -0.339 N 
ATOM     19  H   UNL     1       6.434  -0.726   9.167  1.00  0.00     0.164 HD
BRANCH  18  20
ATOM     20  C   UNL     1       5.450  -0.728  11.106  1.00  0.00     0.168 CG0
ATOM     21  C   UNL     1       4.196   0.147  11.157  1.00  0.00     0.041 C 
ATOM     22  G   UNL     1       5.000  -2.183  10.898  1.00  0.00     0.000 G0
ENDBRANCH  18  20
ENDBRANCH  15  16
ENDBRANCH  10  11
BRANCH  10  23
ATOM     23  C   UNL     1      10.234   0.274   5.026  1.00  0.00     0.015 C 
ATOM     24  C   UNL     1      10.601  -1.198   5.278  1.00  0.00     0.010 C 
BRANCH  23  25
ATOM     25  C   UNL     1      10.384   0.570   3.516  1.00  0.00     0.002 C 
ATOM     26  C   UNL     1      11.746   1.131   3.129  1.00  0.00     0.004 C 
ENDBRANCH  23  25
ENDBRANCH  10  23
ENDBRANCH   7  10
ENDBRANCH   4   6
BRANCH   3  27
ATOM     27  C   UNL     1       2.801  -3.223   6.091  1.00  0.00     0.171 C 
BRANCH  27  28
ATOM     28  N   UNL     1       2.784  -3.127   7.546  1.00  0.00    -0.342 N 
ATOM     29  C   UNL     1       3.374  -4.064   8.364  1.00  0.00     0.245 C 
ATOM     30  O   UNL     1       3.973  -5.046   7.927  1.00  0.00    -0.273 OA
ATOM     31  H   UNL     1       2.407  -2.284   7.977  1.00  0.00     0.164 HD
BRANCH  29  32
ATOM     32  C   UNL     1       3.365  -3.725   9.870  1.00  0.00     0.200 C 
BRANCH  32  33
ATOM     33  N   UNL     1       3.950  -2.390  10.045  1.00  0.00    -0.340 N 
ATOM     34  C   UNL     1       5.013  -2.181  10.899  1.00  0.00     0.243 CG0
ATOM     35  O   UNL     1       5.474  -3.082  11.596  1.00  0.00    -0.273 OA
ATOM     36  H   UNL     1       3.572  -1.620   9.506  1.00  0.00     0.164 HD
ATOM     37  G   UNL     1       5.436  -0.715  11.090  1.00  0.00     0.000 G0
ENDBRANCH  32  33
BRANCH  32  38
ATOM     38  C   UNL     1       1.944  -3.843  10.468  1.00  0.00     0.143 C 
ATOM     39  C   UNL     1       1.219  -2.511  10.619  1.00  0.00     0.041 C 
BRANCH  38  40
ATOM     40  O   UNL     1       1.140  -4.723   9.658  1.00  0.00    -0.391 OA
ATOM     41  H   UNL     1       0.282  -4.815  10.112  1.00  0.00     0.211 HD
ENDBRANCH  38  40
ENDBRANCH  32  38
ENDBRANCH  29  32
ENDBRANCH  27  28
BRANCH  27  42
ATOM     42  C   UNL     1       1.475  -2.719   5.471  1.00  0.00     0.015 C 
ATOM     43  C   UNL     1       1.543  -2.329   3.990  1.00  0.00     0.010 C 
ATOM     44  C   UNL     1       0.322  -3.700   5.709  1.00  0.00     0.010 C 
ENDBRANCH  27  42
ENDBRANCH   3  27
TORSDOF 5
ENDMDL
MODEL 6
REMARK VINA RESULT:    -5.082      3.078      7.024
REMARK INTER + INTRA:         -11.583
REMARK INTER:                  -9.108
REMARK INTRA:                  -2.475
REMARK UNBOUND:                -2.491
REMARK SMILES CC[C@H](C)[C@H]1NC(=O)c2coc(n2)[C@H](C(C)C)NC(=O)[C@H]([C@@H](C)O)NC(=O)[C@H](C)NC(=O)c2csc1n2
REMARK SMILES IDX 11 1 13 2 12 3 9 4 10 5 7 6 6 7 8 8 5 10 36 11 35 12 34 13
REMARK SMILES IDX 37 14 33 15 31 16 32 17 30 18 28 20 29 21 3 23 4 24 2 25
REMARK SMILES IDX 1 26 14 27 18 28 19 29 20 30 21 32 25 33 26 34 27 35 22 38
REMARK SMILES IDX 23 39 24 40 15 42 16 43 17 44
REMARK H PARENT 6 9 30 19 18 31 25 36 24 41
REMARK Flexibility Score:   94.900
ROOT
ATOM      1  O   UNL     1       6.556   1.188   3.596  1.00  0.00    -0.446 OA
ATOM      2  N   UNL     1       7.088  -0.306   5.198  1.00  0.00    -0.207 NA
ATOM      3  C   UNL     1       7.330   0.887   4.685  1.00  0.00     0.217 A 
ATOM      4  C   UNL     1       6.069  -0.814   4.410  1.00  0.00     0.167 A 
ATOM      5  C   UNL     1       5.750   0.101   3.437  1.00  0.00     0.231 A 
ENDROOT
BRANCH   4   6
ATOM      6  C   UNL     1       5.492  -2.131   4.612  1.00  0.00     0.273 C 
ATOM      7  N   UNL     1       4.169  -2.059   4.968  1.00  0.00    -0.341 N 
ATOM      8  O   UNL     1       6.126  -3.173   4.499  1.00  0.00    -0.267 OA
ATOM      9  H   UNL     1       3.802  -1.122   5.112  1.00  0.00     0.164 HD
BRANCH   7  10
ATOM     10  C   UNL     1       3.419  -3.195   5.466  1.00  0.00     0.145 C 
BRANCH  10  11
ATOM     11  C   UNL     1       3.516  -3.181   6.984  1.00  0.00     0.116 A 
ATOM     12  S   UNL     1       3.131  -4.603   7.879  1.00  0.00    -0.124 S 
ATOM     13  C   UNL     1       3.514  -3.785   9.330  1.00  0.00     0.101 A 
ATOM     14  N   UNL     1       3.896  -2.142   7.710  1.00  0.00    -0.234 NA
ATOM     15  C   UNL     1       3.913  -2.489   9.063  1.00  0.00     0.139 A 
BRANCH  15  16
ATOM     16  C   UNL     1       4.334  -1.540  10.096  1.00  0.00     0.271 C 
ATOM     17  O   UNL     1       3.839  -1.515  11.218  1.00  0.00    -0.267 OA
ATOM     18  N   UNL     1       5.334  -0.685   9.684  1.00  0.00    -0.339 N 
ATOM     19  H   UNL     1       5.581  -0.732   8.699  1.00  0.00     0.164 HD
BRANCH  18  20
ATOM     20  C   UNL     1       5.831   0.371  10.556  1.00  0.00     0.168 CG0
ATOM     21  C   UNL     1       7.280   0.112  10.974  1.00  0.00     0.041 C 
ATOM     22  G   UNL     1       5.772   1.760   9.900  1.00  0.00     0.000 G0
ENDBRANCH  18  20
ENDBRANCH  15  16
ENDBRANCH  10  11
BRANCH  10  23
ATOM     23  C   UNL     1       1.950  -3.193   4.966  1.00  0.00     0.015 C 
ATOM     24  C   UNL     1       1.058  -2.181   5.704  1.00  0.00     0.010 C 
BRANCH  23  25
ATOM     25  C   UNL     1       1.835  -2.938   3.446  1.00  0.00     0.002 C 
ATOM     26  C   UNL     1       0.922  -1.776   3.082  1.00  0.00     0.004 C 
ENDBRANCH  23  25
ENDBRANCH  10  23
ENDBRANCH   7  10
ENDBRANCH   4   6
BRANCH   3  27
ATOM     27  C   UNL     1       8.370   1.875   5.139  1.00  0.00     0.171 C 
BRANCH  27  28
ATOM     28  N   UNL     1       8.059   2.251   6.514  1.00  0.00    -0.342 N 
ATOM     29  C   UNL     1       7.116   3.203   6.833  1.00  0.00     0.245 C 
ATOM     30  O   UNL     1       6.455   3.796   5.983  1.00  0.00    -0.273 OA
ATOM     31  H   UNL     1       8.483   1.722   7.275  1.00  0.00     0.164 HD
BRANCH  29  32
ATOM     32  C   UNL     1       6.834   3.372   8.341  1.00  0.00     0.200 C 
BRANCH  32  33
ATOM     33  N   UNL     1       6.714   2.037   8.940  1.00  0.00    -0.340 N 
ATOM     34  C   UNL     1       5.765   1.768   9.904  1.00  0.00     0.243 CG0
ATOM     35  O   UNL     1       5.025   2.643  10.350  1.00  0.00    -0.273 OA
ATOM     36  H   UNL     1       7.331   1.302   8.615  1.00  0.00     0.164 HD
ATOM     37  G   UNL     1       5.840   0.371  10.542  1.00  0.00     0.000 G0
ENDBRANCH  32  33
BRANCH  32  38
ATOM     38  C   UNL     1       7.914   4.243   9.024  1.00  0.00     0.143 C 
ATOM     39  C   UNL     1       8.909   3.454   9.868  1.00  0.00     0.041 C 
BRANCH  38  40
ATOM     40  O   UNL     1       8.638   4.998   8.033  1.00  0.00    -0.391 OA
ATOM     41  H   UNL     1       8.050   5.726   7.752  1.00  0.00     0.211 HD
ENDBRANCH  38  40
ENDBRANCH  32  38
ENDBRANCH  29  32
ENDBRANCH  27  28
BRANCH  27  42
ATOM     42  C   UNL     1       9.856   1.469   4.982  1.00  0.00     0.015 C 
ATOM     43  C   UNL     1      10.190   0.659   3.724  1.00  0.00     0.010 C 
ATOM     44  C   UNL     1      10.794   2.674   5.102  1.00  0.00     0.010 C 
ENDBRANCH  27  42
ENDBRANCH   3  27
TORSDOF 5
ENDMDL
MODEL 7
REMARK VINA RESULT:    -5.067      3.148      8.253
REMARK INTER + INTRA:         -11.556
REMARK INTER:                  -9.644
REMARK INTRA:                  -1.912
REMARK UNBOUND:                -2.491
REMARK SMILES CC[C@H](C)[C@H]1NC(=O)c2coc(n2)[C@H](C(C)C)NC(=O)[C@H]([C@@H](C)O)NC(=O)[C@H](C)NC(=O)c2csc1n2
REMARK SMILES IDX 11 1 13 2 12 3 9 4 10 5 7 6 6 7 8 8 5 10 36 11 35 12 34 13
REMARK SMILES IDX 37 14 33 15 31 16 32 17 30 18 28 20 29 21 3 23 4 24 2 25
REMARK SMILES IDX 1 26 14 27 18 28 19 29 20 30 21 32 25 33 26 34 27 35 22 38
REMARK SMILES IDX 23 39 24 40 15 42 16 43 17 44
REMARK H PARENT 6 9 30 19 18 31 25 36 24 41
REMARK Flexibility Score:   94.900
ROOT
ATOM      1  O   UNL     1       8.122  -0.438   9.082  1.00  0.00    -0.446 OA
ATOM      2  N   UNL     1       6.083  -0.761   8.176  1.00  0.00    -0.207 NA
ATOM      3  C   UNL     1       7.349  -0.461   7.951  1.00  0.00     0.217 A 
ATOM      4  C   UNL     1       6.023  -0.975   9.542  1.00  0.00     0.167 A 
ATOM      5  C   UNL     1       7.268  -0.778  10.088  1.00  0.00     0.231 A 
ENDROOT
BRANCH   4   6
ATOM      6  C   UNL     1       4.796  -1.322  10.238  1.00  0.00     0.273 C 
ATOM      7  N   UNL     1       4.583  -2.677  10.253  1.00  0.00    -0.341 N 
ATOM      8  O   UNL     1       4.036  -0.493  10.726  1.00  0.00    -0.267 OA
ATOM      9  H   UNL     1       5.251  -3.234   9.727  1.00  0.00     0.164 HD
BRANCH   7  10
ATOM     10  C   UNL     1       3.327  -3.278  10.658  1.00  0.00     0.145 C 
BRANCH  10  11
ATOM     11  C   UNL     1       2.402  -3.268   9.449  1.00  0.00     0.116 A 
ATOM     12  S   UNL     1       0.696  -3.183   9.680  1.00  0.00    -0.124 S 
ATOM     13  C   UNL     1       0.475  -3.179   7.985  1.00  0.00     0.101 A 
ATOM     14  N   UNL     1       2.801  -3.306   8.189  1.00  0.00    -0.234 NA
ATOM     15  C   UNL     1       1.695  -3.238   7.338  1.00  0.00     0.139 A 
BRANCH  15  16
ATOM     16  C   UNL     1       1.844  -3.223   5.881  1.00  0.00     0.271 C 
ATOM     17  O   UNL     1       0.900  -3.379   5.115  1.00  0.00    -0.267 OA
ATOM     18  N   UNL     1       3.141  -3.015   5.462  1.00  0.00    -0.339 N 
ATOM     19  H   UNL     1       3.849  -3.010   6.192  1.00  0.00     0.164 HD
BRANCH  18  20
ATOM     20  C   UNL     1       3.490  -3.036   4.048  1.00  0.00     0.168 CG0
ATOM     21  C   UNL     1       3.206  -1.686   3.385  1.00  0.00     0.041 C 
ATOM     22  G   UNL     1       4.969  -3.377   3.806  1.00  0.00     0.000 G0
ENDBRANCH  18  20
ENDBRANCH  15  16
ENDBRANCH  10  11
BRANCH  10  23
ATOM     23  C   UNL     1       3.520  -4.701  11.243  1.00  0.00     0.015 C 
ATOM     24  C   UNL     1       3.794  -5.769  10.171  1.00  0.00     0.010 C 
BRANCH  23  25
ATOM     25  C   UNL     1       4.643  -4.765  12.303  1.00  0.00     0.002 C 
ATOM     26  C   UNL     1       5.456  -6.052  12.267  1.00  0.00     0.004 C 
ENDBRANCH  23  25
ENDBRANCH  10  23
ENDBRANCH   7  10
ENDBRANCH   4   6
BRANCH   3  27
ATOM     27  C   UNL     1       7.976  -0.105   6.631  1.00  0.00     0.171 C 
BRANCH  27  28
ATOM     28  N   UNL     1       7.366  -0.946   5.606  1.00  0.00    -0.342 N 
ATOM     29  C   UNL     1       8.097  -1.577   4.625  1.00  0.00     0.245 C 
ATOM     30  O   UNL     1       9.322  -1.492   4.548  1.00  0.00    -0.273 OA
ATOM     31  H   UNL     1       6.371  -1.156   5.673  1.00  0.00     0.164 HD
BRANCH  29  32
ATOM     32  C   UNL     1       7.293  -2.526   3.711  1.00  0.00     0.200 C 
BRANCH  32  33
ATOM     33  N   UNL     1       5.866  -2.352   4.007  1.00  0.00    -0.340 N 
ATOM     34  C   UNL     1       4.967  -3.384   3.832  1.00  0.00     0.243 CG0
ATOM     35  O   UNL     1       5.306  -4.468   3.363  1.00  0.00    -0.273 OA
ATOM     36  H   UNL     1       5.551  -1.459   4.367  1.00  0.00     0.164 HD
ATOM     37  G   UNL     1       3.488  -3.023   4.048  1.00  0.00     0.000 G0
ENDBRANCH  32  33
BRANCH  32  38
ATOM     38  C   UNL     1       7.632  -2.296   2.219  1.00  0.00     0.143 C 
ATOM     39  C   UNL     1       7.940  -3.573   1.447  1.00  0.00     0.041 C 
BRANCH  38  40
ATOM     40  O   UNL     1       6.547  -1.606   1.569  1.00  0.00    -0.391 OA
ATOM     41  H   UNL     1       5.823  -1.547   2.220  1.00  0.00     0.211 HD
ENDBRANCH  38  40
ENDBRANCH  32  38
ENDBRANCH  29  32
ENDBRANCH  27  28
BRANCH  27  42
ATOM     42  C   UNL     1       7.973   1.387   6.218  1.00  0.00     0.015 C 
ATOM     43  C   UNL     1       6.847   2.237   6.820  1.00  0.00     0.010 C 
ATOM     44  C   UNL     1       9.331   2.053   6.466  1.00  0.00     0.010 C 
ENDBRANCH  27  42
ENDBRANCH   3  27
TORSDOF 5
ENDMDL
MODEL 8
REMARK VINA RESULT:    -4.724      6.599     10.839
REMARK INTER + INTRA:         -10.943
REMARK INTER:                  -8.451
REMARK INTRA:                  -2.492
REMARK UNBOUND:                -2.491
REMARK SMILES CC[C@H](C)[C@H]1NC(=O)c2coc(n2)[C@H](C(C)C)NC(=O)[C@H]([C@@H](C)O)NC(=O)[C@H](C)NC(=O)c2csc1n2
REMARK SMILES IDX 11 1 13 2 12 3 9 4 10 5 7 6 6 7 8 8 5 10 36 11 35 12 34 13
REMARK SMILES IDX 37 14 33 15 31 16 32 17 30 18 28 20 29 21 3 23 4 24 2 25
REMARK SMILES IDX 1 26 14 27 18 28 19 29 20 30 21 32 25 33 26 34 27 35 22 38
REMARK SMILES IDX 23 39 24 40 15 42 16 43 17 44
REMARK H PARENT 6 9 30 19 18 31 25 36 24 41
REMARK Flexibility Score:   94.900
ROOT
ATOM      1  O   UNL     1      13.292  -2.547   1.943  1.00  0.00    -0.446 OA
ATOM      2  N   UNL     1      12.010  -0.692   1.945  1.00  0.00    -0.207 NA
ATOM      3  C   UNL     1      12.188  -1.904   1.449  1.00  0.00     0.217 A 
ATOM      4  C   UNL     1      13.050  -0.538   2.845  1.00  0.00     0.167 A 
ATOM      5  C   UNL     1      13.827  -1.671   2.839  1.00  0.00     0.231 A 
ENDROOT
BRANCH   4   6
ATOM      6  C   UNL     1      13.255   0.672   3.622  1.00  0.00     0.273 C 
ATOM      7  N   UNL     1      13.106   0.445   4.967  1.00  0.00    -0.341 N 
ATOM      8  O   UNL     1      13.504   1.763   3.124  1.00  0.00    -0.267 OA
ATOM      9  H   UNL     1      12.808  -0.491   5.226  1.00  0.00     0.164 HD
BRANCH   7  10
ATOM     10  C   UNL     1      13.011   1.512   5.944  1.00  0.00     0.145 C 
BRANCH  10  11
ATOM     11  C   UNL     1      11.537   1.716   6.261  1.00  0.00     0.116 A 
ATOM     12  S   UNL     1      11.062   2.959   7.356  1.00  0.00    -0.124 S 
ATOM     13  C   UNL     1       9.424   2.540   7.110  1.00  0.00     0.101 A 
ATOM     14  N   UNL     1      10.545   1.010   5.744  1.00  0.00    -0.234 NA
ATOM     15  C   UNL     1       9.322   1.491   6.217  1.00  0.00     0.139 A 
BRANCH  15  16
ATOM     16  C   UNL     1       8.048   0.918   5.778  1.00  0.00     0.271 C 
ATOM     17  O   UNL     1       6.997   1.089   6.386  1.00  0.00    -0.267 OA
ATOM     18  N   UNL     1       8.148   0.174   4.621  1.00  0.00    -0.339 N 
ATOM     19  H   UNL     1       9.090   0.015   4.276  1.00  0.00     0.164 HD
BRANCH  18  20
ATOM     20  C   UNL     1       6.995  -0.528   4.074  1.00  0.00     0.168 CG0
ATOM     21  C   UNL     1       6.544   0.092   2.749  1.00  0.00     0.041 C 
ATOM     22  G   UNL     1       7.270  -2.020   3.825  1.00  0.00     0.000 G0
ENDBRANCH  18  20
ENDBRANCH  15  16
ENDBRANCH  10  11
BRANCH  10  23
ATOM     23  C   UNL     1      13.854   1.221   7.214  1.00  0.00     0.015 C 
ATOM     24  C   UNL     1      14.571  -0.139   7.170  1.00  0.00     0.010 C 
BRANCH  23  25
ATOM     25  C   UNL     1      14.900   2.322   7.503  1.00  0.00     0.002 C 
ATOM     26  C   UNL     1      15.003   2.705   8.973  1.00  0.00     0.004 C 
ENDBRANCH  23  25
ENDBRANCH  10  23
ENDBRANCH   7  10
ENDBRANCH   4   6
BRANCH   3  27
ATOM     27  C   UNL     1      11.355  -2.584   0.398  1.00  0.00     0.171 C 
BRANCH  27  28
ATOM     28  N   UNL     1       9.996  -2.704   0.914  1.00  0.00    -0.342 N 
ATOM     29  C   UNL     1       9.558  -3.802   1.620  1.00  0.00     0.245 C 
ATOM     30  O   UNL     1      10.287  -4.758   1.881  1.00  0.00    -0.273 OA
ATOM     31  H   UNL     1       9.369  -1.903   0.836  1.00  0.00     0.164 HD
BRANCH  29  32
ATOM     32  C   UNL     1       8.130  -3.691   2.195  1.00  0.00     0.200 C 
BRANCH  32  33
ATOM     33  N   UNL     1       7.912  -2.304   2.622  1.00  0.00    -0.340 N 
ATOM     34  C   UNL     1       7.290  -2.012   3.818  1.00  0.00     0.243 CG0
ATOM     35  O   UNL     1       6.835  -2.893   4.545  1.00  0.00    -0.273 OA
ATOM     36  H   UNL     1       8.249  -1.555   2.028  1.00  0.00     0.164 HD
ATOM     37  G   UNL     1       7.004  -0.524   4.075  1.00  0.00     0.000 G0
ENDBRANCH  32  33
BRANCH  32  38
ATOM     38  C   UNL     1       7.072  -4.183   1.180  1.00  0.00     0.143 C 
ATOM     39  C   UNL     1       6.076  -3.112   0.751  1.00  0.00     0.041 C 
BRANCH  38  40
ATOM     40  O   UNL     1       7.722  -4.713   0.008  1.00  0.00    -0.391 OA
ATOM     41  H   UNL     1       7.988  -3.946  -0.535  1.00  0.00     0.211 HD
ENDBRANCH  38  40
ENDBRANCH  32  38
ENDBRANCH  29  32
ENDBRANCH  27  28
BRANCH  27  42
ATOM     42  C   UNL     1      11.372  -1.980  -1.028  1.00  0.00     0.015 C 
ATOM     43  C   UNL     1      12.720  -1.415  -1.490  1.00  0.00     0.010 C 
ATOM     44  C   UNL     1      10.820  -2.957  -2.071  1.00  0.00     0.010 C 
ENDBRANCH  27  42
ENDBRANCH   3  27
TORSDOF 5
ENDMDL
MODEL 9
REMARK VINA RESULT:    -4.644      3.829      5.583
REMARK INTER + INTRA:         -10.800
REMARK INTER:                  -8.437
REMARK INTRA:                  -2.363
REMARK UNBOUND:                -2.491
REMARK SMILES CC[C@H](C)[C@H]1NC(=O)c2coc(n2)[C@H](C(C)C)NC(=O)[C@H]([C@@H](C)O)NC(=O)[C@H](C)NC(=O)c2csc1n2
REMARK SMILES IDX 11 1 13 2 12 3 9 4 10 5 7 6 6 7 8 8 5 10 36 11 35 12 34 13
REMARK SMILES IDX 37 14 33 15 31 16 32 17 30 18 28 20 29 21 3 23 4 24 2 25
REMARK SMILES IDX 1 26 14 27 18 28 19 29 20 30 21 32 25 33 26 34 27 35 22 38
REMARK SMILES IDX 23 39 24 40 15 42 16 43 17 44
REMARK H PARENT 6 9 30 19 18 31 25 36 24 41
REMARK Flexibility Score:   94.900
ROOT
ATOM      1  O   UNL     1       6.390  -3.232   4.109  1.00  0.00    -0.446 OA
ATOM      2  N   UNL     1       6.354  -1.003   4.441  1.00  0.00    -0.207 NA
ATOM      3  C   UNL     1       5.907  -2.181   4.840  1.00  0.00     0.217 A 
ATOM      4  C   UNL     1       7.209  -1.302   3.394  1.00  0.00     0.167 A 
ATOM      5  C   UNL     1       7.227  -2.661   3.197  1.00  0.00     0.231 A 
ENDROOT
BRANCH   4   6
ATOM      6  C   UNL     1       7.922  -0.288   2.638  1.00  0.00     0.273 C 
ATOM      7  N   UNL     1       9.272  -0.328   2.878  1.00  0.00    -0.341 N 
ATOM      8  O   UNL     1       7.371   0.518   1.897  1.00  0.00    -0.267 OA
ATOM      9  H   UNL     1       9.574  -0.990   3.587  1.00  0.00     0.164 HD
BRANCH   7  10
ATOM     10  C   UNL     1      10.184   0.716   2.453  1.00  0.00     0.145 C 
BRANCH  10  11
ATOM     11  C   UNL     1      10.475   1.593   3.662  1.00  0.00     0.116 A 
ATOM     12  S   UNL     1      11.731   2.769   3.583  1.00  0.00    -0.124 S 
ATOM     13  C   UNL     1      11.364   3.260   5.178  1.00  0.00     0.101 A 
ATOM     14  N   UNL     1       9.818   1.545   4.810  1.00  0.00    -0.234 NA
ATOM     15  C   UNL     1      10.315   2.515   5.683  1.00  0.00     0.139 A 
BRANCH  15  16
ATOM     16  C   UNL     1       9.746   2.714   7.018  1.00  0.00     0.271 C 
ATOM     17  O   UNL     1      10.214   3.505   7.829  1.00  0.00    -0.267 OA
ATOM     18  N   UNL     1       8.641   1.928   7.268  1.00  0.00    -0.339 N 
ATOM     19  H   UNL     1       8.419   1.234   6.559  1.00  0.00     0.164 HD
BRANCH  18  20
ATOM     20  C   UNL     1       7.984   1.942   8.568  1.00  0.00     0.168 CG0
ATOM     21  C   UNL     1       6.598   2.585   8.484  1.00  0.00     0.041 C 
ATOM     22  G   UNL     1       7.814   0.535   9.162  1.00  0.00     0.000 G0
ENDBRANCH  18  20
ENDBRANCH  15  16
ENDBRANCH  10  11
BRANCH  10  23
ATOM     23  C   UNL     1      11.476   0.142   1.815  1.00  0.00     0.015 C 
ATOM     24  C   UNL     1      11.659  -1.365   2.061  1.00  0.00     0.010 C 
BRANCH  23  25
ATOM     25  C   UNL     1      11.562   0.409   0.295  1.00  0.00     0.002 C 
ATOM     26  C   UNL     1      12.455   1.585  -0.077  1.00  0.00     0.004 C 
ENDBRANCH  23  25
ENDBRANCH  10  23
ENDBRANCH   7  10
ENDBRANCH   4   6
BRANCH   3  27
ATOM     27  C   UNL     1       4.918  -2.449   5.942  1.00  0.00     0.171 C 
BRANCH  27  28
ATOM     28  N   UNL     1       5.367  -1.731   7.130  1.00  0.00    -0.342 N 
ATOM     29  C   UNL     1       5.749  -2.369   8.288  1.00  0.00     0.245 C 
ATOM     30  O   UNL     1       5.755  -3.593   8.403  1.00  0.00    -0.273 OA
ATOM     31  H   UNL     1       5.498  -0.721   7.072  1.00  0.00     0.164 HD
BRANCH  29  32
ATOM     32  C   UNL     1       6.315  -1.450   9.391  1.00  0.00     0.200 C 
BRANCH  32  33
ATOM     33  N   UNL     1       6.663  -0.160   8.783  1.00  0.00    -0.340 N 
ATOM     34  C   UNL     1       7.801   0.525   9.158  1.00  0.00     0.243 CG0
ATOM     35  O   UNL     1       8.536   0.121  10.057  1.00  0.00    -0.273 OA
ATOM     36  H   UNL     1       6.060   0.214   8.060  1.00  0.00     0.164 HD
ATOM     37  G   UNL     1       7.970   1.923   8.542  1.00  0.00     0.000 G0
ENDBRANCH  32  33
BRANCH  32  38
ATOM     38  C   UNL     1       5.329  -1.312  10.574  1.00  0.00     0.143 C 
ATOM     39  C   UNL     1       4.925   0.125  10.884  1.00  0.00     0.041 C 
BRANCH  38  40
ATOM     40  O   UNL     1       4.141  -2.086  10.318  1.00  0.00    -0.391 OA
ATOM     41  H   UNL     1       4.439  -2.974  10.046  1.00  0.00     0.211 HD
ENDBRANCH  38  40
ENDBRANCH  32  38
ENDBRANCH  29  32
ENDBRANCH  27  28
BRANCH  27  42
ATOM     42  C   UNL     1       3.424  -2.175   5.641  1.00  0.00     0.015 C 
ATOM     43  C   UNL     1       2.990  -2.403   4.189  1.00  0.00     0.010 C 
ATOM     44  C   UNL     1       2.499  -2.934   6.598  1.00  0.00     0.010 C 
ENDBRANCH  27  42
ENDBRANCH   3  27
TORSDOF 5
ENDMDL
MODEL 10
REMARK VINA RESULT:    -4.489      6.898     10.912
REMARK INTER + INTRA:         -10.523
REMARK INTER:                  -8.614
REMARK INTRA:                  -1.909
REMARK UNBOUND:                -2.491
REMARK SMILES CC[C@H](C)[C@H]1NC(=O)c2coc(n2)[C@H](C(C)C)NC(=O)[C@H]([C@@H](C)O)NC(=O)[C@H](C)NC(=O)c2csc1n2
REMARK SMILES IDX 11 1 13 2 12 3 9 4 10 5 7 6 6 7 8 8 5 10 36 11 35 12 34 13
REMARK SMILES IDX 37 14 33 15 31 16 32 17 30 18 28 20 29 21 3 23 4 24 2 25
REMARK SMILES IDX 1 26 14 27 18 28 19 29 20 30 21 32 25 33 26 34 27 35 22 38
REMARK SMILES IDX 23 39 24 40 15 42 16 43 17 44
REMARK H PARENT 6 9 30 19 18 31 25 36 24 41
REMARK Flexibility Score:   94.900
ROOT
ATOM      1  O   UNL     1      12.530   4.083   8.526  1.00  0.00    -0.446 OA
ATOM      2  N   UNL     1      10.819   4.812   7.252  1.00  0.00    -0.207 NA
ATOM      3  C   UNL     1      11.426   3.765   7.781  1.00  0.00     0.217 A 
ATOM      4  C   UNL     1      11.558   5.894   7.700  1.00  0.00     0.167 A 
ATOM      5  C   UNL     1      12.598   5.443   8.476  1.00  0.00     0.231 A 
ENDROOT
BRANCH   4   6
ATOM      6  C   UNL     1      11.249   7.268   7.343  1.00  0.00     0.273 C 
ATOM      7  N   UNL     1      10.836   7.996   8.430  1.00  0.00    -0.341 N 
ATOM      8  O   UNL     1      11.328   7.705   6.202  1.00  0.00    -0.267 OA
ATOM      9  H   UNL     1      10.731   7.475   9.296  1.00  0.00     0.164 HD
BRANCH   7  10
ATOM     10  C   UNL     1      10.234   9.310   8.320  1.00  0.00     0.145 C 
BRANCH  10  11
ATOM     11  C   UNL     1       8.829   9.129   7.764  1.00  0.00     0.116 A 
ATOM     12  S   UNL     1       7.993  10.480   7.096  1.00  0.00    -0.124 S 
ATOM     13  C   UNL     1       6.669   9.466   6.723  1.00  0.00     0.101 A 
ATOM     14  N   UNL     1       8.169   7.983   7.732  1.00  0.00    -0.234 NA
ATOM     15  C   UNL     1       6.928   8.167   7.117  1.00  0.00     0.139 A 
BRANCH  15  16
ATOM     16  C   UNL     1       5.998   7.054   6.911  1.00  0.00     0.271 C 
ATOM     17  O   UNL     1       4.909   7.190   6.364  1.00  0.00    -0.267 OA
ATOM     18  N   UNL     1       6.468   5.849   7.389  1.00  0.00    -0.339 N 
ATOM     19  H   UNL     1       7.334   5.888   7.920  1.00  0.00     0.164 HD
BRANCH  18  20
ATOM     20  C   UNL     1       5.650   4.645   7.332  1.00  0.00     0.168 CG0
ATOM     21  C   UNL     1       5.745   3.972   5.961  1.00  0.00     0.041 C 
ATOM     22  G   UNL     1       6.047   3.607   8.394  1.00  0.00     0.000 G0
ENDBRANCH  18  20
ENDBRANCH  15  16
ENDBRANCH  10  11
BRANCH  10  23
ATOM     23  C   UNL     1      10.242  10.074   9.670  1.00  0.00     0.015 C 
ATOM     24  C   UNL     1      10.751   9.224  10.847  1.00  0.00     0.010 C 
BRANCH  23  25
ATOM     25  C   UNL     1      11.064  11.382   9.614  1.00  0.00     0.002 C 
ATOM     26  C   UNL     1      10.227  12.627   9.356  1.00  0.00     0.004 C 
ENDBRANCH  23  25
ENDBRANCH  10  23
ENDBRANCH   7  10
ENDBRANCH   4   6
BRANCH   3  27
ATOM     27  C   UNL     1      11.059   2.317   7.600  1.00  0.00     0.171 C 
BRANCH  27  28
ATOM     28  N   UNL     1       9.610   2.204   7.734  1.00  0.00    -0.342 N 
ATOM     29  C   UNL     1       9.006   1.506   8.755  1.00  0.00     0.245 C 
ATOM     30  O   UNL     1       9.644   0.939   9.641  1.00  0.00    -0.273 OA
ATOM     31  H   UNL     1       9.017   2.742   7.104  1.00  0.00     0.164 HD
BRANCH  29  32
ATOM     32  C   UNL     1       7.467   1.607   8.803  1.00  0.00     0.200 C 
BRANCH  32  33
ATOM     33  N   UNL     1       7.053   2.740   7.966  1.00  0.00    -0.340 N 
ATOM     34  C   UNL     1       6.049   3.597   8.367  1.00  0.00     0.243 CG0
ATOM     35  O   UNL     1       5.416   3.416   9.405  1.00  0.00    -0.273 OA
ATOM     36  H   UNL     1       7.536   2.897   7.090  1.00  0.00     0.164 HD
ATOM     37  G   UNL     1       5.625   4.654   7.336  1.00  0.00     0.000 G0
ENDBRANCH  32  33
BRANCH  32  38
ATOM     38  C   UNL     1       6.800   0.275   8.388  1.00  0.00     0.143 C 
ATOM     39  C   UNL     1       7.424  -0.377   7.160  1.00  0.00     0.041 C 
BRANCH  38  40
ATOM     40  O   UNL     1       6.840  -0.659   9.484  1.00  0.00    -0.391 OA
ATOM     41  H   UNL     1       5.918  -0.931   9.653  1.00  0.00     0.211 HD
ENDBRANCH  38  40
ENDBRANCH  32  38
ENDBRANCH  29  32
ENDBRANCH  27  28
BRANCH  27  42
ATOM     42  C   UNL     1      11.571   1.606   6.324  1.00  0.00     0.015 C 
ATOM     43  C   UNL     1      13.070   1.288   6.300  1.00  0.00     0.010 C 
ATOM     44  C   UNL     1      10.756   0.348   6.003  1.00  0.00     0.010 C 
ENDBRANCH  27  42
ENDBRANCH   3  27
TORSDOF 5
ENDMDL
