MODEL 1
REMARK VINA RESULT:    -6.561      0.000      0.000
REMARK INTER + INTRA:         -21.454
REMARK INTER:                 -16.342
REMARK INTRA:                  -5.112
REMARK UNBOUND:                -5.112
REMARK SMILES CCCCCCC[C@H](N)[C@H](O)C(=O)N[C@H](C)C(=O)N(C)[C@H](CC(C)C)C(=O)N[C@@H](Cc1ccc(O)cc1)C(=O)N[C@@H](Cc1ccc(O)cc1)C(=O)O
REMARK SMILES IDX 18 1 17 2 15 3 16 4 14 5 12 6 13 7 10 9 11 10 8 12 9 13 7 16
REMARK SMILES IDX 6 17 5 18 4 19 3 20 2 21 1 22 19 23 20 24 21 25 22 26 23 27
REMARK SMILES IDX 24 28 25 29 26 30 27 31 28 32 29 34 30 35 31 36 32 37 37 38
REMARK SMILES IDX 33 39 36 40 34 41 35 42 38 44 39 45 40 46 41 48 42 49 43 50
REMARK SMILES IDX 44 51 49 52 45 53 48 54 46 55 47 56 50 58 51 59 52 60
REMARK H PARENT 14 8 11 11 9 14 9 15 28 33 35 43 40 47 47 57 52 61
ROOT
ATOM      1  O   UNL     1      -8.456 -10.478  13.903  1.00  0.00    -0.272 OA
ATOM      2  C   UNL     1      -7.558 -11.327  13.802  1.00  0.00     0.245 C 
ENDROOT
BRANCH   2   3
ATOM      3  C   UNL     1      -7.221 -11.885  12.396  1.00  0.00     0.168 C 
ATOM      4  C   UNL     1      -8.492 -12.281  11.652  1.00  0.00     0.041 C 
BRANCH   3   5
ATOM      5  N   UNL     1      -6.364 -11.031  11.589  1.00  0.00    -0.342 N 
ATOM      6  C   UNL     1      -5.384 -11.549  10.769  1.00  0.00     0.251 C 
ATOM      7  O   UNL     1      -5.132 -12.747  10.690  1.00  0.00    -0.272 OA
ATOM      8  H   UNL     1      -6.456 -10.018  11.598  1.00  0.00     0.164 HD
BRANCH   6   9
ATOM      9  C   UNL     1      -4.702 -10.475   9.906  1.00  0.00     0.219 C 
BRANCH   9  10
ATOM     10  O   UNL     1      -5.519  -9.313   9.721  1.00  0.00    -0.382 OA
ATOM     11  H   UNL     1      -4.959  -8.722   9.172  1.00  0.00     0.211 HD
ENDBRANCH   9  10
BRANCH   9  12
ATOM     12  C   UNL     1      -3.294 -10.081  10.424  1.00  0.00     0.089 C 
BRANCH  12  13
ATOM     13  N   UNL     1      -3.291 -10.193  11.901  1.00  0.00    -0.325 NA
ATOM     14  H   UNL     1      -4.027  -9.596  12.284  1.00  0.00     0.119 HD
ATOM     15  H   UNL     1      -2.417  -9.803  12.261  1.00  0.00     0.119 HD
ENDBRANCH  12  13
BRANCH  12  16
ATOM     16  C   UNL     1      -2.106 -10.875   9.829  1.00  0.00     0.022 C 
BRANCH  16  17
ATOM     17  C   UNL     1      -1.959 -10.968   8.304  1.00  0.00     0.002 C 
BRANCH  17  18
ATOM     18  C   UNL     1      -0.552 -11.302   7.812  1.00  0.00     0.000 C 
BRANCH  18  19
ATOM     19  C   UNL     1      -0.427 -12.692   7.175  1.00  0.00    -0.000 C 
BRANCH  19  20
ATOM     20  C   UNL     1       0.430 -13.691   7.958  1.00  0.00    -0.000 C 
BRANCH  20  21
ATOM     21  C   UNL     1       1.583 -13.027   8.715  1.00  0.00    -0.003 C 
ATOM     22  C   UNL     1       2.930 -13.554   8.245  1.00  0.00     0.004 C 
ENDBRANCH  20  21
ENDBRANCH  19  20
ENDBRANCH  18  19
ENDBRANCH  17  18
ENDBRANCH  16  17
ENDBRANCH  12  16
ENDBRANCH   9  12
ENDBRANCH   6   9
ENDBRANCH   3   5
ENDBRANCH   2   3
BRANCH   2  23
ATOM     23  N   UNL     1      -6.795 -11.670  14.913  1.00  0.00    -0.332 N 
ATOM     24  C   UNL     1      -7.234 -12.569  15.970  1.00  0.00     0.147 C 
BRANCH  23  25
ATOM     25  C   UNL     1      -5.382 -11.216  15.023  1.00  0.00     0.174 C 
BRANCH  25  26
ATOM     26  C   UNL     1      -4.578 -12.000  16.087  1.00  0.00     0.038 C 
BRANCH  26  27
ATOM     27  C   UNL     1      -3.469 -12.943  15.572  1.00  0.00    -0.015 C 
ATOM     28  C   UNL     1      -4.029 -14.235  14.978  1.00  0.00     0.007 C 
ATOM     29  C   UNL     1      -2.509 -12.273  14.592  1.00  0.00     0.007 C 
ENDBRANCH  26  27
ENDBRANCH  25  26
BRANCH  25  30
ATOM     30  C   UNL     1      -5.329  -9.682  15.211  1.00  0.00     0.243 C 
ATOM     31  O   UNL     1      -6.055  -9.100  16.015  1.00  0.00    -0.273 OA
ATOM     32  N   UNL     1      -4.427  -9.018  14.419  1.00  0.00    -0.342 N 
ATOM     33  H   UNL     1      -3.763  -9.582  13.882  1.00  0.00     0.164 HD
BRANCH  32  34
ATOM     34  C   UNL     1      -4.259  -7.563  14.442  1.00  0.00     0.175 C 
BRANCH  34  35
ATOM     35  C   UNL     1      -2.881  -7.168  14.993  1.00  0.00     0.070 C 
BRANCH  35  36
ATOM     36  C   UNL     1      -2.967  -6.160  16.118  1.00  0.00    -0.045 A 
ATOM     37  C   UNL     1      -2.806  -4.793  15.849  1.00  0.00     0.007 A 
ATOM     38  C   UNL     1      -3.186  -6.574  17.438  1.00  0.00     0.007 A 
ATOM     39  C   UNL     1      -2.871  -3.857  16.882  1.00  0.00     0.046 A 
ATOM     40  C   UNL     1      -3.249  -5.638  18.473  1.00  0.00     0.046 A 
ATOM     41  C   UNL     1      -3.092  -4.286  18.184  1.00  0.00     0.115 A 
BRANCH  41  42
ATOM     42  O   UNL     1      -3.146  -3.340  19.165  1.00  0.00    -0.508 OA
ATOM     43  H   UNL     1      -2.281  -3.311  19.607  1.00  0.00     0.293 HD
ENDBRANCH  41  42
ENDBRANCH  35  36
ENDBRANCH  34  35
BRANCH  34  44
ATOM     44  C   UNL     1      -4.480  -7.033  13.007  1.00  0.00     0.243 C 
ATOM     45  O   UNL     1      -5.252  -7.534  12.194  1.00  0.00    -0.273 OA
ATOM     46  N   UNL     1      -3.626  -6.007  12.663  1.00  0.00    -0.341 N 
ATOM     47  H   UNL     1      -2.923  -5.704  13.333  1.00  0.00     0.164 HD
BRANCH  46  48
ATOM     48  C   UNL     1      -3.602  -5.389  11.335  1.00  0.00     0.196 C 
BRANCH  48  49
ATOM     49  C   UNL     1      -2.638  -4.191  11.293  1.00  0.00     0.072 C 
BRANCH  49  50
ATOM     50  C   UNL     1      -3.289  -2.905  11.750  1.00  0.00    -0.045 A 
ATOM     51  C   UNL     1      -4.574  -2.572  11.298  1.00  0.00     0.007 A 
ATOM     52  C   UNL     1      -2.618  -2.023  12.607  1.00  0.00     0.007 A 
ATOM     53  C   UNL     1      -5.179  -1.382  11.703  1.00  0.00     0.046 A 
ATOM     54  C   UNL     1      -3.223  -0.831  13.011  1.00  0.00     0.046 A 
ATOM     55  C   UNL     1      -4.500  -0.521  12.556  1.00  0.00     0.115 A 
BRANCH  55  56
ATOM     56  O   UNL     1      -5.125   0.632  12.927  1.00  0.00    -0.508 OA
ATOM     57  H   UNL     1      -4.458   1.242  13.279  1.00  0.00     0.293 HD
ENDBRANCH  55  56
ENDBRANCH  49  50
ENDBRANCH  48  49
BRANCH  48  58
ATOM     58  C   UNL     1      -3.164  -6.439  10.305  1.00  0.00     0.326 C 
ATOM     59  O   UNL     1      -2.045  -6.903  10.151  1.00  0.00    -0.250 OA
BRANCH  58  60
ATOM     60  O   UNL     1      -4.175  -6.874   9.512  1.00  0.00    -0.480 OA
ATOM     61  H   UNL     1      -4.041  -6.372   8.679  1.00  0.00     0.296 HD
ENDBRANCH  58  60
ENDBRANCH  48  58
ENDBRANCH  46  48
ENDBRANCH  34  44
ENDBRANCH  32  34
ENDBRANCH  25  30
ENDBRANCH  23  25
ENDBRANCH   2  23
TORSDOF 28
ENDMDL
MODEL 2
REMARK VINA RESULT:    -6.557      5.031      7.425
REMARK INTER + INTRA:         -21.445
REMARK INTER:                 -16.466
REMARK INTRA:                  -4.979
REMARK UNBOUND:                -5.112
REMARK SMILES CCCCCCC[C@H](N)[C@H](O)C(=O)N[C@H](C)C(=O)N(C)[C@H](CC(C)C)C(=O)N[C@@H](Cc1ccc(O)cc1)C(=O)N[C@@H](Cc1ccc(O)cc1)C(=O)O
REMARK SMILES IDX 18 1 17 2 15 3 16 4 14 5 12 6 13 7 10 9 11 10 8 12 9 13 7 16
REMARK SMILES IDX 6 17 5 18 4 19 3 20 2 21 1 22 19 23 20 24 21 25 22 26 23 27
REMARK SMILES IDX 24 28 25 29 26 30 27 31 28 32 29 34 30 35 31 36 32 37 37 38
REMARK SMILES IDX 33 39 36 40 34 41 35 42 38 44 39 45 40 46 41 48 42 49 43 50
REMARK SMILES IDX 44 51 49 52 45 53 48 54 46 55 47 56 50 58 51 59 52 60
REMARK H PARENT 14 8 11 11 9 14 9 15 28 33 35 43 40 47 47 57 52 61
ROOT
ATOM      1  O   UNL     1      -1.083  -8.498  12.858  1.00  0.00    -0.272 OA
ATOM      2  C   UNL     1       0.131  -8.726  12.969  1.00  0.00     0.245 C 
ENDROOT
BRANCH   2   3
ATOM      3  C   UNL     1       1.099  -8.110  11.929  1.00  0.00     0.168 C 
ATOM      4  C   UNL     1       0.365  -7.132  11.018  1.00  0.00     0.041 C 
BRANCH   3   5
ATOM      5  N   UNL     1       2.308  -7.527  12.489  1.00  0.00    -0.342 N 
ATOM      6  C   UNL     1       3.562  -7.870  12.031  1.00  0.00     0.251 C 
ATOM      7  O   UNL     1       3.757  -8.710  11.159  1.00  0.00    -0.272 OA
ATOM      8  H   UNL     1       2.274  -6.843  13.242  1.00  0.00     0.164 HD
BRANCH   6   9
ATOM      9  C   UNL     1       4.679  -7.026  12.667  1.00  0.00     0.219 C 
BRANCH   9  10
ATOM     10  O   UNL     1       5.864  -7.788  12.932  1.00  0.00    -0.382 OA
ATOM     11  H   UNL     1       6.076  -7.568  13.866  1.00  0.00     0.211 HD
ENDBRANCH   9  10
BRANCH   9  12
ATOM     12  C   UNL     1       5.015  -5.749  11.854  1.00  0.00     0.089 C 
BRANCH  12  13
ATOM     13  N   UNL     1       3.831  -5.386  11.043  1.00  0.00    -0.325 NA
ATOM     14  H   UNL     1       4.084  -4.638  10.395  1.00  0.00     0.119 HD
ATOM     15  H   UNL     1       3.121  -4.979  11.656  1.00  0.00     0.119 HD
ENDBRANCH  12  13
BRANCH  12  16
ATOM     16  C   UNL     1       5.491  -4.528  12.677  1.00  0.00     0.022 C 
BRANCH  16  17
ATOM     17  C   UNL     1       4.444  -3.597  13.305  1.00  0.00     0.002 C 
BRANCH  17  18
ATOM     18  C   UNL     1       5.015  -2.471  14.164  1.00  0.00     0.000 C 
BRANCH  18  19
ATOM     19  C   UNL     1       6.536  -2.305  14.045  1.00  0.00    -0.000 C 
BRANCH  19  20
ATOM     20  C   UNL     1       7.299  -2.330  15.373  1.00  0.00    -0.000 C 
BRANCH  20  21
ATOM     21  C   UNL     1       8.219  -1.121  15.559  1.00  0.00    -0.003 C 
ATOM     22  C   UNL     1       8.408  -0.362  14.255  1.00  0.00     0.004 C 
ENDBRANCH  20  21
ENDBRANCH  19  20
ENDBRANCH  18  19
ENDBRANCH  17  18
ENDBRANCH  16  17
ENDBRANCH  12  16
ENDBRANCH   9  12
ENDBRANCH   6   9
ENDBRANCH   3   5
ENDBRANCH   2   3
BRANCH   2  23
ATOM     23  N   UNL     1       0.610  -9.417  14.077  1.00  0.00    -0.332 N 
ATOM     24  C   UNL     1       1.449 -10.605  14.011  1.00  0.00     0.147 C 
BRANCH  23  25
ATOM     25  C   UNL     1       0.386  -8.884  15.449  1.00  0.00     0.174 C 
BRANCH  25  26
ATOM     26  C   UNL     1       1.436  -9.386  16.469  1.00  0.00     0.038 C 
BRANCH  26  27
ATOM     27  C   UNL     1       1.748  -8.459  17.665  1.00  0.00    -0.015 C 
ATOM     28  C   UNL     1       1.585  -6.980  17.316  1.00  0.00     0.007 C 
ATOM     29  C   UNL     1       0.958  -8.804  18.924  1.00  0.00     0.007 C 
ENDBRANCH  26  27
ENDBRANCH  25  26
BRANCH  25  30
ATOM     30  C   UNL     1      -1.075  -9.138  15.886  1.00  0.00     0.243 C 
ATOM     31  O   UNL     1      -1.477 -10.259  16.192  1.00  0.00    -0.273 OA
ATOM     32  N   UNL     1      -1.889  -8.034  15.903  1.00  0.00    -0.342 N 
ATOM     33  H   UNL     1      -1.449  -7.119  15.775  1.00  0.00     0.164 HD
BRANCH  32  34
ATOM     34  C   UNL     1      -3.308  -8.090  16.265  1.00  0.00     0.175 C 
BRANCH  34  35
ATOM     35  C   UNL     1      -3.547  -7.534  17.677  1.00  0.00     0.070 C 
BRANCH  35  36
ATOM     36  C   UNL     1      -2.742  -6.285  17.958  1.00  0.00    -0.045 A 
ATOM     37  C   UNL     1      -2.993  -5.110  17.234  1.00  0.00     0.007 A 
ATOM     38  C   UNL     1      -1.724  -6.288  18.921  1.00  0.00     0.007 A 
ATOM     39  C   UNL     1      -2.246  -3.957  17.476  1.00  0.00     0.046 A 
ATOM     40  C   UNL     1      -0.974  -5.134  19.163  1.00  0.00     0.046 A 
ATOM     41  C   UNL     1      -1.243  -3.978  18.439  1.00  0.00     0.115 A 
BRANCH  41  42
ATOM     42  O   UNL     1      -0.534  -2.831  18.643  1.00  0.00    -0.508 OA
ATOM     43  H   UNL     1      -0.970  -2.113  18.155  1.00  0.00     0.293 HD
ENDBRANCH  41  42
ENDBRANCH  35  36
ENDBRANCH  34  35
BRANCH  34  44
ATOM     44  C   UNL     1      -4.105  -7.312  15.194  1.00  0.00     0.243 C 
ATOM     45  O   UNL     1      -5.321  -7.144  15.221  1.00  0.00    -0.273 OA
ATOM     46  N   UNL     1      -3.340  -6.922  14.116  1.00  0.00    -0.341 N 
ATOM     47  H   UNL     1      -2.359  -7.186  14.085  1.00  0.00     0.164 HD
BRANCH  46  48
ATOM     48  C   UNL     1      -3.889  -6.230  12.947  1.00  0.00     0.196 C 
BRANCH  48  49
ATOM     49  C   UNL     1      -2.960  -5.096  12.481  1.00  0.00     0.072 C 
BRANCH  49  50
ATOM     50  C   UNL     1      -3.399  -3.740  12.985  1.00  0.00    -0.045 A 
ATOM     51  C   UNL     1      -2.780  -2.579  12.500  1.00  0.00     0.007 A 
ATOM     52  C   UNL     1      -4.406  -3.622  13.952  1.00  0.00     0.007 A 
ATOM     53  C   UNL     1      -3.168  -1.324  12.968  1.00  0.00     0.046 A 
ATOM     54  C   UNL     1      -4.794  -2.365  14.421  1.00  0.00     0.046 A 
ATOM     55  C   UNL     1      -4.171  -1.226  13.924  1.00  0.00     0.115 A 
BRANCH  55  56
ATOM     56  O   UNL     1      -4.519   0.020  14.357  1.00  0.00    -0.508 OA
ATOM     57  H   UNL     1      -3.716   0.562  14.406  1.00  0.00     0.293 HD
ENDBRANCH  55  56
ENDBRANCH  49  50
ENDBRANCH  48  49
BRANCH  48  58
ATOM     58  C   UNL     1      -4.075  -7.244  11.809  1.00  0.00     0.326 C 
ATOM     59  O   UNL     1      -5.023  -7.992  11.633  1.00  0.00    -0.250 OA
BRANCH  58  60
ATOM     60  O   UNL     1      -3.047  -7.257  10.923  1.00  0.00    -0.480 OA
ATOM     61  H   UNL     1      -2.551  -8.069  11.164  1.00  0.00     0.296 HD
ENDBRANCH  58  60
ENDBRANCH  48  58
ENDBRANCH  46  48
ENDBRANCH  34  44
ENDBRANCH  32  34
ENDBRANCH  25  30
ENDBRANCH  23  25
ENDBRANCH   2  23
TORSDOF 28
ENDMDL
MODEL 3
REMARK VINA RESULT:    -6.543      4.162      8.490
REMARK INTER + INTRA:         -21.409
REMARK INTER:                 -18.006
REMARK INTRA:                  -3.403
REMARK UNBOUND:                -5.112
REMARK SMILES CCCCCCC[C@H](N)[C@H](O)C(=O)N[C@H](C)C(=O)N(C)[C@H](CC(C)C)C(=O)N[C@@H](Cc1ccc(O)cc1)C(=O)N[C@@H](Cc1ccc(O)cc1)C(=O)O
REMARK SMILES IDX 18 1 17 2 15 3 16 4 14 5 12 6 13 7 10 9 11 10 8 12 9 13 7 16
REMARK SMILES IDX 6 17 5 18 4 19 3 20 2 21 1 22 19 23 20 24 21 25 22 26 23 27
REMARK SMILES IDX 24 28 25 29 26 30 27 31 28 32 29 34 30 35 31 36 32 37 37 38
REMARK SMILES IDX 33 39 36 40 34 41 35 42 38 44 39 45 40 46 41 48 42 49 43 50
REMARK SMILES IDX 44 51 49 52 45 53 48 54 46 55 47 56 50 58 51 59 52 60
REMARK H PARENT 14 8 11 11 9 14 9 15 28 33 35 43 40 47 47 57 52 61
ROOT
ATOM      1  O   UNL     1      -0.470  -8.323  14.548  1.00  0.00    -0.272 OA
ATOM      2  C   UNL     1      -0.999  -8.179  15.661  1.00  0.00     0.245 C 
ENDROOT
BRANCH   2   3
ATOM      3  C   UNL     1      -0.084  -8.004  16.898  1.00  0.00     0.168 C 
ATOM      4  C   UNL     1       0.046  -9.315  17.666  1.00  0.00     0.041 C 
BRANCH   3   5
ATOM      5  N   UNL     1       1.214  -7.408  16.619  1.00  0.00    -0.342 N 
ATOM      6  C   UNL     1       1.854  -6.597  17.532  1.00  0.00     0.251 C 
ATOM      7  O   UNL     1       1.370  -6.284  18.615  1.00  0.00    -0.272 OA
ATOM      8  H   UNL     1       1.699  -7.567  15.739  1.00  0.00     0.164 HD
BRANCH   6   9
ATOM      9  C   UNL     1       3.269  -6.199  17.084  1.00  0.00     0.219 C 
BRANCH   9  10
ATOM     10  O   UNL     1       3.481  -6.397  15.681  1.00  0.00    -0.382 OA
ATOM     11  H   UNL     1       2.713  -5.947  15.266  1.00  0.00     0.211 HD
ENDBRANCH   9  10
BRANCH   9  12
ATOM     12  C   UNL     1       3.657  -4.756  17.502  1.00  0.00     0.089 C 
BRANCH  12  13
ATOM     13  N   UNL     1       4.231  -4.802  18.865  1.00  0.00    -0.325 NA
ATOM     14  H   UNL     1       5.004  -5.471  18.882  1.00  0.00     0.119 HD
ATOM     15  H   UNL     1       3.533  -5.186  19.506  1.00  0.00     0.119 HD
ENDBRANCH  12  13
BRANCH  12  16
ATOM     16  C   UNL     1       4.617  -4.008  16.545  1.00  0.00     0.022 C 
BRANCH  16  17
ATOM     17  C   UNL     1       4.233  -2.609  16.045  1.00  0.00     0.002 C 
BRANCH  17  18
ATOM     18  C   UNL     1       4.086  -2.483  14.531  1.00  0.00     0.000 C 
BRANCH  18  19
ATOM     19  C   UNL     1       5.402  -2.652  13.760  1.00  0.00    -0.000 C 
BRANCH  19  20
ATOM     20  C   UNL     1       5.530  -3.956  12.968  1.00  0.00    -0.000 C 
BRANCH  20  21
ATOM     21  C   UNL     1       4.186  -4.656  12.745  1.00  0.00    -0.003 C 
ATOM     22  C   UNL     1       4.172  -5.422  11.431  1.00  0.00     0.004 C 
ENDBRANCH  20  21
ENDBRANCH  19  20
ENDBRANCH  18  19
ENDBRANCH  17  18
ENDBRANCH  16  17
ENDBRANCH  12  16
ENDBRANCH   9  12
ENDBRANCH   6   9
ENDBRANCH   3   5
ENDBRANCH   2   3
BRANCH   2  23
ATOM     23  N   UNL     1      -2.380  -8.055  15.764  1.00  0.00    -0.332 N 
ATOM     24  C   UNL     1      -3.310  -9.175  15.785  1.00  0.00     0.147 C 
BRANCH  23  25
ATOM     25  C   UNL     1      -2.999  -6.721  15.995  1.00  0.00     0.174 C 
BRANCH  25  26
ATOM     26  C   UNL     1      -3.795  -6.648  17.319  1.00  0.00     0.038 C 
BRANCH  26  27
ATOM     27  C   UNL     1      -3.337  -5.596  18.354  1.00  0.00    -0.015 C 
ATOM     28  C   UNL     1      -2.214  -6.112  19.252  1.00  0.00     0.007 C 
ATOM     29  C   UNL     1      -2.954  -4.257  17.730  1.00  0.00     0.007 C 
ENDBRANCH  26  27
ENDBRANCH  25  26
BRANCH  25  30
ATOM     30  C   UNL     1      -3.816  -6.292  14.754  1.00  0.00     0.243 C 
ATOM     31  O   UNL     1      -5.044  -6.361  14.728  1.00  0.00    -0.273 OA
ATOM     32  N   UNL     1      -3.082  -5.838  13.689  1.00  0.00    -0.342 N 
ATOM     33  H   UNL     1      -2.082  -5.677  13.837  1.00  0.00     0.164 HD
BRANCH  32  34
ATOM     34  C   UNL     1      -3.684  -5.415  12.422  1.00  0.00     0.175 C 
BRANCH  34  35
ATOM     35  C   UNL     1      -2.947  -4.204  11.829  1.00  0.00     0.070 C 
BRANCH  35  36
ATOM     36  C   UNL     1      -3.292  -2.909  12.530  1.00  0.00    -0.045 A 
ATOM     37  C   UNL     1      -4.405  -2.847  13.382  1.00  0.00     0.007 A 
ATOM     38  C   UNL     1      -2.526  -1.754  12.323  1.00  0.00     0.007 A 
ATOM     39  C   UNL     1      -4.739  -1.653  14.022  1.00  0.00     0.046 A 
ATOM     40  C   UNL     1      -2.861  -0.558  12.962  1.00  0.00     0.046 A 
ATOM     41  C   UNL     1      -3.965  -0.519  13.808  1.00  0.00     0.115 A 
BRANCH  41  42
ATOM     42  O   UNL     1      -4.327   0.628  14.450  1.00  0.00    -0.508 OA
ATOM     43  H   UNL     1      -5.152   0.952  14.051  1.00  0.00     0.293 HD
ENDBRANCH  41  42
ENDBRANCH  35  36
ENDBRANCH  34  35
BRANCH  34  44
ATOM     44  C   UNL     1      -3.675  -6.624  11.460  1.00  0.00     0.243 C 
ATOM     45  O   UNL     1      -3.842  -6.546  10.246  1.00  0.00    -0.273 OA
ATOM     46  N   UNL     1      -3.590  -7.839  12.106  1.00  0.00    -0.341 N 
ATOM     47  H   UNL     1      -3.571  -7.857  13.123  1.00  0.00     0.164 HD
BRANCH  46  48
ATOM     48  C   UNL     1      -3.631  -9.127  11.410  1.00  0.00     0.196 C 
BRANCH  48  49
ATOM     49  C   UNL     1      -2.348  -9.938  11.657  1.00  0.00     0.072 C 
BRANCH  49  50
ATOM     50  C   UNL     1      -1.673 -10.364  10.372  1.00  0.00    -0.045 A 
ATOM     51  C   UNL     1      -2.427 -10.497   9.197  1.00  0.00     0.007 A 
ATOM     52  C   UNL     1      -0.303 -10.651  10.339  1.00  0.00     0.007 A 
ATOM     53  C   UNL     1      -1.818 -10.902   8.010  1.00  0.00     0.046 A 
ATOM     54  C   UNL     1       0.307 -11.057   9.150  1.00  0.00     0.046 A 
ATOM     55  C   UNL     1      -0.457 -11.179   7.994  1.00  0.00     0.115 A 
BRANCH  55  56
ATOM     56  O   UNL     1       0.100 -11.573   6.814  1.00  0.00    -0.508 OA
ATOM     57  H   UNL     1      -0.225 -10.988   6.112  1.00  0.00     0.293 HD
ENDBRANCH  55  56
ENDBRANCH  49  50
ENDBRANCH  48  49
BRANCH  48  58
ATOM     58  C   UNL     1      -4.847  -9.923  11.905  1.00  0.00     0.326 C 
ATOM     59  O   UNL     1      -4.899 -10.668  12.870  1.00  0.00    -0.250 OA
BRANCH  58  60
ATOM     60  O   UNL     1      -5.962  -9.729  11.157  1.00  0.00    -0.480 OA
ATOM     61  H   UNL     1      -6.226 -10.640  10.904  1.00  0.00     0.296 HD
ENDBRANCH  58  60
ENDBRANCH  48  58
ENDBRANCH  46  48
ENDBRANCH  34  44
ENDBRANCH  32  34
ENDBRANCH  25  30
ENDBRANCH  23  25
ENDBRANCH   2  23
TORSDOF 28
ENDMDL
MODEL 4
REMARK VINA RESULT:    -6.333      2.442      8.501
REMARK INTER + INTRA:         -20.886
REMARK INTER:                 -16.278
REMARK INTRA:                  -4.609
REMARK UNBOUND:                -5.112
REMARK SMILES CCCCCCC[C@H](N)[C@H](O)C(=O)N[C@H](C)C(=O)N(C)[C@H](CC(C)C)C(=O)N[C@@H](Cc1ccc(O)cc1)C(=O)N[C@@H](Cc1ccc(O)cc1)C(=O)O
REMARK SMILES IDX 18 1 17 2 15 3 16 4 14 5 12 6 13 7 10 9 11 10 8 12 9 13 7 16
REMARK SMILES IDX 6 17 5 18 4 19 3 20 2 21 1 22 19 23 20 24 21 25 22 26 23 27
REMARK SMILES IDX 24 28 25 29 26 30 27 31 28 32 29 34 30 35 31 36 32 37 37 38
REMARK SMILES IDX 33 39 36 40 34 41 35 42 38 44 39 45 40 46 41 48 42 49 43 50
REMARK SMILES IDX 44 51 49 52 45 53 48 54 46 55 47 56 50 58 51 59 52 60
REMARK H PARENT 14 8 11 11 9 14 9 15 28 33 35 43 40 47 47 57 52 61
ROOT
ATOM      1  O   UNL     1      -4.866  -6.641  19.272  1.00  0.00    -0.272 OA
ATOM      2  C   UNL     1      -4.110  -6.762  18.297  1.00  0.00     0.245 C 
ENDROOT
BRANCH   2   3
ATOM      3  C   UNL     1      -3.399  -5.499  17.750  1.00  0.00     0.168 C 
ATOM      4  C   UNL     1      -2.203  -5.130  18.621  1.00  0.00     0.041 C 
BRANCH   3   5
ATOM      5  N   UNL     1      -3.043  -5.561  16.340  1.00  0.00    -0.342 N 
ATOM      6  C   UNL     1      -3.239  -4.491  15.493  1.00  0.00     0.251 C 
ATOM      7  O   UNL     1      -3.758  -3.436  15.844  1.00  0.00    -0.272 OA
ATOM      8  H   UNL     1      -2.637  -6.396  15.926  1.00  0.00     0.164 HD
BRANCH   6   9
ATOM      9  C   UNL     1      -2.661  -4.731  14.089  1.00  0.00     0.219 C 
BRANCH   9  10
ATOM     10  O   UNL     1      -1.889  -5.936  14.008  1.00  0.00    -0.382 OA
ATOM     11  H   UNL     1      -2.312  -6.526  14.670  1.00  0.00     0.211 HD
ENDBRANCH   9  10
BRANCH   9  12
ATOM     12  C   UNL     1      -3.736  -4.689  12.972  1.00  0.00     0.089 C 
BRANCH  12  13
ATOM     13  N   UNL     1      -5.072  -4.750  13.607  1.00  0.00    -0.325 NA
ATOM     14  H   UNL     1      -5.777  -4.933  12.890  1.00  0.00     0.119 HD
ATOM     15  H   UNL     1      -5.304  -3.826  13.980  1.00  0.00     0.119 HD
ENDBRANCH  12  13
BRANCH  12  16
ATOM     16  C   UNL     1      -3.662  -3.483  12.004  1.00  0.00     0.022 C 
BRANCH  16  17
ATOM     17  C   UNL     1      -3.677  -2.061  12.581  1.00  0.00     0.002 C 
BRANCH  17  18
ATOM     18  C   UNL     1      -5.038  -1.370  12.556  1.00  0.00     0.000 C 
BRANCH  18  19
ATOM     19  C   UNL     1      -5.592  -1.133  11.145  1.00  0.00    -0.000 C 
BRANCH  19  20
ATOM     20  C   UNL     1      -6.063  -2.392  10.411  1.00  0.00    -0.000 C 
BRANCH  20  21
ATOM     21  C   UNL     1      -6.761  -2.086   9.083  1.00  0.00    -0.003 C 
ATOM     22  C   UNL     1      -7.152  -0.620   8.986  1.00  0.00     0.004 C 
ENDBRANCH  20  21
ENDBRANCH  19  20
ENDBRANCH  18  19
ENDBRANCH  17  18
ENDBRANCH  16  17
ENDBRANCH  12  16
ENDBRANCH   9  12
ENDBRANCH   6   9
ENDBRANCH   3   5
ENDBRANCH   2   3
BRANCH   2  23
ATOM     23  N   UNL     1      -3.819  -8.026  17.794  1.00  0.00    -0.332 N 
ATOM     24  C   UNL     1      -2.627  -8.792  18.124  1.00  0.00     0.147 C 
BRANCH  23  25
ATOM     25  C   UNL     1      -4.815  -8.747  16.955  1.00  0.00     0.174 C 
BRANCH  25  26
ATOM     26  C   UNL     1      -4.682 -10.285  17.050  1.00  0.00     0.038 C 
BRANCH  26  27
ATOM     27  C   UNL     1      -5.648 -11.013  18.011  1.00  0.00    -0.015 C 
ATOM     28  C   UNL     1      -4.941 -12.070  18.860  1.00  0.00     0.007 C 
ATOM     29  C   UNL     1      -6.454 -10.065  18.896  1.00  0.00     0.007 C 
ENDBRANCH  26  27
ENDBRANCH  25  26
BRANCH  25  30
ATOM     30  C   UNL     1      -4.779  -8.208  15.506  1.00  0.00     0.243 C 
ATOM     31  O   UNL     1      -5.350  -7.167  15.185  1.00  0.00    -0.273 OA
ATOM     32  N   UNL     1      -4.076  -8.969  14.608  1.00  0.00    -0.342 N 
ATOM     33  H   UNL     1      -3.514  -9.740  14.977  1.00  0.00     0.164 HD
BRANCH  32  34
ATOM     34  C   UNL     1      -3.958  -8.628  13.187  1.00  0.00     0.175 C 
BRANCH  34  35
ATOM     35  C   UNL     1      -2.783  -9.369  12.531  1.00  0.00     0.070 C 
BRANCH  35  36
ATOM     36  C   UNL     1      -1.887  -8.451  11.729  1.00  0.00    -0.045 A 
ATOM     37  C   UNL     1      -2.447  -7.411  10.972  1.00  0.00     0.007 A 
ATOM     38  C   UNL     1      -0.499  -8.637  11.711  1.00  0.00     0.007 A 
ATOM     39  C   UNL     1      -1.630  -6.567  10.218  1.00  0.00     0.046 A 
ATOM     40  C   UNL     1       0.319  -7.794  10.955  1.00  0.00     0.046 A 
ATOM     41  C   UNL     1      -0.255  -6.765  10.216  1.00  0.00     0.115 A 
BRANCH  41  42
ATOM     42  O   UNL     1       0.507  -5.921   9.464  1.00  0.00    -0.508 OA
ATOM     43  H   UNL     1       1.443  -6.115   9.641  1.00  0.00     0.293 HD
ENDBRANCH  41  42
ENDBRANCH  35  36
ENDBRANCH  34  35
BRANCH  34  44
ATOM     44  C   UNL     1      -5.303  -8.957  12.502  1.00  0.00     0.243 C 
ATOM     45  O   UNL     1      -6.082  -8.116  12.064  1.00  0.00    -0.273 OA
ATOM     46  N   UNL     1      -5.624 -10.298  12.538  1.00  0.00    -0.341 N 
ATOM     47  H   UNL     1      -5.000 -10.942  13.017  1.00  0.00     0.164 HD
BRANCH  46  48
ATOM     48  C   UNL     1      -6.879 -10.840  12.013  1.00  0.00     0.196 C 
BRANCH  48  49
ATOM     49  C   UNL     1      -6.620 -11.928  10.957  1.00  0.00     0.072 C 
BRANCH  49  50
ATOM     50  C   UNL     1      -5.151 -12.252  10.804  1.00  0.00    -0.045 A 
ATOM     51  C   UNL     1      -4.599 -13.338  11.499  1.00  0.00     0.007 A 
ATOM     52  C   UNL     1      -4.322 -11.470   9.990  1.00  0.00     0.007 A 
ATOM     53  C   UNL     1      -3.242 -13.638  11.376  1.00  0.00     0.046 A 
ATOM     54  C   UNL     1      -2.963 -11.771   9.868  1.00  0.00     0.046 A 
ATOM     55  C   UNL     1      -2.435 -12.854  10.562  1.00  0.00     0.115 A 
BRANCH  55  56
ATOM     56  O   UNL     1      -1.114 -13.180  10.470  1.00  0.00    -0.508 OA
ATOM     57  H   UNL     1      -0.940 -13.501   9.571  1.00  0.00     0.293 HD
ENDBRANCH  55  56
ENDBRANCH  49  50
ENDBRANCH  48  49
BRANCH  48  58
ATOM     58  C   UNL     1      -7.691 -11.432  13.173  1.00  0.00     0.326 C 
ATOM     59  O   UNL     1      -7.425 -12.424  13.831  1.00  0.00    -0.250 OA
BRANCH  58  60
ATOM     60  O   UNL     1      -8.813 -10.725  13.464  1.00  0.00    -0.480 OA
ATOM     61  H   UNL     1      -8.611  -9.829  13.120  1.00  0.00     0.296 HD
ENDBRANCH  58  60
ENDBRANCH  48  58
ENDBRANCH  46  48
ENDBRANCH  34  44
ENDBRANCH  32  34
ENDBRANCH  25  30
ENDBRANCH  23  25
ENDBRANCH   2  23
TORSDOF 28
ENDMDL
MODEL 5
REMARK VINA RESULT:    -6.305      2.764      9.111
REMARK INTER + INTRA:         -20.817
REMARK INTER:                 -16.367
REMARK INTRA:                  -4.450
REMARK UNBOUND:                -5.112
REMARK SMILES CCCCCCC[C@H](N)[C@H](O)C(=O)N[C@H](C)C(=O)N(C)[C@H](CC(C)C)C(=O)N[C@@H](Cc1ccc(O)cc1)C(=O)N[C@@H](Cc1ccc(O)cc1)C(=O)O
REMARK SMILES IDX 18 1 17 2 15 3 16 4 14 5 12 6 13 7 10 9 11 10 8 12 9 13 7 16
REMARK SMILES IDX 6 17 5 18 4 19 3 20 2 21 1 22 19 23 20 24 21 25 22 26 23 27
REMARK SMILES IDX 24 28 25 29 26 30 27 31 28 32 29 34 30 35 31 36 32 37 37 38
REMARK SMILES IDX 33 39 36 40 34 41 35 42 38 44 39 45 40 46 41 48 42 49 43 50
REMARK SMILES IDX 44 51 49 52 45 53 48 54 46 55 47 56 50 58 51 59 52 60
REMARK H PARENT 14 8 11 11 9 14 9 15 28 33 35 43 40 47 47 57 52 61
ROOT
ATOM      1  O   UNL     1      -4.723  -7.015  18.774  1.00  0.00    -0.272 OA
ATOM      2  C   UNL     1      -4.055  -7.031  17.730  1.00  0.00     0.245 C 
ENDROOT
BRANCH   2   3
ATOM      3  C   UNL     1      -3.412  -5.709  17.241  1.00  0.00     0.168 C 
ATOM      4  C   UNL     1      -2.220  -5.331  18.113  1.00  0.00     0.041 C 
BRANCH   3   5
ATOM      5  N   UNL     1      -3.079  -5.679  15.825  1.00  0.00    -0.342 N 
ATOM      6  C   UNL     1      -3.214  -4.533  15.070  1.00  0.00     0.251 C 
ATOM      7  O   UNL     1      -3.656  -3.478  15.514  1.00  0.00    -0.272 OA
ATOM      8  H   UNL     1      -2.735  -6.503  15.337  1.00  0.00     0.164 HD
BRANCH   6   9
ATOM      9  C   UNL     1      -2.671  -4.695  13.641  1.00  0.00     0.219 C 
BRANCH   9  10
ATOM     10  O   UNL     1      -1.859  -5.866  13.488  1.00  0.00    -0.382 OA
ATOM     11  H   UNL     1      -1.068  -5.672  14.037  1.00  0.00     0.211 HD
ENDBRANCH   9  10
BRANCH   9  12
ATOM     12  C   UNL     1      -3.780  -4.649  12.559  1.00  0.00     0.089 C 
BRANCH  12  13
ATOM     13  N   UNL     1      -5.096  -4.684  13.237  1.00  0.00    -0.325 NA
ATOM     14  H   UNL     1      -5.747  -5.239  12.678  1.00  0.00     0.119 HD
ATOM     15  H   UNL     1      -5.490  -3.740  13.246  1.00  0.00     0.119 HD
ENDBRANCH  12  13
BRANCH  12  16
ATOM     16  C   UNL     1      -3.720  -3.455  11.576  1.00  0.00     0.022 C 
BRANCH  16  17
ATOM     17  C   UNL     1      -3.714  -2.026  12.137  1.00  0.00     0.002 C 
BRANCH  17  18
ATOM     18  C   UNL     1      -5.094  -1.397  12.313  1.00  0.00     0.000 C 
BRANCH  18  19
ATOM     19  C   UNL     1      -5.797  -1.053  10.993  1.00  0.00    -0.000 C 
BRANCH  19  20
ATOM     20  C   UNL     1      -6.363  -2.252  10.227  1.00  0.00    -0.000 C 
BRANCH  20  21
ATOM     21  C   UNL     1      -6.831  -1.893   8.814  1.00  0.00    -0.003 C 
ATOM     22  C   UNL     1      -7.276  -0.441   8.729  1.00  0.00     0.004 C 
ENDBRANCH  20  21
ENDBRANCH  19  20
ENDBRANCH  18  19
ENDBRANCH  17  18
ENDBRANCH  16  17
ENDBRANCH  12  16
ENDBRANCH   9  12
ENDBRANCH   6   9
ENDBRANCH   3   5
ENDBRANCH   2   3
BRANCH   2  23
ATOM     23  N   UNL     1      -3.793  -8.238  17.090  1.00  0.00    -0.332 N 
ATOM     24  C   UNL     1      -2.521  -8.943  17.145  1.00  0.00     0.147 C 
BRANCH  23  25
ATOM     25  C   UNL     1      -4.884  -8.968  16.388  1.00  0.00     0.174 C 
BRANCH  25  26
ATOM     26  C   UNL     1      -4.817 -10.499  16.597  1.00  0.00     0.038 C 
BRANCH  26  27
ATOM     27  C   UNL     1      -5.307 -11.042  17.958  1.00  0.00    -0.015 C 
ATOM     28  C   UNL     1      -6.427 -10.192  18.557  1.00  0.00     0.007 C 
ATOM     29  C   UNL     1      -5.714 -12.513  17.914  1.00  0.00     0.007 C 
ENDBRANCH  26  27
ENDBRANCH  25  26
BRANCH  25  30
ATOM     30  C   UNL     1      -4.937  -8.545  14.902  1.00  0.00     0.243 C 
ATOM     31  O   UNL     1      -5.142  -7.380  14.564  1.00  0.00    -0.273 OA
ATOM     32  N   UNL     1      -4.746  -9.553  13.992  1.00  0.00    -0.342 N 
ATOM     33  H   UNL     1      -4.441 -10.462  14.348  1.00  0.00     0.164 HD
BRANCH  32  34
ATOM     34  C   UNL     1      -4.789  -9.342  12.542  1.00  0.00     0.175 C 
BRANCH  34  35
ATOM     35  C   UNL     1      -3.548  -9.932  11.855  1.00  0.00     0.070 C 
BRANCH  35  36
ATOM     36  C   UNL     1      -2.633  -8.869  11.289  1.00  0.00    -0.045 A 
ATOM     37  C   UNL     1      -3.172  -7.782  10.583  1.00  0.00     0.007 A 
ATOM     38  C   UNL     1      -1.243  -8.963  11.438  1.00  0.00     0.007 A 
ATOM     39  C   UNL     1      -2.335  -6.804  10.045  1.00  0.00     0.046 A 
ATOM     40  C   UNL     1      -0.405  -7.984  10.898  1.00  0.00     0.046 A 
ATOM     41  C   UNL     1      -0.959  -6.912  10.207  1.00  0.00     0.115 A 
BRANCH  41  42
ATOM     42  O   UNL     1      -0.177  -5.937   9.664  1.00  0.00    -0.508 OA
ATOM     43  H   UNL     1      -0.293  -5.955   8.699  1.00  0.00     0.293 HD
ENDBRANCH  41  42
ENDBRANCH  35  36
ENDBRANCH  34  35
BRANCH  34  44
ATOM     44  C   UNL     1      -6.097  -9.967  12.006  1.00  0.00     0.243 C 
ATOM     45  O   UNL     1      -6.689  -9.582  11.002  1.00  0.00    -0.273 OA
ATOM     46  N   UNL     1      -6.626 -10.931  12.839  1.00  0.00    -0.341 N 
ATOM     47  H   UNL     1      -6.159 -11.133  13.719  1.00  0.00     0.164 HD
BRANCH  46  48
ATOM     48  C   UNL     1      -7.894 -11.616  12.575  1.00  0.00     0.196 C 
BRANCH  48  49
ATOM     49  C   UNL     1      -7.759 -13.136  12.766  1.00  0.00     0.072 C 
BRANCH  49  50
ATOM     50  C   UNL     1      -7.834 -13.895  11.460  1.00  0.00    -0.045 A 
ATOM     51  C   UNL     1      -8.746 -13.498  10.472  1.00  0.00     0.007 A 
ATOM     52  C   UNL     1      -7.017 -15.008  11.226  1.00  0.00     0.007 A 
ATOM     53  C   UNL     1      -8.833 -14.198   9.269  1.00  0.00     0.046 A 
ATOM     54  C   UNL     1      -7.104 -15.710  10.022  1.00  0.00     0.046 A 
ATOM     55  C   UNL     1      -8.012 -15.298   9.052  1.00  0.00     0.115 A 
BRANCH  55  56
ATOM     56  O   UNL     1      -8.130 -15.956   7.864  1.00  0.00    -0.508 OA
ATOM     57  H   UNL     1      -8.098 -15.302   7.148  1.00  0.00     0.293 HD
ENDBRANCH  55  56
ENDBRANCH  49  50
ENDBRANCH  48  49
BRANCH  48  58
ATOM     58  C   UNL     1      -8.964 -11.070  13.531  1.00  0.00     0.326 C 
ATOM     59  O   UNL     1     -10.159 -10.953  13.313  1.00  0.00    -0.250 OA
BRANCH  58  60
ATOM     60  O   UNL     1      -8.472 -10.704  14.742  1.00  0.00    -0.480 OA
ATOM     61  H   UNL     1      -7.935 -11.480  15.012  1.00  0.00     0.296 HD
ENDBRANCH  58  60
ENDBRANCH  48  58
ENDBRANCH  46  48
ENDBRANCH  34  44
ENDBRANCH  32  34
ENDBRANCH  25  30
ENDBRANCH  23  25
ENDBRANCH   2  23
TORSDOF 28
ENDMDL
MODEL 6
REMARK VINA RESULT:    -6.108      1.815      2.567
REMARK INTER + INTRA:         -20.326
REMARK INTER:                 -13.511
REMARK INTRA:                  -6.816
REMARK UNBOUND:                -5.112
REMARK SMILES CCCCCCC[C@H](N)[C@H](O)C(=O)N[C@H](C)C(=O)N(C)[C@H](CC(C)C)C(=O)N[C@@H](Cc1ccc(O)cc1)C(=O)N[C@@H](Cc1ccc(O)cc1)C(=O)O
REMARK SMILES IDX 18 1 17 2 15 3 16 4 14 5 12 6 13 7 10 9 11 10 8 12 9 13 7 16
REMARK SMILES IDX 6 17 5 18 4 19 3 20 2 21 1 22 19 23 20 24 21 25 22 26 23 27
REMARK SMILES IDX 24 28 25 29 26 30 27 31 28 32 29 34 30 35 31 36 32 37 37 38
REMARK SMILES IDX 33 39 36 40 34 41 35 42 38 44 39 45 40 46 41 48 42 49 43 50
REMARK SMILES IDX 44 51 49 52 45 53 48 54 46 55 47 56 50 58 51 59 52 60
REMARK H PARENT 14 8 11 11 9 14 9 15 28 33 35 43 40 47 47 57 52 61
ROOT
ATOM      1  O   UNL     1      -8.244 -10.089  12.515  1.00  0.00    -0.272 OA
ATOM      2  C   UNL     1      -7.363 -10.899  12.838  1.00  0.00     0.245 C 
ENDROOT
BRANCH   2   3
ATOM      3  C   UNL     1      -6.567 -11.615  11.718  1.00  0.00     0.168 C 
ATOM      4  C   UNL     1      -7.508 -12.158  10.648  1.00  0.00     0.041 C 
BRANCH   3   5
ATOM      5  N   UNL     1      -5.485 -10.832  11.141  1.00  0.00    -0.342 N 
ATOM      6  C   UNL     1      -4.304 -11.414  10.731  1.00  0.00     0.251 C 
ATOM      7  O   UNL     1      -4.061 -12.610  10.855  1.00  0.00    -0.272 OA
ATOM      8  H   UNL     1      -5.557  -9.825  11.020  1.00  0.00     0.164 HD
BRANCH   6   9
ATOM      9  C   UNL     1      -3.366 -10.422  10.025  1.00  0.00     0.219 C 
BRANCH   9  10
ATOM     10  O   UNL     1      -4.073  -9.349   9.391  1.00  0.00    -0.382 OA
ATOM     11  H   UNL     1      -3.803  -9.419   8.449  1.00  0.00     0.211 HD
ENDBRANCH   9  10
BRANCH   9  12
ATOM     12  C   UNL     1      -2.250  -9.874  10.952  1.00  0.00     0.089 C 
BRANCH  12  13
ATOM     13  N   UNL     1      -2.354 -10.557  12.262  1.00  0.00    -0.325 NA
ATOM     14  H   UNL     1      -2.794 -11.470  12.131  1.00  0.00     0.119 HD
ATOM     15  H   UNL     1      -2.999 -10.033  12.859  1.00  0.00     0.119 HD
ENDBRANCH  12  13
BRANCH  12  16
ATOM     16  C   UNL     1      -0.805  -9.981  10.410  1.00  0.00     0.022 C 
BRANCH  16  17
ATOM     17  C   UNL     1       0.274  -9.042  10.968  1.00  0.00     0.002 C 
BRANCH  17  18
ATOM     18  C   UNL     1       1.656  -9.671  11.127  1.00  0.00     0.000 C 
BRANCH  18  19
ATOM     19  C   UNL     1       2.085  -9.877  12.586  1.00  0.00    -0.000 C 
BRANCH  19  20
ATOM     20  C   UNL     1       1.067 -10.610  13.465  1.00  0.00    -0.000 C 
BRANCH  20  21
ATOM     21  C   UNL     1       0.458  -9.715  14.548  1.00  0.00    -0.003 C 
ATOM     22  C   UNL     1       1.492  -8.762  15.127  1.00  0.00     0.004 C 
ENDBRANCH  20  21
ENDBRANCH  19  20
ENDBRANCH  18  19
ENDBRANCH  17  18
ENDBRANCH  16  17
ENDBRANCH  12  16
ENDBRANCH   9  12
ENDBRANCH   6   9
ENDBRANCH   3   5
ENDBRANCH   2   3
BRANCH   2  23
ATOM     23  N   UNL     1      -7.024 -11.061  14.177  1.00  0.00    -0.332 N 
ATOM     24  C   UNL     1      -7.954 -11.460  15.222  1.00  0.00     0.147 C 
BRANCH  23  25
ATOM     25  C   UNL     1      -5.604 -10.951  14.610  1.00  0.00     0.174 C 
BRANCH  25  26
ATOM     26  C   UNL     1      -5.281 -11.829  15.842  1.00  0.00     0.038 C 
BRANCH  26  27
ATOM     27  C   UNL     1      -4.246 -12.959  15.645  1.00  0.00    -0.015 C 
ATOM     28  C   UNL     1      -4.643 -13.927  14.531  1.00  0.00     0.007 C 
ATOM     29  C   UNL     1      -2.823 -12.449  15.431  1.00  0.00     0.007 C 
ENDBRANCH  26  27
ENDBRANCH  25  26
BRANCH  25  30
ATOM     30  C   UNL     1      -5.214  -9.465  14.786  1.00  0.00     0.243 C 
ATOM     31  O   UNL     1      -5.628  -8.792  15.730  1.00  0.00    -0.273 OA
ATOM     32  N   UNL     1      -4.387  -8.950  13.822  1.00  0.00    -0.342 N 
ATOM     33  H   UNL     1      -3.974  -9.605  13.153  1.00  0.00     0.164 HD
BRANCH  32  34
ATOM     34  C   UNL     1      -3.938  -7.556  13.812  1.00  0.00     0.175 C 
BRANCH  34  35
ATOM     35  C   UNL     1      -2.505  -7.427  14.352  1.00  0.00     0.070 C 
BRANCH  35  36
ATOM     36  C   UNL     1      -2.391  -6.419  15.474  1.00  0.00    -0.045 A 
ATOM     37  C   UNL     1      -1.536  -6.670  16.558  1.00  0.00     0.007 A 
ATOM     38  C   UNL     1      -3.147  -5.240  15.461  1.00  0.00     0.007 A 
ATOM     39  C   UNL     1      -1.435  -5.753  17.605  1.00  0.00     0.046 A 
ATOM     40  C   UNL     1      -3.047  -4.322  16.509  1.00  0.00     0.046 A 
ATOM     41  C   UNL     1      -2.190  -4.587  17.572  1.00  0.00     0.115 A 
BRANCH  41  42
ATOM     42  O   UNL     1      -2.064  -3.719  18.615  1.00  0.00    -0.508 OA
ATOM     43  H   UNL     1      -1.871  -2.837  18.256  1.00  0.00     0.293 HD
ENDBRANCH  41  42
ENDBRANCH  35  36
ENDBRANCH  34  35
BRANCH  34  44
ATOM     44  C   UNL     1      -4.061  -7.023  12.367  1.00  0.00     0.243 C 
ATOM     45  O   UNL     1      -4.748  -7.543  11.492  1.00  0.00    -0.273 OA
ATOM     46  N   UNL     1      -3.216  -5.967  12.097  1.00  0.00    -0.341 N 
ATOM     47  H   UNL     1      -2.579  -5.646  12.823  1.00  0.00     0.164 HD
BRANCH  46  48
ATOM     48  C   UNL     1      -3.106  -5.339  10.779  1.00  0.00     0.196 C 
BRANCH  48  49
ATOM     49  C   UNL     1      -2.689  -3.864  10.894  1.00  0.00     0.072 C 
BRANCH  49  50
ATOM     50  C   UNL     1      -3.381  -3.151  12.034  1.00  0.00    -0.045 A 
ATOM     51  C   UNL     1      -2.645  -2.309  12.881  1.00  0.00     0.007 A 
ATOM     52  C   UNL     1      -4.748  -3.333  12.274  1.00  0.00     0.007 A 
ATOM     53  C   UNL     1      -3.270  -1.657  13.944  1.00  0.00     0.046 A 
ATOM     54  C   UNL     1      -5.374  -2.681  13.339  1.00  0.00     0.046 A 
ATOM     55  C   UNL     1      -4.629  -1.847  14.165  1.00  0.00     0.115 A 
BRANCH  55  56
ATOM     56  O   UNL     1      -5.201  -1.192  15.215  1.00  0.00    -0.508 OA
ATOM     57  H   UNL     1      -4.691  -1.395  16.016  1.00  0.00     0.293 HD
ENDBRANCH  55  56
ENDBRANCH  49  50
ENDBRANCH  48  49
BRANCH  48  58
ATOM     58  C   UNL     1      -2.067  -6.104   9.947  1.00  0.00     0.326 C 
ATOM     59  O   UNL     1      -0.854  -5.969   9.973  1.00  0.00    -0.250 OA
BRANCH  58  60
ATOM     60  O   UNL     1      -2.612  -7.031   9.119  1.00  0.00    -0.480 OA
ATOM     61  H   UNL     1      -3.524  -7.136   9.467  1.00  0.00     0.296 HD
ENDBRANCH  58  60
ENDBRANCH  48  58
ENDBRANCH  46  48
ENDBRANCH  34  44
ENDBRANCH  32  34
ENDBRANCH  25  30
ENDBRANCH  23  25
ENDBRANCH   2  23
TORSDOF 28
ENDMDL
MODEL 7
REMARK VINA RESULT:    -6.101      4.111      6.455
REMARK INTER + INTRA:         -20.308
REMARK INTER:                 -17.518
REMARK INTRA:                  -2.790
REMARK UNBOUND:                -5.112
REMARK SMILES CCCCCCC[C@H](N)[C@H](O)C(=O)N[C@H](C)C(=O)N(C)[C@H](CC(C)C)C(=O)N[C@@H](Cc1ccc(O)cc1)C(=O)N[C@@H](Cc1ccc(O)cc1)C(=O)O
REMARK SMILES IDX 18 1 17 2 15 3 16 4 14 5 12 6 13 7 10 9 11 10 8 12 9 13 7 16
REMARK SMILES IDX 6 17 5 18 4 19 3 20 2 21 1 22 19 23 20 24 21 25 22 26 23 27
REMARK SMILES IDX 24 28 25 29 26 30 27 31 28 32 29 34 30 35 31 36 32 37 37 38
REMARK SMILES IDX 33 39 36 40 34 41 35 42 38 44 39 45 40 46 41 48 42 49 43 50
REMARK SMILES IDX 44 51 49 52 45 53 48 54 46 55 47 56 50 58 51 59 52 60
REMARK H PARENT 14 8 11 11 9 14 9 15 28 33 35 43 40 47 47 57 52 61
ROOT
ATOM      1  O   UNL     1      -1.945 -10.680   8.018  1.00  0.00    -0.272 OA
ATOM      2  C   UNL     1      -1.289 -11.504   8.672  1.00  0.00     0.245 C 
ENDROOT
BRANCH   2   3
ATOM      3  C   UNL     1       0.241 -11.582   8.445  1.00  0.00     0.168 C 
ATOM      4  C   UNL     1       0.997 -11.268   9.731  1.00  0.00     0.041 C 
BRANCH   3   5
ATOM      5  N   UNL     1       0.705 -12.816   7.831  1.00  0.00    -0.342 N 
ATOM      6  C   UNL     1       0.524 -13.075   6.488  1.00  0.00     0.251 C 
ATOM      7  O   UNL     1      -0.069 -12.317   5.728  1.00  0.00    -0.272 OA
ATOM      8  H   UNL     1       1.181 -13.537   8.369  1.00  0.00     0.164 HD
BRANCH   6   9
ATOM      9  C   UNL     1       1.219 -14.368   6.033  1.00  0.00     0.219 C 
BRANCH   9  10
ATOM     10  O   UNL     1       2.303 -14.745   6.891  1.00  0.00    -0.382 OA
ATOM     11  H   UNL     1       2.650 -15.565   6.477  1.00  0.00     0.211 HD
ENDBRANCH   9  10
BRANCH   9  12
ATOM     12  C   UNL     1       0.235 -15.551   5.837  1.00  0.00     0.089 C 
BRANCH  12  13
ATOM     13  N   UNL     1      -1.051 -15.201   6.484  1.00  0.00    -0.325 NA
ATOM     14  H   UNL     1      -1.760 -15.055   5.763  1.00  0.00     0.119 HD
ATOM     15  H   UNL     1      -0.952 -14.296   6.949  1.00  0.00     0.119 HD
ENDBRANCH  12  13
BRANCH  12  16
ATOM     16  C   UNL     1      -0.009 -15.995   4.375  1.00  0.00     0.022 C 
BRANCH  16  17
ATOM     17  C   UNL     1      -0.393 -14.940   3.328  1.00  0.00     0.002 C 
BRANCH  17  18
ATOM     18  C   UNL     1      -1.866 -14.940   2.924  1.00  0.00     0.000 C 
BRANCH  18  19
ATOM     19  C   UNL     1      -2.172 -14.097   1.679  1.00  0.00    -0.000 C 
BRANCH  19  20
ATOM     20  C   UNL     1      -2.126 -12.581   1.893  1.00  0.00    -0.000 C 
BRANCH  20  21
ATOM     21  C   UNL     1      -2.167 -11.789   0.583  1.00  0.00    -0.003 C 
ATOM     22  C   UNL     1      -2.488 -12.690  -0.599  1.00  0.00     0.004 C 
ENDBRANCH  20  21
ENDBRANCH  19  20
ENDBRANCH  18  19
ENDBRANCH  17  18
ENDBRANCH  16  17
ENDBRANCH  12  16
ENDBRANCH   9  12
ENDBRANCH   6   9
ENDBRANCH   3   5
ENDBRANCH   2   3
BRANCH   2  23
ATOM     23  N   UNL     1      -1.906 -12.248   9.672  1.00  0.00    -0.332 N 
ATOM     24  C   UNL     1      -1.704 -13.673   9.885  1.00  0.00     0.147 C 
BRANCH  23  25
ATOM     25  C   UNL     1      -2.746 -11.573  10.700  1.00  0.00     0.174 C 
BRANCH  25  26
ATOM     26  C   UNL     1      -4.064 -11.005  10.123  1.00  0.00     0.038 C 
BRANCH  26  27
ATOM     27  C   UNL     1      -5.298 -11.016  11.053  1.00  0.00    -0.015 C 
ATOM     28  C   UNL     1      -5.550  -9.657  11.706  1.00  0.00     0.007 C 
ATOM     29  C   UNL     1      -6.565 -11.530  10.375  1.00  0.00     0.007 C 
ENDBRANCH  26  27
ENDBRANCH  25  26
BRANCH  25  30
ATOM     30  C   UNL     1      -1.906 -10.531  11.473  1.00  0.00     0.243 C 
ATOM     31  O   UNL     1      -1.231 -10.839  12.454  1.00  0.00    -0.273 OA
ATOM     32  N   UNL     1      -1.969  -9.247  10.997  1.00  0.00    -0.342 N 
ATOM     33  H   UNL     1      -2.436  -9.097  10.099  1.00  0.00     0.164 HD
BRANCH  32  34
ATOM     34  C   UNL     1      -1.261  -8.125  11.620  1.00  0.00     0.175 C 
BRANCH  34  35
ATOM     35  C   UNL     1      -0.052  -7.691  10.778  1.00  0.00     0.070 C 
BRANCH  35  36
ATOM     36  C   UNL     1       1.241  -7.700  11.563  1.00  0.00    -0.045 A 
ATOM     37  C   UNL     1       1.506  -8.741  12.466  1.00  0.00     0.007 A 
ATOM     38  C   UNL     1       2.177  -6.668  11.419  1.00  0.00     0.007 A 
ATOM     39  C   UNL     1       2.689  -8.750  13.205  1.00  0.00     0.046 A 
ATOM     40  C   UNL     1       3.361  -6.676  12.159  1.00  0.00     0.046 A 
ATOM     41  C   UNL     1       3.607  -7.719  13.045  1.00  0.00     0.115 A 
BRANCH  41  42
ATOM     42  O   UNL     1       4.750  -7.765  13.788  1.00  0.00    -0.508 OA
ATOM     43  H   UNL     1       5.429  -8.231  13.274  1.00  0.00     0.293 HD
ENDBRANCH  41  42
ENDBRANCH  35  36
ENDBRANCH  34  35
BRANCH  34  44
ATOM     44  C   UNL     1      -2.271  -6.972  11.817  1.00  0.00     0.243 C 
ATOM     45  O   UNL     1      -3.266  -6.794  11.120  1.00  0.00    -0.273 OA
ATOM     46  N   UNL     1      -1.885  -6.064  12.780  1.00  0.00    -0.341 N 
ATOM     47  H   UNL     1      -0.992  -6.191  13.250  1.00  0.00     0.164 HD
BRANCH  46  48
ATOM     48  C   UNL     1      -2.645  -4.852  13.097  1.00  0.00     0.196 C 
BRANCH  48  49
ATOM     49  C   UNL     1      -3.025  -4.080  11.822  1.00  0.00     0.072 C 
BRANCH  49  50
ATOM     50  C   UNL     1      -3.486  -2.670  12.111  1.00  0.00    -0.045 A 
ATOM     51  C   UNL     1      -4.748  -2.243  11.671  1.00  0.00     0.007 A 
ATOM     52  C   UNL     1      -2.663  -1.769  12.798  1.00  0.00     0.007 A 
ATOM     53  C   UNL     1      -5.179  -0.941  11.921  1.00  0.00     0.046 A 
ATOM     54  C   UNL     1      -3.094  -0.464  13.047  1.00  0.00     0.046 A 
ATOM     55  C   UNL     1      -4.350  -0.061  12.607  1.00  0.00     0.115 A 
BRANCH  55  56
ATOM     56  O   UNL     1      -4.808   1.204  12.829  1.00  0.00    -0.508 OA
ATOM     57  H   UNL     1      -5.515   1.161  13.492  1.00  0.00     0.293 HD
ENDBRANCH  55  56
ENDBRANCH  49  50
ENDBRANCH  48  49
BRANCH  48  58
ATOM     58  C   UNL     1      -3.919  -5.247  13.857  1.00  0.00     0.326 C 
ATOM     59  O   UNL     1      -4.068  -5.308  15.067  1.00  0.00    -0.250 OA
BRANCH  58  60
ATOM     60  O   UNL     1      -4.967  -5.537  13.045  1.00  0.00    -0.480 OA
ATOM     61  H   UNL     1      -5.202  -4.665  12.660  1.00  0.00     0.296 HD
ENDBRANCH  58  60
ENDBRANCH  48  58
ENDBRANCH  46  48
ENDBRANCH  34  44
ENDBRANCH  32  34
ENDBRANCH  25  30
ENDBRANCH  23  25
ENDBRANCH   2  23
TORSDOF 28
ENDMDL
MODEL 8
REMARK VINA RESULT:    -5.955      5.148      7.049
REMARK INTER + INTRA:         -19.944
REMARK INTER:                 -14.810
REMARK INTRA:                  -5.134
REMARK UNBOUND:                -5.112
REMARK SMILES CCCCCCC[C@H](N)[C@H](O)C(=O)N[C@H](C)C(=O)N(C)[C@H](CC(C)C)C(=O)N[C@@H](Cc1ccc(O)cc1)C(=O)N[C@@H](Cc1ccc(O)cc1)C(=O)O
REMARK SMILES IDX 18 1 17 2 15 3 16 4 14 5 12 6 13 7 10 9 11 10 8 12 9 13 7 16
REMARK SMILES IDX 6 17 5 18 4 19 3 20 2 21 1 22 19 23 20 24 21 25 22 26 23 27
REMARK SMILES IDX 24 28 25 29 26 30 27 31 28 32 29 34 30 35 31 36 32 37 37 38
REMARK SMILES IDX 33 39 36 40 34 41 35 42 38 44 39 45 40 46 41 48 42 49 43 50
REMARK SMILES IDX 44 51 49 52 45 53 48 54 46 55 47 56 50 58 51 59 52 60
REMARK H PARENT 14 8 11 11 9 14 9 15 28 33 35 43 40 47 47 57 52 61
ROOT
ATOM      1  O   UNL     1      -0.851  -8.510  13.029  1.00  0.00    -0.272 OA
ATOM      2  C   UNL     1       0.377  -8.658  13.110  1.00  0.00     0.245 C 
ENDROOT
BRANCH   2   3
ATOM      3  C   UNL     1       1.254  -8.254  11.899  1.00  0.00     0.168 C 
ATOM      4  C   UNL     1       0.408  -8.132  10.635  1.00  0.00     0.041 C 
BRANCH   3   5
ATOM      5  N   UNL     1       2.085  -7.080  12.110  1.00  0.00    -0.342 N 
ATOM      6  C   UNL     1       3.442  -7.094  11.864  1.00  0.00     0.251 C 
ATOM      7  O   UNL     1       4.052  -8.092  11.494  1.00  0.00    -0.272 OA
ATOM      8  H   UNL     1       1.698  -6.202  12.448  1.00  0.00     0.164 HD
BRANCH   6   9
ATOM      9  C   UNL     1       4.089  -5.709  12.019  1.00  0.00     0.219 C 
BRANCH   9  10
ATOM     10  O   UNL     1       3.819  -5.112  13.293  1.00  0.00    -0.382 OA
ATOM     11  H   UNL     1       4.307  -4.260  13.257  1.00  0.00     0.211 HD
ENDBRANCH   9  10
BRANCH   9  12
ATOM     12  C   UNL     1       5.612  -5.711  11.723  1.00  0.00     0.089 C 
BRANCH  12  13
ATOM     13  N   UNL     1       5.804  -5.852  10.262  1.00  0.00    -0.325 NA
ATOM     14  H   UNL     1       4.910  -5.702   9.789  1.00  0.00     0.119 HD
ATOM     15  H   UNL     1       6.056  -6.821  10.053  1.00  0.00     0.119 HD
ENDBRANCH  12  13
BRANCH  12  16
ATOM     16  C   UNL     1       6.406  -4.492  12.249  1.00  0.00     0.022 C 
BRANCH  16  17
ATOM     17  C   UNL     1       7.641  -4.728  13.129  1.00  0.00     0.002 C 
BRANCH  17  18
ATOM     18  C   UNL     1       7.357  -4.819  14.626  1.00  0.00     0.000 C 
BRANCH  18  19
ATOM     19  C   UNL     1       7.629  -6.204  15.230  1.00  0.00    -0.000 C 
BRANCH  19  20
ATOM     20  C   UNL     1       6.426  -6.864  15.909  1.00  0.00    -0.000 C 
BRANCH  20  21
ATOM     21  C   UNL     1       5.558  -7.671  14.939  1.00  0.00    -0.003 C 
ATOM     22  C   UNL     1       6.403  -8.599  14.080  1.00  0.00     0.004 C 
ENDBRANCH  20  21
ENDBRANCH  19  20
ENDBRANCH  18  19
ENDBRANCH  17  18
ENDBRANCH  16  17
ENDBRANCH  12  16
ENDBRANCH   9  12
ENDBRANCH   6   9
ENDBRANCH   3   5
ENDBRANCH   2   3
BRANCH   2  23
ATOM     23  N   UNL     1       0.952  -9.061  14.311  1.00  0.00    -0.332 N 
ATOM     24  C   UNL     1       1.962 -10.101  14.435  1.00  0.00     0.147 C 
BRANCH  23  25
ATOM     25  C   UNL     1       0.643  -8.334  15.573  1.00  0.00     0.174 C 
BRANCH  25  26
ATOM     26  C   UNL     1       1.723  -8.533  16.662  1.00  0.00     0.038 C 
BRANCH  26  27
ATOM     27  C   UNL     1       1.876  -7.408  17.710  1.00  0.00    -0.015 C 
ATOM     28  C   UNL     1       2.101  -7.951  19.121  1.00  0.00     0.007 C 
ATOM     29  C   UNL     1       2.951  -6.386  17.350  1.00  0.00     0.007 C 
ENDBRANCH  26  27
ENDBRANCH  25  26
BRANCH  25  30
ATOM     30  C   UNL     1      -0.788  -8.675  16.047  1.00  0.00     0.243 C 
ATOM     31  O   UNL     1      -1.065  -9.764  16.549  1.00  0.00    -0.273 OA
ATOM     32  N   UNL     1      -1.724  -7.690  15.865  1.00  0.00    -0.342 N 
ATOM     33  H   UNL     1      -1.390  -6.768  15.574  1.00  0.00     0.164 HD
BRANCH  32  34
ATOM     34  C   UNL     1      -3.135  -7.847  16.229  1.00  0.00     0.175 C 
BRANCH  34  35
ATOM     35  C   UNL     1      -3.417  -7.279  17.628  1.00  0.00     0.070 C 
BRANCH  35  36
ATOM     36  C   UNL     1      -2.586  -6.055  17.941  1.00  0.00    -0.045 A 
ATOM     37  C   UNL     1      -2.927  -4.813  17.385  1.00  0.00     0.007 A 
ATOM     38  C   UNL     1      -1.457  -6.145  18.766  1.00  0.00     0.007 A 
ATOM     39  C   UNL     1      -2.158  -3.682  17.657  1.00  0.00     0.046 A 
ATOM     40  C   UNL     1      -0.685  -5.013  19.038  1.00  0.00     0.046 A 
ATOM     41  C   UNL     1      -1.044  -3.790  18.481  1.00  0.00     0.115 A 
BRANCH  41  42
ATOM     42  O   UNL     1      -0.317  -2.661  18.719  1.00  0.00    -0.508 OA
ATOM     43  H   UNL     1      -0.427  -2.420  19.654  1.00  0.00     0.293 HD
ENDBRANCH  41  42
ENDBRANCH  35  36
ENDBRANCH  34  35
BRANCH  34  44
ATOM     44  C   UNL     1      -3.990  -7.156  15.142  1.00  0.00     0.243 C 
ATOM     45  O   UNL     1      -5.217  -7.127  15.140  1.00  0.00    -0.273 OA
ATOM     46  N   UNL     1      -3.248  -6.676  14.084  1.00  0.00    -0.341 N 
ATOM     47  H   UNL     1      -2.242  -6.828  14.076  1.00  0.00     0.164 HD
BRANCH  46  48
ATOM     48  C   UNL     1      -3.843  -6.044  12.904  1.00  0.00     0.196 C 
BRANCH  48  49
ATOM     49  C   UNL     1      -2.939  -4.929  12.350  1.00  0.00     0.072 C 
BRANCH  49  50
ATOM     50  C   UNL     1      -3.304  -3.564  12.887  1.00  0.00    -0.045 A 
ATOM     51  C   UNL     1      -4.201  -3.451  13.959  1.00  0.00     0.007 A 
ATOM     52  C   UNL     1      -2.775  -2.400  12.315  1.00  0.00     0.007 A 
ATOM     53  C   UNL     1      -4.556  -2.196  14.453  1.00  0.00     0.046 A 
ATOM     54  C   UNL     1      -3.131  -1.143  12.809  1.00  0.00     0.046 A 
ATOM     55  C   UNL     1      -4.019  -1.052  13.876  1.00  0.00     0.115 A 
BRANCH  55  56
ATOM     56  O   UNL     1      -4.392   0.156  14.387  1.00  0.00    -0.508 OA
ATOM     57  H   UNL     1      -5.301   0.079  14.719  1.00  0.00     0.293 HD
ENDBRANCH  55  56
ENDBRANCH  49  50
ENDBRANCH  48  49
BRANCH  48  58
ATOM     58  C   UNL     1      -4.064  -7.111  11.824  1.00  0.00     0.326 C 
ATOM     59  O   UNL     1      -3.937  -6.979  10.617  1.00  0.00    -0.250 OA
BRANCH  58  60
ATOM     60  O   UNL     1      -4.428  -8.319  12.323  1.00  0.00    -0.480 OA
ATOM     61  H   UNL     1      -3.672  -8.562  12.901  1.00  0.00     0.296 HD
ENDBRANCH  58  60
ENDBRANCH  48  58
ENDBRANCH  46  48
ENDBRANCH  34  44
ENDBRANCH  32  34
ENDBRANCH  25  30
ENDBRANCH  23  25
ENDBRANCH   2  23
TORSDOF 28
ENDMDL
MODEL 9
REMARK VINA RESULT:    -5.954      7.212     12.466
REMARK INTER + INTRA:         -19.943
REMARK INTER:                 -16.648
REMARK INTRA:                  -3.294
REMARK UNBOUND:                -5.112
REMARK SMILES CCCCCCC[C@H](N)[C@H](O)C(=O)N[C@H](C)C(=O)N(C)[C@H](CC(C)C)C(=O)N[C@@H](Cc1ccc(O)cc1)C(=O)N[C@@H](Cc1ccc(O)cc1)C(=O)O
REMARK SMILES IDX 18 1 17 2 15 3 16 4 14 5 12 6 13 7 10 9 11 10 8 12 9 13 7 16
REMARK SMILES IDX 6 17 5 18 4 19 3 20 2 21 1 22 19 23 20 24 21 25 22 26 23 27
REMARK SMILES IDX 24 28 25 29 26 30 27 31 28 32 29 34 30 35 31 36 32 37 37 38
REMARK SMILES IDX 33 39 36 40 34 41 35 42 38 44 39 45 40 46 41 48 42 49 43 50
REMARK SMILES IDX 44 51 49 52 45 53 48 54 46 55 47 56 50 58 51 59 52 60
REMARK H PARENT 14 8 11 11 9 14 9 15 28 33 35 43 40 47 47 57 52 61
ROOT
ATOM      1  O   UNL     1      -3.487 -17.400   2.512  1.00  0.00    -0.272 OA
ATOM      2  C   UNL     1      -2.540 -17.866   3.164  1.00  0.00     0.245 C 
ENDROOT
BRANCH   2   3
ATOM      3  C   UNL     1      -1.102 -17.674   2.622  1.00  0.00     0.168 C 
ATOM      4  C   UNL     1      -0.244 -18.900   2.915  1.00  0.00     0.041 C 
BRANCH   3   5
ATOM      5  N   UNL     1      -1.024 -17.280   1.224  1.00  0.00    -0.342 N 
ATOM      6  C   UNL     1      -1.513 -18.080   0.213  1.00  0.00     0.251 C 
ATOM      7  O   UNL     1      -2.006 -19.186   0.405  1.00  0.00    -0.272 OA
ATOM      8  H   UNL     1      -0.604 -16.398   0.938  1.00  0.00     0.164 HD
BRANCH   6   9
ATOM      9  C   UNL     1      -1.452 -17.401  -1.165  1.00  0.00     0.219 C 
BRANCH   9  10
ATOM     10  O   UNL     1      -2.749 -17.197  -1.738  1.00  0.00    -0.382 OA
ATOM     11  H   UNL     1      -2.990 -18.084  -2.085  1.00  0.00     0.211 HD
ENDBRANCH   9  10
BRANCH   9  12
ATOM     12  C   UNL     1      -0.640 -16.080  -1.157  1.00  0.00     0.089 C 
BRANCH  12  13
ATOM     13  N   UNL     1       0.780 -16.403  -1.427  1.00  0.00    -0.325 NA
ATOM     14  H   UNL     1       1.181 -16.864  -0.608  1.00  0.00     0.119 HD
ATOM     15  H   UNL     1       1.305 -15.530  -1.526  1.00  0.00     0.119 HD
ENDBRANCH  12  13
BRANCH  12  16
ATOM     16  C   UNL     1      -1.128 -14.978  -2.128  1.00  0.00     0.022 C 
BRANCH  16  17
ATOM     17  C   UNL     1      -1.078 -13.511  -1.679  1.00  0.00     0.002 C 
BRANCH  17  18
ATOM     18  C   UNL     1      -2.401 -12.950  -1.162  1.00  0.00     0.000 C 
BRANCH  18  19
ATOM     19  C   UNL     1      -2.246 -11.938  -0.020  1.00  0.00    -0.000 C 
BRANCH  19  20
ATOM     20  C   UNL     1      -2.955 -12.315   1.284  1.00  0.00    -0.000 C 
BRANCH  20  21
ATOM     21  C   UNL     1      -2.832 -13.802   1.625  1.00  0.00    -0.003 C 
ATOM     22  C   UNL     1      -1.665 -14.060   2.566  1.00  0.00     0.004 C 
ENDBRANCH  20  21
ENDBRANCH  19  20
ENDBRANCH  18  19
ENDBRANCH  17  18
ENDBRANCH  16  17
ENDBRANCH  12  16
ENDBRANCH   9  12
ENDBRANCH   6   9
ENDBRANCH   3   5
ENDBRANCH   2   3
BRANCH   2  23
ATOM     23  N   UNL     1      -2.769 -18.437   4.411  1.00  0.00    -0.332 N 
ATOM     24  C   UNL     1      -2.837 -19.869   4.664  1.00  0.00     0.147 C 
BRANCH  23  25
ATOM     25  C   UNL     1      -2.833 -17.582   5.628  1.00  0.00     0.174 C 
BRANCH  25  26
ATOM     26  C   UNL     1      -3.885 -16.453   5.516  1.00  0.00     0.038 C 
BRANCH  26  27
ATOM     27  C   UNL     1      -5.026 -16.453   6.558  1.00  0.00    -0.015 C 
ATOM     28  C   UNL     1      -5.808 -17.766   6.569  1.00  0.00     0.007 C 
ATOM     29  C   UNL     1      -4.560 -16.093   7.967  1.00  0.00     0.007 C 
ENDBRANCH  26  27
ENDBRANCH  25  26
BRANCH  25  30
ATOM     30  C   UNL     1      -1.420 -17.079   6.001  1.00  0.00     0.243 C 
ATOM     31  O   UNL     1      -0.638 -17.765   6.658  1.00  0.00    -0.273 OA
ATOM     32  N   UNL     1      -1.102 -15.821   5.558  1.00  0.00    -0.342 N 
ATOM     33  H   UNL     1      -1.746 -15.373   4.901  1.00  0.00     0.164 HD
BRANCH  32  34
ATOM     34  C   UNL     1       0.182 -15.173   5.840  1.00  0.00     0.175 C 
BRANCH  34  35
ATOM     35  C   UNL     1       1.093 -15.175   4.603  1.00  0.00     0.070 C 
BRANCH  35  36
ATOM     36  C   UNL     1       2.155 -16.249   4.661  1.00  0.00    -0.045 A 
ATOM     37  C   UNL     1       2.364 -16.966   5.849  1.00  0.00     0.007 A 
ATOM     38  C   UNL     1       2.957 -16.528   3.546  1.00  0.00     0.007 A 
ATOM     39  C   UNL     1       3.351 -17.950   5.916  1.00  0.00     0.046 A 
ATOM     40  C   UNL     1       3.947 -17.512   3.613  1.00  0.00     0.046 A 
ATOM     41  C   UNL     1       4.134 -18.216   4.799  1.00  0.00     0.115 A 
BRANCH  41  42
ATOM     42  O   UNL     1       5.089 -19.182   4.907  1.00  0.00    -0.508 OA
ATOM     43  H   UNL     1       4.724 -19.914   5.432  1.00  0.00     0.293 HD
ENDBRANCH  41  42
ENDBRANCH  35  36
ENDBRANCH  34  35
BRANCH  34  44
ATOM     44  C   UNL     1      -0.106 -13.740   6.342  1.00  0.00     0.243 C 
ATOM     45  O   UNL     1      -0.254 -12.765   5.611  1.00  0.00    -0.273 OA
ATOM     46  N   UNL     1      -0.054 -13.619   7.715  1.00  0.00    -0.341 N 
ATOM     47  H   UNL     1       0.188 -14.433   8.273  1.00  0.00     0.164 HD
BRANCH  46  48
ATOM     48  C   UNL     1      -0.227 -12.346   8.418  1.00  0.00     0.196 C 
BRANCH  48  49
ATOM     49  C   UNL     1      -1.146 -12.503   9.641  1.00  0.00     0.072 C 
BRANCH  49  50
ATOM     50  C   UNL     1      -2.143 -11.373   9.768  1.00  0.00    -0.045 A 
ATOM     51  C   UNL     1      -2.432 -10.568   8.656  1.00  0.00     0.007 A 
ATOM     52  C   UNL     1      -2.772 -11.100  10.989  1.00  0.00     0.007 A 
ATOM     53  C   UNL     1      -3.340  -9.514   8.765  1.00  0.00     0.046 A 
ATOM     54  C   UNL     1      -3.680 -10.045  11.098  1.00  0.00     0.046 A 
ATOM     55  C   UNL     1      -3.957  -9.261   9.983  1.00  0.00     0.115 A 
BRANCH  55  56
ATOM     56  O   UNL     1      -4.837  -8.221  10.047  1.00  0.00    -0.508 OA
ATOM     57  H   UNL     1      -5.289  -8.149   9.192  1.00  0.00     0.293 HD
ENDBRANCH  55  56
ENDBRANCH  49  50
ENDBRANCH  48  49
BRANCH  48  58
ATOM     58  C   UNL     1       1.148 -11.835   8.870  1.00  0.00     0.326 C 
ATOM     59  O   UNL     1       1.382 -10.861   9.567  1.00  0.00    -0.250 OA
BRANCH  58  60
ATOM     60  O   UNL     1       2.181 -12.596   8.428  1.00  0.00    -0.480 OA
ATOM     61  H   UNL     1       2.888 -11.938   8.254  1.00  0.00     0.296 HD
ENDBRANCH  58  60
ENDBRANCH  48  58
ENDBRANCH  46  48
ENDBRANCH  34  44
ENDBRANCH  32  34
ENDBRANCH  25  30
ENDBRANCH  23  25
ENDBRANCH   2  23
TORSDOF 28
ENDMDL
MODEL 10
REMARK VINA RESULT:    -5.786      3.577      7.421
REMARK INTER + INTRA:         -19.524
REMARK INTER:                 -15.301
REMARK INTRA:                  -4.223
REMARK UNBOUND:                -5.112
REMARK SMILES CCCCCCC[C@H](N)[C@H](O)C(=O)N[C@H](C)C(=O)N(C)[C@H](CC(C)C)C(=O)N[C@@H](Cc1ccc(O)cc1)C(=O)N[C@@H](Cc1ccc(O)cc1)C(=O)O
REMARK SMILES IDX 18 1 17 2 15 3 16 4 14 5 12 6 13 7 10 9 11 10 8 12 9 13 7 16
REMARK SMILES IDX 6 17 5 18 4 19 3 20 2 21 1 22 19 23 20 24 21 25 22 26 23 27
REMARK SMILES IDX 24 28 25 29 26 30 27 31 28 32 29 34 30 35 31 36 32 37 37 38
REMARK SMILES IDX 33 39 36 40 34 41 35 42 38 44 39 45 40 46 41 48 42 49 43 50
REMARK SMILES IDX 44 51 49 52 45 53 48 54 46 55 47 56 50 58 51 59 52 60
REMARK H PARENT 14 8 11 11 9 14 9 15 28 33 35 43 40 47 47 57 52 61
ROOT
ATOM      1  O   UNL     1      -4.977  -8.506  13.821  1.00  0.00    -0.272 OA
ATOM      2  C   UNL     1      -5.387  -9.608  13.428  1.00  0.00     0.245 C 
ENDROOT
BRANCH   2   3
ATOM      3  C   UNL     1      -5.777 -10.673  14.483  1.00  0.00     0.168 C 
ATOM      4  C   UNL     1      -4.948 -11.940  14.305  1.00  0.00     0.041 C 
BRANCH   3   5
ATOM      5  N   UNL     1      -5.760 -10.203  15.860  1.00  0.00    -0.342 N 
ATOM      6  C   UNL     1      -6.618 -10.711  16.812  1.00  0.00     0.251 C 
ATOM      7  O   UNL     1      -7.476 -11.554  16.570  1.00  0.00    -0.272 OA
ATOM      8  H   UNL     1      -5.116  -9.481  16.172  1.00  0.00     0.164 HD
BRANCH   6   9
ATOM      9  C   UNL     1      -6.327 -10.173  18.222  1.00  0.00     0.219 C 
BRANCH   9  10
ATOM     10  O   UNL     1      -7.453 -10.285  19.101  1.00  0.00    -0.382 OA
ATOM     11  H   UNL     1      -8.155 -10.666  18.528  1.00  0.00     0.211 HD
ENDBRANCH   9  10
BRANCH   9  12
ATOM     12  C   UNL     1      -5.063 -10.802  18.865  1.00  0.00     0.089 C 
BRANCH  12  13
ATOM     13  N   UNL     1      -4.523 -11.820  17.935  1.00  0.00    -0.325 NA
ATOM     14  H   UNL     1      -4.371 -11.393  17.020  1.00  0.00     0.119 HD
ATOM     15  H   UNL     1      -5.236 -12.537  17.780  1.00  0.00     0.119 HD
ENDBRANCH  12  13
BRANCH  12  16
ATOM     16  C   UNL     1      -3.946  -9.811  19.274  1.00  0.00     0.022 C 
BRANCH  16  17
ATOM     17  C   UNL     1      -3.284  -8.945  18.195  1.00  0.00     0.002 C 
BRANCH  17  18
ATOM     18  C   UNL     1      -1.896  -8.416  18.553  1.00  0.00     0.000 C 
BRANCH  18  19
ATOM     19  C   UNL     1      -1.668  -6.949  18.169  1.00  0.00    -0.000 C 
BRANCH  19  20
ATOM     20  C   UNL     1      -2.538  -6.436  17.017  1.00  0.00    -0.000 C 
BRANCH  20  21
ATOM     21  C   UNL     1      -3.261  -5.128  17.349  1.00  0.00    -0.003 C 
ATOM     22  C   UNL     1      -3.569  -5.026  18.835  1.00  0.00     0.004 C 
ENDBRANCH  20  21
ENDBRANCH  19  20
ENDBRANCH  18  19
ENDBRANCH  17  18
ENDBRANCH  16  17
ENDBRANCH  12  16
ENDBRANCH   9  12
ENDBRANCH   6   9
ENDBRANCH   3   5
ENDBRANCH   2   3
BRANCH   2  23
ATOM     23  N   UNL     1      -5.605  -9.826  12.071  1.00  0.00    -0.332 N 
ATOM     24  C   UNL     1      -6.917  -9.957  11.456  1.00  0.00     0.147 C 
BRANCH  23  25
ATOM     25  C   UNL     1      -4.464  -9.811  11.116  1.00  0.00     0.174 C 
BRANCH  25  26
ATOM     26  C   UNL     1      -3.301 -10.733  11.552  1.00  0.00     0.038 C 
BRANCH  26  27
ATOM     27  C   UNL     1      -3.178 -12.094  10.831  1.00  0.00    -0.015 C 
ATOM     28  C   UNL     1      -4.526 -12.796  10.673  1.00  0.00     0.007 C 
ATOM     29  C   UNL     1      -2.457 -12.006   9.488  1.00  0.00     0.007 C 
ENDBRANCH  26  27
ENDBRANCH  25  26
BRANCH  25  30
ATOM     30  C   UNL     1      -4.029  -8.355  10.829  1.00  0.00     0.243 C 
ATOM     31  O   UNL     1      -4.524  -7.697   9.915  1.00  0.00    -0.273 OA
ATOM     32  N   UNL     1      -3.055  -7.854  11.653  1.00  0.00    -0.342 N 
ATOM     33  H   UNL     1      -2.796  -8.409  12.473  1.00  0.00     0.164 HD
BRANCH  32  34
ATOM     34  C   UNL     1      -2.501  -6.504  11.512  1.00  0.00     0.175 C 
BRANCH  34  35
ATOM     35  C   UNL     1      -2.502  -5.757  12.854  1.00  0.00     0.070 C 
BRANCH  35  36
ATOM     36  C   UNL     1      -3.260  -4.450  12.795  1.00  0.00    -0.045 A 
ATOM     37  C   UNL     1      -3.301  -3.715  11.600  1.00  0.00     0.007 A 
ATOM     38  C   UNL     1      -3.908  -3.943  13.929  1.00  0.00     0.007 A 
ATOM     39  C   UNL     1      -3.986  -2.502  11.540  1.00  0.00     0.046 A 
ATOM     40  C   UNL     1      -4.593  -2.727  13.870  1.00  0.00     0.046 A 
ATOM     41  C   UNL     1      -4.627  -2.017  12.674  1.00  0.00     0.115 A 
BRANCH  41  42
ATOM     42  O   UNL     1      -5.282  -0.826  12.574  1.00  0.00    -0.508 OA
ATOM     43  H   UNL     1      -5.901  -0.755  13.319  1.00  0.00     0.293 HD
ENDBRANCH  41  42
ENDBRANCH  35  36
ENDBRANCH  34  35
BRANCH  34  44
ATOM     44  C   UNL     1      -1.079  -6.629  10.921  1.00  0.00     0.243 C 
ATOM     45  O   UNL     1      -0.661  -5.970   9.973  1.00  0.00    -0.273 OA
ATOM     46  N   UNL     1      -0.343  -7.656  11.475  1.00  0.00    -0.341 N 
ATOM     47  H   UNL     1      -0.776  -8.250  12.177  1.00  0.00     0.164 HD
BRANCH  46  48
ATOM     48  C   UNL     1       1.006  -8.011  11.030  1.00  0.00     0.196 C 
BRANCH  48  49
ATOM     49  C   UNL     1       1.982  -8.099  12.216  1.00  0.00     0.072 C 
BRANCH  49  50
ATOM     50  C   UNL     1       3.274  -7.356  11.964  1.00  0.00    -0.045 A 
ATOM     51  C   UNL     1       3.288  -5.954  11.978  1.00  0.00     0.007 A 
ATOM     52  C   UNL     1       4.462  -8.047  11.693  1.00  0.00     0.007 A 
ATOM     53  C   UNL     1       4.471  -5.257  11.734  1.00  0.00     0.046 A 
ATOM     54  C   UNL     1       5.646  -7.349  11.447  1.00  0.00     0.046 A 
ATOM     55  C   UNL     1       5.641  -5.959  11.471  1.00  0.00     0.115 A 
BRANCH  55  56
ATOM     56  O   UNL     1       6.775  -5.240  11.235  1.00  0.00    -0.508 OA
ATOM     57  H   UNL     1       7.540  -5.791  11.467  1.00  0.00     0.293 HD
ENDBRANCH  55  56
ENDBRANCH  49  50
ENDBRANCH  48  49
BRANCH  48  58
ATOM     58  C   UNL     1       0.954  -9.362  10.305  1.00  0.00     0.326 C 
ATOM     59  O   UNL     1       1.788 -10.252  10.339  1.00  0.00    -0.250 OA
BRANCH  58  60
ATOM     60  O   UNL     1      -0.173  -9.539   9.570  1.00  0.00    -0.480 OA
ATOM     61  H   UNL     1      -0.645  -8.684   9.670  1.00  0.00     0.296 HD
ENDBRANCH  58  60
ENDBRANCH  48  58
ENDBRANCH  46  48
ENDBRANCH  34  44
ENDBRANCH  32  34
ENDBRANCH  25  30
ENDBRANCH  23  25
ENDBRANCH   2  23
TORSDOF 28
ENDMDL
