MODEL 1
REMARK VINA RESULT:    -6.351      0.000      0.000
REMARK INTER + INTRA:         -17.297
REMARK INTER:                 -12.849
REMARK INTRA:                  -4.447
REMARK UNBOUND:                -4.447
REMARK SMILES CC[C@@H](C)[C@@H](NC(=O)[C@@H](O)Cc1ccc(O)c(Cl)c1)C(=O)N1[C@H](C(=O)NCCCCN=C(N)N)C[C@H]2CC[C@H](OS(=O)(=O)O)C[C@@H]21
REMARK SMILES IDX 22 1 36 2 46 3 35 4 23 5 45 6 37 7 39 8 38 9 20 10 21 11
REMARK SMILES IDX 5 12 6 13 7 14 8 15 9 17 11 18 12 19 17 20 19 21 15 22 14 23
REMARK SMILES IDX 13 24 18 25 16 26 10 28 3 30 4 31 2 32 1 33 24 34 25 35
REMARK SMILES IDX 26 36 27 38 28 39 29 40 30 41 31 42 32 43 33 44 34 45 40 50
REMARK SMILES IDX 41 51 42 52 43 53 44 54
REMARK H PARENT 6 16 16 27 10 29 26 37 33 46 33 47 34 48 34 49 44 55
ROOT
ATOM      1  N   UNL     1     -11.063  -4.529   2.710  1.00  0.00    -0.326 N 
ATOM      2  C   UNL     1      -9.628  -5.884   1.426  1.00  0.00     0.014 C 
ATOM      3  C   UNL     1     -10.955  -5.896   2.191  1.00  0.00     0.091 C 
ATOM      4  C   UNL     1      -8.771  -4.942   2.257  1.00  0.00     0.041 C 
ATOM      5  C   UNL     1      -9.781  -3.808   2.512  1.00  0.00     0.175 C 
ATOM      6  C   UNL     1     -12.049  -6.402   1.252  1.00  0.00     0.059 C 
ATOM      7  C   UNL     1      -9.142  -7.296   1.164  1.00  0.00     0.008 C 
ATOM      8  C   UNL     1     -11.549  -7.429   0.213  1.00  0.00     0.143 C 
ATOM      9  C   UNL     1     -10.308  -8.198   0.709  1.00  0.00     0.034 C 
ENDROOT
BRANCH   1  10
ATOM     10  C   UNL     1     -12.047  -3.953   3.495  1.00  0.00     0.246 C 
ATOM     11  O   UNL     1     -12.954  -3.315   2.950  1.00  0.00    -0.272 OA
BRANCH  10  12
ATOM     12  C   UNL     1     -12.014  -4.155   5.037  1.00  0.00     0.174 C 
BRANCH  12  13
ATOM     13  N   UNL     1     -10.888  -3.420   5.613  1.00  0.00    -0.342 N 
ATOM     14  C   UNL     1     -10.959  -2.607   6.722  1.00  0.00     0.249 C 
ATOM     15  O   UNL     1     -11.980  -2.430   7.373  1.00  0.00    -0.272 OA
ATOM     16  H   UNL     1     -10.017  -3.346   5.093  1.00  0.00     0.164 HD
BRANCH  14  17
ATOM     17  C   UNL     1      -9.603  -1.957   7.071  1.00  0.00     0.207 C 
BRANCH  17  18
ATOM     18  C   UNL     1      -8.451  -2.914   6.748  1.00  0.00     0.077 C 
BRANCH  18  19
ATOM     19  C   UNL     1      -7.437  -2.281   5.822  1.00  0.00    -0.043 A 
ATOM     20  C   UNL     1      -6.908  -1.145   3.745  1.00  0.00     0.083 A 
ATOM     21  C   UNL     1      -7.851  -1.684   4.621  1.00  0.00     0.028 A 
ATOM     22  C   UNL     1      -5.550  -1.200   4.061  1.00  0.00     0.134 A 
ATOM     23  C   UNL     1      -5.126  -1.788   5.246  1.00  0.00     0.048 A 
ATOM     24  C   UNL     1      -6.068  -2.331   6.124  1.00  0.00     0.008 A 
ATOM     25  Cl  UNL     1      -7.436  -0.416   2.274  1.00  0.00    -0.080 Cl
BRANCH  22  26
ATOM     26  O   UNL     1      -4.588  -0.695   3.228  1.00  0.00    -0.506 OA
ATOM     27  H   UNL     1      -4.851  -0.933   2.320  1.00  0.00     0.293 HD
ENDBRANCH  22  26
ENDBRANCH  18  19
ENDBRANCH  17  18
BRANCH  17  28
ATOM     28  O   UNL     1      -9.546  -1.594   8.460  1.00  0.00    -0.383 OA
ATOM     29  H   UNL     1      -9.951  -2.342   8.953  1.00  0.00     0.211 HD
ENDBRANCH  17  28
ENDBRANCH  14  17
ENDBRANCH  12  13
BRANCH  12  30
ATOM     30  C   UNL     1     -12.015  -5.653   5.446  1.00  0.00     0.018 C 
ATOM     31  C   UNL     1     -12.958  -5.894   6.635  1.00  0.00     0.010 C 
BRANCH  30  32
ATOM     32  C   UNL     1     -10.606  -6.211   5.763  1.00  0.00     0.002 C 
ATOM     33  C   UNL     1     -10.417  -6.735   7.181  1.00  0.00     0.004 C 
ENDBRANCH  30  32
ENDBRANCH  12  30
ENDBRANCH  10  12
ENDBRANCH   1  10
BRANCH   5  34
ATOM     34  C   UNL     1      -9.874  -2.842   1.301  1.00  0.00     0.242 C 
ATOM     35  O   UNL     1      -9.032  -2.830   0.403  1.00  0.00    -0.273 OA
ATOM     36  N   UNL     1     -10.935  -1.965   1.331  1.00  0.00    -0.354 N 
ATOM     37  H   UNL     1     -11.531  -1.943   2.160  1.00  0.00     0.163 HD
BRANCH  36  38
ATOM     38  C   UNL     1     -11.297  -1.149   0.191  1.00  0.00     0.116 C 
BRANCH  38  39
ATOM     39  C   UNL     1     -12.817  -1.072   0.070  1.00  0.00     0.023 C 
BRANCH  39  40
ATOM     40  C   UNL     1     -13.268  -0.581  -1.302  1.00  0.00     0.026 C 
BRANCH  40  41
ATOM     41  C   UNL     1     -12.361  -1.133  -2.401  1.00  0.00     0.146 C 
BRANCH  41  42
ATOM     42  N   UNL     1     -13.089  -2.115  -3.194  1.00  0.00    -0.254 NA
ATOM     43  C   UNL     1     -12.954  -3.362  -2.936  1.00  0.00     0.185 C 
ATOM     44  N   UNL     1     -12.210  -3.976  -1.999  1.00  0.00    -0.370 N 
ATOM     45  N   UNL     1     -13.631  -4.251  -3.681  1.00  0.00    -0.370 N 
ATOM     46  H   UNL     1     -12.009  -4.959  -2.067  1.00  0.00     0.159 HD
ATOM     47  H   UNL     1     -11.644  -3.452  -1.339  1.00  0.00     0.159 HD
ATOM     48  H   UNL     1     -14.224  -3.870  -4.406  1.00  0.00     0.159 HD
ATOM     49  H   UNL     1     -13.765  -5.206  -3.400  1.00  0.00     0.159 HD
ENDBRANCH  41  42
ENDBRANCH  40  41
ENDBRANCH  39  40
ENDBRANCH  38  39
ENDBRANCH  36  38
ENDBRANCH   5  34
BRANCH   8  50
ATOM     50  O   UNL     1     -11.216  -6.768  -1.008  1.00  0.00    -0.245 OA
BRANCH  50  51
ATOM     51  S   UNL     1     -11.847  -7.303  -2.409  1.00  0.00     0.397 S 
ATOM     52  O   UNL     1     -11.795  -8.747  -2.399  1.00  0.00    -0.169 OA
ATOM     53  O   UNL     1     -11.309  -6.531  -3.510  1.00  0.00    -0.169 OA
BRANCH  51  54
ATOM     54  O   UNL     1     -13.400  -6.919  -2.245  1.00  0.00    -0.264 OA
ATOM     55  H   UNL     1     -13.471  -6.270  -1.515  1.00  0.00     0.236 HD
ENDBRANCH  51  54
ENDBRANCH  50  51
ENDBRANCH   8  50
TORSDOF 19
ENDMDL
MODEL 2
REMARK VINA RESULT:    -6.164      3.366      4.713
REMARK INTER + INTRA:         -16.917
REMARK INTER:                 -12.654
REMARK INTRA:                  -4.263
REMARK UNBOUND:                -4.447
REMARK SMILES CC[C@@H](C)[C@@H](NC(=O)[C@@H](O)Cc1ccc(O)c(Cl)c1)C(=O)N1[C@H](C(=O)NCCCCN=C(N)N)C[C@H]2CC[C@H](OS(=O)(=O)O)C[C@@H]21
REMARK SMILES IDX 22 1 36 2 46 3 35 4 23 5 45 6 37 7 39 8 38 9 20 10 21 11
REMARK SMILES IDX 5 12 6 13 7 14 8 15 9 17 11 18 12 19 17 20 19 21 15 22 14 23
REMARK SMILES IDX 13 24 18 25 16 26 10 28 3 30 4 31 2 32 1 33 24 34 25 35
REMARK SMILES IDX 26 36 27 38 28 39 29 40 30 41 31 42 32 43 33 44 34 45 40 50
REMARK SMILES IDX 41 51 42 52 43 53 44 54
REMARK H PARENT 6 16 16 27 10 29 26 37 33 46 33 47 34 48 34 49 44 55
ROOT
ATOM      1  N   UNL     1     -10.432  -6.608   0.539  1.00  0.00    -0.326 N 
ATOM      2  C   UNL     1     -10.875  -6.711  -1.771  1.00  0.00     0.014 C 
ATOM      3  C   UNL     1     -11.556  -6.628  -0.402  1.00  0.00     0.091 C 
ATOM      4  C   UNL     1      -9.651  -7.568  -1.485  1.00  0.00     0.041 C 
ATOM      5  C   UNL     1      -9.168  -6.924  -0.172  1.00  0.00     0.175 C 
ATOM      6  C   UNL     1     -12.514  -5.439  -0.410  1.00  0.00     0.059 C 
ATOM      7  C   UNL     1     -11.857  -7.150  -2.839  1.00  0.00     0.008 C 
ATOM      8  C   UNL     1     -13.138  -5.154  -1.794  1.00  0.00     0.143 C 
ATOM      9  C   UNL     1     -13.206  -6.420  -2.671  1.00  0.00     0.034 C 
ENDROOT
BRANCH   1  10
ATOM     10  C   UNL     1     -10.433  -6.559   1.923  1.00  0.00     0.246 C 
ATOM     11  O   UNL     1      -9.871  -7.458   2.557  1.00  0.00    -0.272 OA
BRANCH  10  12
ATOM     12  C   UNL     1     -11.103  -5.355   2.647  1.00  0.00     0.174 C 
BRANCH  12  13
ATOM     13  N   UNL     1     -10.610  -4.098   2.084  1.00  0.00    -0.342 N 
ATOM     14  C   UNL     1     -11.361  -2.955   1.926  1.00  0.00     0.249 C 
ATOM     15  O   UNL     1     -12.533  -2.855   2.269  1.00  0.00    -0.272 OA
ATOM     16  H   UNL     1      -9.709  -4.076   1.613  1.00  0.00     0.164 HD
BRANCH  14  17
ATOM     17  C   UNL     1     -10.561  -1.800   1.286  1.00  0.00     0.207 C 
BRANCH  17  18
ATOM     18  C   UNL     1     -10.132  -0.789   2.354  1.00  0.00     0.077 C 
BRANCH  18  19
ATOM     19  C   UNL     1      -8.645  -0.850   2.620  1.00  0.00    -0.043 A 
ATOM     20  C   UNL     1      -6.795  -1.167   4.157  1.00  0.00     0.083 A 
ATOM     21  C   UNL     1      -8.167  -1.160   3.903  1.00  0.00     0.028 A 
ATOM     22  C   UNL     1      -5.894  -0.864   3.135  1.00  0.00     0.134 A 
ATOM     23  C   UNL     1      -6.354  -0.555   1.860  1.00  0.00     0.048 A 
ATOM     24  C   UNL     1      -7.727  -0.546   1.603  1.00  0.00     0.008 A 
ATOM     25  Cl  UNL     1      -6.227  -1.549   5.740  1.00  0.00    -0.080 Cl
BRANCH  22  26
ATOM     26  O   UNL     1      -4.541  -0.847   3.339  1.00  0.00    -0.506 OA
ATOM     27  H   UNL     1      -4.145  -1.390   2.632  1.00  0.00     0.293 HD
ENDBRANCH  22  26
ENDBRANCH  18  19
ENDBRANCH  17  18
BRANCH  17  28
ATOM     28  O   UNL     1     -11.336  -1.130   0.279  1.00  0.00    -0.383 OA
ATOM     29  H   UNL     1     -12.229  -0.991   0.670  1.00  0.00     0.211 HD
ENDBRANCH  17  28
ENDBRANCH  14  17
ENDBRANCH  12  13
BRANCH  12  30
ATOM     30  C   UNL     1     -10.940  -5.416   4.189  1.00  0.00     0.018 C 
ATOM     31  C   UNL     1     -12.311  -5.457   4.882  1.00  0.00     0.010 C 
BRANCH  30  32
ATOM     32  C   UNL     1     -10.084  -4.265   4.771  1.00  0.00     0.002 C 
ATOM     33  C   UNL     1     -10.843  -3.254   5.621  1.00  0.00     0.004 C 
ENDBRANCH  30  32
ENDBRANCH  12  30
ENDBRANCH  10  12
ENDBRANCH   1  10
BRANCH   5  34
ATOM     34  C   UNL     1      -8.347  -5.634  -0.435  1.00  0.00     0.242 C 
ATOM     35  O   UNL     1      -8.701  -4.532  -0.017  1.00  0.00    -0.273 OA
ATOM     36  N   UNL     1      -7.225  -5.803  -1.215  1.00  0.00    -0.354 N 
ATOM     37  H   UNL     1      -7.049  -6.718  -1.632  1.00  0.00     0.163 HD
BRANCH  36  38
ATOM     38  C   UNL     1      -6.234  -4.760  -1.381  1.00  0.00     0.116 C 
BRANCH  38  39
ATOM     39  C   UNL     1      -6.442  -4.055  -2.719  1.00  0.00     0.023 C 
BRANCH  39  40
ATOM     40  C   UNL     1      -6.161  -4.969  -3.908  1.00  0.00     0.026 C 
BRANCH  40  41
ATOM     41  C   UNL     1      -7.396  -5.091  -4.801  1.00  0.00     0.146 C 
BRANCH  41  42
ATOM     42  N   UNL     1      -8.113  -6.319  -4.486  1.00  0.00    -0.254 NA
ATOM     43  C   UNL     1      -8.641  -7.004  -5.429  1.00  0.00     0.185 C 
ATOM     44  N   UNL     1      -8.657  -6.781  -6.756  1.00  0.00    -0.370 N 
ATOM     45  N   UNL     1      -9.301  -8.131  -5.118  1.00  0.00    -0.370 N 
ATOM     46  H   UNL     1      -9.311  -7.262  -7.350  1.00  0.00     0.159 HD
ATOM     47  H   UNL     1      -8.192  -5.977  -7.167  1.00  0.00     0.159 HD
ATOM     48  H   UNL     1      -9.330  -8.378  -4.137  1.00  0.00     0.159 HD
ATOM     49  H   UNL     1      -9.532  -8.833  -5.799  1.00  0.00     0.159 HD
ENDBRANCH  41  42
ENDBRANCH  40  41
ENDBRANCH  39  40
ENDBRANCH  38  39
ENDBRANCH  36  38
ENDBRANCH   5  34
BRANCH   8  50
ATOM     50  O   UNL     1     -12.372  -4.166  -2.483  1.00  0.00    -0.245 OA
BRANCH  50  51
ATOM     51  S   UNL     1     -13.040  -2.721  -2.818  1.00  0.00     0.397 S 
ATOM     52  O   UNL     1     -13.715  -2.827  -4.092  1.00  0.00    -0.169 OA
ATOM     53  O   UNL     1     -12.081  -1.669  -2.552  1.00  0.00    -0.169 OA
BRANCH  51  54
ATOM     54  O   UNL     1     -14.203  -2.624  -1.712  1.00  0.00    -0.264 OA
ATOM     55  H   UNL     1     -15.018  -2.324  -2.162  1.00  0.00     0.236 HD
ENDBRANCH  51  54
ENDBRANCH  50  51
ENDBRANCH   8  50
TORSDOF 19
ENDMDL
MODEL 3
REMARK VINA RESULT:    -6.006      2.954      5.154
REMARK INTER + INTRA:         -16.597
REMARK INTER:                 -11.859
REMARK INTRA:                  -4.738
REMARK UNBOUND:                -4.447
REMARK SMILES CC[C@@H](C)[C@@H](NC(=O)[C@@H](O)Cc1ccc(O)c(Cl)c1)C(=O)N1[C@H](C(=O)NCCCCN=C(N)N)C[C@H]2CC[C@H](OS(=O)(=O)O)C[C@@H]21
REMARK SMILES IDX 22 1 36 2 46 3 35 4 23 5 45 6 37 7 39 8 38 9 20 10 21 11
REMARK SMILES IDX 5 12 6 13 7 14 8 15 9 17 11 18 12 19 17 20 19 21 15 22 14 23
REMARK SMILES IDX 13 24 18 25 16 26 10 28 3 30 4 31 2 32 1 33 24 34 25 35
REMARK SMILES IDX 26 36 27 38 28 39 29 40 30 41 31 42 32 43 33 44 34 45 40 50
REMARK SMILES IDX 41 51 42 52 43 53 44 54
REMARK H PARENT 6 16 16 27 10 29 26 37 33 46 33 47 34 48 34 49 44 55
ROOT
ATOM      1  N   UNL     1     -10.510  -6.514   0.378  1.00  0.00    -0.326 N 
ATOM      2  C   UNL     1     -10.729  -6.253  -1.951  1.00  0.00     0.014 C 
ATOM      3  C   UNL     1     -11.539  -6.403  -0.660  1.00  0.00     0.091 C 
ATOM      4  C   UNL     1      -9.510  -7.123  -1.685  1.00  0.00     0.041 C 
ATOM      5  C   UNL     1      -9.175  -6.689  -0.246  1.00  0.00     0.175 C 
ATOM      6  C   UNL     1     -12.532  -5.246  -0.575  1.00  0.00     0.059 C 
ATOM      7  C   UNL     1     -11.591  -6.533  -3.167  1.00  0.00     0.008 C 
ATOM      8  C   UNL     1     -13.032  -4.754  -1.951  1.00  0.00     0.143 C 
ATOM      9  C   UNL     1     -12.974  -5.864  -3.019  1.00  0.00     0.034 C 
ENDROOT
BRANCH   1  10
ATOM     10  C   UNL     1     -10.643  -6.687   1.746  1.00  0.00     0.246 C 
ATOM     11  O   UNL     1     -10.247  -7.738   2.260  1.00  0.00    -0.272 OA
BRANCH  10  12
ATOM     12  C   UNL     1     -11.248  -5.541   2.608  1.00  0.00     0.174 C 
BRANCH  12  13
ATOM     13  N   UNL     1     -10.378  -4.367   2.558  1.00  0.00    -0.342 N 
ATOM     14  C   UNL     1     -10.812  -3.066   2.437  1.00  0.00     0.249 C 
ATOM     15  O   UNL     1     -11.992  -2.743   2.384  1.00  0.00    -0.272 OA
ATOM     16  H   UNL     1      -9.376  -4.487   2.434  1.00  0.00     0.164 HD
BRANCH  14  17
ATOM     17  C   UNL     1      -9.650  -2.051   2.394  1.00  0.00     0.207 C 
BRANCH  17  18
ATOM     18  C   UNL     1      -9.581  -1.260   3.704  1.00  0.00     0.077 C 
BRANCH  18  19
ATOM     19  C   UNL     1      -8.204  -1.321   4.326  1.00  0.00    -0.043 A 
ATOM     20  C   UNL     1      -5.791  -1.383   4.089  1.00  0.00     0.083 A 
ATOM     21  C   UNL     1      -7.059  -1.277   3.516  1.00  0.00     0.028 A 
ATOM     22  C   UNL     1      -5.659  -1.536   5.470  1.00  0.00     0.134 A 
ATOM     23  C   UNL     1      -6.785  -1.581   6.284  1.00  0.00     0.048 A 
ATOM     24  C   UNL     1      -8.055  -1.477   5.713  1.00  0.00     0.008 A 
ATOM     25  Cl  UNL     1      -4.395  -1.327   3.077  1.00  0.00    -0.080 Cl
BRANCH  22  26
ATOM     26  O   UNL     1      -4.437  -1.655   6.076  1.00  0.00    -0.506 OA
ATOM     27  H   UNL     1      -3.793  -1.854   5.371  1.00  0.00     0.293 HD
ENDBRANCH  22  26
ENDBRANCH  18  19
ENDBRANCH  17  18
BRANCH  17  28
ATOM     28  O   UNL     1      -9.799  -1.139   1.294  1.00  0.00    -0.383 OA
ATOM     29  H   UNL     1     -10.763  -1.105   1.099  1.00  0.00     0.211 HD
ENDBRANCH  17  28
ENDBRANCH  14  17
ENDBRANCH  12  13
BRANCH  12  30
ATOM     30  C   UNL     1     -11.559  -5.986   4.063  1.00  0.00     0.018 C 
ATOM     31  C   UNL     1     -12.867  -5.351   4.560  1.00  0.00     0.010 C 
BRANCH  30  32
ATOM     32  C   UNL     1     -10.413  -5.693   5.061  1.00  0.00     0.002 C 
ATOM     33  C   UNL     1     -10.136  -6.795   6.076  1.00  0.00     0.004 C 
ENDBRANCH  30  32
ENDBRANCH  12  30
ENDBRANCH  10  12
ENDBRANCH   1  10
BRANCH   5  34
ATOM     34  C   UNL     1      -8.377  -5.359  -0.220  1.00  0.00     0.242 C 
ATOM     35  O   UNL     1      -8.930  -4.260  -0.191  1.00  0.00    -0.273 OA
ATOM     36  N   UNL     1      -7.008  -5.496  -0.289  1.00  0.00    -0.354 N 
ATOM     37  H   UNL     1      -6.614  -6.426  -0.433  1.00  0.00     0.163 HD
BRANCH  36  38
ATOM     38  C   UNL     1      -6.108  -4.385  -0.061  1.00  0.00     0.116 C 
BRANCH  38  39
ATOM     39  C   UNL     1      -5.796  -4.267   1.429  1.00  0.00     0.023 C 
BRANCH  39  40
ATOM     40  C   UNL     1      -4.577  -5.089   1.836  1.00  0.00     0.026 C 
BRANCH  40  41
ATOM     41  C   UNL     1      -4.973  -6.198   2.811  1.00  0.00     0.146 C 
BRANCH  41  42
ATOM     42  N   UNL     1      -5.624  -7.282   2.086  1.00  0.00    -0.254 NA
ATOM     43  C   UNL     1      -6.755  -7.724   2.490  1.00  0.00     0.185 C 
ATOM     44  N   UNL     1      -7.510  -7.342   3.536  1.00  0.00    -0.370 N 
ATOM     45  N   UNL     1      -7.336  -8.726   1.810  1.00  0.00    -0.370 N 
ATOM     46  H   UNL     1      -8.249  -7.932   3.878  1.00  0.00     0.159 HD
ATOM     47  H   UNL     1      -7.225  -6.585   4.151  1.00  0.00     0.159 HD
ATOM     48  H   UNL     1      -6.837  -9.068   1.000  1.00  0.00     0.159 HD
ATOM     49  H   UNL     1      -8.307  -8.962   1.914  1.00  0.00     0.159 HD
ENDBRANCH  41  42
ENDBRANCH  40  41
ENDBRANCH  39  40
ENDBRANCH  38  39
ENDBRANCH  36  38
ENDBRANCH   5  34
BRANCH   8  50
ATOM     50  O   UNL     1     -12.237  -3.654  -2.397  1.00  0.00    -0.245 OA
BRANCH  50  51
ATOM     51  S   UNL     1     -12.953  -2.237  -2.750  1.00  0.00     0.397 S 
ATOM     52  O   UNL     1     -13.478  -2.325  -4.094  1.00  0.00    -0.169 OA
ATOM     53  O   UNL     1     -12.097  -1.144  -2.338  1.00  0.00    -0.169 OA
BRANCH  51  54
ATOM     54  O   UNL     1     -14.234  -2.257  -1.778  1.00  0.00    -0.264 OA
ATOM     55  H   UNL     1     -14.026  -2.845  -1.023  1.00  0.00     0.236 HD
ENDBRANCH  51  54
ENDBRANCH  50  51
ENDBRANCH   8  50
TORSDOF 19
ENDMDL
MODEL 4
REMARK VINA RESULT:    -5.913      1.721      2.218
REMARK INTER + INTRA:         -16.410
REMARK INTER:                 -12.260
REMARK INTRA:                  -4.150
REMARK UNBOUND:                -4.447
REMARK SMILES CC[C@@H](C)[C@@H](NC(=O)[C@@H](O)Cc1ccc(O)c(Cl)c1)C(=O)N1[C@H](C(=O)NCCCCN=C(N)N)C[C@H]2CC[C@H](OS(=O)(=O)O)C[C@@H]21
REMARK SMILES IDX 22 1 36 2 46 3 35 4 23 5 45 6 37 7 39 8 38 9 20 10 21 11
REMARK SMILES IDX 5 12 6 13 7 14 8 15 9 17 11 18 12 19 17 20 19 21 15 22 14 23
REMARK SMILES IDX 13 24 18 25 16 26 10 28 3 30 4 31 2 32 1 33 24 34 25 35
REMARK SMILES IDX 26 36 27 38 28 39 29 40 30 41 31 42 32 43 33 44 34 45 40 50
REMARK SMILES IDX 41 51 42 52 43 53 44 54
REMARK H PARENT 6 16 16 27 10 29 26 37 33 46 33 47 34 48 34 49 44 55
ROOT
ATOM      1  N   UNL     1     -11.066  -3.867   3.849  1.00  0.00    -0.326 N 
ATOM      2  C   UNL     1      -9.495  -5.056   2.561  1.00  0.00     0.014 C 
ATOM      3  C   UNL     1     -10.752  -5.232   3.418  1.00  0.00     0.091 C 
ATOM      4  C   UNL     1      -8.769  -3.919   3.262  1.00  0.00     0.041 C 
ATOM      5  C   UNL     1      -9.945  -2.956   3.511  1.00  0.00     0.175 C 
ATOM      6  C   UNL     1     -11.794  -5.990   2.598  1.00  0.00     0.059 C 
ATOM      7  C   UNL     1      -8.786  -6.381   2.362  1.00  0.00     0.008 C 
ATOM      8  C   UNL     1     -11.185  -6.997   1.598  1.00  0.00     0.143 C 
ATOM      9  C   UNL     1      -9.801  -7.502   2.054  1.00  0.00     0.034 C 
ENDROOT
BRANCH   1  10
ATOM     10  C   UNL     1     -12.088  -3.405   4.662  1.00  0.00     0.246 C 
ATOM     11  O   UNL     1     -13.147  -3.034   4.144  1.00  0.00    -0.272 OA
BRANCH  10  12
ATOM     12  C   UNL     1     -11.898  -3.405   6.206  1.00  0.00     0.174 C 
BRANCH  12  13
ATOM     13  N   UNL     1     -10.788  -2.526   6.572  1.00  0.00    -0.342 N 
ATOM     14  C   UNL     1     -10.844  -1.538   7.530  1.00  0.00     0.249 C 
ATOM     15  O   UNL     1     -11.836  -1.302   8.209  1.00  0.00    -0.272 OA
ATOM     16  H   UNL     1      -9.955  -2.499   5.990  1.00  0.00     0.164 HD
BRANCH  14  17
ATOM     17  C   UNL     1      -9.513  -0.770   7.672  1.00  0.00     0.207 C 
BRANCH  17  18
ATOM     18  C   UNL     1      -8.399  -1.712   8.143  1.00  0.00     0.077 C 
BRANCH  18  19
ATOM     19  C   UNL     1      -7.200  -1.668   7.223  1.00  0.00    -0.043 A 
ATOM     20  C   UNL     1      -6.264  -1.419   4.999  1.00  0.00     0.083 A 
ATOM     21  C   UNL     1      -7.367  -1.410   5.853  1.00  0.00     0.028 A 
ATOM     22  C   UNL     1      -4.991  -1.686   5.505  1.00  0.00     0.134 A 
ATOM     23  C   UNL     1      -4.811  -1.942   6.859  1.00  0.00     0.048 A 
ATOM     24  C   UNL     1      -5.914  -1.936   7.716  1.00  0.00     0.008 A 
ATOM     25  Cl  UNL     1      -6.489  -1.100   3.319  1.00  0.00    -0.080 Cl
BRANCH  22  26
ATOM     26  O   UNL     1      -3.881  -1.716   4.704  1.00  0.00    -0.506 OA
ATOM     27  H   UNL     1      -4.088  -2.313   3.961  1.00  0.00     0.293 HD
ENDBRANCH  22  26
ENDBRANCH  18  19
ENDBRANCH  17  18
BRANCH  17  28
ATOM     28  O   UNL     1      -9.640   0.319   8.601  1.00  0.00    -0.383 OA
ATOM     29  H   UNL     1     -10.041  -0.063   9.414  1.00  0.00     0.211 HD
ENDBRANCH  17  28
ENDBRANCH  14  17
ENDBRANCH  12  13
BRANCH  12  30
ATOM     30  C   UNL     1     -11.741  -4.834   6.792  1.00  0.00     0.018 C 
ATOM     31  C   UNL     1     -13.005  -5.670   6.540  1.00  0.00     0.010 C 
BRANCH  30  32
ATOM     32  C   UNL     1     -11.383  -4.852   8.298  1.00  0.00     0.002 C 
ATOM     33  C   UNL     1     -12.571  -4.899   9.250  1.00  0.00     0.004 C 
ENDBRANCH  30  32
ENDBRANCH  12  30
ENDBRANCH  10  12
ENDBRANCH   1  10
BRANCH   5  34
ATOM     34  C   UNL     1     -10.277  -2.120   2.246  1.00  0.00     0.242 C 
ATOM     35  O   UNL     1      -9.440  -1.412   1.686  1.00  0.00    -0.273 OA
ATOM     36  N   UNL     1     -11.587  -2.185   1.829  1.00  0.00    -0.354 N 
ATOM     37  H   UNL     1     -12.262  -2.693   2.403  1.00  0.00     0.163 HD
BRANCH  36  38
ATOM     38  C   UNL     1     -12.021  -1.648   0.556  1.00  0.00     0.116 C 
BRANCH  38  39
ATOM     39  C   UNL     1     -12.935  -2.649  -0.146  1.00  0.00     0.023 C 
BRANCH  39  40
ATOM     40  C   UNL     1     -12.216  -3.424  -1.245  1.00  0.00     0.026 C 
BRANCH  40  41
ATOM     41  C   UNL     1     -10.867  -2.782  -1.567  1.00  0.00     0.146 C 
BRANCH  41  42
ATOM     42  N   UNL     1      -9.921  -3.808  -1.986  1.00  0.00    -0.254 NA
ATOM     43  C   UNL     1      -8.792  -3.908  -1.392  1.00  0.00     0.185 C 
ATOM     44  N   UNL     1      -8.281  -3.188  -0.377  1.00  0.00    -0.370 N 
ATOM     45  N   UNL     1      -7.932  -4.857  -1.797  1.00  0.00    -0.370 N 
ATOM     46  H   UNL     1      -7.296  -3.214  -0.174  1.00  0.00     0.159 HD
ATOM     47  H   UNL     1      -8.805  -2.436   0.060  1.00  0.00     0.159 HD
ATOM     48  H   UNL     1      -8.243  -5.451  -2.554  1.00  0.00     0.159 HD
ATOM     49  H   UNL     1      -7.147  -5.152  -1.243  1.00  0.00     0.159 HD
ENDBRANCH  41  42
ENDBRANCH  40  41
ENDBRANCH  39  40
ENDBRANCH  38  39
ENDBRANCH  36  38
ENDBRANCH   5  34
BRANCH   8  50
ATOM     50  O   UNL     1     -11.045  -6.389   0.314  1.00  0.00    -0.245 OA
BRANCH  50  51
ATOM     51  S   UNL     1     -11.579  -7.172  -1.008  1.00  0.00     0.397 S 
ATOM     52  O   UNL     1     -12.892  -6.660  -1.330  1.00  0.00    -0.169 OA
ATOM     53  O   UNL     1     -11.331  -8.591  -0.865  1.00  0.00    -0.169 OA
BRANCH  51  54
ATOM     54  O   UNL     1     -10.597  -6.609  -2.151  1.00  0.00    -0.264 OA
ATOM     55  H   UNL     1     -10.400  -5.674  -1.940  1.00  0.00     0.236 HD
ENDBRANCH  51  54
ENDBRANCH  50  51
ENDBRANCH   8  50
TORSDOF 19
ENDMDL
MODEL 5
REMARK VINA RESULT:    -5.832      3.146      7.773
REMARK INTER + INTRA:         -16.247
REMARK INTER:                 -11.954
REMARK INTRA:                  -4.292
REMARK UNBOUND:                -4.447
REMARK SMILES CC[C@@H](C)[C@@H](NC(=O)[C@@H](O)Cc1ccc(O)c(Cl)c1)C(=O)N1[C@H](C(=O)NCCCCN=C(N)N)C[C@H]2CC[C@H](OS(=O)(=O)O)C[C@@H]21
REMARK SMILES IDX 22 1 36 2 46 3 35 4 23 5 45 6 37 7 39 8 38 9 20 10 21 11
REMARK SMILES IDX 5 12 6 13 7 14 8 15 9 17 11 18 12 19 17 20 19 21 15 22 14 23
REMARK SMILES IDX 13 24 18 25 16 26 10 28 3 30 4 31 2 32 1 33 24 34 25 35
REMARK SMILES IDX 26 36 27 38 28 39 29 40 30 41 31 42 32 43 33 44 34 45 40 50
REMARK SMILES IDX 41 51 42 52 43 53 44 54
REMARK H PARENT 6 16 16 27 10 29 26 37 33 46 33 47 34 48 34 49 44 55
ROOT
ATOM      1  N   UNL     1     -10.669  -4.692   2.585  1.00  0.00    -0.326 N 
ATOM      2  C   UNL     1     -10.969  -6.897   1.816  1.00  0.00     0.014 C 
ATOM      3  C   UNL     1     -10.027  -5.693   1.728  1.00  0.00     0.091 C 
ATOM      4  C   UNL     1     -12.338  -6.243   1.925  1.00  0.00     0.041 C 
ATOM      5  C   UNL     1     -12.033  -5.142   2.957  1.00  0.00     0.175 C 
ATOM      6  C   UNL     1      -8.616  -6.156   2.088  1.00  0.00     0.059 C 
ATOM      7  C   UNL     1     -10.701  -7.878   0.692  1.00  0.00     0.008 C 
ATOM      8  C   UNL     1      -8.321  -7.618   1.686  1.00  0.00     0.143 C 
ATOM      9  C   UNL     1      -9.183  -8.076   0.493  1.00  0.00     0.034 C 
ENDROOT
BRANCH   1  10
ATOM     10  C   UNL     1     -10.283  -3.395   2.877  1.00  0.00     0.246 C 
ATOM     11  O   UNL     1      -9.723  -3.162   3.953  1.00  0.00    -0.272 OA
BRANCH  10  12
ATOM     12  C   UNL     1     -10.524  -2.269   1.830  1.00  0.00     0.174 C 
BRANCH  12  13
ATOM     13  N   UNL     1     -11.274  -2.798   0.692  1.00  0.00    -0.342 N 
ATOM     14  C   UNL     1     -12.639  -2.710   0.535  1.00  0.00     0.249 C 
ATOM     15  O   UNL     1     -13.382  -2.147   1.329  1.00  0.00    -0.272 OA
ATOM     16  H   UNL     1     -10.817  -3.425   0.035  1.00  0.00     0.164 HD
BRANCH  14  17
ATOM     17  C   UNL     1     -13.134  -3.382  -0.764  1.00  0.00     0.207 C 
BRANCH  17  18
ATOM     18  C   UNL     1     -11.979  -3.543  -1.757  1.00  0.00     0.077 C 
BRANCH  18  19
ATOM     19  C   UNL     1     -11.757  -4.991  -2.131  1.00  0.00    -0.043 A 
ATOM     20  C   UNL     1     -10.277  -6.776  -2.844  1.00  0.00     0.083 A 
ATOM     21  C   UNL     1     -10.470  -5.451  -2.451  1.00  0.00     0.028 A 
ATOM     22  C   UNL     1     -11.364  -7.647  -2.920  1.00  0.00     0.134 A 
ATOM     23  C   UNL     1     -12.644  -7.205  -2.605  1.00  0.00     0.048 A 
ATOM     24  C   UNL     1     -12.841  -5.879  -2.214  1.00  0.00     0.008 A 
ATOM     25  Cl  UNL     1      -8.689  -7.322  -3.234  1.00  0.00    -0.080 Cl
BRANCH  22  26
ATOM     26  O   UNL     1     -11.226  -8.952  -3.310  1.00  0.00    -0.506 OA
ATOM     27  H   UNL     1     -12.108  -9.255  -3.592  1.00  0.00     0.293 HD
ENDBRANCH  22  26
ENDBRANCH  18  19
ENDBRANCH  17  18
BRANCH  17  28
ATOM     28  O   UNL     1     -14.185  -2.615  -1.375  1.00  0.00    -0.383 OA
ATOM     29  H   UNL     1     -14.224  -1.765  -0.879  1.00  0.00     0.211 HD
ENDBRANCH  17  28
ENDBRANCH  14  17
ENDBRANCH  12  13
BRANCH  12  30
ATOM     30  C   UNL     1      -9.212  -1.561   1.397  1.00  0.00     0.018 C 
ATOM     31  C   UNL     1      -8.126  -2.591   1.048  1.00  0.00     0.010 C 
BRANCH  30  32
ATOM     32  C   UNL     1      -8.674  -0.555   2.444  1.00  0.00     0.002 C 
ATOM     33  C   UNL     1      -7.298  -0.879   3.011  1.00  0.00     0.004 C 
ENDBRANCH  30  32
ENDBRANCH  12  30
ENDBRANCH  10  12
ENDBRANCH   1  10
BRANCH   5  34
ATOM     34  C   UNL     1     -12.053  -5.696   4.407  1.00  0.00     0.242 C 
ATOM     35  O   UNL     1     -13.083  -5.740   5.080  1.00  0.00    -0.273 OA
ATOM     36  N   UNL     1     -10.829  -6.083   4.903  1.00  0.00    -0.354 N 
ATOM     37  H   UNL     1      -9.994  -5.910   4.342  1.00  0.00     0.163 HD
BRANCH  36  38
ATOM     38  C   UNL     1     -10.694  -6.816   6.145  1.00  0.00     0.116 C 
BRANCH  38  39
ATOM     39  C   UNL     1      -9.250  -6.745   6.635  1.00  0.00     0.023 C 
BRANCH  39  40
ATOM     40  C   UNL     1      -8.730  -5.314   6.712  1.00  0.00     0.026 C 
BRANCH  40  41
ATOM     41  C   UNL     1      -9.375  -4.565   7.878  1.00  0.00     0.146 C 
BRANCH  41  42
ATOM     42  N   UNL     1      -9.971  -3.325   7.397  1.00  0.00    -0.254 NA
ATOM     43  C   UNL     1     -11.245  -3.210   7.352  1.00  0.00     0.185 C 
ATOM     44  N   UNL     1     -12.205  -4.088   7.693  1.00  0.00    -0.370 N 
ATOM     45  N   UNL     1     -11.774  -2.061   6.901  1.00  0.00    -0.370 N 
ATOM     46  H   UNL     1     -13.152  -3.960   7.379  1.00  0.00     0.159 HD
ATOM     47  H   UNL     1     -11.981  -5.005   8.067  1.00  0.00     0.159 HD
ATOM     48  H   UNL     1     -11.117  -1.341   6.630  1.00  0.00     0.159 HD
ATOM     49  H   UNL     1     -12.733  -1.806   7.055  1.00  0.00     0.159 HD
ENDBRANCH  41  42
ENDBRANCH  40  41
ENDBRANCH  39  40
ENDBRANCH  38  39
ENDBRANCH  36  38
ENDBRANCH   5  34
BRANCH   8  50
ATOM     50  O   UNL     1      -8.572  -8.490   2.789  1.00  0.00    -0.245 OA
BRANCH  50  51
ATOM     51  S   UNL     1      -7.804  -9.921   2.872  1.00  0.00     0.397 S 
ATOM     52  O   UNL     1      -6.498  -9.762   2.272  1.00  0.00    -0.169 OA
ATOM     53  O   UNL     1      -8.704 -10.980   2.464  1.00  0.00    -0.169 OA
BRANCH  51  54
ATOM     54  O   UNL     1      -7.545 -10.072   4.451  1.00  0.00    -0.264 OA
ATOM     55  H   UNL     1      -6.843 -10.743   4.576  1.00  0.00     0.236 HD
ENDBRANCH  51  54
ENDBRANCH  50  51
ENDBRANCH   8  50
TORSDOF 19
ENDMDL
MODEL 6
REMARK VINA RESULT:    -5.793      4.764      8.148
REMARK INTER + INTRA:         -16.167
REMARK INTER:                 -12.253
REMARK INTRA:                  -3.915
REMARK UNBOUND:                -4.447
REMARK SMILES CC[C@@H](C)[C@@H](NC(=O)[C@@H](O)Cc1ccc(O)c(Cl)c1)C(=O)N1[C@H](C(=O)NCCCCN=C(N)N)C[C@H]2CC[C@H](OS(=O)(=O)O)C[C@@H]21
REMARK SMILES IDX 22 1 36 2 46 3 35 4 23 5 45 6 37 7 39 8 38 9 20 10 21 11
REMARK SMILES IDX 5 12 6 13 7 14 8 15 9 17 11 18 12 19 17 20 19 21 15 22 14 23
REMARK SMILES IDX 13 24 18 25 16 26 10 28 3 30 4 31 2 32 1 33 24 34 25 35
REMARK SMILES IDX 26 36 27 38 28 39 29 40 30 41 31 42 32 43 33 44 34 45 40 50
REMARK SMILES IDX 41 51 42 52 43 53 44 54
REMARK H PARENT 6 16 16 27 10 29 26 37 33 46 33 47 34 48 34 49 44 55
ROOT
ATOM      1  N   UNL     1     -10.100  -4.186   7.735  1.00  0.00    -0.326 N 
ATOM      2  C   UNL     1     -11.435  -5.663   6.480  1.00  0.00     0.014 C 
ATOM      3  C   UNL     1     -11.368  -4.226   7.003  1.00  0.00     0.091 C 
ATOM      4  C   UNL     1     -10.772  -6.457   7.596  1.00  0.00     0.041 C 
ATOM      5  C   UNL     1      -9.555  -5.558   7.883  1.00  0.00     0.175 C 
ATOM      6  C   UNL     1     -11.554  -3.273   5.823  1.00  0.00     0.059 C 
ATOM      7  C   UNL     1     -12.845  -6.019   6.050  1.00  0.00     0.008 C 
ATOM      8  C   UNL     1     -12.468  -3.832   4.711  1.00  0.00     0.143 C 
ATOM      9  C   UNL     1     -13.481  -4.859   5.255  1.00  0.00     0.034 C 
ENDROOT
BRANCH   1  10
ATOM     10  C   UNL     1      -9.514  -3.148   8.440  1.00  0.00     0.246 C 
ATOM     11  O   UNL     1      -8.582  -2.522   7.924  1.00  0.00    -0.272 OA
BRANCH  10  12
ATOM     12  C   UNL     1     -10.066  -2.767   9.844  1.00  0.00     0.174 C 
BRANCH  12  13
ATOM     13  N   UNL     1     -11.159  -3.667  10.212  1.00  0.00    -0.342 N 
ATOM     14  C   UNL     1     -11.456  -4.066  11.496  1.00  0.00     0.249 C 
ATOM     15  O   UNL     1     -10.847  -3.683  12.487  1.00  0.00    -0.272 OA
ATOM     16  H   UNL     1     -11.649  -4.186   9.488  1.00  0.00     0.164 HD
BRANCH  14  17
ATOM     17  C   UNL     1     -12.657  -5.034  11.556  1.00  0.00     0.207 C 
BRANCH  17  18
ATOM     18  C   UNL     1     -13.037  -5.504  10.148  1.00  0.00     0.077 C 
BRANCH  18  19
ATOM     19  C   UNL     1     -13.550  -6.926  10.150  1.00  0.00    -0.043 A 
ATOM     20  C   UNL     1     -13.129  -9.314  10.226  1.00  0.00     0.083 A 
ATOM     21  C   UNL     1     -12.657  -8.001  10.274  1.00  0.00     0.028 A 
ATOM     22  C   UNL     1     -14.491  -9.560  10.051  1.00  0.00     0.134 A 
ATOM     23  C   UNL     1     -15.387  -8.504   9.927  1.00  0.00     0.048 A 
ATOM     24  C   UNL     1     -14.917  -7.190   9.973  1.00  0.00     0.008 A 
ATOM     25  Cl  UNL     1     -12.016 -10.622  10.380  1.00  0.00    -0.080 Cl
BRANCH  22  26
ATOM     26  O   UNL     1     -14.999 -10.829   9.987  1.00  0.00    -0.506 OA
ATOM     27  H   UNL     1     -15.946 -10.741   9.770  1.00  0.00     0.293 HD
ENDBRANCH  22  26
ENDBRANCH  18  19
ENDBRANCH  17  18
BRANCH  17  28
ATOM     28  O   UNL     1     -13.794  -4.410  12.173  1.00  0.00    -0.383 OA
ATOM     29  H   UNL     1     -14.533  -5.055  12.096  1.00  0.00     0.211 HD
ENDBRANCH  17  28
ENDBRANCH  14  17
ENDBRANCH  12  13
BRANCH  12  30
ATOM     30  C   UNL     1     -10.472  -1.272   9.943  1.00  0.00     0.018 C 
ATOM     31  C   UNL     1     -11.594  -0.943   8.946  1.00  0.00     0.010 C 
BRANCH  30  32
ATOM     32  C   UNL     1      -9.288  -0.292   9.753  1.00  0.00     0.002 C 
ATOM     33  C   UNL     1      -8.704   0.281  11.038  1.00  0.00     0.004 C 
ENDBRANCH  30  32
ENDBRANCH  12  30
ENDBRANCH  10  12
ENDBRANCH   1  10
BRANCH   5  34
ATOM     34  C   UNL     1      -8.408  -5.807   6.867  1.00  0.00     0.242 C 
ATOM     35  O   UNL     1      -8.377  -6.801   6.141  1.00  0.00    -0.273 OA
ATOM     36  N   UNL     1      -7.404  -4.866   6.875  1.00  0.00    -0.354 N 
ATOM     37  H   UNL     1      -7.426  -4.130   7.582  1.00  0.00     0.163 HD
BRANCH  36  38
ATOM     38  C   UNL     1      -6.376  -4.822   5.856  1.00  0.00     0.116 C 
BRANCH  38  39
ATOM     39  C   UNL     1      -5.514  -3.576   6.042  1.00  0.00     0.023 C 
BRANCH  39  40
ATOM     40  C   UNL     1      -5.617  -2.615   4.862  1.00  0.00     0.026 C 
BRANCH  40  41
ATOM     41  C   UNL     1      -6.490  -1.412   5.218  1.00  0.00     0.146 C 
BRANCH  41  42
ATOM     42  N   UNL     1      -7.499  -1.213   4.186  1.00  0.00    -0.254 NA
ATOM     43  C   UNL     1      -8.690  -0.885   4.520  1.00  0.00     0.185 C 
ATOM     44  N   UNL     1      -9.220  -0.673   5.738  1.00  0.00    -0.370 N 
ATOM     45  N   UNL     1      -9.607  -0.711   3.554  1.00  0.00    -0.370 N 
ATOM     46  H   UNL     1     -10.217  -0.662   5.869  1.00  0.00     0.159 HD
ATOM     47  H   UNL     1      -8.661  -0.749   6.583  1.00  0.00     0.159 HD
ATOM     48  H   UNL     1      -9.287  -0.843   2.604  1.00  0.00     0.159 HD
ATOM     49  H   UNL     1     -10.476  -0.232   3.708  1.00  0.00     0.159 HD
ENDBRANCH  41  42
ENDBRANCH  40  41
ENDBRANCH  39  40
ENDBRANCH  38  39
ENDBRANCH  36  38
ENDBRANCH   5  34
BRANCH   8  50
ATOM     50  O   UNL     1     -11.681  -4.463   3.700  1.00  0.00    -0.245 OA
BRANCH  50  51
ATOM     51  S   UNL     1     -11.429  -3.700   2.286  1.00  0.00     0.397 S 
ATOM     52  O   UNL     1     -12.006  -2.378   2.383  1.00  0.00    -0.169 OA
ATOM     53  O   UNL     1     -11.750  -4.590   1.190  1.00  0.00    -0.169 OA
BRANCH  51  54
ATOM     54  O   UNL     1      -9.836  -3.485   2.300  1.00  0.00    -0.264 OA
ATOM     55  H   UNL     1      -9.656  -2.610   2.701  1.00  0.00     0.236 HD
ENDBRANCH  51  54
ENDBRANCH  50  51
ENDBRANCH   8  50
TORSDOF 19
ENDMDL
MODEL 7
REMARK VINA RESULT:    -5.737      3.089      8.396
REMARK INTER + INTRA:         -16.054
REMARK INTER:                 -11.546
REMARK INTRA:                  -4.508
REMARK UNBOUND:                -4.447
REMARK SMILES CC[C@@H](C)[C@@H](NC(=O)[C@@H](O)Cc1ccc(O)c(Cl)c1)C(=O)N1[C@H](C(=O)NCCCCN=C(N)N)C[C@H]2CC[C@H](OS(=O)(=O)O)C[C@@H]21
REMARK SMILES IDX 22 1 36 2 46 3 35 4 23 5 45 6 37 7 39 8 38 9 20 10 21 11
REMARK SMILES IDX 5 12 6 13 7 14 8 15 9 17 11 18 12 19 17 20 19 21 15 22 14 23
REMARK SMILES IDX 13 24 18 25 16 26 10 28 3 30 4 31 2 32 1 33 24 34 25 35
REMARK SMILES IDX 26 36 27 38 28 39 29 40 30 41 31 42 32 43 33 44 34 45 40 50
REMARK SMILES IDX 41 51 42 52 43 53 44 54
REMARK H PARENT 6 16 16 27 10 29 26 37 33 46 33 47 34 48 34 49 44 55
ROOT
ATOM      1  N   UNL     1     -11.255  -4.591   1.224  1.00  0.00    -0.326 N 
ATOM      2  C   UNL     1      -9.327  -5.473   2.247  1.00  0.00     0.014 C 
ATOM      3  C   UNL     1      -9.795  -4.578   1.096  1.00  0.00     0.091 C 
ATOM      4  C   UNL     1     -10.425  -6.523   2.324  1.00  0.00     0.041 C 
ATOM      5  C   UNL     1     -11.669  -5.624   2.206  1.00  0.00     0.175 C 
ATOM      6  C   UNL     1      -9.070  -3.238   1.201  1.00  0.00     0.059 C 
ATOM      7  C   UNL     1      -7.890  -5.913   2.043  1.00  0.00     0.008 C 
ATOM      8  C   UNL     1      -7.649  -3.344   1.797  1.00  0.00     0.143 C 
ATOM      9  C   UNL     1      -7.023  -4.732   1.557  1.00  0.00     0.034 C 
ENDROOT
BRANCH   1  10
ATOM     10  C   UNL     1     -12.219  -3.974   0.447  1.00  0.00     0.246 C 
ATOM     11  O   UNL     1     -12.826  -2.999   0.903  1.00  0.00    -0.272 OA
BRANCH  10  12
ATOM     12  C   UNL     1     -12.488  -4.490  -0.997  1.00  0.00     0.174 C 
BRANCH  12  13
ATOM     13  N   UNL     1     -11.723  -5.713  -1.239  1.00  0.00    -0.342 N 
ATOM     14  C   UNL     1     -12.122  -6.746  -2.057  1.00  0.00     0.249 C 
ATOM     15  O   UNL     1     -13.163  -6.741  -2.703  1.00  0.00    -0.272 OA
ATOM     16  H   UNL     1     -10.918  -5.928  -0.655  1.00  0.00     0.164 HD
BRANCH  14  17
ATOM     17  C   UNL     1     -11.104  -7.906  -2.092  1.00  0.00     0.207 C 
BRANCH  17  18
ATOM     18  C   UNL     1      -9.673  -7.364  -2.028  1.00  0.00     0.077 C 
BRANCH  18  19
ATOM     19  C   UNL     1      -8.751  -8.300  -1.278  1.00  0.00    -0.043 A 
ATOM     20  C   UNL     1      -8.316  -9.752   0.616  1.00  0.00     0.083 A 
ATOM     21  C   UNL     1      -9.185  -8.928  -0.100  1.00  0.00     0.028 A 
ATOM     22  C   UNL     1      -7.011  -9.951   0.163  1.00  0.00     0.134 A 
ATOM     23  C   UNL     1      -6.568  -9.335  -1.002  1.00  0.00     0.048 A 
ATOM     24  C   UNL     1      -7.436  -8.509  -1.720  1.00  0.00     0.008 A 
ATOM     25  Cl  UNL     1      -8.867 -10.515   2.061  1.00  0.00    -0.080 Cl
BRANCH  22  26
ATOM     26  O   UNL     1      -6.119 -10.741   0.836  1.00  0.00    -0.506 OA
ATOM     27  H   UNL     1      -6.633 -11.244   1.496  1.00  0.00     0.293 HD
ENDBRANCH  22  26
ENDBRANCH  18  19
ENDBRANCH  17  18
BRANCH  17  28
ATOM     28  O   UNL     1     -11.262  -8.697  -3.281  1.00  0.00    -0.383 OA
ATOM     29  H   UNL     1     -10.768  -9.532  -3.119  1.00  0.00     0.211 HD
ENDBRANCH  17  28
ENDBRANCH  14  17
ENDBRANCH  12  13
BRANCH  12  30
ATOM     30  C   UNL     1     -12.232  -3.407  -2.079  1.00  0.00     0.018 C 
ATOM     31  C   UNL     1     -10.799  -2.862  -1.978  1.00  0.00     0.010 C 
BRANCH  30  32
ATOM     32  C   UNL     1     -13.249  -2.240  -2.043  1.00  0.00     0.002 C 
ATOM     33  C   UNL     1     -12.646  -0.858  -1.829  1.00  0.00     0.004 C 
ENDBRANCH  30  32
ENDBRANCH  12  30
ENDBRANCH  10  12
ENDBRANCH   1  10
BRANCH   5  34
ATOM     34  C   UNL     1     -12.036  -4.973   3.567  1.00  0.00     0.242 C 
ATOM     35  O   UNL     1     -11.716  -3.819   3.852  1.00  0.00    -0.273 OA
ATOM     36  N   UNL     1     -12.696  -5.797   4.450  1.00  0.00    -0.354 N 
ATOM     37  H   UNL     1     -12.827  -6.779   4.203  1.00  0.00     0.163 HD
BRANCH  36  38
ATOM     38  C   UNL     1     -13.300  -5.298   5.669  1.00  0.00     0.116 C 
BRANCH  38  39
ATOM     39  C   UNL     1     -12.402  -5.619   6.861  1.00  0.00     0.023 C 
BRANCH  39  40
ATOM     40  C   UNL     1     -12.384  -4.498   7.895  1.00  0.00     0.026 C 
BRANCH  40  41
ATOM     41  C   UNL     1     -11.972  -3.174   7.252  1.00  0.00     0.146 C 
BRANCH  41  42
ATOM     42  N   UNL     1     -10.661  -2.773   7.746  1.00  0.00    -0.254 NA
ATOM     43  C   UNL     1      -9.621  -2.990   7.032  1.00  0.00     0.185 C 
ATOM     44  N   UNL     1      -9.508  -3.562   5.819  1.00  0.00    -0.370 N 
ATOM     45  N   UNL     1      -8.422  -2.617   7.508  1.00  0.00    -0.370 N 
ATOM     46  H   UNL     1      -8.617  -3.889   5.487  1.00  0.00     0.159 HD
ATOM     47  H   UNL     1     -10.321  -3.892   5.308  1.00  0.00     0.159 HD
ATOM     48  H   UNL     1      -8.419  -2.169   8.414  1.00  0.00     0.159 HD
ATOM     49  H   UNL     1      -7.608  -2.534   6.926  1.00  0.00     0.159 HD
ENDBRANCH  41  42
ENDBRANCH  40  41
ENDBRANCH  39  40
ENDBRANCH  38  39
ENDBRANCH  36  38
ENDBRANCH   5  34
BRANCH   8  50
ATOM     50  O   UNL     1      -7.688  -3.100   3.203  1.00  0.00    -0.245 OA
BRANCH  50  51
ATOM     51  S   UNL     1      -7.577  -1.575   3.757  1.00  0.00     0.397 S 
ATOM     52  O   UNL     1      -8.912  -1.111   4.058  1.00  0.00    -0.169 OA
ATOM     53  O   UNL     1      -6.680  -0.815   2.911  1.00  0.00    -0.169 OA
BRANCH  51  54
ATOM     54  O   UNL     1      -6.856  -1.787   5.179  1.00  0.00    -0.264 OA
ATOM     55  H   UNL     1      -6.698  -2.746   5.294  1.00  0.00     0.236 HD
ENDBRANCH  51  54
ENDBRANCH  50  51
ENDBRANCH   8  50
TORSDOF 19
ENDMDL
MODEL 8
REMARK VINA RESULT:    -5.730      2.707      4.343
REMARK INTER + INTRA:         -16.040
REMARK INTER:                 -12.057
REMARK INTRA:                  -3.984
REMARK UNBOUND:                -4.447
REMARK SMILES CC[C@@H](C)[C@@H](NC(=O)[C@@H](O)Cc1ccc(O)c(Cl)c1)C(=O)N1[C@H](C(=O)NCCCCN=C(N)N)C[C@H]2CC[C@H](OS(=O)(=O)O)C[C@@H]21
REMARK SMILES IDX 22 1 36 2 46 3 35 4 23 5 45 6 37 7 39 8 38 9 20 10 21 11
REMARK SMILES IDX 5 12 6 13 7 14 8 15 9 17 11 18 12 19 17 20 19 21 15 22 14 23
REMARK SMILES IDX 13 24 18 25 16 26 10 28 3 30 4 31 2 32 1 33 24 34 25 35
REMARK SMILES IDX 26 36 27 38 28 39 29 40 30 41 31 42 32 43 33 44 34 45 40 50
REMARK SMILES IDX 41 51 42 52 43 53 44 54
REMARK H PARENT 6 16 16 27 10 29 26 37 33 46 33 47 34 48 34 49 44 55
ROOT
ATOM      1  N   UNL     1      -9.400  -7.077   3.047  1.00  0.00    -0.326 N 
ATOM      2  C   UNL     1      -9.492  -7.591   0.751  1.00  0.00     0.014 C 
ATOM      3  C   UNL     1     -10.359  -7.462   2.007  1.00  0.00     0.091 C 
ATOM      4  C   UNL     1      -8.179  -8.126   1.304  1.00  0.00     0.041 C 
ATOM      5  C   UNL     1      -8.014  -7.219   2.537  1.00  0.00     0.175 C 
ATOM      6  C   UNL     1     -11.515  -6.513   1.700  1.00  0.00     0.059 C 
ATOM      7  C   UNL     1     -10.216  -8.370  -0.330  1.00  0.00     0.008 C 
ATOM      8  C   UNL     1     -11.984  -6.559   0.230  1.00  0.00     0.143 C 
ATOM      9  C   UNL     1     -11.689  -7.922  -0.429  1.00  0.00     0.034 C 
ENDROOT
BRANCH   1  10
ATOM     10  C   UNL     1      -9.602  -6.837   4.395  1.00  0.00     0.246 C 
ATOM     11  O   UNL     1      -9.046  -7.564   5.225  1.00  0.00    -0.272 OA
BRANCH  10  12
ATOM     12  C   UNL     1     -10.487  -5.635   4.836  1.00  0.00     0.174 C 
BRANCH  12  13
ATOM     13  N   UNL     1      -9.655  -4.606   5.460  1.00  0.00    -0.342 N 
ATOM     14  C   UNL     1      -9.877  -3.250   5.372  1.00  0.00     0.249 C 
ATOM     15  O   UNL     1     -10.824  -2.752   4.776  1.00  0.00    -0.272 OA
ATOM     16  H   UNL     1      -8.752  -4.859   5.853  1.00  0.00     0.164 HD
BRANCH  14  17
ATOM     17  C   UNL     1      -8.813  -2.423   6.124  1.00  0.00     0.207 C 
BRANCH  17  18
ATOM     18  C   UNL     1      -9.454  -1.194   6.777  1.00  0.00     0.077 C 
BRANCH  18  19
ATOM     19  C   UNL     1     -10.118  -1.539   8.092  1.00  0.00    -0.043 A 
ATOM     20  C   UNL     1     -10.171  -2.828  10.146  1.00  0.00     0.083 A 
ATOM     21  C   UNL     1      -9.531  -2.475   8.957  1.00  0.00     0.028 A 
ATOM     22  C   UNL     1     -11.397  -2.251  10.477  1.00  0.00     0.134 A 
ATOM     23  C   UNL     1     -11.989  -1.322   9.629  1.00  0.00     0.048 A 
ATOM     24  C   UNL     1     -11.352  -0.968   8.438  1.00  0.00     0.008 A 
ATOM     25  Cl  UNL     1      -9.434  -3.981  11.196  1.00  0.00    -0.080 Cl
BRANCH  22  26
ATOM     26  O   UNL     1     -12.067  -2.573  11.626  1.00  0.00    -0.506 OA
ATOM     27  H   UNL     1     -12.843  -3.099  11.360  1.00  0.00     0.293 HD
ENDBRANCH  22  26
ENDBRANCH  18  19
ENDBRANCH  17  18
BRANCH  17  28
ATOM     28  O   UNL     1      -7.766  -1.998   5.237  1.00  0.00    -0.383 OA
ATOM     29  H   UNL     1      -7.466  -2.807   4.763  1.00  0.00     0.211 HD
ENDBRANCH  17  28
ENDBRANCH  14  17
ENDBRANCH  12  13
BRANCH  12  30
ATOM     30  C   UNL     1     -11.675  -6.064   5.739  1.00  0.00     0.018 C 
ATOM     31  C   UNL     1     -12.996  -5.475   5.220  1.00  0.00     0.010 C 
BRANCH  30  32
ATOM     32  C   UNL     1     -11.482  -5.705   7.233  1.00  0.00     0.002 C 
ATOM     33  C   UNL     1     -12.414  -4.626   7.768  1.00  0.00     0.004 C 
ENDBRANCH  30  32
ENDBRANCH  12  30
ENDBRANCH  10  12
ENDBRANCH   1  10
BRANCH   5  34
ATOM     34  C   UNL     1      -7.424  -5.835   2.155  1.00  0.00     0.242 C 
ATOM     35  O   UNL     1      -6.233  -5.680   1.883  1.00  0.00    -0.273 OA
ATOM     36  N   UNL     1      -8.316  -4.787   2.195  1.00  0.00    -0.354 N 
ATOM     37  H   UNL     1      -9.260  -4.958   2.543  1.00  0.00     0.163 HD
BRANCH  36  38
ATOM     38  C   UNL     1      -7.995  -3.478   1.665  1.00  0.00     0.116 C 
BRANCH  38  39
ATOM     39  C   UNL     1      -9.172  -2.529   1.879  1.00  0.00     0.023 C 
BRANCH  39  40
ATOM     40  C   UNL     1     -10.208  -2.626   0.765  1.00  0.00     0.026 C 
BRANCH  40  41
ATOM     41  C   UNL     1     -11.625  -2.544   1.333  1.00  0.00     0.146 C 
BRANCH  41  42
ATOM     42  N   UNL     1     -12.315  -1.391   0.770  1.00  0.00    -0.254 NA
ATOM     43  C   UNL     1     -13.325  -1.570   0.004  1.00  0.00     0.185 C 
ATOM     44  N   UNL     1     -13.908  -2.710  -0.407  1.00  0.00    -0.370 N 
ATOM     45  N   UNL     1     -13.944  -0.494  -0.508  1.00  0.00    -0.370 N 
ATOM     46  H   UNL     1     -14.533  -2.711  -1.195  1.00  0.00     0.159 HD
ATOM     47  H   UNL     1     -13.574  -3.619  -0.103  1.00  0.00     0.159 HD
ATOM     48  H   UNL     1     -13.572   0.408  -0.241  1.00  0.00     0.159 HD
ATOM     49  H   UNL     1     -14.863  -0.536  -0.912  1.00  0.00     0.159 HD
ENDBRANCH  41  42
ENDBRANCH  40  41
ENDBRANCH  39  40
ENDBRANCH  38  39
ENDBRANCH  36  38
ENDBRANCH   5  34
BRANCH   8  50
ATOM     50  O   UNL     1     -11.332  -5.539  -0.526  1.00  0.00    -0.245 OA
BRANCH  50  51
ATOM     51  S   UNL     1     -11.830  -5.219  -2.041  1.00  0.00     0.397 S 
ATOM     52  O   UNL     1     -13.268  -5.355  -2.076  1.00  0.00    -0.169 OA
ATOM     53  O   UNL     1     -10.978  -5.908  -2.988  1.00  0.00    -0.169 OA
BRANCH  51  54
ATOM     54  O   UNL     1     -11.536  -3.643  -2.164  1.00  0.00    -0.264 OA
ATOM     55  H   UNL     1     -10.680  -3.534  -2.627  1.00  0.00     0.236 HD
ENDBRANCH  51  54
ENDBRANCH  50  51
ENDBRANCH   8  50
TORSDOF 19
ENDMDL
MODEL 9
REMARK VINA RESULT:    -5.627     19.738     23.254
REMARK INTER + INTRA:         -15.831
REMARK INTER:                 -10.557
REMARK INTRA:                  -5.275
REMARK UNBOUND:                -4.447
REMARK SMILES CC[C@@H](C)[C@@H](NC(=O)[C@@H](O)Cc1ccc(O)c(Cl)c1)C(=O)N1[C@H](C(=O)NCCCCN=C(N)N)C[C@H]2CC[C@H](OS(=O)(=O)O)C[C@@H]21
REMARK SMILES IDX 22 1 36 2 46 3 35 4 23 5 45 6 37 7 39 8 38 9 20 10 21 11
REMARK SMILES IDX 5 12 6 13 7 14 8 15 9 17 11 18 12 19 17 20 19 21 15 22 14 23
REMARK SMILES IDX 13 24 18 25 16 26 10 28 3 30 4 31 2 32 1 33 24 34 25 35
REMARK SMILES IDX 26 36 27 38 28 39 29 40 30 41 31 42 32 43 33 44 34 45 40 50
REMARK SMILES IDX 41 51 42 52 43 53 44 54
REMARK H PARENT 6 16 16 27 10 29 26 37 33 46 33 47 34 48 34 49 44 55
ROOT
ATOM      1  N   UNL     1       8.050   4.604   6.747  1.00  0.00    -0.326 N 
ATOM      2  C   UNL     1       7.504   6.894   6.701  1.00  0.00     0.014 C 
ATOM      3  C   UNL     1       7.050   5.522   6.193  1.00  0.00     0.091 C 
ATOM      4  C   UNL     1       9.020   6.768   6.695  1.00  0.00     0.041 C 
ATOM      5  C   UNL     1       9.180   5.372   7.325  1.00  0.00     0.175 C 
ATOM      6  C   UNL     1       5.587   5.322   6.584  1.00  0.00     0.059 C 
ATOM      7  C   UNL     1       6.847   8.009   5.911  1.00  0.00     0.008 C 
ATOM      8  C   UNL     1       4.770   6.631   6.624  1.00  0.00     0.143 C 
ATOM      9  C   UNL     1       5.351   7.706   5.683  1.00  0.00     0.034 C 
ENDROOT
BRANCH   1  10
ATOM     10  C   UNL     1       8.168   3.232   6.608  1.00  0.00     0.246 C 
ATOM     11  O   UNL     1       7.443   2.494   7.285  1.00  0.00    -0.272 OA
BRANCH  10  12
ATOM     12  C   UNL     1       9.176   2.649   5.576  1.00  0.00     0.174 C 
BRANCH  12  13
ATOM     13  N   UNL     1      10.541   3.017   5.950  1.00  0.00    -0.342 N 
ATOM     14  C   UNL     1      11.498   2.140   6.410  1.00  0.00     0.249 C 
ATOM     15  O   UNL     1      11.317   0.935   6.533  1.00  0.00    -0.272 OA
ATOM     16  H   UNL     1      10.789   3.998   6.050  1.00  0.00     0.164 HD
BRANCH  14  17
ATOM     17  C   UNL     1      12.836   2.837   6.738  1.00  0.00     0.207 C 
BRANCH  17  18
ATOM     18  C   UNL     1      13.464   3.415   5.465  1.00  0.00     0.077 C 
BRANCH  18  19
ATOM     19  C   UNL     1      13.327   4.920   5.405  1.00  0.00    -0.043 A 
ATOM     20  C   UNL     1      12.853   7.034   6.496  1.00  0.00     0.083 A 
ATOM     21  C   UNL     1      13.027   5.651   6.565  1.00  0.00     0.028 A 
ATOM     22  C   UNL     1      12.974   7.693   5.272  1.00  0.00     0.134 A 
ATOM     23  C   UNL     1      13.270   6.981   4.116  1.00  0.00     0.048 A 
ATOM     24  C   UNL     1      13.444   5.597   4.181  1.00  0.00     0.008 A 
ATOM     25  Cl  UNL     1      12.485   7.915   7.932  1.00  0.00    -0.080 Cl
BRANCH  22  26
ATOM     26  O   UNL     1      12.801   9.045   5.153  1.00  0.00    -0.506 OA
ATOM     27  H   UNL     1      13.021   9.433   6.021  1.00  0.00     0.293 HD
ENDBRANCH  22  26
ENDBRANCH  18  19
ENDBRANCH  17  18
BRANCH  17  28
ATOM     28  O   UNL     1      13.758   1.923   7.352  1.00  0.00    -0.383 OA
ATOM     29  H   UNL     1      13.230   1.132   7.605  1.00  0.00     0.211 HD
ENDBRANCH  17  28
ENDBRANCH  14  17
ENDBRANCH  12  13
BRANCH  12  30
ATOM     30  C   UNL     1       8.835   3.045   4.115  1.00  0.00     0.018 C 
ATOM     31  C   UNL     1       8.587   1.797   3.253  1.00  0.00     0.010 C 
BRANCH  30  32
ATOM     32  C   UNL     1       9.903   3.947   3.450  1.00  0.00     0.002 C 
ATOM     33  C   UNL     1       9.533   5.420   3.335  1.00  0.00     0.004 C 
ENDBRANCH  30  32
ENDBRANCH  12  30
ENDBRANCH  10  12
ENDBRANCH   1  10
BRANCH   5  34
ATOM     34  C   UNL     1       9.074   5.427   8.872  1.00  0.00     0.242 C 
ATOM     35  O   UNL     1       8.090   5.006   9.480  1.00  0.00    -0.273 OA
ATOM     36  N   UNL     1      10.135   6.029   9.511  1.00  0.00    -0.354 N 
ATOM     37  H   UNL     1      10.865   6.466   8.947  1.00  0.00     0.163 HD
BRANCH  36  38
ATOM     38  C   UNL     1      10.304   5.975  10.948  1.00  0.00     0.116 C 
BRANCH  38  39
ATOM     39  C   UNL     1      10.742   7.341  11.471  1.00  0.00     0.023 C 
BRANCH  39  40
ATOM     40  C   UNL     1      10.092   8.492  10.709  1.00  0.00     0.026 C 
BRANCH  40  41
ATOM     41  C   UNL     1       8.893   9.044  11.480  1.00  0.00     0.146 C 
BRANCH  41  42
ATOM     42  N   UNL     1       7.905   7.991  11.674  1.00  0.00    -0.254 NA
ATOM     43  C   UNL     1       6.931   7.877  10.851  1.00  0.00     0.185 C 
ATOM     44  N   UNL     1       6.632   8.604   9.759  1.00  0.00    -0.370 N 
ATOM     45  N   UNL     1       6.029   6.902  11.050  1.00  0.00    -0.370 N 
ATOM     46  H   UNL     1       5.714   8.561   9.351  1.00  0.00     0.159 HD
ATOM     47  H   UNL     1       7.218   9.375   9.455  1.00  0.00     0.159 HD
ATOM     48  H   UNL     1       6.186   6.302  11.848  1.00  0.00     0.159 HD
ATOM     49  H   UNL     1       5.388   6.601  10.338  1.00  0.00     0.159 HD
ENDBRANCH  41  42
ENDBRANCH  40  41
ENDBRANCH  39  40
ENDBRANCH  38  39
ENDBRANCH  36  38
ENDBRANCH   5  34
BRANCH   8  50
ATOM     50  O   UNL     1       4.748   7.155   7.952  1.00  0.00    -0.245 OA
BRANCH  50  51
ATOM     51  S   UNL     1       3.334   7.268   8.748  1.00  0.00     0.397 S 
ATOM     52  O   UNL     1       3.530   8.141   9.884  1.00  0.00    -0.169 OA
ATOM     53  O   UNL     1       2.753   5.950   8.895  1.00  0.00    -0.169 OA
BRANCH  51  54
ATOM     54  O   UNL     1       2.429   8.097   7.709  1.00  0.00    -0.264 OA
ATOM     55  H   UNL     1       2.384   7.583   6.877  1.00  0.00     0.236 HD
ENDBRANCH  51  54
ENDBRANCH  50  51
ENDBRANCH   8  50
TORSDOF 19
ENDMDL
MODEL 10
REMARK VINA RESULT:    -5.569      4.100      6.060
REMARK INTER + INTRA:         -15.714
REMARK INTER:                 -12.424
REMARK INTRA:                  -3.290
REMARK UNBOUND:                -4.447
REMARK SMILES CC[C@@H](C)[C@@H](NC(=O)[C@@H](O)Cc1ccc(O)c(Cl)c1)C(=O)N1[C@H](C(=O)NCCCCN=C(N)N)C[C@H]2CC[C@H](OS(=O)(=O)O)C[C@@H]21
REMARK SMILES IDX 22 1 36 2 46 3 35 4 23 5 45 6 37 7 39 8 38 9 20 10 21 11
REMARK SMILES IDX 5 12 6 13 7 14 8 15 9 17 11 18 12 19 17 20 19 21 15 22 14 23
REMARK SMILES IDX 13 24 18 25 16 26 10 28 3 30 4 31 2 32 1 33 24 34 25 35
REMARK SMILES IDX 26 36 27 38 28 39 29 40 30 41 31 42 32 43 33 44 34 45 40 50
REMARK SMILES IDX 41 51 42 52 43 53 44 54
REMARK H PARENT 6 16 16 27 10 29 26 37 33 46 33 47 34 48 34 49 44 55
ROOT
ATOM      1  N   UNL     1      -9.775  -4.793   6.940  1.00  0.00    -0.326 N 
ATOM      2  C   UNL     1     -10.212  -5.744   4.831  1.00  0.00     0.014 C 
ATOM      3  C   UNL     1     -10.833  -4.875   5.929  1.00  0.00     0.091 C 
ATOM      4  C   UNL     1      -9.354  -6.720   5.622  1.00  0.00     0.041 C 
ATOM      5  C   UNL     1      -8.690  -5.753   6.619  1.00  0.00     0.175 C 
ATOM      6  C   UNL     1     -11.331  -3.578   5.294  1.00  0.00     0.059 C 
ATOM      7  C   UNL     1     -11.277  -6.280   3.896  1.00  0.00     0.008 C 
ATOM      8  C   UNL     1     -11.811  -3.744   3.836  1.00  0.00     0.143 C 
ATOM      9  C   UNL     1     -12.299  -5.178   3.547  1.00  0.00     0.034 C 
ENDROOT
BRANCH   1  10
ATOM     10  C   UNL     1      -9.769  -4.153   8.168  1.00  0.00     0.246 C 
ATOM     11  O   UNL     1      -8.849  -4.381   8.960  1.00  0.00    -0.272 OA
BRANCH  10  12
ATOM     12  C   UNL     1     -10.894  -3.132   8.506  1.00  0.00     0.174 C 
BRANCH  12  13
ATOM     13  N   UNL     1     -10.344  -2.023   9.285  1.00  0.00    -0.342 N 
ATOM     14  C   UNL     1      -9.904  -0.829   8.758  1.00  0.00     0.249 C 
ATOM     15  O   UNL     1      -9.952  -0.551   7.567  1.00  0.00    -0.272 OA
ATOM     16  H   UNL     1     -10.097  -2.167  10.261  1.00  0.00     0.164 HD
BRANCH  14  17
ATOM     17  C   UNL     1      -9.361   0.133   9.836  1.00  0.00     0.207 C 
BRANCH  17  18
ATOM     18  C   UNL     1      -8.477  -0.623  10.833  1.00  0.00     0.077 C 
BRANCH  18  19
ATOM     19  C   UNL     1      -7.067  -0.079  10.859  1.00  0.00    -0.043 A 
ATOM     20  C   UNL     1      -4.720  -0.294  10.284  1.00  0.00     0.083 A 
ATOM     21  C   UNL     1      -6.029  -0.773  10.217  1.00  0.00     0.028 A 
ATOM     22  C   UNL     1      -4.439   0.876  10.992  1.00  0.00     0.134 A 
ATOM     23  C   UNL     1      -5.458   1.572  11.632  1.00  0.00     0.048 A 
ATOM     24  C   UNL     1      -6.769   1.094  11.568  1.00  0.00     0.008 A 
ATOM     25  Cl  UNL     1      -3.458  -1.159   9.489  1.00  0.00    -0.080 Cl
BRANCH  22  26
ATOM     26  O   UNL     1      -3.170   1.378  11.095  1.00  0.00    -0.506 OA
ATOM     27  H   UNL     1      -3.093   1.763  11.987  1.00  0.00     0.293 HD
ENDBRANCH  22  26
ENDBRANCH  18  19
ENDBRANCH  17  18
BRANCH  17  28
ATOM     28  O   UNL     1     -10.434   0.776  10.543  1.00  0.00    -0.383 OA
ATOM     29  H   UNL     1     -10.947   0.055  10.974  1.00  0.00     0.211 HD
ENDBRANCH  17  28
ENDBRANCH  14  17
ENDBRANCH  12  13
BRANCH  12  30
ATOM     30  C   UNL     1     -12.116  -3.793   9.199  1.00  0.00     0.018 C 
ATOM     31  C   UNL     1     -12.358  -3.177  10.586  1.00  0.00     0.010 C 
BRANCH  30  32
ATOM     32  C   UNL     1     -12.007  -5.333   9.314  1.00  0.00     0.002 C 
ATOM     33  C   UNL     1     -13.187  -6.021   9.987  1.00  0.00     0.004 C 
ENDBRANCH  30  32
ENDBRANCH  12  30
ENDBRANCH  10  12
ENDBRANCH   1  10
BRANCH   5  34
ATOM     34  C   UNL     1      -7.478  -5.020   5.985  1.00  0.00     0.242 C 
ATOM     35  O   UNL     1      -6.798  -5.525   5.092  1.00  0.00    -0.273 OA
ATOM     36  N   UNL     1      -7.185  -3.791   6.531  1.00  0.00    -0.354 N 
ATOM     37  H   UNL     1      -7.710  -3.479   7.350  1.00  0.00     0.163 HD
BRANCH  36  38
ATOM     38  C   UNL     1      -6.233  -2.883   5.926  1.00  0.00     0.116 C 
BRANCH  38  39
ATOM     39  C   UNL     1      -6.840  -1.485   5.827  1.00  0.00     0.023 C 
BRANCH  39  40
ATOM     40  C   UNL     1      -8.034  -1.434   4.880  1.00  0.00     0.026 C 
BRANCH  40  41
ATOM     41  C   UNL     1      -7.636  -1.905   3.481  1.00  0.00     0.146 C 
BRANCH  41  42
ATOM     42  N   UNL     1      -6.745  -0.929   2.868  1.00  0.00    -0.254 NA
ATOM     43  C   UNL     1      -7.197  -0.132   1.974  1.00  0.00     0.185 C 
ATOM     44  N   UNL     1      -8.435  -0.022   1.459  1.00  0.00    -0.370 N 
ATOM     45  N   UNL     1      -6.358   0.757   1.418  1.00  0.00    -0.370 N 
ATOM     46  H   UNL     1      -8.590   0.474   0.598  1.00  0.00     0.159 HD
ATOM     47  H   UNL     1      -9.199  -0.611   1.777  1.00  0.00     0.159 HD
ATOM     48  H   UNL     1      -5.405   0.747   1.756  1.00  0.00     0.159 HD
ATOM     49  H   UNL     1      -6.677   1.556   0.898  1.00  0.00     0.159 HD
ENDBRANCH  41  42
ENDBRANCH  40  41
ENDBRANCH  39  40
ENDBRANCH  38  39
ENDBRANCH  36  38
ENDBRANCH   5  34
BRANCH   8  50
ATOM     50  O   UNL     1     -10.750  -3.436   2.932  1.00  0.00    -0.245 OA
BRANCH  50  51
ATOM     51  S   UNL     1     -11.039  -2.472   1.654  1.00  0.00     0.397 S 
ATOM     52  O   UNL     1     -10.949  -1.100   2.100  1.00  0.00    -0.169 OA
ATOM     53  O   UNL     1     -12.192  -2.961   0.927  1.00  0.00    -0.169 OA
BRANCH  51  54
ATOM     54  O   UNL     1      -9.737  -2.722   0.744  1.00  0.00    -0.264 OA
ATOM     55  H   UNL     1      -8.983  -2.264   1.169  1.00  0.00     0.236 HD
ENDBRANCH  51  54
ENDBRANCH  50  51
ENDBRANCH   8  50
TORSDOF 19
ENDMDL
