MODEL 1
REMARK VINA RESULT:    -6.636      0.000      0.000
REMARK INTER + INTRA:         -17.377
REMARK INTER:                 -13.426
REMARK INTRA:                  -3.952
REMARK UNBOUND:                -3.952
REMARK SMILES CC[C@@H](C)[C@@H](NC(=O)[C@@H](O)Cc1ccc(O)c(Cl)c1)C(=O)N1[C@H](C(=O)NCCCCN=C(N)N)C[C@H]2CC[C@H](OS(=O)(=O)O)C[C@@H]21
REMARK SMILES IDX 22 1 36 2 46 3 35 4 23 5 45 6 37 7 39 8 38 9 20 10 21 11
REMARK SMILES IDX 5 12 6 13 7 14 8 15 9 17 11 18 12 19 17 20 19 21 15 22 14 23
REMARK SMILES IDX 13 24 18 25 16 26 10 28 3 30 4 31 2 32 1 33 24 34 25 35
REMARK SMILES IDX 26 36 27 38 28 39 29 40 30 41 31 42 32 43 33 44 34 45 40 50
REMARK SMILES IDX 41 51 42 52 43 53 44 54
REMARK H PARENT 6 16 16 27 10 29 26 37 33 46 33 47 34 48 34 49 44 55
ROOT
ATOM      1  N   UNL     1       3.780   8.360   5.741  1.00  0.00    -0.326 N 
ATOM      2  C   UNL     1       4.320   6.652   7.269  1.00  0.00     0.014 C 
ATOM      3  C   UNL     1       3.246   7.103   6.275  1.00  0.00     0.091 C 
ATOM      4  C   UNL     1       4.829   7.970   7.833  1.00  0.00     0.041 C 
ATOM      5  C   UNL     1       4.957   8.790   6.536  1.00  0.00     0.175 C 
ATOM      6  C   UNL     1       2.980   5.957   5.300  1.00  0.00     0.059 C 
ATOM      7  C   UNL     1       3.776   5.600   8.215  1.00  0.00     0.008 C 
ATOM      8  C   UNL     1       3.161   4.556   5.923  1.00  0.00     0.143 C 
ATOM      9  C   UNL     1       2.926   4.565   7.447  1.00  0.00     0.034 C 
ENDROOT
BRANCH   1  10
ATOM     10  C   UNL     1       3.235   9.233   4.815  1.00  0.00     0.246 C 
ATOM     11  O   UNL     1       3.349   8.981   3.611  1.00  0.00    -0.272 OA
BRANCH  10  12
ATOM     12  C   UNL     1       2.456  10.486   5.309  1.00  0.00     0.174 C 
BRANCH  12  13
ATOM     13  N   UNL     1       1.970  10.267   6.671  1.00  0.00    -0.342 N 
ATOM     14  C   UNL     1       2.306  11.035   7.763  1.00  0.00     0.249 C 
ATOM     15  O   UNL     1       3.038  12.016   7.708  1.00  0.00    -0.272 OA
ATOM     16  H   UNL     1       1.483   9.404   6.899  1.00  0.00     0.164 HD
BRANCH  14  17
ATOM     17  C   UNL     1       1.644  10.539   9.066  1.00  0.00     0.207 C 
BRANCH  17  18
ATOM     18  C   UNL     1       0.118  10.615   8.954  1.00  0.00     0.077 C 
BRANCH  18  19
ATOM     19  C   UNL     1      -0.526   9.256   9.121  1.00  0.00    -0.043 A 
ATOM     20  C   UNL     1      -1.822   7.418   8.213  1.00  0.00     0.083 A 
ATOM     21  C   UNL     1      -1.186   8.648   8.042  1.00  0.00     0.028 A 
ATOM     22  C   UNL     1      -1.803   6.790   9.459  1.00  0.00     0.134 A 
ATOM     23  C   UNL     1      -1.153   7.381  10.536  1.00  0.00     0.048 A 
ATOM     24  C   UNL     1      -0.518   8.613  10.368  1.00  0.00     0.008 A 
ATOM     25  Cl  UNL     1      -2.628   6.686   6.876  1.00  0.00    -0.080 Cl
BRANCH  22  26
ATOM     26  O   UNL     1      -2.421   5.588   9.677  1.00  0.00    -0.506 OA
ATOM     27  H   UNL     1      -2.701   5.583  10.611  1.00  0.00     0.293 HD
ENDBRANCH  22  26
ENDBRANCH  18  19
ENDBRANCH  17  18
BRANCH  17  28
ATOM     28  O   UNL     1       2.078  11.315  10.195  1.00  0.00    -0.383 OA
ATOM     29  H   UNL     1       1.285  11.432  10.766  1.00  0.00     0.211 HD
ENDBRANCH  17  28
ENDBRANCH  14  17
ENDBRANCH  12  13
BRANCH  12  30
ATOM     30  C   UNL     1       1.323  10.910   4.336  1.00  0.00     0.018 C 
ATOM     31  C   UNL     1       1.430  12.403   3.990  1.00  0.00     0.010 C 
BRANCH  30  32
ATOM     32  C   UNL     1      -0.098  10.586   4.859  1.00  0.00     0.002 C 
ATOM     33  C   UNL     1      -0.689   9.271   4.366  1.00  0.00     0.004 C 
ENDBRANCH  30  32
ENDBRANCH  12  30
ENDBRANCH  10  12
ENDBRANCH   1  10
BRANCH   5  34
ATOM     34  C   UNL     1       6.276   8.469   5.783  1.00  0.00     0.242 C 
ATOM     35  O   UNL     1       7.208   7.868   6.317  1.00  0.00    -0.273 OA
ATOM     36  N   UNL     1       6.348   8.951   4.496  1.00  0.00    -0.354 N 
ATOM     37  H   UNL     1       5.592   9.544   4.150  1.00  0.00     0.163 HD
BRANCH  36  38
ATOM     38  C   UNL     1       7.403   8.564   3.583  1.00  0.00     0.116 C 
BRANCH  38  39
ATOM     39  C   UNL     1       6.798   7.984   2.306  1.00  0.00     0.023 C 
BRANCH  39  40
ATOM     40  C   UNL     1       5.764   6.901   2.591  1.00  0.00     0.026 C 
BRANCH  40  41
ATOM     41  C   UNL     1       5.378   6.169   1.306  1.00  0.00     0.146 C 
BRANCH  41  42
ATOM     42  N   UNL     1       5.186   4.752   1.586  1.00  0.00    -0.254 NA
ATOM     43  C   UNL     1       6.145   3.930   1.378  1.00  0.00     0.185 C 
ATOM     44  N   UNL     1       7.390   4.151   0.916  1.00  0.00    -0.370 N 
ATOM     45  N   UNL     1       5.947   2.627   1.638  1.00  0.00    -0.370 N 
ATOM     46  H   UNL     1       7.952   3.391   0.573  1.00  0.00     0.159 HD
ATOM     47  H   UNL     1       7.713   5.085   0.682  1.00  0.00     0.159 HD
ATOM     48  H   UNL     1       5.036   2.375   1.999  1.00  0.00     0.159 HD
ATOM     49  H   UNL     1       6.701   1.970   1.729  1.00  0.00     0.159 HD
ENDBRANCH  41  42
ENDBRANCH  40  41
ENDBRANCH  39  40
ENDBRANCH  38  39
ENDBRANCH  36  38
ENDBRANCH   5  34
BRANCH   8  50
ATOM     50  O   UNL     1       4.481   4.074   5.670  1.00  0.00    -0.245 OA
BRANCH  50  51
ATOM     51  S   UNL     1       4.690   2.561   5.111  1.00  0.00     0.397 S 
ATOM     52  O   UNL     1       4.045   2.470   3.820  1.00  0.00    -0.169 OA
ATOM     53  O   UNL     1       4.414   1.610   6.167  1.00  0.00    -0.169 OA
BRANCH  51  54
ATOM     54  O   UNL     1       6.270   2.529   4.814  1.00  0.00    -0.264 OA
ATOM     55  H   UNL     1       6.530   1.594   4.685  1.00  0.00     0.236 HD
ENDBRANCH  51  54
ENDBRANCH  50  51
ENDBRANCH   8  50
TORSDOF 19
ENDMDL
MODEL 2
REMARK VINA RESULT:    -6.370     14.535     17.135
REMARK INTER + INTRA:         -16.839
REMARK INTER:                 -14.163
REMARK INTRA:                  -2.676
REMARK UNBOUND:                -3.952
REMARK SMILES CC[C@@H](C)[C@@H](NC(=O)[C@@H](O)Cc1ccc(O)c(Cl)c1)C(=O)N1[C@H](C(=O)NCCCCN=C(N)N)C[C@H]2CC[C@H](OS(=O)(=O)O)C[C@@H]21
REMARK SMILES IDX 22 1 36 2 46 3 35 4 23 5 45 6 37 7 39 8 38 9 20 10 21 11
REMARK SMILES IDX 5 12 6 13 7 14 8 15 9 17 11 18 12 19 17 20 19 21 15 22 14 23
REMARK SMILES IDX 13 24 18 25 16 26 10 28 3 30 4 31 2 32 1 33 24 34 25 35
REMARK SMILES IDX 26 36 27 38 28 39 29 40 30 41 31 42 32 43 33 44 34 45 40 50
REMARK SMILES IDX 41 51 42 52 43 53 44 54
REMARK H PARENT 6 16 16 27 10 29 26 37 33 46 33 47 34 48 34 49 44 55
ROOT
ATOM      1  N   UNL     1     -11.178  11.635   1.406  1.00  0.00    -0.326 N 
ATOM      2  C   UNL     1      -9.957   9.779   0.629  1.00  0.00     0.014 C 
ATOM      3  C   UNL     1     -11.373  10.248   0.975  1.00  0.00     0.091 C 
ATOM      4  C   UNL     1      -9.102  10.514   1.649  1.00  0.00     0.041 C 
ATOM      5  C   UNL     1      -9.731  11.917   1.572  1.00  0.00     0.175 C 
ATOM      6  C   UNL     1     -12.277   9.983  -0.228  1.00  0.00     0.059 C 
ATOM      7  C   UNL     1      -9.889   8.266   0.555  1.00  0.00     0.008 C 
ATOM      8  C   UNL     1     -11.868   8.743  -1.052  1.00  0.00     0.143 C 
ATOM      9  C   UNL     1     -11.114   7.703  -0.198  1.00  0.00     0.034 C 
ENDROOT
BRANCH   1  10
ATOM     10  C   UNL     1     -12.102  12.562   1.857  1.00  0.00     0.246 C 
ATOM     11  O   UNL     1     -12.599  13.356   1.051  1.00  0.00    -0.272 OA
BRANCH  10  12
ATOM     12  C   UNL     1     -12.526  12.557   3.354  1.00  0.00     0.174 C 
BRANCH  12  13
ATOM     13  N   UNL     1     -13.647  13.475   3.559  1.00  0.00    -0.342 N 
ATOM     14  C   UNL     1     -14.817  13.160   4.212  1.00  0.00     0.249 C 
ATOM     15  O   UNL     1     -15.040  12.071   4.725  1.00  0.00    -0.272 OA
ATOM     16  H   UNL     1     -13.671  14.359   3.057  1.00  0.00     0.164 HD
BRANCH  14  17
ATOM     17  C   UNL     1     -15.814  14.338   4.248  1.00  0.00     0.207 C 
BRANCH  17  18
ATOM     18  C   UNL     1     -17.249  13.820   4.388  1.00  0.00     0.077 C 
BRANCH  18  19
ATOM     19  C   UNL     1     -17.854  14.195   5.722  1.00  0.00    -0.043 A 
ATOM     20  C   UNL     1     -19.124  13.592   7.699  1.00  0.00     0.083 A 
ATOM     21  C   UNL     1     -18.524  13.231   6.492  1.00  0.00     0.028 A 
ATOM     22  C   UNL     1     -19.060  14.913   8.144  1.00  0.00     0.134 A 
ATOM     23  C   UNL     1     -18.400  15.877   7.391  1.00  0.00     0.048 A 
ATOM     24  C   UNL     1     -17.800  15.520   6.182  1.00  0.00     0.008 A 
ATOM     25  Cl  UNL     1     -19.942  12.393   8.631  1.00  0.00    -0.080 Cl
BRANCH  22  26
ATOM     26  O   UNL     1     -19.642  15.316   9.315  1.00  0.00    -0.506 OA
ATOM     27  H   UNL     1     -18.925  15.657   9.881  1.00  0.00     0.293 HD
ENDBRANCH  22  26
ENDBRANCH  18  19
ENDBRANCH  17  18
BRANCH  17  28
ATOM     28  O   UNL     1     -15.710  15.140   3.061  1.00  0.00    -0.383 OA
ATOM     29  H   UNL     1     -14.942  14.785   2.559  1.00  0.00     0.211 HD
ENDBRANCH  17  28
ENDBRANCH  14  17
ENDBRANCH  12  13
BRANCH  12  30
ATOM     30  C   UNL     1     -11.341  12.846   4.314  1.00  0.00     0.018 C 
ATOM     31  C   UNL     1     -11.586  12.211   5.692  1.00  0.00     0.010 C 
BRANCH  30  32
ATOM     32  C   UNL     1     -11.022  14.353   4.472  1.00  0.00     0.002 C 
ATOM     33  C   UNL     1     -11.668  15.033   5.673  1.00  0.00     0.004 C 
ENDBRANCH  30  32
ENDBRANCH  12  30
ENDBRANCH  10  12
ENDBRANCH   1  10
BRANCH   5  34
ATOM     34  C   UNL     1      -9.186  12.723   0.362  1.00  0.00     0.242 C 
ATOM     35  O   UNL     1      -7.982  12.818   0.124  1.00  0.00    -0.273 OA
ATOM     36  N   UNL     1     -10.142  13.365  -0.393  1.00  0.00    -0.354 N 
ATOM     37  H   UNL     1     -11.112  13.347  -0.076  1.00  0.00     0.163 HD
BRANCH  36  38
ATOM     38  C   UNL     1      -9.837  13.977  -1.669  1.00  0.00     0.116 C 
BRANCH  38  39
ATOM     39  C   UNL     1      -9.931  12.934  -2.780  1.00  0.00     0.023 C 
BRANCH  39  40
ATOM     40  C   UNL     1      -8.632  12.802  -3.568  1.00  0.00     0.026 C 
BRANCH  40  41
ATOM     41  C   UNL     1      -8.370  11.342  -3.940  1.00  0.00     0.146 C 
BRANCH  41  42
ATOM     42  N   UNL     1      -7.349  11.275  -4.978  1.00  0.00    -0.254 NA
ATOM     43  C   UNL     1      -7.190  10.191  -5.639  1.00  0.00     0.185 C 
ATOM     44  N   UNL     1      -7.841   9.016  -5.546  1.00  0.00    -0.370 N 
ATOM     45  N   UNL     1      -6.241  10.147  -6.589  1.00  0.00    -0.370 N 
ATOM     46  H   UNL     1      -7.453   8.182  -5.952  1.00  0.00     0.159 HD
ATOM     47  H   UNL     1      -8.600   8.879  -4.887  1.00  0.00     0.159 HD
ATOM     48  H   UNL     1      -5.709  10.995  -6.730  1.00  0.00     0.159 HD
ATOM     49  H   UNL     1      -6.212   9.436  -7.297  1.00  0.00     0.159 HD
ENDBRANCH  41  42
ENDBRANCH  40  41
ENDBRANCH  39  40
ENDBRANCH  38  39
ENDBRANCH  36  38
ENDBRANCH   5  34
BRANCH   8  50
ATOM     50  O   UNL     1     -11.028   9.131  -2.139  1.00  0.00    -0.245 OA
BRANCH  50  51
ATOM     51  S   UNL     1     -11.137   8.345  -3.559  1.00  0.00     0.397 S 
ATOM     52  O   UNL     1     -11.026   9.321  -4.619  1.00  0.00    -0.169 OA
ATOM     53  O   UNL     1     -12.233   7.400  -3.508  1.00  0.00    -0.169 OA
BRANCH  51  54
ATOM     54  O   UNL     1      -9.763   7.510  -3.586  1.00  0.00    -0.264 OA
ATOM     55  H   UNL     1      -9.080   8.045  -3.133  1.00  0.00     0.236 HD
ENDBRANCH  51  54
ENDBRANCH  50  51
ENDBRANCH   8  50
TORSDOF 19
ENDMDL
MODEL 3
REMARK VINA RESULT:    -6.166      1.865      2.276
REMARK INTER + INTRA:         -16.425
REMARK INTER:                 -12.262
REMARK INTRA:                  -4.163
REMARK UNBOUND:                -3.952
REMARK SMILES CC[C@@H](C)[C@@H](NC(=O)[C@@H](O)Cc1ccc(O)c(Cl)c1)C(=O)N1[C@H](C(=O)NCCCCN=C(N)N)C[C@H]2CC[C@H](OS(=O)(=O)O)C[C@@H]21
REMARK SMILES IDX 22 1 36 2 46 3 35 4 23 5 45 6 37 7 39 8 38 9 20 10 21 11
REMARK SMILES IDX 5 12 6 13 7 14 8 15 9 17 11 18 12 19 17 20 19 21 15 22 14 23
REMARK SMILES IDX 13 24 18 25 16 26 10 28 3 30 4 31 2 32 1 33 24 34 25 35
REMARK SMILES IDX 26 36 27 38 28 39 29 40 30 41 31 42 32 43 33 44 34 45 40 50
REMARK SMILES IDX 41 51 42 52 43 53 44 54
REMARK H PARENT 6 16 16 27 10 29 26 37 33 46 33 47 34 48 34 49 44 55
ROOT
ATOM      1  N   UNL     1       3.924   8.404   5.997  1.00  0.00    -0.326 N 
ATOM      2  C   UNL     1       4.414   6.637   7.474  1.00  0.00     0.014 C 
ATOM      3  C   UNL     1       3.365   7.135   6.476  1.00  0.00     0.091 C 
ATOM      4  C   UNL     1       4.927   7.928   8.094  1.00  0.00     0.041 C 
ATOM      5  C   UNL     1       5.089   8.791   6.829  1.00  0.00     0.175 C 
ATOM      6  C   UNL     1       3.105   6.028   5.456  1.00  0.00     0.059 C 
ATOM      7  C   UNL     1       3.839   5.559   8.371  1.00  0.00     0.008 C 
ATOM      8  C   UNL     1       3.257   4.604   6.032  1.00  0.00     0.143 C 
ATOM      9  C   UNL     1       2.993   4.562   7.551  1.00  0.00     0.034 C 
ENDROOT
BRANCH   1  10
ATOM     10  C   UNL     1       3.407   9.316   5.092  1.00  0.00     0.246 C 
ATOM     11  O   UNL     1       3.610   9.145   3.885  1.00  0.00    -0.272 OA
BRANCH  10  12
ATOM     12  C   UNL     1       2.550  10.507   5.609  1.00  0.00     0.174 C 
BRANCH  12  13
ATOM     13  N   UNL     1       1.544  10.025   6.555  1.00  0.00    -0.342 N 
ATOM     14  C   UNL     1       1.506  10.337   7.895  1.00  0.00     0.249 C 
ATOM     15  O   UNL     1       2.306  11.085   8.444  1.00  0.00    -0.272 OA
ATOM     16  H   UNL     1       0.913   9.276   6.281  1.00  0.00     0.164 HD
BRANCH  14  17
ATOM     17  C   UNL     1       0.332   9.658   8.632  1.00  0.00     0.207 C 
BRANCH  17  18
ATOM     18  C   UNL     1      -0.888  10.583   8.662  1.00  0.00     0.077 C 
BRANCH  18  19
ATOM     19  C   UNL     1      -1.812  10.333   7.490  1.00  0.00    -0.043 A 
ATOM     20  C   UNL     1      -3.546  11.101   5.978  1.00  0.00     0.083 A 
ATOM     21  C   UNL     1      -2.660  11.351   7.027  1.00  0.00     0.028 A 
ATOM     22  C   UNL     1      -3.591   9.838   5.388  1.00  0.00     0.134 A 
ATOM     23  C   UNL     1      -2.757   8.821   5.837  1.00  0.00     0.048 A 
ATOM     24  C   UNL     1      -1.870   9.067   6.888  1.00  0.00     0.008 A 
ATOM     25  Cl  UNL     1      -4.580  12.365   5.423  1.00  0.00    -0.080 Cl
BRANCH  22  26
ATOM     26  O   UNL     1      -4.450   9.543   4.364  1.00  0.00    -0.506 OA
ATOM     27  H   UNL     1      -4.941  10.362   4.166  1.00  0.00     0.293 HD
ENDBRANCH  22  26
ENDBRANCH  18  19
ENDBRANCH  17  18
BRANCH  17  28
ATOM     28  O   UNL     1       0.698   9.308   9.977  1.00  0.00    -0.383 OA
ATOM     29  H   UNL     1       1.046   8.388   9.934  1.00  0.00     0.211 HD
ENDBRANCH  17  28
ENDBRANCH  14  17
ENDBRANCH  12  13
BRANCH  12  30
ATOM     30  C   UNL     1       1.928  11.342   4.457  1.00  0.00     0.018 C 
ATOM     31  C   UNL     1       2.579  12.732   4.376  1.00  0.00     0.010 C 
BRANCH  30  32
ATOM     32  C   UNL     1       0.389  11.480   4.552  1.00  0.00     0.002 C 
ATOM     33  C   UNL     1      -0.404  10.602   3.592  1.00  0.00     0.004 C 
ENDBRANCH  30  32
ENDBRANCH  12  30
ENDBRANCH  10  12
ENDBRANCH   1  10
BRANCH   5  34
ATOM     34  C   UNL     1       6.419   8.480   6.092  1.00  0.00     0.242 C 
ATOM     35  O   UNL     1       7.286   7.753   6.576  1.00  0.00    -0.273 OA
ATOM     36  N   UNL     1       6.582   9.119   4.883  1.00  0.00    -0.354 N 
ATOM     37  H   UNL     1       5.882   9.803   4.590  1.00  0.00     0.163 HD
BRANCH  36  38
ATOM     38  C   UNL     1       7.652   8.782   3.968  1.00  0.00     0.116 C 
BRANCH  38  39
ATOM     39  C   UNL     1       7.198   9.019   2.529  1.00  0.00     0.023 C 
BRANCH  39  40
ATOM     40  C   UNL     1       7.734   7.963   1.568  1.00  0.00     0.026 C 
BRANCH  40  41
ATOM     41  C   UNL     1       6.617   7.022   1.118  1.00  0.00     0.146 C 
BRANCH  41  42
ATOM     42  N   UNL     1       7.034   5.639   1.300  1.00  0.00    -0.254 NA
ATOM     43  C   UNL     1       6.189   4.772   1.716  1.00  0.00     0.185 C 
ATOM     44  N   UNL     1       4.890   4.915   2.038  1.00  0.00    -0.370 N 
ATOM     45  N   UNL     1       6.595   3.502   1.882  1.00  0.00    -0.370 N 
ATOM     46  H   UNL     1       4.416   4.212   2.579  1.00  0.00     0.159 HD
ATOM     47  H   UNL     1       4.417   5.809   1.958  1.00  0.00     0.159 HD
ATOM     48  H   UNL     1       7.560   3.307   1.653  1.00  0.00     0.159 HD
ATOM     49  H   UNL     1       5.954   2.734   1.972  1.00  0.00     0.159 HD
ENDBRANCH  41  42
ENDBRANCH  40  41
ENDBRANCH  39  40
ENDBRANCH  38  39
ENDBRANCH  36  38
ENDBRANCH   5  34
BRANCH   8  50
ATOM     50  O   UNL     1       4.576   4.115   5.788  1.00  0.00    -0.245 OA
BRANCH  50  51
ATOM     51  S   UNL     1       4.777   2.669   5.072  1.00  0.00     0.397 S 
ATOM     52  O   UNL     1       4.180   2.735   3.757  1.00  0.00    -0.169 OA
ATOM     53  O   UNL     1       4.442   1.613   6.005  1.00  0.00    -0.169 OA
BRANCH  51  54
ATOM     54  O   UNL     1       6.366   2.631   4.830  1.00  0.00    -0.264 OA
ATOM     55  H   UNL     1       6.768   3.338   5.376  1.00  0.00     0.236 HD
ENDBRANCH  51  54
ENDBRANCH  50  51
ENDBRANCH   8  50
TORSDOF 19
ENDMDL
MODEL 4
REMARK VINA RESULT:    -6.150     12.878     17.048
REMARK INTER + INTRA:         -16.394
REMARK INTER:                 -11.929
REMARK INTRA:                  -4.464
REMARK UNBOUND:                -3.952
REMARK SMILES CC[C@@H](C)[C@@H](NC(=O)[C@@H](O)Cc1ccc(O)c(Cl)c1)C(=O)N1[C@H](C(=O)NCCCCN=C(N)N)C[C@H]2CC[C@H](OS(=O)(=O)O)C[C@@H]21
REMARK SMILES IDX 22 1 36 2 46 3 35 4 23 5 45 6 37 7 39 8 38 9 20 10 21 11
REMARK SMILES IDX 5 12 6 13 7 14 8 15 9 17 11 18 12 19 17 20 19 21 15 22 14 23
REMARK SMILES IDX 13 24 18 25 16 26 10 28 3 30 4 31 2 32 1 33 24 34 25 35
REMARK SMILES IDX 26 36 27 38 28 39 29 40 30 41 31 42 32 43 33 44 34 45 40 50
REMARK SMILES IDX 41 51 42 52 43 53 44 54
REMARK H PARENT 6 16 16 27 10 29 26 37 33 46 33 47 34 48 34 49 44 55
ROOT
ATOM      1  N   UNL     1     -10.743  13.588   4.847  1.00  0.00    -0.326 N 
ATOM      2  C   UNL     1     -12.031  15.331   5.766  1.00  0.00     0.014 C 
ATOM      3  C   UNL     1     -11.607  14.698   4.437  1.00  0.00     0.091 C 
ATOM      4  C   UNL     1     -10.795  15.148   6.633  1.00  0.00     0.041 C 
ATOM      5  C   UNL     1     -10.440  13.688   6.296  1.00  0.00     0.175 C 
ATOM      6  C   UNL     1     -12.865  14.379   3.631  1.00  0.00     0.059 C 
ATOM      7  C   UNL     1     -12.588  16.724   5.550  1.00  0.00     0.008 C 
ATOM      8  C   UNL     1     -14.029  15.362   3.880  1.00  0.00     0.143 C 
ATOM      9  C   UNL     1     -13.529  16.751   4.327  1.00  0.00     0.034 C 
ENDROOT
BRANCH   1  10
ATOM     10  C   UNL     1     -10.053  12.668   4.075  1.00  0.00     0.246 C 
ATOM     11  O   UNL     1      -8.840  12.821   3.900  1.00  0.00    -0.272 OA
BRANCH  10  12
ATOM     12  C   UNL     1     -10.809  11.444   3.481  1.00  0.00     0.174 C 
BRANCH  12  13
ATOM     13  N   UNL     1     -10.686  10.298   4.380  1.00  0.00    -0.342 N 
ATOM     14  C   UNL     1     -11.741   9.564   4.874  1.00  0.00     0.249 C 
ATOM     15  O   UNL     1     -12.913   9.777   4.588  1.00  0.00    -0.272 OA
ATOM     16  H   UNL     1      -9.793  10.101   4.827  1.00  0.00     0.164 HD
BRANCH  14  17
ATOM     17  C   UNL     1     -11.287   8.427   5.814  1.00  0.00     0.207 C 
BRANCH  17  18
ATOM     18  C   UNL     1      -9.783   8.179   5.668  1.00  0.00     0.077 C 
BRANCH  18  19
ATOM     19  C   UNL     1      -9.222   7.415   6.846  1.00  0.00    -0.043 A 
ATOM     20  C   UNL     1      -7.822   5.640   7.727  1.00  0.00     0.083 A 
ATOM     21  C   UNL     1      -8.300   6.376   6.642  1.00  0.00     0.028 A 
ATOM     22  C   UNL     1      -8.261   5.935   9.018  1.00  0.00     0.134 A 
ATOM     23  C   UNL     1      -9.174   6.961   9.234  1.00  0.00     0.048 A 
ATOM     24  C   UNL     1      -9.655   7.698   8.150  1.00  0.00     0.008 A 
ATOM     25  Cl  UNL     1      -6.691   4.367   7.457  1.00  0.00    -0.080 Cl
BRANCH  22  26
ATOM     26  O   UNL     1      -7.829   5.234  10.112  1.00  0.00    -0.506 OA
ATOM     27  H   UNL     1      -8.230   5.659  10.893  1.00  0.00     0.293 HD
ENDBRANCH  22  26
ENDBRANCH  18  19
ENDBRANCH  17  18
BRANCH  17  28
ATOM     28  O   UNL     1     -12.000   7.211   5.535  1.00  0.00    -0.383 OA
ATOM     29  H   UNL     1     -12.463   7.356   4.679  1.00  0.00     0.211 HD
ENDBRANCH  17  28
ENDBRANCH  14  17
ENDBRANCH  12  13
BRANCH  12  30
ATOM     30  C   UNL     1     -10.364  11.110   2.031  1.00  0.00     0.018 C 
ATOM     31  C   UNL     1     -10.516  12.336   1.117  1.00  0.00     0.010 C 
BRANCH  30  32
ATOM     32  C   UNL     1     -11.103   9.896   1.419  1.00  0.00     0.002 C 
ATOM     33  C   UNL     1     -10.264   8.635   1.260  1.00  0.00     0.004 C 
ENDBRANCH  30  32
ENDBRANCH  12  30
ENDBRANCH  10  12
ENDBRANCH   1  10
BRANCH   5  34
ATOM     34  C   UNL     1     -11.302  12.686   7.109  1.00  0.00     0.242 C 
ATOM     35  O   UNL     1     -12.348  12.210   6.669  1.00  0.00    -0.273 OA
ATOM     36  N   UNL     1     -10.841  12.412   8.377  1.00  0.00    -0.354 N 
ATOM     37  H   UNL     1     -10.034  12.929   8.730  1.00  0.00     0.163 HD
BRANCH  36  38
ATOM     38  C   UNL     1     -11.394  11.347   9.188  1.00  0.00     0.116 C 
BRANCH  38  39
ATOM     39  C   UNL     1     -12.515  11.894  10.068  1.00  0.00     0.023 C 
BRANCH  39  40
ATOM     40  C   UNL     1     -13.375  10.789  10.670  1.00  0.00     0.026 C 
BRANCH  40  41
ATOM     41  C   UNL     1     -14.678  10.627   9.887  1.00  0.00     0.146 C 
BRANCH  41  42
ATOM     42  N   UNL     1     -14.586   9.466   9.011  1.00  0.00    -0.254 NA
ATOM     43  C   UNL     1     -14.624   9.626   7.742  1.00  0.00     0.185 C 
ATOM     44  N   UNL     1     -14.741  10.752   7.014  1.00  0.00    -0.370 N 
ATOM     45  N   UNL     1     -14.542   8.542   6.952  1.00  0.00    -0.370 N 
ATOM     46  H   UNL     1     -15.002  10.710   6.044  1.00  0.00     0.159 HD
ATOM     47  H   UNL     1     -14.801  11.665   7.452  1.00  0.00     0.159 HD
ATOM     48  H   UNL     1     -14.442   7.652   7.422  1.00  0.00     0.159 HD
ATOM     49  H   UNL     1     -14.328   8.598   5.973  1.00  0.00     0.159 HD
ENDBRANCH  41  42
ENDBRANCH  40  41
ENDBRANCH  39  40
ENDBRANCH  38  39
ENDBRANCH  36  38
ENDBRANCH   5  34
BRANCH   8  50
ATOM     50  O   UNL     1     -14.899  14.848   4.888  1.00  0.00    -0.245 OA
BRANCH  50  51
ATOM     51  S   UNL     1     -16.246  14.046   4.454  1.00  0.00     0.397 S 
ATOM     52  O   UNL     1     -16.212  13.859   3.021  1.00  0.00    -0.169 OA
ATOM     53  O   UNL     1     -17.394  14.629   5.117  1.00  0.00    -0.169 OA
BRANCH  51  54
ATOM     54  O   UNL     1     -15.991  12.592   5.092  1.00  0.00    -0.264 OA
ATOM     55  H   UNL     1     -15.865  11.960   4.355  1.00  0.00     0.236 HD
ENDBRANCH  51  54
ENDBRANCH  50  51
ENDBRANCH   8  50
TORSDOF 19
ENDMDL
MODEL 5
REMARK VINA RESULT:    -6.052      3.384      6.384
REMARK INTER + INTRA:         -16.195
REMARK INTER:                 -13.465
REMARK INTRA:                  -2.730
REMARK UNBOUND:                -3.952
REMARK SMILES CC[C@@H](C)[C@@H](NC(=O)[C@@H](O)Cc1ccc(O)c(Cl)c1)C(=O)N1[C@H](C(=O)NCCCCN=C(N)N)C[C@H]2CC[C@H](OS(=O)(=O)O)C[C@@H]21
REMARK SMILES IDX 22 1 36 2 46 3 35 4 23 5 45 6 37 7 39 8 38 9 20 10 21 11
REMARK SMILES IDX 5 12 6 13 7 14 8 15 9 17 11 18 12 19 17 20 19 21 15 22 14 23
REMARK SMILES IDX 13 24 18 25 16 26 10 28 3 30 4 31 2 32 1 33 24 34 25 35
REMARK SMILES IDX 26 36 27 38 28 39 29 40 30 41 31 42 32 43 33 44 34 45 40 50
REMARK SMILES IDX 41 51 42 52 43 53 44 54
REMARK H PARENT 6 16 16 27 10 29 26 37 33 46 33 47 34 48 34 49 44 55
ROOT
ATOM      1  N   UNL     1       3.641   6.313   5.732  1.00  0.00    -0.326 N 
ATOM      2  C   UNL     1       3.023   5.679   3.550  1.00  0.00     0.014 C 
ATOM      3  C   UNL     1       4.236   5.979   4.435  1.00  0.00     0.091 C 
ATOM      4  C   UNL     1       1.978   6.651   4.074  1.00  0.00     0.041 C 
ATOM      5  C   UNL     1       2.172   6.470   5.591  1.00  0.00     0.175 C 
ATOM      6  C   UNL     1       5.194   4.791   4.362  1.00  0.00     0.059 C 
ATOM      7  C   UNL     1       3.400   5.712   2.082  1.00  0.00     0.008 C 
ATOM      8  C   UNL     1       5.175   4.061   3.002  1.00  0.00     0.143 C 
ATOM      9  C   UNL     1       4.745   4.992   1.850  1.00  0.00     0.034 C 
ENDROOT
BRANCH   1  10
ATOM     10  C   UNL     1       4.248   6.690   6.917  1.00  0.00     0.246 C 
ATOM     11  O   UNL     1       4.270   5.894   7.861  1.00  0.00    -0.272 OA
BRANCH  10  12
ATOM     12  C   UNL     1       4.927   8.087   7.021  1.00  0.00     0.174 C 
BRANCH  12  13
ATOM     13  N   UNL     1       3.917   9.114   7.276  1.00  0.00    -0.342 N 
ATOM     14  C   UNL     1       3.730   9.756   8.480  1.00  0.00     0.249 C 
ATOM     15  O   UNL     1       4.415   9.555   9.474  1.00  0.00    -0.272 OA
ATOM     16  H   UNL     1       3.178   9.273   6.597  1.00  0.00     0.164 HD
BRANCH  14  17
ATOM     17  C   UNL     1       2.572  10.776   8.437  1.00  0.00     0.207 C 
BRANCH  17  18
ATOM     18  C   UNL     1       1.410  10.233   7.598  1.00  0.00     0.077 C 
BRANCH  18  19
ATOM     19  C   UNL     1       0.462   9.397   8.428  1.00  0.00    -0.043 A 
ATOM     20  C   UNL     1      -0.605   8.911  10.551  1.00  0.00     0.083 A 
ATOM     21  C   UNL     1       0.232   9.714   9.776  1.00  0.00     0.028 A 
ATOM     22  C   UNL     1      -1.215   7.789   9.988  1.00  0.00     0.134 A 
ATOM     23  C   UNL     1      -0.996   7.464   8.655  1.00  0.00     0.048 A 
ATOM     24  C   UNL     1      -0.157   8.264   7.876  1.00  0.00     0.008 A 
ATOM     25  Cl  UNL     1      -0.876   9.316  12.205  1.00  0.00    -0.080 Cl
BRANCH  22  26
ATOM     26  O   UNL     1      -2.035   6.966  10.712  1.00  0.00    -0.506 OA
ATOM     27  H   UNL     1      -2.330   7.477  11.488  1.00  0.00     0.293 HD
ENDBRANCH  22  26
ENDBRANCH  18  19
ENDBRANCH  17  18
BRANCH  17  28
ATOM     28  O   UNL     1       3.009  12.031   7.890  1.00  0.00    -0.383 OA
ATOM     29  H   UNL     1       3.579  11.808   7.119  1.00  0.00     0.211 HD
ENDBRANCH  17  28
ENDBRANCH  14  17
ENDBRANCH  12  13
BRANCH  12  30
ATOM     30  C   UNL     1       5.810   8.418   5.788  1.00  0.00     0.018 C 
ATOM     31  C   UNL     1       7.236   8.794   6.222  1.00  0.00     0.010 C 
BRANCH  30  32
ATOM     32  C   UNL     1       5.221   9.526   4.881  1.00  0.00     0.002 C 
ATOM     33  C   UNL     1       6.216  10.579   4.410  1.00  0.00     0.004 C 
ENDBRANCH  30  32
ENDBRANCH  12  30
ENDBRANCH  10  12
ENDBRANCH   1  10
BRANCH   5  34
ATOM     34  C   UNL     1       1.432   5.211   6.115  1.00  0.00     0.242 C 
ATOM     35  O   UNL     1       1.908   4.483   6.986  1.00  0.00    -0.273 OA
ATOM     36  N   UNL     1       0.231   4.937   5.499  1.00  0.00    -0.354 N 
ATOM     37  H   UNL     1      -0.053   5.509   4.702  1.00  0.00     0.163 HD
BRANCH  36  38
ATOM     38  C   UNL     1      -0.687   3.938   6.003  1.00  0.00     0.116 C 
BRANCH  38  39
ATOM     39  C   UNL     1      -1.856   4.618   6.712  1.00  0.00     0.023 C 
BRANCH  39  40
ATOM     40  C   UNL     1      -2.228   3.925   8.018  1.00  0.00     0.026 C 
BRANCH  40  41
ATOM     41  C   UNL     1      -3.742   3.737   8.120  1.00  0.00     0.146 C 
BRANCH  41  42
ATOM     42  N   UNL     1      -4.083   3.184   9.424  1.00  0.00    -0.254 NA
ATOM     43  C   UNL     1      -4.467   3.965  10.362  1.00  0.00     0.185 C 
ATOM     44  N   UNL     1      -4.626   5.301  10.365  1.00  0.00    -0.370 N 
ATOM     45  N   UNL     1      -4.772   3.436  11.559  1.00  0.00    -0.370 N 
ATOM     46  H   UNL     1      -4.695   5.808  11.231  1.00  0.00     0.159 HD
ATOM     47  H   UNL     1      -4.451   5.860   9.536  1.00  0.00     0.159 HD
ATOM     48  H   UNL     1      -4.687   2.432  11.640  1.00  0.00     0.159 HD
ATOM     49  H   UNL     1      -5.296   3.934  12.256  1.00  0.00     0.159 HD
ENDBRANCH  41  42
ENDBRANCH  40  41
ENDBRANCH  39  40
ENDBRANCH  38  39
ENDBRANCH  36  38
ENDBRANCH   5  34
BRANCH   8  50
ATOM     50  O   UNL     1       4.272   2.955   3.052  1.00  0.00    -0.245 OA
BRANCH  50  51
ATOM     51  S   UNL     1       4.837   1.474   3.415  1.00  0.00     0.397 S 
ATOM     52  O   UNL     1       5.750   1.605   4.529  1.00  0.00    -0.169 OA
ATOM     53  O   UNL     1       5.216   0.786   2.199  1.00  0.00    -0.169 OA
BRANCH  51  54
ATOM     54  O   UNL     1       3.527   0.751   4.006  1.00  0.00    -0.264 OA
ATOM     55  H   UNL     1       2.774   1.368   3.901  1.00  0.00     0.236 HD
ENDBRANCH  51  54
ENDBRANCH  50  51
ENDBRANCH   8  50
TORSDOF 19
ENDMDL
MODEL 6
REMARK VINA RESULT:    -6.006     13.662     15.778
REMARK INTER + INTRA:         -16.101
REMARK INTER:                 -11.747
REMARK INTRA:                  -4.355
REMARK UNBOUND:                -3.952
REMARK SMILES CC[C@@H](C)[C@@H](NC(=O)[C@@H](O)Cc1ccc(O)c(Cl)c1)C(=O)N1[C@H](C(=O)NCCCCN=C(N)N)C[C@H]2CC[C@H](OS(=O)(=O)O)C[C@@H]21
REMARK SMILES IDX 22 1 36 2 46 3 35 4 23 5 45 6 37 7 39 8 38 9 20 10 21 11
REMARK SMILES IDX 5 12 6 13 7 14 8 15 9 17 11 18 12 19 17 20 19 21 15 22 14 23
REMARK SMILES IDX 13 24 18 25 16 26 10 28 3 30 4 31 2 32 1 33 24 34 25 35
REMARK SMILES IDX 26 36 27 38 28 39 29 40 30 41 31 42 32 43 33 44 34 45 40 50
REMARK SMILES IDX 41 51 42 52 43 53 44 54
REMARK H PARENT 6 16 16 27 10 29 26 37 33 46 33 47 34 48 34 49 44 55
ROOT
ATOM      1  N   UNL     1      -9.583  12.599   0.113  1.00  0.00    -0.326 N 
ATOM      2  C   UNL     1     -10.070  12.713  -2.187  1.00  0.00     0.014 C 
ATOM      3  C   UNL     1      -8.994  13.051  -1.151  1.00  0.00     0.091 C 
ATOM      4  C   UNL     1     -11.361  12.946  -1.418  1.00  0.00     0.041 C 
ATOM      5  C   UNL     1     -11.013  12.257  -0.086  1.00  0.00     0.175 C 
ATOM      6  C   UNL     1      -7.676  12.424  -1.601  1.00  0.00     0.059 C 
ATOM      7  C   UNL     1      -9.830  13.464  -3.482  1.00  0.00     0.008 C 
ATOM      8  C   UNL     1      -7.517  12.346  -3.135  1.00  0.00     0.143 C 
ATOM      9  C   UNL     1      -8.333  13.436  -3.858  1.00  0.00     0.034 C 
ENDROOT
BRANCH   1  10
ATOM     10  C   UNL     1      -9.077  12.661   1.401  1.00  0.00     0.246 C 
ATOM     11  O   UNL     1      -7.944  13.119   1.580  1.00  0.00    -0.272 OA
BRANCH  10  12
ATOM     12  C   UNL     1      -9.960  12.196   2.595  1.00  0.00     0.174 C 
BRANCH  12  13
ATOM     13  N   UNL     1     -10.716  13.328   3.128  1.00  0.00    -0.342 N 
ATOM     14  C   UNL     1     -12.082  13.358   3.296  1.00  0.00     0.249 C 
ATOM     15  O   UNL     1     -12.821  12.415   3.040  1.00  0.00    -0.272 OA
ATOM     16  H   UNL     1     -10.261  14.231   3.236  1.00  0.00     0.164 HD
BRANCH  14  17
ATOM     17  C   UNL     1     -12.584  14.702   3.863  1.00  0.00     0.207 C 
BRANCH  17  18
ATOM     18  C   UNL     1     -12.826  14.590   5.372  1.00  0.00     0.077 C 
BRANCH  18  19
ATOM     19  C   UNL     1     -11.593  14.958   6.167  1.00  0.00    -0.043 A 
ATOM     20  C   UNL     1     -10.339  14.911   8.243  1.00  0.00     0.083 A 
ATOM     21  C   UNL     1     -11.454  14.529   7.496  1.00  0.00     0.028 A 
ATOM     22  C   UNL     1      -9.360  15.724   7.669  1.00  0.00     0.134 A 
ATOM     23  C   UNL     1      -9.485  16.156   6.354  1.00  0.00     0.048 A 
ATOM     24  C   UNL     1     -10.601  15.777   5.605  1.00  0.00     0.008 A 
ATOM     25  Cl  UNL     1     -10.185  14.374   9.874  1.00  0.00    -0.080 Cl
BRANCH  22  26
ATOM     26  O   UNL     1      -8.254  16.133   8.365  1.00  0.00    -0.506 OA
ATOM     27  H   UNL     1      -7.901  15.346   8.818  1.00  0.00     0.293 HD
ENDBRANCH  22  26
ENDBRANCH  18  19
ENDBRANCH  17  18
BRANCH  17  28
ATOM     28  O   UNL     1     -13.798  15.116   3.215  1.00  0.00    -0.383 OA
ATOM     29  H   UNL     1     -13.522  15.578   2.391  1.00  0.00     0.211 HD
ENDBRANCH  17  28
ENDBRANCH  14  17
ENDBRANCH  12  13
BRANCH  12  30
ATOM     30  C   UNL     1      -9.144  11.459   3.692  1.00  0.00     0.018 C 
ATOM     31  C   UNL     1      -9.842  10.155   4.107  1.00  0.00     0.010 C 
BRANCH  30  32
ATOM     32  C   UNL     1      -8.855  12.329   4.940  1.00  0.00     0.002 C 
ATOM     33  C   UNL     1      -9.415  11.792   6.251  1.00  0.00     0.004 C 
ENDBRANCH  30  32
ENDBRANCH  12  30
ENDBRANCH  10  12
ENDBRANCH   1  10
BRANCH   5  34
ATOM     34  C   UNL     1     -11.205  10.719  -0.171  1.00  0.00     0.242 C 
ATOM     35  O   UNL     1     -10.254   9.938  -0.201  1.00  0.00    -0.273 OA
ATOM     36  N   UNL     1     -12.512  10.296  -0.264  1.00  0.00    -0.354 N 
ATOM     37  H   UNL     1     -13.249  10.995  -0.355  1.00  0.00     0.163 HD
BRANCH  36  38
ATOM     38  C   UNL     1     -12.884   8.902  -0.135  1.00  0.00     0.116 C 
BRANCH  38  39
ATOM     39  C   UNL     1     -13.184   8.316  -1.512  1.00  0.00     0.023 C 
BRANCH  39  40
ATOM     40  C   UNL     1     -12.653   6.895  -1.669  1.00  0.00     0.026 C 
BRANCH  40  41
ATOM     41  C   UNL     1     -11.127   6.893  -1.755  1.00  0.00     0.146 C 
BRANCH  41  42
ATOM     42  N   UNL     1     -10.712   6.892  -3.152  1.00  0.00    -0.254 NA
ATOM     43  C   UNL     1     -10.242   7.963  -3.673  1.00  0.00     0.185 C 
ATOM     44  N   UNL     1     -10.044   9.177  -3.127  1.00  0.00    -0.370 N 
ATOM     45  N   UNL     1      -9.869   7.943  -4.963  1.00  0.00    -0.370 N 
ATOM     46  H   UNL     1      -9.900   9.984  -3.709  1.00  0.00     0.159 HD
ATOM     47  H   UNL     1     -10.260   9.364  -2.152  1.00  0.00     0.159 HD
ATOM     48  H   UNL     1      -9.977   7.062  -5.447  1.00  0.00     0.159 HD
ATOM     49  H   UNL     1      -9.284   8.650  -5.371  1.00  0.00     0.159 HD
ENDBRANCH  41  42
ENDBRANCH  40  41
ENDBRANCH  39  40
ENDBRANCH  38  39
ENDBRANCH  36  38
ENDBRANCH   5  34
BRANCH   8  50
ATOM     50  O   UNL     1      -7.947  11.069  -3.607  1.00  0.00    -0.245 OA
BRANCH  50  51
ATOM     51  S   UNL     1      -6.887  10.093  -4.361  1.00  0.00     0.397 S 
ATOM     52  O   UNL     1      -6.937   8.798  -3.719  1.00  0.00    -0.169 OA
ATOM     53  O   UNL     1      -5.635  10.794  -4.558  1.00  0.00    -0.169 OA
BRANCH  51  54
ATOM     54  O   UNL     1      -7.576   9.895  -5.800  1.00  0.00    -0.264 OA
ATOM     55  H   UNL     1      -8.255  10.593  -5.904  1.00  0.00     0.236 HD
ENDBRANCH  51  54
ENDBRANCH  50  51
ENDBRANCH   8  50
TORSDOF 19
ENDMDL
MODEL 7
REMARK VINA RESULT:    -5.967     12.942     15.845
REMARK INTER + INTRA:         -16.023
REMARK INTER:                 -12.573
REMARK INTRA:                  -3.450
REMARK UNBOUND:                -3.952
REMARK SMILES CC[C@@H](C)[C@@H](NC(=O)[C@@H](O)Cc1ccc(O)c(Cl)c1)C(=O)N1[C@H](C(=O)NCCCCN=C(N)N)C[C@H]2CC[C@H](OS(=O)(=O)O)C[C@@H]21
REMARK SMILES IDX 22 1 36 2 46 3 35 4 23 5 45 6 37 7 39 8 38 9 20 10 21 11
REMARK SMILES IDX 5 12 6 13 7 14 8 15 9 17 11 18 12 19 17 20 19 21 15 22 14 23
REMARK SMILES IDX 13 24 18 25 16 26 10 28 3 30 4 31 2 32 1 33 24 34 25 35
REMARK SMILES IDX 26 36 27 38 28 39 29 40 30 41 31 42 32 43 33 44 34 45 40 50
REMARK SMILES IDX 41 51 42 52 43 53 44 54
REMARK H PARENT 6 16 16 27 10 29 26 37 33 46 33 47 34 48 34 49 44 55
ROOT
ATOM      1  N   UNL     1      -9.107  12.927  -1.769  1.00  0.00    -0.326 N 
ATOM      2  C   UNL     1      -8.460  13.296  -4.002  1.00  0.00     0.014 C 
ATOM      3  C   UNL     1      -7.908  12.971  -2.611  1.00  0.00     0.091 C 
ATOM      4  C   UNL     1      -9.632  14.214  -3.691  1.00  0.00     0.041 C 
ATOM      5  C   UNL     1     -10.275  13.448  -2.520  1.00  0.00     0.175 C 
ATOM      6  C   UNL     1      -7.049  11.712  -2.715  1.00  0.00     0.059 C 
ATOM      7  C   UNL     1      -7.359  13.782  -4.923  1.00  0.00     0.008 C 
ATOM      8  C   UNL     1      -6.333  11.558  -4.074  1.00  0.00     0.143 C 
ATOM      9  C   UNL     1      -6.091  12.918  -4.759  1.00  0.00     0.034 C 
ENDROOT
BRANCH   1  10
ATOM     10  C   UNL     1      -9.228  12.695  -0.409  1.00  0.00     0.246 C 
ATOM     11  O   UNL     1      -9.158  13.650   0.372  1.00  0.00    -0.272 OA
BRANCH  10  12
ATOM     12  C   UNL     1      -9.492  11.249   0.102  1.00  0.00     0.174 C 
BRANCH  12  13
ATOM     13  N   UNL     1     -10.420  11.281   1.231  1.00  0.00    -0.342 N 
ATOM     14  C   UNL     1     -11.792  11.220   1.129  1.00  0.00     0.249 C 
ATOM     15  O   UNL     1     -12.392  11.104   0.067  1.00  0.00    -0.272 OA
ATOM     16  H   UNL     1     -10.079  11.531   2.156  1.00  0.00     0.164 HD
BRANCH  14  17
ATOM     17  C   UNL     1     -12.495  11.294   2.500  1.00  0.00     0.207 C 
BRANCH  17  18
ATOM     18  C   UNL     1     -11.527  11.805   3.572  1.00  0.00     0.077 C 
BRANCH  18  19
ATOM     19  C   UNL     1     -11.793  13.251   3.926  1.00  0.00    -0.043 A 
ATOM     20  C   UNL     1     -11.130  15.297   5.047  1.00  0.00     0.083 A 
ATOM     21  C   UNL     1     -10.859  13.979   4.680  1.00  0.00     0.028 A 
ATOM     22  C   UNL     1     -12.332  15.895   4.666  1.00  0.00     0.134 A 
ATOM     23  C   UNL     1     -13.265  15.186   3.919  1.00  0.00     0.048 A 
ATOM     24  C   UNL     1     -12.998  13.865   3.551  1.00  0.00     0.008 A 
ATOM     25  Cl  UNL     1      -9.971  16.175   5.974  1.00  0.00    -0.080 Cl
BRANCH  22  26
ATOM     26  O   UNL     1     -12.646  17.182   5.010  1.00  0.00    -0.506 OA
ATOM     27  H   UNL     1     -12.128  17.764   4.424  1.00  0.00     0.293 HD
ENDBRANCH  22  26
ENDBRANCH  18  19
ENDBRANCH  17  18
BRANCH  17  28
ATOM     28  O   UNL     1     -13.003  10.007   2.891  1.00  0.00    -0.383 OA
ATOM     29  H   UNL     1     -12.383   9.344   2.512  1.00  0.00     0.211 HD
ENDBRANCH  17  28
ENDBRANCH  14  17
ENDBRANCH  12  13
BRANCH  12  30
ATOM     30  C   UNL     1      -8.183  10.481   0.431  1.00  0.00     0.018 C 
ATOM     31  C   UNL     1      -8.494   9.061   0.930  1.00  0.00     0.010 C 
BRANCH  30  32
ATOM     32  C   UNL     1      -7.272  11.214   1.446  1.00  0.00     0.002 C 
ATOM     33  C   UNL     1      -5.912  11.642   0.909  1.00  0.00     0.004 C 
ENDBRANCH  30  32
ENDBRANCH  12  30
ENDBRANCH  10  12
ENDBRANCH   1  10
BRANCH   5  34
ATOM     34  C   UNL     1     -11.170  12.283  -3.021  1.00  0.00     0.242 C 
ATOM     35  O   UNL     1     -12.381  12.415  -3.203  1.00  0.00    -0.273 OA
ATOM     36  N   UNL     1     -10.523  11.080  -3.196  1.00  0.00    -0.354 N 
ATOM     37  H   UNL     1      -9.545  11.003  -2.915  1.00  0.00     0.163 HD
BRANCH  36  38
ATOM     38  C   UNL     1     -11.149   9.954  -3.857  1.00  0.00     0.116 C 
BRANCH  38  39
ATOM     39  C   UNL     1     -11.622   8.941  -2.818  1.00  0.00     0.023 C 
BRANCH  39  40
ATOM     40  C   UNL     1     -10.467   8.169  -2.188  1.00  0.00     0.026 C 
BRANCH  40  41
ATOM     41  C   UNL     1     -10.468   6.714  -2.656  1.00  0.00     0.146 C 
BRANCH  41  42
ATOM     42  N   UNL     1      -9.744   6.602  -3.916  1.00  0.00    -0.254 NA
ATOM     43  C   UNL     1      -8.893   5.660  -4.075  1.00  0.00     0.185 C 
ATOM     44  N   UNL     1      -8.516   4.682  -3.231  1.00  0.00    -0.370 N 
ATOM     45  N   UNL     1      -8.233   5.577  -5.242  1.00  0.00    -0.370 N 
ATOM     46  H   UNL     1      -7.669   4.164  -3.392  1.00  0.00     0.159 HD
ATOM     47  H   UNL     1      -8.926   4.588  -2.307  1.00  0.00     0.159 HD
ATOM     48  H   UNL     1      -8.464   6.272  -5.939  1.00  0.00     0.159 HD
ATOM     49  H   UNL     1      -7.739   4.751  -5.530  1.00  0.00     0.159 HD
ENDBRANCH  41  42
ENDBRANCH  40  41
ENDBRANCH  39  40
ENDBRANCH  38  39
ENDBRANCH  36  38
ENDBRANCH   5  34
BRANCH   8  50
ATOM     50  O   UNL     1      -7.114  10.743  -4.949  1.00  0.00    -0.245 OA
BRANCH  50  51
ATOM     51  S   UNL     1      -6.940   9.126  -4.909  1.00  0.00     0.397 S 
ATOM     52  O   UNL     1      -7.049   8.700  -3.532  1.00  0.00    -0.169 OA
ATOM     53  O   UNL     1      -5.818   8.737  -5.738  1.00  0.00    -0.169 OA
BRANCH  51  54
ATOM     54  O   UNL     1      -8.287   8.626  -5.630  1.00  0.00    -0.264 OA
ATOM     55  H   UNL     1      -8.509   7.744  -5.268  1.00  0.00     0.236 HD
ENDBRANCH  51  54
ENDBRANCH  50  51
ENDBRANCH   8  50
TORSDOF 19
ENDMDL
MODEL 8
REMARK VINA RESULT:    -5.920     14.570     17.362
REMARK INTER + INTRA:         -15.929
REMARK INTER:                 -10.738
REMARK INTRA:                  -5.191
REMARK UNBOUND:                -3.952
REMARK SMILES CC[C@@H](C)[C@@H](NC(=O)[C@@H](O)Cc1ccc(O)c(Cl)c1)C(=O)N1[C@H](C(=O)NCCCCN=C(N)N)C[C@H]2CC[C@H](OS(=O)(=O)O)C[C@@H]21
REMARK SMILES IDX 22 1 36 2 46 3 35 4 23 5 45 6 37 7 39 8 38 9 20 10 21 11
REMARK SMILES IDX 5 12 6 13 7 14 8 15 9 17 11 18 12 19 17 20 19 21 15 22 14 23
REMARK SMILES IDX 13 24 18 25 16 26 10 28 3 30 4 31 2 32 1 33 24 34 25 35
REMARK SMILES IDX 26 36 27 38 28 39 29 40 30 41 31 42 32 43 33 44 34 45 40 50
REMARK SMILES IDX 41 51 42 52 43 53 44 54
REMARK H PARENT 6 16 16 27 10 29 26 37 33 46 33 47 34 48 34 49 44 55
ROOT
ATOM      1  N   UNL     1     -11.179  10.995  -1.059  1.00  0.00    -0.326 N 
ATOM      2  C   UNL     1     -10.762  10.616   1.227  1.00  0.00     0.014 C 
ATOM      3  C   UNL     1     -10.792  11.713   0.158  1.00  0.00     0.091 C 
ATOM      4  C   UNL     1     -10.271   9.405   0.449  1.00  0.00     0.041 C 
ATOM      5  C   UNL     1     -11.130   9.531  -0.822  1.00  0.00     0.175 C 
ATOM      6  C   UNL     1     -11.694  12.843   0.651  1.00  0.00     0.059 C 
ATOM      7  C   UNL     1      -9.996  11.074   2.452  1.00  0.00     0.008 C 
ATOM      8  C   UNL     1     -11.688  13.019   2.185  1.00  0.00     0.143 C 
ATOM      9  C   UNL     1     -10.373  12.524   2.820  1.00  0.00     0.034 C 
ENDROOT
BRANCH   1  10
ATOM     10  C   UNL     1     -11.349  11.464  -2.350  1.00  0.00     0.246 C 
ATOM     11  O   UNL     1     -12.476  11.808  -2.722  1.00  0.00    -0.272 OA
BRANCH  10  12
ATOM     12  C   UNL     1     -10.115  11.589  -3.290  1.00  0.00     0.174 C 
BRANCH  12  13
ATOM     13  N   UNL     1      -9.537  10.267  -3.533  1.00  0.00    -0.342 N 
ATOM     14  C   UNL     1     -10.166   9.240  -4.200  1.00  0.00     0.249 C 
ATOM     15  O   UNL     1     -11.283   9.331  -4.694  1.00  0.00    -0.272 OA
ATOM     16  H   UNL     1      -8.685   9.994  -3.049  1.00  0.00     0.164 HD
BRANCH  14  17
ATOM     17  C   UNL     1      -9.302   7.963  -4.277  1.00  0.00     0.207 C 
BRANCH  17  18
ATOM     18  C   UNL     1      -8.455   7.812  -3.010  1.00  0.00     0.077 C 
BRANCH  18  19
ATOM     19  C   UNL     1      -9.027   6.774  -2.071  1.00  0.00    -0.043 A 
ATOM     20  C   UNL     1      -8.928   5.546   0.018  1.00  0.00     0.083 A 
ATOM     21  C   UNL     1      -8.427   6.539  -0.824  1.00  0.00     0.028 A 
ATOM     22  C   UNL     1     -10.027   4.784  -0.377  1.00  0.00     0.134 A 
ATOM     23  C   UNL     1     -10.631   5.006  -1.609  1.00  0.00     0.048 A 
ATOM     24  C   UNL     1     -10.131   5.998  -2.456  1.00  0.00     0.008 A 
ATOM     25  Cl  UNL     1      -8.177   5.272   1.546  1.00  0.00    -0.080 Cl
BRANCH  22  26
ATOM     26  O   UNL     1     -10.547   3.792   0.410  1.00  0.00    -0.506 OA
ATOM     27  H   UNL     1     -10.358   2.948  -0.040  1.00  0.00     0.293 HD
ENDBRANCH  22  26
ENDBRANCH  18  19
ENDBRANCH  17  18
BRANCH  17  28
ATOM     28  O   UNL     1      -8.441   7.991  -5.426  1.00  0.00    -0.383 OA
ATOM     29  H   UNL     1      -8.686   7.207  -5.969  1.00  0.00     0.211 HD
ENDBRANCH  17  28
ENDBRANCH  14  17
ENDBRANCH  12  13
BRANCH  12  30
ATOM     30  C   UNL     1      -9.065  12.608  -2.770  1.00  0.00     0.018 C 
ATOM     31  C   UNL     1      -9.709  13.984  -2.537  1.00  0.00     0.010 C 
BRANCH  30  32
ATOM     32  C   UNL     1      -7.827  12.748  -3.688  1.00  0.00     0.002 C 
ATOM     33  C   UNL     1      -7.834  13.958  -4.612  1.00  0.00     0.004 C 
ENDBRANCH  30  32
ENDBRANCH  12  30
ENDBRANCH  10  12
ENDBRANCH   1  10
BRANCH   5  34
ATOM     34  C   UNL     1     -12.558   8.960  -0.607  1.00  0.00     0.242 C 
ATOM     35  O   UNL     1     -13.561   9.674  -0.624  1.00  0.00    -0.273 OA
ATOM     36  N   UNL     1     -12.615   7.610  -0.344  1.00  0.00    -0.354 N 
ATOM     37  H   UNL     1     -11.742   7.095  -0.224  1.00  0.00     0.163 HD
BRANCH  36  38
ATOM     38  C   UNL     1     -13.864   6.877  -0.332  1.00  0.00     0.116 C 
BRANCH  38  39
ATOM     39  C   UNL     1     -13.692   5.573   0.443  1.00  0.00     0.023 C 
BRANCH  39  40
ATOM     40  C   UNL     1     -13.106   5.794   1.833  1.00  0.00     0.026 C 
BRANCH  40  41
ATOM     41  C   UNL     1     -14.055   6.626   2.696  1.00  0.00     0.146 C 
BRANCH  41  42
ATOM     42  N   UNL     1     -13.286   7.476   3.595  1.00  0.00    -0.254 NA
ATOM     43  C   UNL     1     -13.323   8.747   3.451  1.00  0.00     0.185 C 
ATOM     44  N   UNL     1     -13.991   9.498   2.555  1.00  0.00    -0.370 N 
ATOM     45  N   UNL     1     -12.603   9.513   4.287  1.00  0.00    -0.370 N 
ATOM     46  H   UNL     1     -13.738  10.459   2.402  1.00  0.00     0.159 HD
ATOM     47  H   UNL     1     -14.596   9.080   1.855  1.00  0.00     0.159 HD
ATOM     48  H   UNL     1     -12.076   9.026   4.999  1.00  0.00     0.159 HD
ATOM     49  H   UNL     1     -12.760  10.500   4.393  1.00  0.00     0.159 HD
ENDBRANCH  41  42
ENDBRANCH  40  41
ENDBRANCH  39  40
ENDBRANCH  38  39
ENDBRANCH  36  38
ENDBRANCH   5  34
BRANCH   8  50
ATOM     50  O   UNL     1     -12.773  12.295   2.766  1.00  0.00    -0.245 OA
BRANCH  50  51
ATOM     51  S   UNL     1     -13.635  12.968   3.970  1.00  0.00     0.397 S 
ATOM     52  O   UNL     1     -14.926  12.320   4.010  1.00  0.00    -0.169 OA
ATOM     53  O   UNL     1     -13.509  14.409   3.911  1.00  0.00    -0.169 OA
BRANCH  51  54
ATOM     54  O   UNL     1     -12.847  12.455   5.274  1.00  0.00    -0.264 OA
ATOM     55  H   UNL     1     -12.251  13.175   5.566  1.00  0.00     0.236 HD
ENDBRANCH  51  54
ENDBRANCH  50  51
ENDBRANCH   8  50
TORSDOF 19
ENDMDL
MODEL 9
REMARK VINA RESULT:    -5.890     13.493     17.685
REMARK INTER + INTRA:         -15.867
REMARK INTER:                 -12.888
REMARK INTRA:                  -2.979
REMARK UNBOUND:                -3.952
REMARK SMILES CC[C@@H](C)[C@@H](NC(=O)[C@@H](O)Cc1ccc(O)c(Cl)c1)C(=O)N1[C@H](C(=O)NCCCCN=C(N)N)C[C@H]2CC[C@H](OS(=O)(=O)O)C[C@@H]21
REMARK SMILES IDX 22 1 36 2 46 3 35 4 23 5 45 6 37 7 39 8 38 9 20 10 21 11
REMARK SMILES IDX 5 12 6 13 7 14 8 15 9 17 11 18 12 19 17 20 19 21 15 22 14 23
REMARK SMILES IDX 13 24 18 25 16 26 10 28 3 30 4 31 2 32 1 33 24 34 25 35
REMARK SMILES IDX 26 36 27 38 28 39 29 40 30 41 31 42 32 43 33 44 34 45 40 50
REMARK SMILES IDX 41 51 42 52 43 53 44 54
REMARK H PARENT 6 16 16 27 10 29 26 37 33 46 33 47 34 48 34 49 44 55
ROOT
ATOM      1  N   UNL     1     -10.600  11.939   0.250  1.00  0.00    -0.326 N 
ATOM      2  C   UNL     1      -9.278  10.721   1.770  1.00  0.00     0.014 C 
ATOM      3  C   UNL     1      -9.203  11.776   0.662  1.00  0.00     0.091 C 
ATOM      4  C   UNL     1     -10.408   9.819   1.297  1.00  0.00     0.041 C 
ATOM      5  C   UNL     1     -11.438  10.878   0.862  1.00  0.00     0.175 C 
ATOM      6  C   UNL     1      -8.461  12.995   1.207  1.00  0.00     0.059 C 
ATOM      7  C   UNL     1      -7.912  10.121   2.040  1.00  0.00     0.008 C 
ATOM      8  C   UNL     1      -7.382  12.649   2.256  1.00  0.00     0.143 C 
ATOM      9  C   UNL     1      -6.831  11.221   2.070  1.00  0.00     0.034 C 
ENDROOT
BRANCH   1  10
ATOM     10  C   UNL     1     -11.147  12.749  -0.731  1.00  0.00     0.246 C 
ATOM     11  O   UNL     1     -11.933  13.644  -0.403  1.00  0.00    -0.272 OA
BRANCH  10  12
ATOM     12  C   UNL     1     -10.729  12.544  -2.216  1.00  0.00     0.174 C 
BRANCH  12  13
ATOM     13  N   UNL     1     -10.833  11.129  -2.573  1.00  0.00    -0.342 N 
ATOM     14  C   UNL     1     -11.736  10.605  -3.471  1.00  0.00     0.249 C 
ATOM     15  O   UNL     1     -12.543  11.279  -4.098  1.00  0.00    -0.272 OA
ATOM     16  H   UNL     1     -10.338  10.433  -2.021  1.00  0.00     0.164 HD
BRANCH  14  17
ATOM     17  C   UNL     1     -11.608   9.074  -3.619  1.00  0.00     0.207 C 
BRANCH  17  18
ATOM     18  C   UNL     1     -10.918   8.473  -2.390  1.00  0.00     0.077 C 
BRANCH  18  19
ATOM     19  C   UNL     1     -11.847   7.569  -1.610  1.00  0.00    -0.043 A 
ATOM     20  C   UNL     1     -12.487   5.351  -0.865  1.00  0.00     0.083 A 
ATOM     21  C   UNL     1     -11.601   6.189  -1.544  1.00  0.00     0.028 A 
ATOM     22  C   UNL     1     -13.621   5.884  -0.252  1.00  0.00     0.134 A 
ATOM     23  C   UNL     1     -13.876   7.250  -0.310  1.00  0.00     0.048 A 
ATOM     24  C   UNL     1     -12.992   8.090  -0.990  1.00  0.00     0.008 A 
ATOM     25  Cl  UNL     1     -12.168   3.658  -0.795  1.00  0.00    -0.080 Cl
BRANCH  22  26
ATOM     26  O   UNL     1     -14.524   5.102   0.416  1.00  0.00    -0.506 OA
ATOM     27  H   UNL     1     -14.208   4.182   0.338  1.00  0.00     0.293 HD
ENDBRANCH  22  26
ENDBRANCH  18  19
ENDBRANCH  17  18
BRANCH  17  28
ATOM     28  O   UNL     1     -10.864   8.729  -4.799  1.00  0.00    -0.383 OA
ATOM     29  H   UNL     1     -10.737   9.569  -5.295  1.00  0.00     0.211 HD
ENDBRANCH  17  28
ENDBRANCH  14  17
ENDBRANCH  12  13
BRANCH  12  30
ATOM     30  C   UNL     1      -9.328  13.133  -2.532  1.00  0.00     0.018 C 
ATOM     31  C   UNL     1      -9.408  14.147  -3.683  1.00  0.00     0.010 C 
BRANCH  30  32
ATOM     32  C   UNL     1      -8.258  12.058  -2.843  1.00  0.00     0.002 C 
ATOM     33  C   UNL     1      -6.922  12.245  -2.136  1.00  0.00     0.004 C 
ENDBRANCH  30  32
ENDBRANCH  12  30
ENDBRANCH  10  12
ENDBRANCH   1  10
BRANCH   5  34
ATOM     34  C   UNL     1     -12.232  11.435   2.073  1.00  0.00     0.242 C 
ATOM     35  O   UNL     1     -12.926  10.716   2.792  1.00  0.00    -0.273 OA
ATOM     36  N   UNL     1     -12.148  12.798   2.253  1.00  0.00    -0.354 N 
ATOM     37  H   UNL     1     -11.655  13.356   1.554  1.00  0.00     0.163 HD
BRANCH  36  38
ATOM     38  C   UNL     1     -12.643  13.453   3.445  1.00  0.00     0.116 C 
BRANCH  38  39
ATOM     39  C   UNL     1     -13.774  14.411   3.079  1.00  0.00     0.023 C 
BRANCH  39  40
ATOM     40  C   UNL     1     -14.317  15.162   4.290  1.00  0.00     0.026 C 
BRANCH  40  41
ATOM     41  C   UNL     1     -15.842  15.066   4.347  1.00  0.00     0.146 C 
BRANCH  41  42
ATOM     42  N   UNL     1     -16.358  16.014   5.326  1.00  0.00    -0.254 NA
ATOM     43  C   UNL     1     -17.316  15.666   6.101  1.00  0.00     0.185 C 
ATOM     44  N   UNL     1     -17.981  14.499   6.183  1.00  0.00    -0.370 N 
ATOM     45  N   UNL     1     -17.781  16.555   6.993  1.00  0.00    -0.370 N 
ATOM     46  H   UNL     1     -18.864  14.445   6.662  1.00  0.00     0.159 HD
ATOM     47  H   UNL     1     -17.749  13.710   5.589  1.00  0.00     0.159 HD
ATOM     48  H   UNL     1     -17.327  17.459   7.003  1.00  0.00     0.159 HD
ATOM     49  H   UNL     1     -18.350  16.292   7.778  1.00  0.00     0.159 HD
ENDBRANCH  41  42
ENDBRANCH  40  41
ENDBRANCH  39  40
ENDBRANCH  38  39
ENDBRANCH  36  38
ENDBRANCH   5  34
BRANCH   8  50
ATOM     50  O   UNL     1      -7.925  12.758   3.572  1.00  0.00    -0.245 OA
BRANCH  50  51
ATOM     51  S   UNL     1      -7.031  13.421   4.757  1.00  0.00     0.397 S 
ATOM     52  O   UNL     1      -6.682  14.765   4.354  1.00  0.00    -0.169 OA
ATOM     53  O   UNL     1      -6.027  12.475   5.196  1.00  0.00    -0.169 OA
BRANCH  51  54
ATOM     54  O   UNL     1      -8.109  13.585   5.939  1.00  0.00    -0.264 OA
ATOM     55  H   UNL     1      -7.862  14.375   6.461  1.00  0.00     0.236 HD
ENDBRANCH  51  54
ENDBRANCH  50  51
ENDBRANCH   8  50
TORSDOF 19
ENDMDL
MODEL 10
REMARK VINA RESULT:    -5.850     12.551     16.526
REMARK INTER + INTRA:         -15.786
REMARK INTER:                 -11.370
REMARK INTRA:                  -4.417
REMARK UNBOUND:                -3.952
REMARK SMILES CC[C@@H](C)[C@@H](NC(=O)[C@@H](O)Cc1ccc(O)c(Cl)c1)C(=O)N1[C@H](C(=O)NCCCCN=C(N)N)C[C@H]2CC[C@H](OS(=O)(=O)O)C[C@@H]21
REMARK SMILES IDX 22 1 36 2 46 3 35 4 23 5 45 6 37 7 39 8 38 9 20 10 21 11
REMARK SMILES IDX 5 12 6 13 7 14 8 15 9 17 11 18 12 19 17 20 19 21 15 22 14 23
REMARK SMILES IDX 13 24 18 25 16 26 10 28 3 30 4 31 2 32 1 33 24 34 25 35
REMARK SMILES IDX 26 36 27 38 28 39 29 40 30 41 31 42 32 43 33 44 34 45 40 50
REMARK SMILES IDX 41 51 42 52 43 53 44 54
REMARK H PARENT 6 16 16 27 10 29 26 37 33 46 33 47 34 48 34 49 44 55
ROOT
ATOM      1  N   UNL     1     -10.241  12.079  -0.240  1.00  0.00    -0.326 N 
ATOM      2  C   UNL     1      -9.128  10.705   1.313  1.00  0.00     0.014 C 
ATOM      3  C   UNL     1      -8.902  11.833   0.303  1.00  0.00     0.091 C 
ATOM      4  C   UNL     1     -10.228   9.884   0.659  1.00  0.00     0.041 C 
ATOM      5  C   UNL     1     -11.172  11.010   0.199  1.00  0.00     0.175 C 
ATOM      6  C   UNL     1      -8.186  12.981   1.012  1.00  0.00     0.059 C 
ATOM      7  C   UNL     1      -7.818  10.035   1.679  1.00  0.00     0.008 C 
ATOM      8  C   UNL     1      -7.237  12.520   2.139  1.00  0.00     0.143 C 
ATOM      9  C   UNL     1      -6.712  11.088   1.904  1.00  0.00     0.034 C 
ENDROOT
BRANCH   1  10
ATOM     10  C   UNL     1     -10.655  12.977  -1.209  1.00  0.00     0.246 C 
ATOM     11  O   UNL     1     -11.301  13.974  -0.868  1.00  0.00    -0.272 OA
BRANCH  10  12
ATOM     12  C   UNL     1     -10.263  12.737  -2.696  1.00  0.00     0.174 C 
BRANCH  12  13
ATOM     13  N   UNL     1     -10.491  11.337  -3.052  1.00  0.00    -0.342 N 
ATOM     14  C   UNL     1     -11.708  10.801  -3.412  1.00  0.00     0.249 C 
ATOM     15  O   UNL     1     -12.740  11.454  -3.502  1.00  0.00    -0.272 OA
ATOM     16  H   UNL     1      -9.766  10.647  -2.873  1.00  0.00     0.164 HD
BRANCH  14  17
ATOM     17  C   UNL     1     -11.627   9.290  -3.712  1.00  0.00     0.207 C 
BRANCH  17  18
ATOM     18  C   UNL     1     -10.867   8.562  -2.599  1.00  0.00     0.077 C 
BRANCH  18  19
ATOM     19  C   UNL     1     -11.695   7.457  -1.983  1.00  0.00    -0.043 A 
ATOM     20  C   UNL     1     -13.624   6.741  -0.698  1.00  0.00     0.083 A 
ATOM     21  C   UNL     1     -12.888   7.758  -1.308  1.00  0.00     0.028 A 
ATOM     22  C   UNL     1     -13.174   5.421  -0.757  1.00  0.00     0.134 A 
ATOM     23  C   UNL     1     -11.995   5.109  -1.423  1.00  0.00     0.048 A 
ATOM     24  C   UNL     1     -11.255   6.125  -2.032  1.00  0.00     0.008 A 
ATOM     25  Cl  UNL     1     -15.087   7.131   0.127  1.00  0.00    -0.080 Cl
BRANCH  22  26
ATOM     26  O   UNL     1     -13.856   4.393  -0.166  1.00  0.00    -0.506 OA
ATOM     27  H   UNL     1     -14.564   4.797   0.370  1.00  0.00     0.293 HD
ENDBRANCH  22  26
ENDBRANCH  18  19
ENDBRANCH  17  18
BRANCH  17  28
ATOM     28  O   UNL     1     -10.978   9.046  -4.970  1.00  0.00    -0.383 OA
ATOM     29  H   UNL     1     -11.639   9.267  -5.665  1.00  0.00     0.211 HD
ENDBRANCH  17  28
ENDBRANCH  14  17
ENDBRANCH  12  13
BRANCH  12  30
ATOM     30  C   UNL     1      -8.817  13.202  -3.017  1.00  0.00     0.018 C 
ATOM     31  C   UNL     1      -8.794  14.085  -4.274  1.00  0.00     0.010 C 
BRANCH  30  32
ATOM     32  C   UNL     1      -7.809  12.036  -3.168  1.00  0.00     0.002 C 
ATOM     33  C   UNL     1      -6.500  12.205  -2.406  1.00  0.00     0.004 C 
ENDBRANCH  30  32
ENDBRANCH  12  30
ENDBRANCH  10  12
ENDBRANCH   1  10
BRANCH   5  34
ATOM     34  C   UNL     1     -12.074  11.509   1.359  1.00  0.00     0.242 C 
ATOM     35  O   UNL     1     -12.657  10.735   2.119  1.00  0.00    -0.273 OA
ATOM     36  N   UNL     1     -12.218  12.876   1.443  1.00  0.00    -0.354 N 
ATOM     37  H   UNL     1     -11.807  13.459   0.713  1.00  0.00     0.163 HD
BRANCH  36  38
ATOM     38  C   UNL     1     -12.841  13.519   2.581  1.00  0.00     0.116 C 
BRANCH  38  39
ATOM     39  C   UNL     1     -11.798  13.778   3.666  1.00  0.00     0.023 C 
BRANCH  39  40
ATOM     40  C   UNL     1     -12.361  13.598   5.071  1.00  0.00     0.026 C 
BRANCH  40  41
ATOM     41  C   UNL     1     -12.183  12.156   5.546  1.00  0.00     0.146 C 
BRANCH  41  42
ATOM     42  N   UNL     1     -10.764  11.845   5.655  1.00  0.00    -0.254 NA
ATOM     43  C   UNL     1     -10.306  10.781   5.110  1.00  0.00     0.185 C 
ATOM     44  N   UNL     1     -10.941   9.828   4.403  1.00  0.00    -0.370 N 
ATOM     45  N   UNL     1      -8.995  10.509   5.225  1.00  0.00    -0.370 N 
ATOM     46  H   UNL     1     -10.510   8.933   4.246  1.00  0.00     0.159 HD
ATOM     47  H   UNL     1     -11.936   9.883   4.209  1.00  0.00     0.159 HD
ATOM     48  H   UNL     1      -8.441  11.183   5.736  1.00  0.00     0.159 HD
ATOM     49  H   UNL     1      -8.525   9.841   4.641  1.00  0.00     0.159 HD
ENDBRANCH  41  42
ENDBRANCH  40  41
ENDBRANCH  39  40
ENDBRANCH  38  39
ENDBRANCH  36  38
ENDBRANCH   5  34
BRANCH   8  50
ATOM     50  O   UNL     1      -7.914  12.554   3.395  1.00  0.00    -0.245 OA
BRANCH  50  51
ATOM     51  S   UNL     1      -7.434  13.608   4.537  1.00  0.00     0.397 S 
ATOM     52  O   UNL     1      -6.654  12.882   5.515  1.00  0.00    -0.169 OA
ATOM     53  O   UNL     1      -8.549  14.446   4.926  1.00  0.00    -0.169 OA
BRANCH  51  54
ATOM     54  O   UNL     1      -6.385  14.522   3.731  1.00  0.00    -0.264 OA
ATOM     55  H   UNL     1      -5.508  14.088   3.785  1.00  0.00     0.236 HD
ENDBRANCH  51  54
ENDBRANCH  50  51
ENDBRANCH   8  50
TORSDOF 19
ENDMDL
