MODEL 1
REMARK VINA RESULT:    -6.604      0.000      0.000
REMARK INTER + INTRA:         -18.555
REMARK INTER:                 -13.360
REMARK INTRA:                  -5.195
REMARK UNBOUND:                -5.195
REMARK SMILES CC[C@@H](C)[C@@H](NC(=O)[C@@H](O)Cc1ccc(O)c(Cl)c1)C(=O)N1[C@H](C(=O)NCCCCN=C(N)N)C[C@H]2CC[C@H](OS(=O)(=O)O)C[C@@H]21
REMARK SMILES IDX 22 1 36 2 46 3 35 4 23 5 45 6 37 7 39 8 38 9 20 10 21 11
REMARK SMILES IDX 5 12 6 13 7 14 8 15 9 17 11 18 12 19 17 20 19 21 15 22 14 23
REMARK SMILES IDX 13 24 18 25 16 26 10 28 3 30 4 31 2 32 1 33 24 34 25 35
REMARK SMILES IDX 26 36 27 38 28 39 29 40 30 41 31 42 32 43 33 44 34 45 40 50
REMARK SMILES IDX 41 51 42 52 43 53 44 54
REMARK H PARENT 6 16 16 27 10 29 26 37 33 46 33 47 34 48 34 49 44 55
ROOT
ATOM      1  N   UNL     1       4.653   2.969  11.189  1.00  0.00    -0.326 N 
ATOM      2  C   UNL     1       6.884   3.491  10.648  1.00  0.00     0.014 C 
ATOM      3  C   UNL     1       5.872   2.341  10.672  1.00  0.00     0.091 C 
ATOM      4  C   UNL     1       6.488   4.310  11.867  1.00  0.00     0.041 C 
ATOM      5  C   UNL     1       4.958   4.329  11.698  1.00  0.00     0.175 C 
ATOM      6  C   UNL     1       5.828   1.709   9.282  1.00  0.00     0.059 C 
ATOM      7  C   UNL     1       8.301   2.964  10.534  1.00  0.00     0.008 C 
ATOM      8  C   UNL     1       7.175   1.765   8.530  1.00  0.00     0.143 C 
ATOM      9  C   UNL     1       8.376   1.824   9.496  1.00  0.00     0.034 C 
ENDROOT
BRANCH   1  10
ATOM     10  C   UNL     1       3.410   2.415  11.446  1.00  0.00     0.246 C 
ATOM     11  O   UNL     1       2.576   2.361  10.536  1.00  0.00    -0.272 OA
BRANCH  10  12
ATOM     12  C   UNL     1       3.106   1.836  12.858  1.00  0.00     0.174 C 
BRANCH  12  13
ATOM     13  N   UNL     1       4.349   1.685  13.614  1.00  0.00    -0.342 N 
ATOM     14  C   UNL     1       4.675   2.393  14.749  1.00  0.00     0.249 C 
ATOM     15  O   UNL     1       3.938   3.218  15.273  1.00  0.00    -0.272 OA
ATOM     16  H   UNL     1       5.119   1.154  13.215  1.00  0.00     0.164 HD
BRANCH  14  17
ATOM     17  C   UNL     1       6.066   2.018  15.305  1.00  0.00     0.207 C 
BRANCH  17  18
ATOM     18  C   UNL     1       6.942   1.422  14.199  1.00  0.00     0.077 C 
BRANCH  18  19
ATOM     19  C   UNL     1       8.309   2.066  14.156  1.00  0.00    -0.043 A 
ATOM     20  C   UNL     1      10.656   1.980  13.549  1.00  0.00     0.083 A 
ATOM     21  C   UNL     1       9.385   1.405  13.544  1.00  0.00     0.028 A 
ATOM     22  C   UNL     1      10.861   3.215  14.166  1.00  0.00     0.134 A 
ATOM     23  C   UNL     1       9.804   3.881  14.776  1.00  0.00     0.048 A 
ATOM     24  C   UNL     1       8.531   3.307  14.773  1.00  0.00     0.008 A 
ATOM     25  Cl  UNL     1      11.966   1.152  12.792  1.00  0.00    -0.080 Cl
BRANCH  22  26
ATOM     26  O   UNL     1      12.091   3.813  14.206  1.00  0.00    -0.506 OA
ATOM     27  H   UNL     1      12.749   3.096  14.270  1.00  0.00     0.293 HD
ENDBRANCH  22  26
ENDBRANCH  18  19
ENDBRANCH  17  18
BRANCH  17  28
ATOM     28  O   UNL     1       5.955   1.078  16.385  1.00  0.00    -0.383 OA
ATOM     29  H   UNL     1       6.836   0.646  16.461  1.00  0.00     0.211 HD
ENDBRANCH  17  28
ENDBRANCH  14  17
ENDBRANCH  12  13
BRANCH  12  30
ATOM     30  C   UNL     1       2.282   0.522  12.803  1.00  0.00     0.018 C 
ATOM     31  C   UNL     1       1.943   0.029  14.219  1.00  0.00     0.010 C 
BRANCH  30  32
ATOM     32  C   UNL     1       2.968  -0.608  11.997  1.00  0.00     0.002 C 
ATOM     33  C   UNL     1       2.639  -2.024  12.451  1.00  0.00     0.004 C 
ENDBRANCH  30  32
ENDBRANCH  12  30
ENDBRANCH  10  12
ENDBRANCH   1  10
BRANCH   5  34
ATOM     34  C   UNL     1       4.508   5.411  10.681  1.00  0.00     0.242 C 
ATOM     35  O   UNL     1       3.950   5.126   9.621  1.00  0.00    -0.273 OA
ATOM     36  N   UNL     1       4.828   6.706  11.023  1.00  0.00    -0.354 N 
ATOM     37  H   UNL     1       5.396   6.868  11.855  1.00  0.00     0.163 HD
BRANCH  36  38
ATOM     38  C   UNL     1       4.301   7.848  10.306  1.00  0.00     0.116 C 
BRANCH  38  39
ATOM     39  C   UNL     1       5.427   8.551   9.552  1.00  0.00     0.023 C 
BRANCH  39  40
ATOM     40  C   UNL     1       4.967   9.120   8.214  1.00  0.00     0.026 C 
BRANCH  40  41
ATOM     41  C   UNL     1       5.690   8.432   7.056  1.00  0.00     0.146 C 
BRANCH  41  42
ATOM     42  N   UNL     1       5.066   7.144   6.781  1.00  0.00    -0.254 NA
ATOM     43  C   UNL     1       5.698   6.064   7.052  1.00  0.00     0.185 C 
ATOM     44  N   UNL     1       6.922   5.887   7.583  1.00  0.00    -0.370 N 
ATOM     45  N   UNL     1       5.107   4.887   6.787  1.00  0.00    -0.370 N 
ATOM     46  H   UNL     1       7.387   4.998   7.514  1.00  0.00     0.159 HD
ATOM     47  H   UNL     1       7.503   6.673   7.856  1.00  0.00     0.159 HD
ATOM     48  H   UNL     1       4.178   4.931   6.393  1.00  0.00     0.159 HD
ATOM     49  H   UNL     1       5.425   4.019   7.180  1.00  0.00     0.159 HD
ENDBRANCH  41  42
ENDBRANCH  40  41
ENDBRANCH  39  40
ENDBRANCH  38  39
ENDBRANCH  36  38
ENDBRANCH   5  34
BRANCH   8  50
ATOM     50  O   UNL     1       7.217   2.915   7.684  1.00  0.00    -0.245 OA
BRANCH  50  51
ATOM     51  S   UNL     1       8.357   3.021   6.530  1.00  0.00     0.397 S 
ATOM     52  O   UNL     1       8.690   1.680   6.106  1.00  0.00    -0.169 OA
ATOM     53  O   UNL     1       9.377   3.964   6.939  1.00  0.00    -0.169 OA
BRANCH  51  54
ATOM     54  O   UNL     1       7.539   3.675   5.309  1.00  0.00    -0.264 OA
ATOM     55  H   UNL     1       7.048   2.957   4.861  1.00  0.00     0.236 HD
ENDBRANCH  51  54
ENDBRANCH  50  51
ENDBRANCH   8  50
TORSDOF 19
ENDMDL
MODEL 2
REMARK VINA RESULT:    -6.461      2.844      5.493
REMARK INTER + INTRA:         -18.266
REMARK INTER:                 -14.450
REMARK INTRA:                  -3.816
REMARK UNBOUND:                -5.195
REMARK SMILES CC[C@@H](C)[C@@H](NC(=O)[C@@H](O)Cc1ccc(O)c(Cl)c1)C(=O)N1[C@H](C(=O)NCCCCN=C(N)N)C[C@H]2CC[C@H](OS(=O)(=O)O)C[C@@H]21
REMARK SMILES IDX 22 1 36 2 46 3 35 4 23 5 45 6 37 7 39 8 38 9 20 10 21 11
REMARK SMILES IDX 5 12 6 13 7 14 8 15 9 17 11 18 12 19 17 20 19 21 15 22 14 23
REMARK SMILES IDX 13 24 18 25 16 26 10 28 3 30 4 31 2 32 1 33 24 34 25 35
REMARK SMILES IDX 26 36 27 38 28 39 29 40 30 41 31 42 32 43 33 44 34 45 40 50
REMARK SMILES IDX 41 51 42 52 43 53 44 54
REMARK H PARENT 6 16 16 27 10 29 26 37 33 46 33 47 34 48 34 49 44 55
ROOT
ATOM      1  N   UNL     1       4.945   2.904  11.500  1.00  0.00    -0.326 N 
ATOM      2  C   UNL     1       7.075   3.496  10.691  1.00  0.00     0.014 C 
ATOM      3  C   UNL     1       6.126   2.308  10.868  1.00  0.00     0.091 C 
ATOM      4  C   UNL     1       6.783   4.344  11.920  1.00  0.00     0.041 C 
ATOM      5  C   UNL     1       5.244   4.294  11.925  1.00  0.00     0.175 C 
ATOM      6  C   UNL     1       5.954   1.622   9.514  1.00  0.00     0.059 C 
ATOM      7  C   UNL     1       8.493   3.024  10.434  1.00  0.00     0.008 C 
ATOM      8  C   UNL     1       7.204   1.705   8.612  1.00  0.00     0.143 C 
ATOM      9  C   UNL     1       8.502   1.850   9.433  1.00  0.00     0.034 C 
ENDROOT
BRANCH   1  10
ATOM     10  C   UNL     1       3.765   2.310  11.915  1.00  0.00     0.246 C 
ATOM     11  O   UNL     1       2.758   2.415  11.207  1.00  0.00    -0.272 OA
BRANCH  10  12
ATOM     12  C   UNL     1       3.744   1.490  13.237  1.00  0.00     0.174 C 
BRANCH  12  13
ATOM     13  N   UNL     1       2.689   0.479  13.180  1.00  0.00    -0.342 N 
ATOM     14  C   UNL     1       2.688  -0.704  13.885  1.00  0.00     0.249 C 
ATOM     15  O   UNL     1       3.571  -1.031  14.669  1.00  0.00    -0.272 OA
ATOM     16  H   UNL     1       1.974   0.537  12.459  1.00  0.00     0.164 HD
BRANCH  14  17
ATOM     17  C   UNL     1       1.443  -1.569  13.597  1.00  0.00     0.207 C 
BRANCH  17  18
ATOM     18  C   UNL     1       1.832  -2.822  12.806  1.00  0.00     0.077 C 
BRANCH  18  19
ATOM     19  C   UNL     1       1.831  -4.058  13.676  1.00  0.00    -0.043 A 
ATOM     20  C   UNL     1       3.003  -5.950  14.642  1.00  0.00     0.083 A 
ATOM     21  C   UNL     1       3.017  -4.782  13.879  1.00  0.00     0.028 A 
ATOM     22  C   UNL     1       1.809  -6.402  15.205  1.00  0.00     0.134 A 
ATOM     23  C   UNL     1       0.628  -5.695  15.013  1.00  0.00     0.048 A 
ATOM     24  C   UNL     1       0.638  -4.527  14.248  1.00  0.00     0.008 A 
ATOM     25  Cl  UNL     1       4.469  -6.827  14.879  1.00  0.00    -0.080 Cl
BRANCH  22  26
ATOM     26  O   UNL     1       1.744  -7.547  15.952  1.00  0.00    -0.506 OA
ATOM     27  H   UNL     1       1.415  -7.289  16.833  1.00  0.00     0.293 HD
ENDBRANCH  22  26
ENDBRANCH  18  19
ENDBRANCH  17  18
BRANCH  17  28
ATOM     28  O   UNL     1       0.457  -0.827  12.860  1.00  0.00    -0.383 OA
ATOM     29  H   UNL     1       0.425   0.066  13.272  1.00  0.00     0.211 HD
ENDBRANCH  17  28
ENDBRANCH  14  17
ENDBRANCH  12  13
BRANCH  12  30
ATOM     30  C   UNL     1       3.635   2.388  14.499  1.00  0.00     0.018 C 
ATOM     31  C   UNL     1       2.794   3.640  14.207  1.00  0.00     0.010 C 
BRANCH  30  32
ATOM     32  C   UNL     1       5.006   2.795  15.092  1.00  0.00     0.002 C 
ATOM     33  C   UNL     1       6.153   1.837  14.797  1.00  0.00     0.004 C 
ENDBRANCH  30  32
ENDBRANCH  12  30
ENDBRANCH  10  12
ENDBRANCH   1  10
BRANCH   5  34
ATOM     34  C   UNL     1       4.634   5.317  10.931  1.00  0.00     0.242 C 
ATOM     35  O   UNL     1       4.034   4.969   9.914  1.00  0.00    -0.273 OA
ATOM     36  N   UNL     1       4.861   6.640  11.239  1.00  0.00    -0.354 N 
ATOM     37  H   UNL     1       5.467   6.863  12.029  1.00  0.00     0.163 HD
BRANCH  36  38
ATOM     38  C   UNL     1       4.189   7.721  10.548  1.00  0.00     0.116 C 
BRANCH  38  39
ATOM     39  C   UNL     1       5.190   8.484   9.683  1.00  0.00     0.023 C 
BRANCH  39  40
ATOM     40  C   UNL     1       4.606   8.886   8.333  1.00  0.00     0.026 C 
BRANCH  40  41
ATOM     41  C   UNL     1       5.394   8.247   7.190  1.00  0.00     0.146 C 
BRANCH  41  42
ATOM     42  N   UNL     1       4.790   6.972   6.827  1.00  0.00    -0.254 NA
ATOM     43  C   UNL     1       5.373   5.880   7.152  1.00  0.00     0.185 C 
ATOM     44  N   UNL     1       6.525   5.679   7.817  1.00  0.00    -0.370 N 
ATOM     45  N   UNL     1       4.802   4.715   6.804  1.00  0.00    -0.370 N 
ATOM     46  H   UNL     1       6.985   4.784   7.788  1.00  0.00     0.159 HD
ATOM     47  H   UNL     1       7.081   6.453   8.166  1.00  0.00     0.159 HD
ATOM     48  H   UNL     1       3.924   4.777   6.306  1.00  0.00     0.159 HD
ATOM     49  H   UNL     1       5.062   3.837   7.217  1.00  0.00     0.159 HD
ENDBRANCH  41  42
ENDBRANCH  40  41
ENDBRANCH  39  40
ENDBRANCH  38  39
ENDBRANCH  36  38
ENDBRANCH   5  34
BRANCH   8  50
ATOM     50  O   UNL     1       7.099   2.823   7.729  1.00  0.00    -0.245 OA
BRANCH  50  51
ATOM     51  S   UNL     1       8.007   2.870   6.381  1.00  0.00     0.397 S 
ATOM     52  O   UNL     1       7.217   3.473   5.331  1.00  0.00    -0.169 OA
ATOM     53  O   UNL     1       8.669   1.595   6.196  1.00  0.00    -0.169 OA
BRANCH  51  54
ATOM     54  O   UNL     1       9.126   3.957   6.768  1.00  0.00    -0.264 OA
ATOM     55  H   UNL     1       9.306   3.872   7.726  1.00  0.00     0.236 HD
ENDBRANCH  51  54
ENDBRANCH  50  51
ENDBRANCH   8  50
TORSDOF 19
ENDMDL
MODEL 3
REMARK VINA RESULT:    -6.265      3.220      6.164
REMARK INTER + INTRA:         -17.869
REMARK INTER:                 -13.707
REMARK INTRA:                  -4.162
REMARK UNBOUND:                -5.195
REMARK SMILES CC[C@@H](C)[C@@H](NC(=O)[C@@H](O)Cc1ccc(O)c(Cl)c1)C(=O)N1[C@H](C(=O)NCCCCN=C(N)N)C[C@H]2CC[C@H](OS(=O)(=O)O)C[C@@H]21
REMARK SMILES IDX 22 1 36 2 46 3 35 4 23 5 45 6 37 7 39 8 38 9 20 10 21 11
REMARK SMILES IDX 5 12 6 13 7 14 8 15 9 17 11 18 12 19 17 20 19 21 15 22 14 23
REMARK SMILES IDX 13 24 18 25 16 26 10 28 3 30 4 31 2 32 1 33 24 34 25 35
REMARK SMILES IDX 26 36 27 38 28 39 29 40 30 41 31 42 32 43 33 44 34 45 40 50
REMARK SMILES IDX 41 51 42 52 43 53 44 54
REMARK H PARENT 6 16 16 27 10 29 26 37 33 46 33 47 34 48 34 49 44 55
ROOT
ATOM      1  N   UNL     1       7.301   1.617  14.112  1.00  0.00    -0.326 N 
ATOM      2  C   UNL     1       8.671   2.934  12.722  1.00  0.00     0.014 C 
ATOM      3  C   UNL     1       8.609   1.589  13.451  1.00  0.00     0.091 C 
ATOM      4  C   UNL     1       7.926   3.862  13.669  1.00  0.00     0.041 C 
ATOM      5  C   UNL     1       6.716   2.977  14.022  1.00  0.00     0.175 C 
ATOM      6  C   UNL     1       8.886   0.478  12.439  1.00  0.00     0.059 C 
ATOM      7  C   UNL     1      10.095   3.268  12.321  1.00  0.00     0.008 C 
ATOM      8  C   UNL     1       9.849   0.895  11.307  1.00  0.00     0.143 C 
ATOM      9  C   UNL     1      10.804   2.025  11.745  1.00  0.00     0.034 C 
ENDROOT
BRANCH   1  10
ATOM     10  C   UNL     1       6.701   0.677  14.932  1.00  0.00     0.246 C 
ATOM     11  O   UNL     1       6.812   0.789  16.157  1.00  0.00    -0.272 OA
BRANCH  10  12
ATOM     12  C   UNL     1       5.866  -0.473  14.297  1.00  0.00     0.174 C 
BRANCH  12  13
ATOM     13  N   UNL     1       4.448  -0.113  14.287  1.00  0.00    -0.342 N 
ATOM     14  C   UNL     1       3.673   0.015  13.156  1.00  0.00     0.249 C 
ATOM     15  O   UNL     1       4.085  -0.188  12.021  1.00  0.00    -0.272 OA
ATOM     16  H   UNL     1       4.011   0.236  15.136  1.00  0.00     0.164 HD
BRANCH  14  17
ATOM     17  C   UNL     1       2.219   0.423  13.474  1.00  0.00     0.207 C 
BRANCH  17  18
ATOM     18  C   UNL     1       1.235  -0.563  12.836  1.00  0.00     0.077 C 
BRANCH  18  19
ATOM     19  C   UNL     1       1.266  -1.911  13.520  1.00  0.00    -0.043 A 
ATOM     20  C   UNL     1       1.005  -3.260  15.519  1.00  0.00     0.083 A 
ATOM     21  C   UNL     1       0.928  -2.023  14.878  1.00  0.00     0.028 A 
ATOM     22  C   UNL     1       1.420  -4.389  14.811  1.00  0.00     0.134 A 
ATOM     23  C   UNL     1       1.758  -4.291  13.466  1.00  0.00     0.048 A 
ATOM     24  C   UNL     1       1.683  -3.054  12.822  1.00  0.00     0.008 A 
ATOM     25  Cl  UNL     1       0.586  -3.378  17.188  1.00  0.00    -0.080 Cl
BRANCH  22  26
ATOM     26  O   UNL     1       1.522  -5.620  15.400  1.00  0.00    -0.506 OA
ATOM     27  H   UNL     1       1.478  -5.475  16.363  1.00  0.00     0.293 HD
ENDBRANCH  22  26
ENDBRANCH  18  19
ENDBRANCH  17  18
BRANCH  17  28
ATOM     28  O   UNL     1       1.939   1.750  13.001  1.00  0.00    -0.383 OA
ATOM     29  H   UNL     1       1.354   2.162  13.676  1.00  0.00     0.211 HD
ENDBRANCH  17  28
ENDBRANCH  14  17
ENDBRANCH  12  13
BRANCH  12  30
ATOM     30  C   UNL     1       6.124  -1.846  14.974  1.00  0.00     0.018 C 
ATOM     31  C   UNL     1       7.425  -2.476  14.452  1.00  0.00     0.010 C 
BRANCH  30  32
ATOM     32  C   UNL     1       4.950  -2.844  14.821  1.00  0.00     0.002 C 
ATOM     33  C   UNL     1       5.324  -4.206  14.249  1.00  0.00     0.004 C 
ENDBRANCH  30  32
ENDBRANCH  12  30
ENDBRANCH  10  12
ENDBRANCH   1  10
BRANCH   5  34
ATOM     34  C   UNL     1       5.625   3.035  12.920  1.00  0.00     0.242 C 
ATOM     35  O   UNL     1       4.523   3.550  13.111  1.00  0.00    -0.273 OA
ATOM     36  N   UNL     1       5.958   2.423  11.732  1.00  0.00    -0.354 N 
ATOM     37  H   UNL     1       6.839   1.909  11.675  1.00  0.00     0.163 HD
BRANCH  36  38
ATOM     38  C   UNL     1       5.155   2.566  10.536  1.00  0.00     0.116 C 
BRANCH  38  39
ATOM     39  C   UNL     1       6.057   2.854   9.338  1.00  0.00     0.023 C 
BRANCH  39  40
ATOM     40  C   UNL     1       6.699   4.236   9.410  1.00  0.00     0.026 C 
BRANCH  40  41
ATOM     41  C   UNL     1       5.723   5.312   8.936  1.00  0.00     0.146 C 
BRANCH  41  42
ATOM     42  N   UNL     1       5.930   6.536   9.699  1.00  0.00    -0.254 NA
ATOM     43  C   UNL     1       5.237   6.750  10.753  1.00  0.00     0.185 C 
ATOM     44  N   UNL     1       4.282   5.997  11.329  1.00  0.00    -0.370 N 
ATOM     45  N   UNL     1       5.441   7.886  11.440  1.00  0.00    -0.370 N 
ATOM     46  H   UNL     1       3.655   6.394  12.007  1.00  0.00     0.159 HD
ATOM     47  H   UNL     1       4.012   5.096  10.947  1.00  0.00     0.159 HD
ATOM     48  H   UNL     1       6.151   8.508  11.078  1.00  0.00     0.159 HD
ATOM     49  H   UNL     1       5.120   8.017  12.383  1.00  0.00     0.159 HD
ENDBRANCH  41  42
ENDBRANCH  40  41
ENDBRANCH  39  40
ENDBRANCH  38  39
ENDBRANCH  36  38
ENDBRANCH   5  34
BRANCH   8  50
ATOM     50  O   UNL     1       9.108   1.343  10.172  1.00  0.00    -0.245 OA
BRANCH  50  51
ATOM     51  S   UNL     1       9.279   0.577   8.747  1.00  0.00     0.397 S 
ATOM     52  O   UNL     1       8.625   1.371   7.732  1.00  0.00    -0.169 OA
ATOM     53  O   UNL     1       8.988  -0.832   8.915  1.00  0.00    -0.169 OA
BRANCH  51  54
ATOM     54  O   UNL     1      10.856   0.728   8.472  1.00  0.00    -0.264 OA
ATOM     55  H   UNL     1      11.144   1.584   8.851  1.00  0.00     0.236 HD
ENDBRANCH  51  54
ENDBRANCH  50  51
ENDBRANCH   8  50
TORSDOF 19
ENDMDL
MODEL 4
REMARK VINA RESULT:    -6.137      3.603      7.036
REMARK INTER + INTRA:         -17.610
REMARK INTER:                 -15.243
REMARK INTRA:                  -2.367
REMARK UNBOUND:                -5.195
REMARK SMILES CC[C@@H](C)[C@@H](NC(=O)[C@@H](O)Cc1ccc(O)c(Cl)c1)C(=O)N1[C@H](C(=O)NCCCCN=C(N)N)C[C@H]2CC[C@H](OS(=O)(=O)O)C[C@@H]21
REMARK SMILES IDX 22 1 36 2 46 3 35 4 23 5 45 6 37 7 39 8 38 9 20 10 21 11
REMARK SMILES IDX 5 12 6 13 7 14 8 15 9 17 11 18 12 19 17 20 19 21 15 22 14 23
REMARK SMILES IDX 13 24 18 25 16 26 10 28 3 30 4 31 2 32 1 33 24 34 25 35
REMARK SMILES IDX 26 36 27 38 28 39 29 40 30 41 31 42 32 43 33 44 34 45 40 50
REMARK SMILES IDX 41 51 42 52 43 53 44 54
REMARK H PARENT 6 16 16 27 10 29 26 37 33 46 33 47 34 48 34 49 44 55
ROOT
ATOM      1  N   UNL     1       5.817   3.692  10.473  1.00  0.00    -0.326 N 
ATOM      2  C   UNL     1       6.026   4.291   8.206  1.00  0.00     0.014 C 
ATOM      3  C   UNL     1       5.349   4.700   9.517  1.00  0.00     0.091 C 
ATOM      4  C   UNL     1       6.045   2.773   8.297  1.00  0.00     0.041 C 
ATOM      5  C   UNL     1       6.510   2.594   9.754  1.00  0.00     0.175 C 
ATOM      6  C   UNL     1       5.677   6.166   9.793  1.00  0.00     0.059 C 
ATOM      7  C   UNL     1       5.356   4.957   7.020  1.00  0.00     0.008 C 
ATOM      8  C   UNL     1       5.849   7.016   8.515  1.00  0.00     0.143 C 
ATOM      9  C   UNL     1       5.056   6.439   7.325  1.00  0.00     0.034 C 
ENDROOT
BRANCH   1  10
ATOM     10  C   UNL     1       5.522   3.537  11.816  1.00  0.00     0.246 C 
ATOM     11  O   UNL     1       4.891   4.426  12.399  1.00  0.00    -0.272 OA
BRANCH  10  12
ATOM     12  C   UNL     1       5.950   2.234  12.551  1.00  0.00     0.174 C 
BRANCH  12  13
ATOM     13  N   UNL     1       4.771   1.548  13.078  1.00  0.00    -0.342 N 
ATOM     14  C   UNL     1       3.943   0.725  12.348  1.00  0.00     0.249 C 
ATOM     15  O   UNL     1       4.123   0.451  11.168  1.00  0.00    -0.272 OA
ATOM     16  H   UNL     1       4.408   1.801  13.994  1.00  0.00     0.164 HD
BRANCH  14  17
ATOM     17  C   UNL     1       2.773   0.164  13.183  1.00  0.00     0.207 C 
BRANCH  17  18
ATOM     18  C   UNL     1       1.941  -0.816  12.350  1.00  0.00     0.077 C 
BRANCH  18  19
ATOM     19  C   UNL     1       1.505  -2.015  13.162  1.00  0.00    -0.043 A 
ATOM     20  C   UNL     1       1.879  -4.287  13.925  1.00  0.00     0.083 A 
ATOM     21  C   UNL     1       2.308  -3.165  13.215  1.00  0.00     0.028 A 
ATOM     22  C   UNL     1       0.649  -4.269  14.583  1.00  0.00     0.134 A 
ATOM     23  C   UNL     1      -0.156  -3.137  14.539  1.00  0.00     0.048 A 
ATOM     24  C   UNL     1       0.270  -2.012  13.828  1.00  0.00     0.008 A 
ATOM     25  Cl  UNL     1       2.880  -5.691  13.978  1.00  0.00    -0.080 Cl
BRANCH  22  26
ATOM     26  O   UNL     1       0.182  -5.348  15.283  1.00  0.00    -0.506 OA
ATOM     27  H   UNL     1       0.751  -6.104  15.046  1.00  0.00     0.293 HD
ENDBRANCH  22  26
ENDBRANCH  18  19
ENDBRANCH  17  18
BRANCH  17  28
ATOM     28  O   UNL     1       1.925   1.221  13.661  1.00  0.00    -0.383 OA
ATOM     29  H   UNL     1       1.835   1.856  12.915  1.00  0.00     0.211 HD
ENDBRANCH  17  28
ENDBRANCH  14  17
ENDBRANCH  12  13
BRANCH  12  30
ATOM     30  C   UNL     1       7.025   2.486  13.642  1.00  0.00     0.018 C 
ATOM     31  C   UNL     1       6.378   2.595  15.032  1.00  0.00     0.010 C 
BRANCH  30  32
ATOM     32  C   UNL     1       7.909   3.728  13.369  1.00  0.00     0.002 C 
ATOM     33  C   UNL     1       8.385   4.474  14.608  1.00  0.00     0.004 C 
ENDBRANCH  30  32
ENDBRANCH  12  30
ENDBRANCH  10  12
ENDBRANCH   1  10
BRANCH   5  34
ATOM     34  C   UNL     1       8.050   2.737   9.884  1.00  0.00     0.242 C 
ATOM     35  O   UNL     1       8.643   3.770   9.576  1.00  0.00    -0.273 OA
ATOM     36  N   UNL     1       8.708   1.608  10.318  1.00  0.00    -0.354 N 
ATOM     37  H   UNL     1       8.176   0.746  10.443  1.00  0.00     0.163 HD
BRANCH  36  38
ATOM     38  C   UNL     1      10.105   1.626  10.700  1.00  0.00     0.116 C 
BRANCH  38  39
ATOM     39  C   UNL     1      10.793   0.354  10.212  1.00  0.00     0.023 C 
BRANCH  39  40
ATOM     40  C   UNL     1       9.977  -0.379   9.152  1.00  0.00     0.026 C 
BRANCH  40  41
ATOM     41  C   UNL     1      10.484  -0.045   7.750  1.00  0.00     0.146 C 
BRANCH  41  42
ATOM     42  N   UNL     1       9.665   1.011   7.169  1.00  0.00    -0.254 NA
ATOM     43  C   UNL     1       8.910   0.749   6.169  1.00  0.00     0.185 C 
ATOM     44  N   UNL     1       8.719  -0.408   5.508  1.00  0.00    -0.370 N 
ATOM     45  N   UNL     1       8.166   1.737   5.645  1.00  0.00    -0.370 N 
ATOM     46  H   UNL     1       8.290  -0.414   4.599  1.00  0.00     0.159 HD
ATOM     47  H   UNL     1       9.195  -1.262   5.782  1.00  0.00     0.159 HD
ATOM     48  H   UNL     1       8.243   2.641   6.091  1.00  0.00     0.159 HD
ATOM     49  H   UNL     1       7.389   1.566   5.032  1.00  0.00     0.159 HD
ENDBRANCH  41  42
ENDBRANCH  40  41
ENDBRANCH  39  40
ENDBRANCH  38  39
ENDBRANCH  36  38
ENDBRANCH   5  34
BRANCH   8  50
ATOM     50  O   UNL     1       7.228   7.081   8.152  1.00  0.00    -0.245 OA
BRANCH  50  51
ATOM     51  S   UNL     1       7.831   8.457   7.528  1.00  0.00     0.397 S 
ATOM     52  O   UNL     1       9.039   8.784   8.251  1.00  0.00    -0.169 OA
ATOM     53  O   UNL     1       6.763   9.420   7.356  1.00  0.00    -0.169 OA
BRANCH  51  54
ATOM     54  O   UNL     1       8.309   7.981   6.068  1.00  0.00    -0.264 OA
ATOM     55  H   UNL     1       8.106   7.028   5.983  1.00  0.00     0.236 HD
ENDBRANCH  51  54
ENDBRANCH  50  51
ENDBRANCH   8  50
TORSDOF 19
ENDMDL
MODEL 5
REMARK VINA RESULT:    -5.984      3.382      6.296
REMARK INTER + INTRA:         -17.301
REMARK INTER:                 -13.474
REMARK INTRA:                  -3.827
REMARK UNBOUND:                -5.195
REMARK SMILES CC[C@@H](C)[C@@H](NC(=O)[C@@H](O)Cc1ccc(O)c(Cl)c1)C(=O)N1[C@H](C(=O)NCCCCN=C(N)N)C[C@H]2CC[C@H](OS(=O)(=O)O)C[C@@H]21
REMARK SMILES IDX 22 1 36 2 46 3 35 4 23 5 45 6 37 7 39 8 38 9 20 10 21 11
REMARK SMILES IDX 5 12 6 13 7 14 8 15 9 17 11 18 12 19 17 20 19 21 15 22 14 23
REMARK SMILES IDX 13 24 18 25 16 26 10 28 3 30 4 31 2 32 1 33 24 34 25 35
REMARK SMILES IDX 26 36 27 38 28 39 29 40 30 41 31 42 32 43 33 44 34 45 40 50
REMARK SMILES IDX 41 51 42 52 43 53 44 54
REMARK H PARENT 6 16 16 27 10 29 26 37 33 46 33 47 34 48 34 49 44 55
ROOT
ATOM      1  N   UNL     1       5.898   3.572  11.235  1.00  0.00    -0.326 N 
ATOM      2  C   UNL     1       5.545   4.104   8.969  1.00  0.00     0.014 C 
ATOM      3  C   UNL     1       5.259   4.588  10.393  1.00  0.00     0.091 C 
ATOM      4  C   UNL     1       5.496   2.591   9.113  1.00  0.00     0.041 C 
ATOM      5  C   UNL     1       6.313   2.413  10.406  1.00  0.00     0.175 C 
ATOM      6  C   UNL     1       5.735   6.034  10.516  1.00  0.00     0.059 C 
ATOM      7  C   UNL     1       4.631   4.786   7.970  1.00  0.00     0.008 C 
ATOM      8  C   UNL     1       5.619   6.840   9.205  1.00  0.00     0.143 C 
ATOM      9  C   UNL     1       4.510   6.292   8.284  1.00  0.00     0.034 C 
ENDROOT
BRANCH   1  10
ATOM     10  C   UNL     1       5.954   3.469  12.614  1.00  0.00     0.246 C 
ATOM     11  O   UNL     1       6.872   4.029  13.222  1.00  0.00    -0.272 OA
BRANCH  10  12
ATOM     12  C   UNL     1       4.840   2.690  13.371  1.00  0.00     0.174 C 
BRANCH  12  13
ATOM     13  N   UNL     1       5.100   1.252  13.298  1.00  0.00    -0.342 N 
ATOM     14  C   UNL     1       5.244   0.419  14.385  1.00  0.00     0.249 C 
ATOM     15  O   UNL     1       5.141   0.791  15.548  1.00  0.00    -0.272 OA
ATOM     16  H   UNL     1       5.364   0.832  12.410  1.00  0.00     0.164 HD
BRANCH  14  17
ATOM     17  C   UNL     1       5.529  -1.043  13.981  1.00  0.00     0.207 C 
BRANCH  17  18
ATOM     18  C   UNL     1       4.886  -2.010  14.981  1.00  0.00     0.077 C 
BRANCH  18  19
ATOM     19  C   UNL     1       3.691  -2.720  14.387  1.00  0.00    -0.043 A 
ATOM     20  C   UNL     1       2.291  -4.694  14.212  1.00  0.00     0.083 A 
ATOM     21  C   UNL     1       3.365  -4.022  14.798  1.00  0.00     0.028 A 
ATOM     22  C   UNL     1       1.539  -4.072  13.214  1.00  0.00     0.134 A 
ATOM     23  C   UNL     1       1.851  -2.783  12.798  1.00  0.00     0.048 A 
ATOM     24  C   UNL     1       2.927  -2.109  13.381  1.00  0.00     0.008 A 
ATOM     25  Cl  UNL     1       1.906  -6.293  14.730  1.00  0.00    -0.080 Cl
BRANCH  22  26
ATOM     26  O   UNL     1       0.485  -4.695  12.603  1.00  0.00    -0.506 OA
ATOM     27  H   UNL     1       0.167  -4.089  11.907  1.00  0.00     0.293 HD
ENDBRANCH  22  26
ENDBRANCH  18  19
ENDBRANCH  17  18
BRANCH  17  28
ATOM     28  O   UNL     1       6.941  -1.296  13.915  1.00  0.00    -0.383 OA
ATOM     29  H   UNL     1       7.048  -2.270  14.003  1.00  0.00     0.211 HD
ENDBRANCH  17  28
ENDBRANCH  14  17
ENDBRANCH  12  13
BRANCH  12  30
ATOM     30  C   UNL     1       3.413   3.059  12.883  1.00  0.00     0.018 C 
ATOM     31  C   UNL     1       2.651   3.840  13.966  1.00  0.00     0.010 C 
BRANCH  30  32
ATOM     32  C   UNL     1       2.579   1.839  12.422  1.00  0.00     0.002 C 
ATOM     33  C   UNL     1       2.504   1.634  10.914  1.00  0.00     0.004 C 
ENDBRANCH  30  32
ENDBRANCH  12  30
ENDBRANCH  10  12
ENDBRANCH   1  10
BRANCH   5  34
ATOM     34  C   UNL     1       7.839   2.453  10.128  1.00  0.00     0.242 C 
ATOM     35  O   UNL     1       8.469   3.509  10.066  1.00  0.00    -0.273 OA
ATOM     36  N   UNL     1       8.426   1.228   9.902  1.00  0.00    -0.354 N 
ATOM     37  H   UNL     1       7.830   0.401   9.848  1.00  0.00     0.163 HD
BRANCH  36  38
ATOM     38  C   UNL     1       9.863   1.058   9.842  1.00  0.00     0.116 C 
BRANCH  38  39
ATOM     39  C   UNL     1      10.273   0.603   8.443  1.00  0.00     0.023 C 
BRANCH  39  40
ATOM     40  C   UNL     1       9.091   0.090   7.628  1.00  0.00     0.026 C 
BRANCH  40  41
ATOM     41  C   UNL     1       8.834   0.990   6.419  1.00  0.00     0.146 C 
BRANCH  41  42
ATOM     42  N   UNL     1       9.039   2.384   6.791  1.00  0.00    -0.254 NA
ATOM     43  C   UNL     1       8.153   3.257   6.487  1.00  0.00     0.185 C 
ATOM     44  N   UNL     1       6.982   3.113   5.842  1.00  0.00    -0.370 N 
ATOM     45  N   UNL     1       8.363   4.537   6.835  1.00  0.00    -0.370 N 
ATOM     46  H   UNL     1       6.506   3.911   5.458  1.00  0.00     0.159 HD
ATOM     47  H   UNL     1       6.659   2.206   5.519  1.00  0.00     0.159 HD
ATOM     48  H   UNL     1       9.221   4.731   7.334  1.00  0.00     0.159 HD
ATOM     49  H   UNL     1       7.631   5.224   6.848  1.00  0.00     0.159 HD
ENDBRANCH  41  42
ENDBRANCH  40  41
ENDBRANCH  39  40
ENDBRANCH  38  39
ENDBRANCH  36  38
ENDBRANCH   5  34
BRANCH   8  50
ATOM     50  O   UNL     1       6.858   6.802   8.495  1.00  0.00    -0.245 OA
BRANCH  50  51
ATOM     51  S   UNL     1       7.271   8.047   7.534  1.00  0.00     0.397 S 
ATOM     52  O   UNL     1       8.683   8.300   7.712  1.00  0.00    -0.169 OA
ATOM     53  O   UNL     1       6.289   9.104   7.658  1.00  0.00    -0.169 OA
BRANCH  51  54
ATOM     54  O   UNL     1       7.123   7.403   6.068  1.00  0.00    -0.264 OA
ATOM     55  H   UNL     1       7.317   6.446   6.142  1.00  0.00     0.236 HD
ENDBRANCH  51  54
ENDBRANCH  50  51
ENDBRANCH   8  50
TORSDOF 19
ENDMDL
MODEL 6
REMARK VINA RESULT:    -5.971      3.370      6.210
REMARK INTER + INTRA:         -17.274
REMARK INTER:                 -12.803
REMARK INTRA:                  -4.471
REMARK UNBOUND:                -5.195
REMARK SMILES CC[C@@H](C)[C@@H](NC(=O)[C@@H](O)Cc1ccc(O)c(Cl)c1)C(=O)N1[C@H](C(=O)NCCCCN=C(N)N)C[C@H]2CC[C@H](OS(=O)(=O)O)C[C@@H]21
REMARK SMILES IDX 22 1 36 2 46 3 35 4 23 5 45 6 37 7 39 8 38 9 20 10 21 11
REMARK SMILES IDX 5 12 6 13 7 14 8 15 9 17 11 18 12 19 17 20 19 21 15 22 14 23
REMARK SMILES IDX 13 24 18 25 16 26 10 28 3 30 4 31 2 32 1 33 24 34 25 35
REMARK SMILES IDX 26 36 27 38 28 39 29 40 30 41 31 42 32 43 33 44 34 45 40 50
REMARK SMILES IDX 41 51 42 52 43 53 44 54
REMARK H PARENT 6 16 16 27 10 29 26 37 33 46 33 47 34 48 34 49 44 55
ROOT
ATOM      1  N   UNL     1       7.383   1.576  14.250  1.00  0.00    -0.326 N 
ATOM      2  C   UNL     1       8.755   2.998  12.970  1.00  0.00     0.014 C 
ATOM      3  C   UNL     1       8.713   1.619  13.636  1.00  0.00     0.091 C 
ATOM      4  C   UNL     1       7.947   3.858  13.929  1.00  0.00     0.041 C 
ATOM      5  C   UNL     1       6.756   2.920  14.199  1.00  0.00     0.175 C 
ATOM      6  C   UNL     1       9.061   0.565  12.586  1.00  0.00     0.059 C 
ATOM      7  C   UNL     1      10.179   3.395  12.635  1.00  0.00     0.008 C 
ATOM      8  C   UNL     1      10.049   1.064  11.509  1.00  0.00     0.143 C 
ATOM      9  C   UNL     1      10.949   2.202  12.030  1.00  0.00     0.034 C 
ENDROOT
BRANCH   1  10
ATOM     10  C   UNL     1       6.786   0.581  15.005  1.00  0.00     0.246 C 
ATOM     11  O   UNL     1       6.882   0.622  16.236  1.00  0.00    -0.272 OA
BRANCH  10  12
ATOM     12  C   UNL     1       5.973  -0.539  14.294  1.00  0.00     0.174 C 
BRANCH  12  13
ATOM     13  N   UNL     1       4.546  -0.220  14.330  1.00  0.00    -0.342 N 
ATOM     14  C   UNL     1       3.754  -0.015  13.223  1.00  0.00     0.249 C 
ATOM     15  O   UNL     1       4.156  -0.107  12.070  1.00  0.00    -0.272 OA
ATOM     16  H   UNL     1       4.111   0.041  15.212  1.00  0.00     0.164 HD
BRANCH  14  17
ATOM     17  C   UNL     1       2.293   0.322  13.591  1.00  0.00     0.207 C 
BRANCH  17  18
ATOM     18  C   UNL     1       1.327  -0.618  12.863  1.00  0.00     0.077 C 
BRANCH  18  19
ATOM     19  C   UNL     1       1.259  -1.976  13.525  1.00  0.00    -0.043 A 
ATOM     20  C   UNL     1       0.868  -3.338  15.494  1.00  0.00     0.083 A 
ATOM     21  C   UNL     1       0.882  -2.089  14.873  1.00  0.00     0.028 A 
ATOM     22  C   UNL     1       1.230  -4.479  14.777  1.00  0.00     0.134 A 
ATOM     23  C   UNL     1       1.605  -4.381  13.442  1.00  0.00     0.048 A 
ATOM     24  C   UNL     1       1.622  -3.132  12.818  1.00  0.00     0.008 A 
ATOM     25  Cl  UNL     1       0.403  -3.457  17.151  1.00  0.00    -0.080 Cl
BRANCH  22  26
ATOM     26  O   UNL     1       1.242  -5.723  15.346  1.00  0.00    -0.506 OA
ATOM     27  H   UNL     1       1.829  -5.671  16.123  1.00  0.00     0.293 HD
ENDBRANCH  22  26
ENDBRANCH  18  19
ENDBRANCH  17  18
BRANCH  17  28
ATOM     28  O   UNL     1       1.977   1.683  13.256  1.00  0.00    -0.383 OA
ATOM     29  H   UNL     1       2.388   1.850  12.378  1.00  0.00     0.211 HD
ENDBRANCH  17  28
ENDBRANCH  14  17
ENDBRANCH  12  13
BRANCH  12  30
ATOM     30  C   UNL     1       6.279  -1.953  14.858  1.00  0.00     0.018 C 
ATOM     31  C   UNL     1       7.594  -2.499  14.282  1.00  0.00     0.010 C 
BRANCH  30  32
ATOM     32  C   UNL     1       5.136  -2.972  14.633  1.00  0.00     0.002 C 
ATOM     33  C   UNL     1       4.561  -3.596  15.897  1.00  0.00     0.004 C 
ENDBRANCH  30  32
ENDBRANCH  12  30
ENDBRANCH  10  12
ENDBRANCH   1  10
BRANCH   5  34
ATOM     34  C   UNL     1       5.702   2.993  13.062  1.00  0.00     0.242 C 
ATOM     35  O   UNL     1       4.581   3.472  13.233  1.00  0.00    -0.273 OA
ATOM     36  N   UNL     1       6.092   2.434  11.865  1.00  0.00    -0.354 N 
ATOM     37  H   UNL     1       6.987   1.945  11.819  1.00  0.00     0.163 HD
BRANCH  36  38
ATOM     38  C   UNL     1       5.327   2.604  10.647  1.00  0.00     0.116 C 
BRANCH  38  39
ATOM     39  C   UNL     1       5.857   3.803   9.865  1.00  0.00     0.023 C 
BRANCH  39  40
ATOM     40  C   UNL     1       5.388   3.805   8.414  1.00  0.00     0.026 C 
BRANCH  40  41
ATOM     41  C   UNL     1       6.509   4.266   7.483  1.00  0.00     0.146 C 
BRANCH  41  42
ATOM     42  N   UNL     1       7.788   3.760   7.964  1.00  0.00    -0.254 NA
ATOM     43  C   UNL     1       8.791   4.551   8.047  1.00  0.00     0.185 C 
ATOM     44  N   UNL     1       8.888   5.860   7.749  1.00  0.00    -0.370 N 
ATOM     45  N   UNL     1       9.962   4.065   8.489  1.00  0.00    -0.370 N 
ATOM     46  H   UNL     1       9.787   6.294   7.629  1.00  0.00     0.159 HD
ATOM     47  H   UNL     1       8.090   6.391   7.413  1.00  0.00     0.159 HD
ATOM     48  H   UNL     1       9.974   3.087   8.743  1.00  0.00     0.159 HD
ATOM     49  H   UNL     1      10.713   4.655   8.803  1.00  0.00     0.159 HD
ENDBRANCH  41  42
ENDBRANCH  40  41
ENDBRANCH  39  40
ENDBRANCH  38  39
ENDBRANCH  36  38
ENDBRANCH   5  34
BRANCH   8  50
ATOM     50  O   UNL     1       9.332   1.539  10.369  1.00  0.00    -0.245 OA
BRANCH  50  51
ATOM     51  S   UNL     1       9.142   0.567   9.078  1.00  0.00     0.397 S 
ATOM     52  O   UNL     1       9.206  -0.802   9.537  1.00  0.00    -0.169 OA
ATOM     53  O   UNL     1       9.967   1.043   7.987  1.00  0.00    -0.169 OA
BRANCH  51  54
ATOM     54  O   UNL     1       7.604   0.827   8.686  1.00  0.00    -0.264 OA
ATOM     55  H   UNL     1       7.165   1.239   9.458  1.00  0.00     0.236 HD
ENDBRANCH  51  54
ENDBRANCH  50  51
ENDBRANCH   8  50
TORSDOF 19
ENDMDL
MODEL 7
REMARK VINA RESULT:    -5.942      3.854      7.195
REMARK INTER + INTRA:         -17.217
REMARK INTER:                 -14.918
REMARK INTRA:                  -2.299
REMARK UNBOUND:                -5.195
REMARK SMILES CC[C@@H](C)[C@@H](NC(=O)[C@@H](O)Cc1ccc(O)c(Cl)c1)C(=O)N1[C@H](C(=O)NCCCCN=C(N)N)C[C@H]2CC[C@H](OS(=O)(=O)O)C[C@@H]21
REMARK SMILES IDX 22 1 36 2 46 3 35 4 23 5 45 6 37 7 39 8 38 9 20 10 21 11
REMARK SMILES IDX 5 12 6 13 7 14 8 15 9 17 11 18 12 19 17 20 19 21 15 22 14 23
REMARK SMILES IDX 13 24 18 25 16 26 10 28 3 30 4 31 2 32 1 33 24 34 25 35
REMARK SMILES IDX 26 36 27 38 28 39 29 40 30 41 31 42 32 43 33 44 34 45 40 50
REMARK SMILES IDX 41 51 42 52 43 53 44 54
REMARK H PARENT 6 16 16 27 10 29 26 37 33 46 33 47 34 48 34 49 44 55
ROOT
ATOM      1  N   UNL     1       6.029   3.651  10.485  1.00  0.00    -0.326 N 
ATOM      2  C   UNL     1       6.236   4.137   8.190  1.00  0.00     0.014 C 
ATOM      3  C   UNL     1       5.605   4.642   9.491  1.00  0.00     0.091 C 
ATOM      4  C   UNL     1       6.167   2.626   8.350  1.00  0.00     0.041 C 
ATOM      5  C   UNL     1       6.644   2.484   9.807  1.00  0.00     0.175 C 
ATOM      6  C   UNL     1       6.022   6.097   9.696  1.00  0.00     0.059 C 
ATOM      7  C   UNL     1       5.586   4.787   6.984  1.00  0.00     0.008 C 
ATOM      8  C   UNL     1       6.223   6.878   8.379  1.00  0.00     0.143 C 
ATOM      9  C   UNL     1       5.378   6.297   7.227  1.00  0.00     0.034 C 
ENDROOT
BRANCH   1  10
ATOM     10  C   UNL     1       5.746   3.574  11.838  1.00  0.00     0.246 C 
ATOM     11  O   UNL     1       5.179   4.524  12.388  1.00  0.00    -0.272 OA
BRANCH  10  12
ATOM     12  C   UNL     1       6.109   2.282  12.625  1.00  0.00     0.174 C 
BRANCH  12  13
ATOM     13  N   UNL     1       4.890   1.629  13.100  1.00  0.00    -0.342 N 
ATOM     14  C   UNL     1       4.040   0.878  12.319  1.00  0.00     0.249 C 
ATOM     15  O   UNL     1       4.229   0.648  11.131  1.00  0.00    -0.272 OA
ATOM     16  H   UNL     1       4.522   1.857  14.020  1.00  0.00     0.164 HD
BRANCH  14  17
ATOM     17  C   UNL     1       2.829   0.335  13.109  1.00  0.00     0.207 C 
BRANCH  17  18
ATOM     18  C   UNL     1       1.974  -0.573  12.220  1.00  0.00     0.077 C 
BRANCH  18  19
ATOM     19  C   UNL     1       1.451  -1.771  12.980  1.00  0.00    -0.043 A 
ATOM     20  C   UNL     1      -0.262  -2.808  14.350  1.00  0.00     0.083 A 
ATOM     21  C   UNL     1       0.197  -1.718  13.608  1.00  0.00     0.028 A 
ATOM     22  C   UNL     1       0.527  -3.953  14.470  1.00  0.00     0.134 A 
ATOM     23  C   UNL     1       1.770  -4.018  13.852  1.00  0.00     0.048 A 
ATOM     24  C   UNL     1       2.233  -2.929  13.110  1.00  0.00     0.008 A 
ATOM     25  Cl  UNL     1      -1.805  -2.724  15.115  1.00  0.00    -0.080 Cl
BRANCH  22  26
ATOM     26  O   UNL     1       0.125  -5.041  15.195  1.00  0.00    -0.506 OA
ATOM     27  H   UNL     1      -0.216  -4.702  16.043  1.00  0.00     0.293 HD
ENDBRANCH  22  26
ENDBRANCH  18  19
ENDBRANCH  17  18
BRANCH  17  28
ATOM     28  O   UNL     1       2.018   1.408  13.614  1.00  0.00    -0.383 OA
ATOM     29  H   UNL     1       2.087   1.363  14.594  1.00  0.00     0.211 HD
ENDBRANCH  17  28
ENDBRANCH  14  17
ENDBRANCH  12  13
BRANCH  12  30
ATOM     30  C   UNL     1       7.126   2.542  13.769  1.00  0.00     0.018 C 
ATOM     31  C   UNL     1       8.272   1.518  13.724  1.00  0.00     0.010 C 
BRANCH  30  32
ATOM     32  C   UNL     1       6.485   2.561  15.178  1.00  0.00     0.002 C 
ATOM     33  C   UNL     1       7.135   1.639  16.201  1.00  0.00     0.004 C 
ENDBRANCH  30  32
ENDBRANCH  12  30
ENDBRANCH  10  12
ENDBRANCH   1  10
BRANCH   5  34
ATOM     34  C   UNL     1       8.192   2.541   9.910  1.00  0.00     0.242 C 
ATOM     35  O   UNL     1       8.826   3.580   9.724  1.00  0.00    -0.273 OA
ATOM     36  N   UNL     1       8.807   1.336  10.169  1.00  0.00    -0.354 N 
ATOM     37  H   UNL     1       8.237   0.489  10.194  1.00  0.00     0.163 HD
BRANCH  36  38
ATOM     38  C   UNL     1      10.211   1.243  10.509  1.00  0.00     0.116 C 
BRANCH  38  39
ATOM     39  C   UNL     1      10.733  -0.154  10.177  1.00  0.00     0.023 C 
BRANCH  39  40
ATOM     40  C   UNL     1      10.037  -0.762   8.964  1.00  0.00     0.026 C 
BRANCH  40  41
ATOM     41  C   UNL     1      10.700  -0.296   7.668  1.00  0.00     0.146 C 
BRANCH  41  42
ATOM     42  N   UNL     1       9.833   0.655   6.986  1.00  0.00    -0.254 NA
ATOM     43  C   UNL     1       9.047   0.245   6.062  1.00  0.00     0.185 C 
ATOM     44  N   UNL     1       8.860  -0.994   5.572  1.00  0.00    -0.370 N 
ATOM     45  N   UNL     1       8.259   1.138   5.442  1.00  0.00    -0.370 N 
ATOM     46  H   UNL     1       8.396  -1.132   4.690  1.00  0.00     0.159 HD
ATOM     47  H   UNL     1       9.367  -1.794   5.937  1.00  0.00     0.159 HD
ATOM     48  H   UNL     1       8.331   2.096   5.758  1.00  0.00     0.159 HD
ATOM     49  H   UNL     1       7.463   0.871   4.890  1.00  0.00     0.159 HD
ENDBRANCH  41  42
ENDBRANCH  40  41
ENDBRANCH  39  40
ENDBRANCH  38  39
ENDBRANCH  36  38
ENDBRANCH   5  34
BRANCH   8  50
ATOM     50  O   UNL     1       7.598   6.845   7.994  1.00  0.00    -0.245 OA
BRANCH  50  51
ATOM     51  S   UNL     1       8.233   8.099   7.177  1.00  0.00     0.397 S 
ATOM     52  O   UNL     1       7.398   9.255   7.413  1.00  0.00    -0.169 OA
ATOM     53  O   UNL     1       8.586   7.678   5.837  1.00  0.00    -0.169 OA
BRANCH  51  54
ATOM     54  O   UNL     1       9.596   8.370   7.986  1.00  0.00    -0.264 OA
ATOM     55  H   UNL     1       9.748   7.607   8.579  1.00  0.00     0.236 HD
ENDBRANCH  51  54
ENDBRANCH  50  51
ENDBRANCH   8  50
TORSDOF 19
ENDMDL
MODEL 8
REMARK VINA RESULT:    -5.843      3.469      6.662
REMARK INTER + INTRA:         -17.016
REMARK INTER:                 -13.793
REMARK INTRA:                  -3.223
REMARK UNBOUND:                -5.195
REMARK SMILES CC[C@@H](C)[C@@H](NC(=O)[C@@H](O)Cc1ccc(O)c(Cl)c1)C(=O)N1[C@H](C(=O)NCCCCN=C(N)N)C[C@H]2CC[C@H](OS(=O)(=O)O)C[C@@H]21
REMARK SMILES IDX 22 1 36 2 46 3 35 4 23 5 45 6 37 7 39 8 38 9 20 10 21 11
REMARK SMILES IDX 5 12 6 13 7 14 8 15 9 17 11 18 12 19 17 20 19 21 15 22 14 23
REMARK SMILES IDX 13 24 18 25 16 26 10 28 3 30 4 31 2 32 1 33 24 34 25 35
REMARK SMILES IDX 26 36 27 38 28 39 29 40 30 41 31 42 32 43 33 44 34 45 40 50
REMARK SMILES IDX 41 51 42 52 43 53 44 54
REMARK H PARENT 6 16 16 27 10 29 26 37 33 46 33 47 34 48 34 49 44 55
ROOT
ATOM      1  N   UNL     1       6.116   3.526  11.687  1.00  0.00    -0.326 N 
ATOM      2  C   UNL     1       5.121   3.941   9.594  1.00  0.00     0.014 C 
ATOM      3  C   UNL     1       5.202   4.465  11.031  1.00  0.00     0.091 C 
ATOM      4  C   UNL     1       5.218   2.435   9.781  1.00  0.00     0.041 C 
ATOM      5  C   UNL     1       6.368   2.361  10.803  1.00  0.00     0.175 C 
ATOM      6  C   UNL     1       5.592   5.942  10.985  1.00  0.00     0.059 C 
ATOM      7  C   UNL     1       3.923   4.525   8.872  1.00  0.00     0.008 C 
ATOM      8  C   UNL     1       5.066   6.685   9.738  1.00  0.00     0.143 C 
ATOM      9  C   UNL     1       3.788   6.033   9.171  1.00  0.00     0.034 C 
ENDROOT
BRANCH   1  10
ATOM     10  C   UNL     1       6.555   3.484  12.999  1.00  0.00     0.246 C 
ATOM     11  O   UNL     1       7.198   4.438  13.450  1.00  0.00    -0.272 OA
BRANCH  10  12
ATOM     12  C   UNL     1       6.193   2.259  13.890  1.00  0.00     0.174 C 
BRANCH  12  13
ATOM     13  N   UNL     1       4.762   1.976  13.790  1.00  0.00    -0.342 N 
ATOM     14  C   UNL     1       4.220   0.764  13.422  1.00  0.00     0.249 C 
ATOM     15  O   UNL     1       4.886  -0.230  13.162  1.00  0.00    -0.272 OA
ATOM     16  H   UNL     1       4.093   2.741  13.823  1.00  0.00     0.164 HD
BRANCH  14  17
ATOM     17  C   UNL     1       2.677   0.786  13.394  1.00  0.00     0.207 C 
BRANCH  17  18
ATOM     18  C   UNL     1       2.148  -0.154  12.306  1.00  0.00     0.077 C 
BRANCH  18  19
ATOM     19  C   UNL     1       1.592  -1.433  12.891  1.00  0.00    -0.043 A 
ATOM     20  C   UNL     1      -0.128  -2.599  14.143  1.00  0.00     0.083 A 
ATOM     21  C   UNL     1       0.359  -1.427  13.562  1.00  0.00     0.028 A 
ATOM     22  C   UNL     1       0.612  -3.779  14.059  1.00  0.00     0.134 A 
ATOM     23  C   UNL     1       1.834  -3.799  13.397  1.00  0.00     0.048 A 
ATOM     24  C   UNL     1       2.325  -2.628  12.816  1.00  0.00     0.008 A 
ATOM     25  Cl  UNL     1      -1.644  -2.572  14.964  1.00  0.00    -0.080 Cl
BRANCH  22  26
ATOM     26  O   UNL     1       0.180  -4.950  14.622  1.00  0.00    -0.506 OA
ATOM     27  H   UNL     1      -0.513  -4.713  15.265  1.00  0.00     0.293 HD
ENDBRANCH  22  26
ENDBRANCH  18  19
ENDBRANCH  17  18
BRANCH  17  28
ATOM     28  O   UNL     1       2.183   2.114  13.157  1.00  0.00    -0.383 OA
ATOM     29  H   UNL     1       2.681   2.456  12.380  1.00  0.00     0.211 HD
ENDBRANCH  17  28
ENDBRANCH  14  17
ENDBRANCH  12  13
BRANCH  12  30
ATOM     30  C   UNL     1       6.663   2.427  15.360  1.00  0.00     0.018 C 
ATOM     31  C   UNL     1       7.525   1.233  15.798  1.00  0.00     0.010 C 
BRANCH  30  32
ATOM     32  C   UNL     1       5.502   2.641  16.362  1.00  0.00     0.002 C 
ATOM     33  C   UNL     1       5.774   2.166  17.784  1.00  0.00     0.004 C 
ENDBRANCH  30  32
ENDBRANCH  12  30
ENDBRANCH  10  12
ENDBRANCH   1  10
BRANCH   5  34
ATOM     34  C   UNL     1       7.753   2.482  10.114  1.00  0.00     0.242 C 
ATOM     35  O   UNL     1       8.507   3.434  10.314  1.00  0.00    -0.273 OA
ATOM     36  N   UNL     1       8.054   1.476   9.223  1.00  0.00    -0.354 N 
ATOM     37  H   UNL     1       7.340   0.778   9.010  1.00  0.00     0.163 HD
BRANCH  36  38
ATOM     38  C   UNL     1       9.378   1.313   8.658  1.00  0.00     0.116 C 
BRANCH  38  39
ATOM     39  C   UNL     1       9.491   2.114   7.363  1.00  0.00     0.023 C 
BRANCH  39  40
ATOM     40  C   UNL     1       8.385   1.775   6.370  1.00  0.00     0.026 C 
BRANCH  40  41
ATOM     41  C   UNL     1       7.220   2.756   6.499  1.00  0.00     0.146 C 
BRANCH  41  42
ATOM     42  N   UNL     1       7.500   3.958   5.724  1.00  0.00    -0.254 NA
ATOM     43  C   UNL     1       7.929   5.008   6.318  1.00  0.00     0.185 C 
ATOM     44  N   UNL     1       8.187   5.221   7.621  1.00  0.00    -0.370 N 
ATOM     45  N   UNL     1       8.177   6.107   5.586  1.00  0.00    -0.370 N 
ATOM     46  H   UNL     1       8.283   6.156   7.979  1.00  0.00     0.159 HD
ATOM     47  H   UNL     1       8.067   4.489   8.315  1.00  0.00     0.159 HD
ATOM     48  H   UNL     1       8.016   6.029   4.591  1.00  0.00     0.159 HD
ATOM     49  H   UNL     1       8.728   6.875   5.928  1.00  0.00     0.159 HD
ENDBRANCH  41  42
ENDBRANCH  40  41
ENDBRANCH  39  40
ENDBRANCH  38  39
ENDBRANCH  36  38
ENDBRANCH   5  34
BRANCH   8  50
ATOM     50  O   UNL     1       6.062   6.692   8.715  1.00  0.00    -0.245 OA
BRANCH  50  51
ATOM     51  S   UNL     1       6.334   8.054   7.869  1.00  0.00     0.397 S 
ATOM     52  O   UNL     1       5.659   7.931   6.597  1.00  0.00    -0.169 OA
ATOM     53  O   UNL     1       7.736   8.408   7.953  1.00  0.00    -0.169 OA
BRANCH  51  54
ATOM     54  O   UNL     1       5.497   9.142   8.706  1.00  0.00    -0.264 OA
ATOM     55  H   UNL     1       4.723   9.404   8.165  1.00  0.00     0.236 HD
ENDBRANCH  51  54
ENDBRANCH  50  51
ENDBRANCH   8  50
TORSDOF 19
ENDMDL
MODEL 9
REMARK VINA RESULT:    -5.766      3.687      7.609
REMARK INTER + INTRA:         -16.861
REMARK INTER:                 -13.984
REMARK INTRA:                  -2.877
REMARK UNBOUND:                -5.195
REMARK SMILES CC[C@@H](C)[C@@H](NC(=O)[C@@H](O)Cc1ccc(O)c(Cl)c1)C(=O)N1[C@H](C(=O)NCCCCN=C(N)N)C[C@H]2CC[C@H](OS(=O)(=O)O)C[C@@H]21
REMARK SMILES IDX 22 1 36 2 46 3 35 4 23 5 45 6 37 7 39 8 38 9 20 10 21 11
REMARK SMILES IDX 5 12 6 13 7 14 8 15 9 17 11 18 12 19 17 20 19 21 15 22 14 23
REMARK SMILES IDX 13 24 18 25 16 26 10 28 3 30 4 31 2 32 1 33 24 34 25 35
REMARK SMILES IDX 26 36 27 38 28 39 29 40 30 41 31 42 32 43 33 44 34 45 40 50
REMARK SMILES IDX 41 51 42 52 43 53 44 54
REMARK H PARENT 6 16 16 27 10 29 26 37 33 46 33 47 34 48 34 49 44 55
ROOT
ATOM      1  N   UNL     1       6.830   2.718   8.718  1.00  0.00    -0.326 N 
ATOM      2  C   UNL     1       8.218   3.766   7.132  1.00  0.00     0.014 C 
ATOM      3  C   UNL     1       6.769   3.687   7.621  1.00  0.00     0.091 C 
ATOM      4  C   UNL     1       8.716   2.343   7.329  1.00  0.00     0.041 C 
ATOM      5  C   UNL     1       8.155   2.049   8.733  1.00  0.00     0.175 C 
ATOM      6  C   UNL     1       6.286   5.103   7.931  1.00  0.00     0.059 C 
ATOM      7  C   UNL     1       8.292   4.396   5.755  1.00  0.00     0.008 C 
ATOM      8  C   UNL     1       6.921   6.187   7.034  1.00  0.00     0.143 C 
ATOM      9  C   UNL     1       7.361   5.624   5.667  1.00  0.00     0.034 C 
ENDROOT
BRANCH   1  10
ATOM     10  C   UNL     1       5.819   2.229   9.529  1.00  0.00     0.246 C 
ATOM     11  O   UNL     1       4.970   1.475   9.041  1.00  0.00    -0.272 OA
BRANCH  10  12
ATOM     12  C   UNL     1       5.798   2.603  11.039  1.00  0.00     0.174 C 
BRANCH  12  13
ATOM     13  N   UNL     1       4.498   2.268  11.618  1.00  0.00    -0.342 N 
ATOM     14  C   UNL     1       4.262   1.217  12.476  1.00  0.00     0.249 C 
ATOM     15  O   UNL     1       5.133   0.455  12.876  1.00  0.00    -0.272 OA
ATOM     16  H   UNL     1       3.657   2.712  11.258  1.00  0.00     0.164 HD
BRANCH  14  17
ATOM     17  C   UNL     1       2.781   1.115  12.899  1.00  0.00     0.207 C 
BRANCH  17  18
ATOM     18  C   UNL     1       2.186  -0.222  12.445  1.00  0.00     0.077 C 
BRANCH  18  19
ATOM     19  C   UNL     1       1.643  -1.020  13.608  1.00  0.00    -0.043 A 
ATOM     20  C   UNL     1      -0.212  -2.117  14.723  1.00  0.00     0.083 A 
ATOM     21  C   UNL     1       0.298  -1.423  13.625  1.00  0.00     0.028 A 
ATOM     22  C   UNL     1       0.614  -2.410  15.809  1.00  0.00     0.134 A 
ATOM     23  C   UNL     1       1.947  -2.017  15.805  1.00  0.00     0.048 A 
ATOM     24  C   UNL     1       2.460  -1.321  14.709  1.00  0.00     0.008 A 
ATOM     25  Cl  UNL     1      -1.866  -2.604  14.725  1.00  0.00    -0.080 Cl
BRANCH  22  26
ATOM     26  O   UNL     1       0.156  -3.079  16.912  1.00  0.00    -0.506 OA
ATOM     27  H   UNL     1      -0.043  -2.403  17.586  1.00  0.00     0.293 HD
ENDBRANCH  22  26
ENDBRANCH  18  19
ENDBRANCH  17  18
BRANCH  17  28
ATOM     28  O   UNL     1       2.009   2.193  12.347  1.00  0.00    -0.383 OA
ATOM     29  H   UNL     1       1.853   1.960  11.403  1.00  0.00     0.211 HD
ENDBRANCH  17  28
ENDBRANCH  14  17
ENDBRANCH  12  13
BRANCH  12  30
ATOM     30  C   UNL     1       6.198   4.081  11.297  1.00  0.00     0.018 C 
ATOM     31  C   UNL     1       7.047   4.203  12.572  1.00  0.00     0.010 C 
BRANCH  30  32
ATOM     32  C   UNL     1       4.991   5.048  11.366  1.00  0.00     0.002 C 
ATOM     33  C   UNL     1       5.298   6.498  11.014  1.00  0.00     0.004 C 
ENDBRANCH  30  32
ENDBRANCH  12  30
ENDBRANCH  10  12
ENDBRANCH   1  10
BRANCH   5  34
ATOM     34  C   UNL     1       9.059   2.643   9.846  1.00  0.00     0.242 C 
ATOM     35  O   UNL     1       9.451   3.810   9.822  1.00  0.00    -0.273 OA
ATOM     36  N   UNL     1       9.433   1.757  10.831  1.00  0.00    -0.354 N 
ATOM     37  H   UNL     1       9.175   0.775  10.732  1.00  0.00     0.163 HD
BRANCH  36  38
ATOM     38  C   UNL     1      10.089   2.187  12.049  1.00  0.00     0.116 C 
BRANCH  38  39
ATOM     39  C   UNL     1       9.482   1.464  13.248  1.00  0.00     0.023 C 
BRANCH  39  40
ATOM     40  C   UNL     1      10.314   0.264  13.687  1.00  0.00     0.026 C 
BRANCH  40  41
ATOM     41  C   UNL     1       9.703  -1.038  13.170  1.00  0.00     0.146 C 
BRANCH  41  42
ATOM     42  N   UNL     1       8.257  -1.010  13.351  1.00  0.00    -0.254 NA
ATOM     43  C   UNL     1       7.705  -1.830  14.165  1.00  0.00     0.185 C 
ATOM     44  N   UNL     1       8.256  -2.781  14.942  1.00  0.00    -0.370 N 
ATOM     45  N   UNL     1       6.371  -1.791  14.315  1.00  0.00    -0.370 N 
ATOM     46  H   UNL     1       7.688  -3.508  15.342  1.00  0.00     0.159 HD
ATOM     47  H   UNL     1       9.258  -2.938  14.962  1.00  0.00     0.159 HD
ATOM     48  H   UNL     1       5.879  -1.095  13.771  1.00  0.00     0.159 HD
ATOM     49  H   UNL     1       5.898  -2.222  15.089  1.00  0.00     0.159 HD
ENDBRANCH  41  42
ENDBRANCH  40  41
ENDBRANCH  39  40
ENDBRANCH  38  39
ENDBRANCH  36  38
ENDBRANCH   5  34
BRANCH   8  50
ATOM     50  O   UNL     1       8.063   6.750   7.680  1.00  0.00    -0.245 OA
BRANCH  50  51
ATOM     51  S   UNL     1       8.166   8.363   7.868  1.00  0.00     0.397 S 
ATOM     52  O   UNL     1       7.627   8.985   6.679  1.00  0.00    -0.169 OA
ATOM     53  O   UNL     1       9.475   8.710   8.380  1.00  0.00    -0.169 OA
BRANCH  51  54
ATOM     54  O   UNL     1       7.090   8.635   9.031  1.00  0.00    -0.264 OA
ATOM     55  H   UNL     1       7.177   9.570   9.306  1.00  0.00     0.236 HD
ENDBRANCH  51  54
ENDBRANCH  50  51
ENDBRANCH   8  50
TORSDOF 19
ENDMDL
MODEL 10
REMARK VINA RESULT:    -5.741      2.927      6.539
REMARK INTER + INTRA:         -16.809
REMARK INTER:                 -13.379
REMARK INTRA:                  -3.430
REMARK UNBOUND:                -5.195
REMARK SMILES CC[C@@H](C)[C@@H](NC(=O)[C@@H](O)Cc1ccc(O)c(Cl)c1)C(=O)N1[C@H](C(=O)NCCCCN=C(N)N)C[C@H]2CC[C@H](OS(=O)(=O)O)C[C@@H]21
REMARK SMILES IDX 22 1 36 2 46 3 35 4 23 5 45 6 37 7 39 8 38 9 20 10 21 11
REMARK SMILES IDX 5 12 6 13 7 14 8 15 9 17 11 18 12 19 17 20 19 21 15 22 14 23
REMARK SMILES IDX 13 24 18 25 16 26 10 28 3 30 4 31 2 32 1 33 24 34 25 35
REMARK SMILES IDX 26 36 27 38 28 39 29 40 30 41 31 42 32 43 33 44 34 45 40 50
REMARK SMILES IDX 41 51 42 52 43 53 44 54
REMARK H PARENT 6 16 16 27 10 29 26 37 33 46 33 47 34 48 34 49 44 55
ROOT
ATOM      1  N   UNL     1       5.879   4.293  10.425  1.00  0.00    -0.326 N 
ATOM      2  C   UNL     1       5.548   4.213   8.095  1.00  0.00     0.014 C 
ATOM      3  C   UNL     1       6.531   4.683   9.171  1.00  0.00     0.091 C 
ATOM      4  C   UNL     1       4.197   4.431   8.758  1.00  0.00     0.041 C 
ATOM      5  C   UNL     1       4.485   3.860  10.158  1.00  0.00     0.175 C 
ATOM      6  C   UNL     1       7.907   4.098   8.858  1.00  0.00     0.059 C 
ATOM      7  C   UNL     1       5.841   4.880   6.766  1.00  0.00     0.008 C 
ATOM      8  C   UNL     1       8.176   3.917   7.348  1.00  0.00     0.143 C 
ATOM      9  C   UNL     1       7.359   4.906   6.492  1.00  0.00     0.034 C 
ENDROOT
BRANCH   1  10
ATOM     10  C   UNL     1       6.290   4.476  11.734  1.00  0.00     0.246 C 
ATOM     11  O   UNL     1       6.141   5.583  12.261  1.00  0.00    -0.272 OA
BRANCH  10  12
ATOM     12  C   UNL     1       6.890   3.277  12.524  1.00  0.00     0.174 C 
BRANCH  12  13
ATOM     13  N   UNL     1       6.048   2.971  13.680  1.00  0.00    -0.342 N 
ATOM     14  C   UNL     1       5.444   1.757  13.918  1.00  0.00     0.249 C 
ATOM     15  O   UNL     1       5.570   0.778  13.192  1.00  0.00    -0.272 OA
ATOM     16  H   UNL     1       5.727   3.724  14.283  1.00  0.00     0.164 HD
BRANCH  14  17
ATOM     17  C   UNL     1       4.605   1.753  15.214  1.00  0.00     0.207 C 
BRANCH  17  18
ATOM     18  C   UNL     1       5.517   1.675  16.442  1.00  0.00     0.077 C 
BRANCH  18  19
ATOM     19  C   UNL     1       5.649   3.016  17.129  1.00  0.00    -0.043 A 
ATOM     20  C   UNL     1       7.038   4.772  18.063  1.00  0.00     0.083 A 
ATOM     21  C   UNL     1       6.918   3.558  17.385  1.00  0.00     0.028 A 
ATOM     22  C   UNL     1       5.895   5.449  18.490  1.00  0.00     0.134 A 
ATOM     23  C   UNL     1       4.632   4.923  18.244  1.00  0.00     0.048 A 
ATOM     24  C   UNL     1       4.509   3.707  17.567  1.00  0.00     0.008 A 
ATOM     25  Cl  UNL     1       8.606   5.422  18.368  1.00  0.00    -0.080 Cl
BRANCH  22  26
ATOM     26  O   UNL     1       5.963   6.636  19.168  1.00  0.00    -0.506 OA
ATOM     27  H   UNL     1       6.851   7.003  19.001  1.00  0.00     0.293 HD
ENDBRANCH  22  26
ENDBRANCH  18  19
ENDBRANCH  17  18
BRANCH  17  28
ATOM     28  O   UNL     1       3.686   0.648  15.231  1.00  0.00    -0.383 OA
ATOM     29  H   UNL     1       3.946   0.091  16.000  1.00  0.00     0.211 HD
ENDBRANCH  17  28
ENDBRANCH  14  17
ENDBRANCH  12  13
BRANCH  12  30
ATOM     30  C   UNL     1       8.376   3.500  12.916  1.00  0.00     0.018 C 
ATOM     31  C   UNL     1       9.119   2.160  13.024  1.00  0.00     0.010 C 
BRANCH  30  32
ATOM     32  C   UNL     1       8.559   4.317  14.219  1.00  0.00     0.002 C 
ATOM     33  C   UNL     1       9.877   4.092  14.948  1.00  0.00     0.004 C 
ENDBRANCH  30  32
ENDBRANCH  12  30
ENDBRANCH  10  12
ENDBRANCH   1  10
BRANCH   5  34
ATOM     34  C   UNL     1       4.376   2.312  10.179  1.00  0.00     0.242 C 
ATOM     35  O   UNL     1       5.312   1.582   9.853  1.00  0.00    -0.273 OA
ATOM     36  N   UNL     1       3.141   1.817  10.535  1.00  0.00    -0.354 N 
ATOM     37  H   UNL     1       2.371   2.472  10.677  1.00  0.00     0.163 HD
BRANCH  36  38
ATOM     38  C   UNL     1       2.923   0.413  10.813  1.00  0.00     0.116 C 
BRANCH  38  39
ATOM     39  C   UNL     1       2.079   0.260  12.077  1.00  0.00     0.023 C 
BRANCH  39  40
ATOM     40  C   UNL     1       2.141  -1.151  12.652  1.00  0.00     0.026 C 
BRANCH  40  41
ATOM     41  C   UNL     1       0.996  -1.386  13.636  1.00  0.00     0.146 C 
BRANCH  41  42
ATOM     42  N   UNL     1       1.509  -1.383  15.000  1.00  0.00    -0.254 NA
ATOM     43  C   UNL     1       1.381  -2.429  15.727  1.00  0.00     0.185 C 
ATOM     44  N   UNL     1       0.820  -3.618  15.442  1.00  0.00    -0.370 N 
ATOM     45  N   UNL     1       1.858  -2.404  16.983  1.00  0.00    -0.370 N 
ATOM     46  H   UNL     1       0.572  -4.257  16.177  1.00  0.00     0.159 HD
ATOM     47  H   UNL     1       0.421  -3.813  14.529  1.00  0.00     0.159 HD
ATOM     48  H   UNL     1       2.305  -1.546  17.276  1.00  0.00     0.159 HD
ATOM     49  H   UNL     1       2.010  -3.237  17.523  1.00  0.00     0.159 HD
ENDBRANCH  41  42
ENDBRANCH  40  41
ENDBRANCH  39  40
ENDBRANCH  38  39
ENDBRANCH  36  38
ENDBRANCH   5  34
BRANCH   8  50
ATOM     50  O   UNL     1       7.843   2.588   6.947  1.00  0.00    -0.245 OA
BRANCH  50  51
ATOM     51  S   UNL     1       8.963   1.413   7.052  1.00  0.00     0.397 S 
ATOM     52  O   UNL     1       8.489   0.428   7.998  1.00  0.00    -0.169 OA
ATOM     53  O   UNL     1      10.280   2.005   7.168  1.00  0.00    -0.169 OA
BRANCH  51  54
ATOM     54  O   UNL     1       8.858   0.718   5.606  1.00  0.00    -0.264 OA
ATOM     55  H   UNL     1       8.094   1.114   5.140  1.00  0.00     0.236 HD
ENDBRANCH  51  54
ENDBRANCH  50  51
ENDBRANCH   8  50
TORSDOF 19
ENDMDL
MODEL 11
REMARK VINA RESULT:    -5.642      3.383      6.126
REMARK INTER + INTRA:         -16.609
REMARK INTER:                 -12.811
REMARK INTRA:                  -3.798
REMARK UNBOUND:                -5.195
REMARK SMILES CC[C@@H](C)[C@@H](NC(=O)[C@@H](O)Cc1ccc(O)c(Cl)c1)C(=O)N1[C@H](C(=O)NCCCCN=C(N)N)C[C@H]2CC[C@H](OS(=O)(=O)O)C[C@@H]21
REMARK SMILES IDX 22 1 36 2 46 3 35 4 23 5 45 6 37 7 39 8 38 9 20 10 21 11
REMARK SMILES IDX 5 12 6 13 7 14 8 15 9 17 11 18 12 19 17 20 19 21 15 22 14 23
REMARK SMILES IDX 13 24 18 25 16 26 10 28 3 30 4 31 2 32 1 33 24 34 25 35
REMARK SMILES IDX 26 36 27 38 28 39 29 40 30 41 31 42 32 43 33 44 34 45 40 50
REMARK SMILES IDX 41 51 42 52 43 53 44 54
REMARK H PARENT 6 16 16 27 10 29 26 37 33 46 33 47 34 48 34 49 44 55
ROOT
ATOM      1  N   UNL     1       7.590   2.019  12.589  1.00  0.00    -0.326 N 
ATOM      2  C   UNL     1       9.512   1.654  11.279  1.00  0.00     0.014 C 
ATOM      3  C   UNL     1       8.829   1.236  12.585  1.00  0.00     0.091 C 
ATOM      4  C   UNL     1       9.124   3.120  11.153  1.00  0.00     0.041 C 
ATOM      5  C   UNL     1       7.629   3.038  11.510  1.00  0.00     0.175 C 
ATOM      6  C   UNL     1       8.724  -0.287  12.608  1.00  0.00     0.059 C 
ATOM      7  C   UNL     1      10.979   1.272  11.288  1.00  0.00     0.008 C 
ATOM      8  C   UNL     1       9.881  -1.002  11.878  1.00  0.00     0.143 C 
ATOM      9  C   UNL     1      11.167  -0.150  11.858  1.00  0.00     0.034 C 
ENDROOT
BRANCH   1  10
ATOM     10  C   UNL     1       6.577   2.073  13.531  1.00  0.00     0.246 C 
ATOM     11  O   UNL     1       6.295   3.158  14.050  1.00  0.00    -0.272 OA
BRANCH  10  12
ATOM     12  C   UNL     1       5.788   0.778  13.883  1.00  0.00     0.174 C 
BRANCH  12  13
ATOM     13  N   UNL     1       4.554   0.718  13.102  1.00  0.00    -0.342 N 
ATOM     14  C   UNL     1       3.421   1.458  13.355  1.00  0.00     0.249 C 
ATOM     15  O   UNL     1       3.332   2.280  14.259  1.00  0.00    -0.272 OA
ATOM     16  H   UNL     1       4.424  -0.027  12.422  1.00  0.00     0.164 HD
BRANCH  14  17
ATOM     17  C   UNL     1       2.278   1.157  12.363  1.00  0.00     0.207 C 
BRANCH  17  18
ATOM     18  C   UNL     1       2.418  -0.261  11.799  1.00  0.00     0.077 C 
BRANCH  18  19
ATOM     19  C   UNL     1       1.889  -1.302  12.760  1.00  0.00    -0.043 A 
ATOM     20  C   UNL     1       1.978  -3.538  13.695  1.00  0.00     0.083 A 
ATOM     21  C   UNL     1       2.499  -2.563  12.844  1.00  0.00     0.028 A 
ATOM     22  C   UNL     1       0.847  -3.262  14.464  1.00  0.00     0.134 A 
ATOM     23  C   UNL     1       0.233  -2.017  14.391  1.00  0.00     0.048 A 
ATOM     24  C   UNL     1       0.751  -1.039  13.539  1.00  0.00     0.008 A 
ATOM     25  Cl  UNL     1       2.741  -5.082  13.784  1.00  0.00    -0.080 Cl
BRANCH  22  26
ATOM     26  O   UNL     1       0.294  -4.190  15.305  1.00  0.00    -0.506 OA
ATOM     27  H   UNL     1       0.960  -4.893  15.423  1.00  0.00     0.293 HD
ENDBRANCH  22  26
ENDBRANCH  18  19
ENDBRANCH  17  18
BRANCH  17  28
ATOM     28  O   UNL     1       2.270   2.102  11.280  1.00  0.00    -0.383 OA
ATOM     29  H   UNL     1       2.977   2.755  11.485  1.00  0.00     0.211 HD
ENDBRANCH  17  28
ENDBRANCH  14  17
ENDBRANCH  12  13
BRANCH  12  30
ATOM     30  C   UNL     1       5.533   0.627  15.407  1.00  0.00     0.018 C 
ATOM     31  C   UNL     1       6.779   1.027  16.212  1.00  0.00     0.010 C 
BRANCH  30  32
ATOM     32  C   UNL     1       5.063  -0.788  15.821  1.00  0.00     0.002 C 
ATOM     33  C   UNL     1       3.573  -0.922  16.109  1.00  0.00     0.004 C 
ENDBRANCH  30  32
ENDBRANCH  12  30
ENDBRANCH  10  12
ENDBRANCH   1  10
BRANCH   5  34
ATOM     34  C   UNL     1       6.774   2.586  10.296  1.00  0.00     0.242 C 
ATOM     35  O   UNL     1       5.982   1.647  10.362  1.00  0.00    -0.273 OA
ATOM     36  N   UNL     1       7.007   3.276   9.127  1.00  0.00    -0.354 N 
ATOM     37  H   UNL     1       7.762   3.963   9.104  1.00  0.00     0.163 HD
BRANCH  36  38
ATOM     38  C   UNL     1       6.156   3.136   7.964  1.00  0.00     0.116 C 
BRANCH  38  39
ATOM     39  C   UNL     1       5.977   4.492   7.285  1.00  0.00     0.023 C 
BRANCH  39  40
ATOM     40  C   UNL     1       4.587   5.077   7.510  1.00  0.00     0.026 C 
BRANCH  40  41
ATOM     41  C   UNL     1       4.550   5.908   8.793  1.00  0.00     0.146 C 
BRANCH  41  42
ATOM     42  N   UNL     1       4.105   5.077   9.904  1.00  0.00    -0.254 NA
ATOM     43  C   UNL     1       4.572   5.286  11.077  1.00  0.00     0.185 C 
ATOM     44  N   UNL     1       5.463   6.200  11.504  1.00  0.00    -0.370 N 
ATOM     45  N   UNL     1       4.153   4.506  12.088  1.00  0.00    -0.370 N 
ATOM     46  H   UNL     1       5.920   6.094  12.394  1.00  0.00     0.159 HD
ATOM     47  H   UNL     1       5.872   6.881  10.872  1.00  0.00     0.159 HD
ATOM     48  H   UNL     1       3.473   3.796  11.853  1.00  0.00     0.159 HD
ATOM     49  H   UNL     1       4.282   4.751  13.053  1.00  0.00     0.159 HD
ENDBRANCH  41  42
ENDBRANCH  40  41
ENDBRANCH  39  40
ENDBRANCH  38  39
ENDBRANCH  36  38
ENDBRANCH   5  34
BRANCH   8  50
ATOM     50  O   UNL     1       9.507  -1.290  10.530  1.00  0.00    -0.245 OA
BRANCH  50  51
ATOM     51  S   UNL     1       9.919  -2.718   9.870  1.00  0.00     0.397 S 
ATOM     52  O   UNL     1       9.115  -2.910   8.684  1.00  0.00    -0.169 OA
ATOM     53  O   UNL     1       9.997  -3.727  10.906  1.00  0.00    -0.169 OA
BRANCH  51  54
ATOM     54  O   UNL     1      11.411  -2.428   9.347  1.00  0.00    -0.264 OA
ATOM     55  H   UNL     1      11.688  -1.559   9.701  1.00  0.00     0.236 HD
ENDBRANCH  51  54
ENDBRANCH  50  51
ENDBRANCH   8  50
TORSDOF 19
ENDMDL
MODEL 12
REMARK VINA RESULT:    -5.587      4.210      7.474
REMARK INTER + INTRA:         -16.497
REMARK INTER:                 -14.507
REMARK INTRA:                  -1.990
REMARK UNBOUND:                -5.195
REMARK SMILES CC[C@@H](C)[C@@H](NC(=O)[C@@H](O)Cc1ccc(O)c(Cl)c1)C(=O)N1[C@H](C(=O)NCCCCN=C(N)N)C[C@H]2CC[C@H](OS(=O)(=O)O)C[C@@H]21
REMARK SMILES IDX 22 1 36 2 46 3 35 4 23 5 45 6 37 7 39 8 38 9 20 10 21 11
REMARK SMILES IDX 5 12 6 13 7 14 8 15 9 17 11 18 12 19 17 20 19 21 15 22 14 23
REMARK SMILES IDX 13 24 18 25 16 26 10 28 3 30 4 31 2 32 1 33 24 34 25 35
REMARK SMILES IDX 26 36 27 38 28 39 29 40 30 41 31 42 32 43 33 44 34 45 40 50
REMARK SMILES IDX 41 51 42 52 43 53 44 54
REMARK H PARENT 6 16 16 27 10 29 26 37 33 46 33 47 34 48 34 49 44 55
ROOT
ATOM      1  N   UNL     1       6.168   3.874  10.575  1.00  0.00    -0.326 N 
ATOM      2  C   UNL     1       5.560   4.447   8.374  1.00  0.00     0.014 C 
ATOM      3  C   UNL     1       5.487   4.933   9.825  1.00  0.00     0.091 C 
ATOM      4  C   UNL     1       5.440   2.938   8.520  1.00  0.00     0.041 C 
ATOM      5  C   UNL     1       6.404   2.701   9.697  1.00  0.00     0.175 C 
ATOM      6  C   UNL     1       6.058   6.348   9.889  1.00  0.00     0.059 C 
ATOM      7  C   UNL     1       4.566   5.190   7.503  1.00  0.00     0.008 C 
ATOM      8  C   UNL     1       5.823   7.172   8.605  1.00  0.00     0.143 C 
ATOM      9  C   UNL     1       4.575   6.698   7.833  1.00  0.00     0.034 C 
ENDROOT
BRANCH   1  10
ATOM     10  C   UNL     1       6.393   3.755  11.936  1.00  0.00     0.246 C 
ATOM     11  O   UNL     1       6.408   4.774  12.635  1.00  0.00    -0.272 OA
BRANCH  10  12
ATOM     12  C   UNL     1       6.580   2.342  12.562  1.00  0.00     0.174 C 
BRANCH  12  13
ATOM     13  N   UNL     1       5.337   1.910  13.199  1.00  0.00    -0.342 N 
ATOM     14  C   UNL     1       4.386   1.105  12.613  1.00  0.00     0.249 C 
ATOM     15  O   UNL     1       4.493   0.633  11.488  1.00  0.00    -0.272 OA
ATOM     16  H   UNL     1       5.039   2.347  14.068  1.00  0.00     0.164 HD
BRANCH  14  17
ATOM     17  C   UNL     1       3.178   0.842  13.536  1.00  0.00     0.207 C 
BRANCH  17  18
ATOM     18  C   UNL     1       1.972   0.368  12.718  1.00  0.00     0.077 C 
BRANCH  18  19
ATOM     19  C   UNL     1       1.610  -1.067  13.031  1.00  0.00    -0.043 A 
ATOM     20  C   UNL     1       0.111  -2.685  14.040  1.00  0.00     0.083 A 
ATOM     21  C   UNL     1       0.418  -1.364  13.709  1.00  0.00     0.028 A 
ATOM     22  C   UNL     1       0.990  -3.713  13.699  1.00  0.00     0.134 A 
ATOM     23  C   UNL     1       2.174  -3.432  13.026  1.00  0.00     0.048 A 
ATOM     24  C   UNL     1       2.485  -2.112  12.695  1.00  0.00     0.008 A 
ATOM     25  Cl  UNL     1      -1.359  -3.030  14.874  1.00  0.00    -0.080 Cl
BRANCH  22  26
ATOM     26  O   UNL     1       0.737  -5.021  14.011  1.00  0.00    -0.506 OA
ATOM     27  H   UNL     1       1.586  -5.495  13.941  1.00  0.00     0.293 HD
ENDBRANCH  22  26
ENDBRANCH  18  19
ENDBRANCH  17  18
BRANCH  17  28
ATOM     28  O   UNL     1       2.820   2.024  14.270  1.00  0.00    -0.383 OA
ATOM     29  H   UNL     1       3.655   2.530  14.394  1.00  0.00     0.211 HD
ENDBRANCH  17  28
ENDBRANCH  14  17
ENDBRANCH  12  13
BRANCH  12  30
ATOM     30  C   UNL     1       7.796   2.268  13.524  1.00  0.00     0.018 C 
ATOM     31  C   UNL     1       7.362   2.536  14.974  1.00  0.00     0.010 C 
BRANCH  30  32
ATOM     32  C   UNL     1       8.957   3.216  13.133  1.00  0.00     0.002 C 
ATOM     33  C   UNL     1       9.453   4.131  14.244  1.00  0.00     0.004 C 
ENDBRANCH  30  32
ENDBRANCH  12  30
ENDBRANCH  10  12
ENDBRANCH   1  10
BRANCH   5  34
ATOM     34  C   UNL     1       7.882   2.656   9.226  1.00  0.00     0.242 C 
ATOM     35  O   UNL     1       8.783   3.243   9.827  1.00  0.00    -0.273 OA
ATOM     36  N   UNL     1       8.104   1.958   8.060  1.00  0.00    -0.354 N 
ATOM     37  H   UNL     1       7.302   1.595   7.544  1.00  0.00     0.163 HD
BRANCH  36  38
ATOM     38  C   UNL     1       9.437   1.633   7.595  1.00  0.00     0.116 C 
BRANCH  38  39
ATOM     39  C   UNL     1       9.523   0.144   7.269  1.00  0.00     0.023 C 
BRANCH  39  40
ATOM     40  C   UNL     1       9.588  -0.725   8.520  1.00  0.00     0.026 C 
BRANCH  40  41
ATOM     41  C   UNL     1      10.636  -0.190   9.497  1.00  0.00     0.146 C 
BRANCH  41  42
ATOM     42  N   UNL     1      11.790  -1.079   9.515  1.00  0.00    -0.254 NA
ATOM     43  C   UNL     1      12.808  -0.809   8.787  1.00  0.00     0.185 C 
ATOM     44  N   UNL     1      13.024   0.221   7.949  1.00  0.00    -0.370 N 
ATOM     45  N   UNL     1      13.861  -1.643   8.815  1.00  0.00    -0.370 N 
ATOM     46  H   UNL     1      13.758   0.179   7.263  1.00  0.00     0.159 HD
ATOM     47  H   UNL     1      12.334   0.955   7.817  1.00  0.00     0.159 HD
ATOM     48  H   UNL     1      13.784  -2.442   9.429  1.00  0.00     0.159 HD
ATOM     49  H   UNL     1      14.768  -1.385   8.469  1.00  0.00     0.159 HD
ENDBRANCH  41  42
ENDBRANCH  40  41
ENDBRANCH  39  40
ENDBRANCH  38  39
ENDBRANCH  36  38
ENDBRANCH   5  34
BRANCH   8  50
ATOM     50  O   UNL     1       6.956   7.070   7.742  1.00  0.00    -0.245 OA
BRANCH  50  51
ATOM     51  S   UNL     1       7.699   8.422   7.228  1.00  0.00     0.397 S 
ATOM     52  O   UNL     1       7.913   8.300   5.804  1.00  0.00    -0.169 OA
ATOM     53  O   UNL     1       8.779   8.757   8.133  1.00  0.00    -0.169 OA
BRANCH  51  54
ATOM     54  O   UNL     1       6.544   9.527   7.404  1.00  0.00    -0.264 OA
ATOM     55  H   UNL     1       5.695   9.055   7.524  1.00  0.00     0.236 HD
ENDBRANCH  51  54
ENDBRANCH  50  51
ENDBRANCH   8  50
TORSDOF 19
ENDMDL
MODEL 13
REMARK VINA RESULT:    -5.585      3.610      6.412
REMARK INTER + INTRA:         -16.494
REMARK INTER:                 -12.188
REMARK INTRA:                  -4.306
REMARK UNBOUND:                -5.195
REMARK SMILES CC[C@@H](C)[C@@H](NC(=O)[C@@H](O)Cc1ccc(O)c(Cl)c1)C(=O)N1[C@H](C(=O)NCCCCN=C(N)N)C[C@H]2CC[C@H](OS(=O)(=O)O)C[C@@H]21
REMARK SMILES IDX 22 1 36 2 46 3 35 4 23 5 45 6 37 7 39 8 38 9 20 10 21 11
REMARK SMILES IDX 5 12 6 13 7 14 8 15 9 17 11 18 12 19 17 20 19 21 15 22 14 23
REMARK SMILES IDX 13 24 18 25 16 26 10 28 3 30 4 31 2 32 1 33 24 34 25 35
REMARK SMILES IDX 26 36 27 38 28 39 29 40 30 41 31 42 32 43 33 44 34 45 40 50
REMARK SMILES IDX 41 51 42 52 43 53 44 54
REMARK H PARENT 6 16 16 27 10 29 26 37 33 46 33 47 34 48 34 49 44 55
ROOT
ATOM      1  N   UNL     1       7.065   1.664  13.682  1.00  0.00    -0.326 N 
ATOM      2  C   UNL     1       8.760   2.869  12.579  1.00  0.00     0.014 C 
ATOM      3  C   UNL     1       8.520   1.672  13.504  1.00  0.00     0.091 C 
ATOM      4  C   UNL     1       7.690   3.855  13.023  1.00  0.00     0.041 C 
ATOM      5  C   UNL     1       6.479   2.911  13.134  1.00  0.00     0.175 C 
ATOM      6  C   UNL     1       9.181   0.443  12.883  1.00  0.00     0.059 C 
ATOM      7  C   UNL     1      10.216   3.291  12.604  1.00  0.00     0.008 C 
ATOM      8  C   UNL     1      10.451   0.765  12.067  1.00  0.00     0.143 C 
ATOM      9  C   UNL     1      11.140   2.056  12.554  1.00  0.00     0.034 C 
ENDROOT
BRANCH   1  10
ATOM     10  C   UNL     1       6.268   0.817  14.434  1.00  0.00     0.246 C 
ATOM     11  O   UNL     1       5.795   1.226  15.500  1.00  0.00    -0.272 OA
BRANCH  10  12
ATOM     12  C   UNL     1       5.952  -0.611  13.904  1.00  0.00     0.174 C 
BRANCH  12  13
ATOM     13  N   UNL     1       4.532  -0.908  14.086  1.00  0.00    -0.342 N 
ATOM     14  C   UNL     1       3.552  -0.692  13.143  1.00  0.00     0.249 C 
ATOM     15  O   UNL     1       3.770  -0.248  12.022  1.00  0.00    -0.272 OA
ATOM     16  H   UNL     1       4.179  -1.132  15.013  1.00  0.00     0.164 HD
BRANCH  14  17
ATOM     17  C   UNL     1       2.147  -1.091  13.641  1.00  0.00     0.207 C 
BRANCH  17  18
ATOM     18  C   UNL     1       1.586  -2.240  12.798  1.00  0.00     0.077 C 
BRANCH  18  19
ATOM     19  C   UNL     1       1.587  -3.547  13.558  1.00  0.00    -0.043 A 
ATOM     20  C   UNL     1       2.725  -5.574  14.253  1.00  0.00     0.083 A 
ATOM     21  C   UNL     1       2.742  -4.345  13.593  1.00  0.00     0.028 A 
ATOM     22  C   UNL     1       1.558  -6.014  14.880  1.00  0.00     0.134 A 
ATOM     23  C   UNL     1       0.408  -5.234  14.853  1.00  0.00     0.048 A 
ATOM     24  C   UNL     1       0.421  -4.004  14.191  1.00  0.00     0.008 A 
ATOM     25  Cl  UNL     1       4.153  -6.540  14.285  1.00  0.00    -0.080 Cl
BRANCH  22  26
ATOM     26  O   UNL     1       1.490  -7.216  15.530  1.00  0.00    -0.506 OA
ATOM     27  H   UNL     1       0.931  -7.799  14.984  1.00  0.00     0.293 HD
ENDBRANCH  22  26
ENDBRANCH  18  19
ENDBRANCH  17  18
BRANCH  17  28
ATOM     28  O   UNL     1       1.243   0.025  13.589  1.00  0.00    -0.383 OA
ATOM     29  H   UNL     1       1.787   0.804  13.331  1.00  0.00     0.211 HD
ENDBRANCH  17  28
ENDBRANCH  14  17
ENDBRANCH  12  13
BRANCH  12  30
ATOM     30  C   UNL     1       6.869  -1.699  14.526  1.00  0.00     0.018 C 
ATOM     31  C   UNL     1       6.190  -3.077  14.480  1.00  0.00     0.010 C 
BRANCH  30  32
ATOM     32  C   UNL     1       7.323  -1.377  15.970  1.00  0.00     0.002 C 
ATOM     33  C   UNL     1       8.831  -1.325  16.183  1.00  0.00     0.004 C 
ENDBRANCH  30  32
ENDBRANCH  12  30
ENDBRANCH  10  12
ENDBRANCH   1  10
BRANCH   5  34
ATOM     34  C   UNL     1       5.828   2.651  11.749  1.00  0.00     0.242 C 
ATOM     35  O   UNL     1       6.010   1.607  11.123  1.00  0.00    -0.273 OA
ATOM     36  N   UNL     1       5.078   3.692  11.249  1.00  0.00    -0.354 N 
ATOM     37  H   UNL     1       5.063   4.576  11.759  1.00  0.00     0.163 HD
BRANCH  36  38
ATOM     38  C   UNL     1       4.232   3.545  10.083  1.00  0.00     0.116 C 
BRANCH  38  39
ATOM     39  C   UNL     1       4.489   4.691   9.108  1.00  0.00     0.023 C 
BRANCH  39  40
ATOM     40  C   UNL     1       5.958   5.097   9.060  1.00  0.00     0.026 C 
BRANCH  40  41
ATOM     41  C   UNL     1       6.636   4.534   7.811  1.00  0.00     0.146 C 
BRANCH  41  42
ATOM     42  N   UNL     1       6.734   3.084   7.915  1.00  0.00    -0.254 NA
ATOM     43  C   UNL     1       7.768   2.556   8.454  1.00  0.00     0.185 C 
ATOM     44  N   UNL     1       8.861   3.138   8.982  1.00  0.00    -0.370 N 
ATOM     45  N   UNL     1       7.841   1.218   8.536  1.00  0.00    -0.370 N 
ATOM     46  H   UNL     1       9.697   2.604   9.147  1.00  0.00     0.159 HD
ATOM     47  H   UNL     1       8.964   4.147   9.015  1.00  0.00     0.159 HD
ATOM     48  H   UNL     1       7.053   0.702   8.168  1.00  0.00     0.159 HD
ATOM     49  H   UNL     1       8.487   0.744   9.143  1.00  0.00     0.159 HD
ENDBRANCH  41  42
ENDBRANCH  40  41
ENDBRANCH  39  40
ENDBRANCH  38  39
ENDBRANCH  36  38
ENDBRANCH   5  34
BRANCH   8  50
ATOM     50  O   UNL     1      10.120   0.921  10.686  1.00  0.00    -0.245 OA
BRANCH  50  51
ATOM     51  S   UNL     1      10.887   0.020   9.570  1.00  0.00     0.397 S 
ATOM     52  O   UNL     1       9.982  -1.021   9.138  1.00  0.00    -0.169 OA
ATOM     53  O   UNL     1      12.228  -0.281  10.027  1.00  0.00    -0.169 OA
BRANCH  51  54
ATOM     54  O   UNL     1      11.002   1.043   8.335  1.00  0.00    -0.264 OA
ATOM     55  H   UNL     1      10.263   0.852   7.721  1.00  0.00     0.236 HD
ENDBRANCH  51  54
ENDBRANCH  50  51
ENDBRANCH   8  50
TORSDOF 19
ENDMDL
MODEL 14
REMARK VINA RESULT:    -5.572      3.425      6.551
REMARK INTER + INTRA:         -16.467
REMARK INTER:                 -12.345
REMARK INTRA:                  -4.122
REMARK UNBOUND:                -5.195
REMARK SMILES CC[C@@H](C)[C@@H](NC(=O)[C@@H](O)Cc1ccc(O)c(Cl)c1)C(=O)N1[C@H](C(=O)NCCCCN=C(N)N)C[C@H]2CC[C@H](OS(=O)(=O)O)C[C@@H]21
REMARK SMILES IDX 22 1 36 2 46 3 35 4 23 5 45 6 37 7 39 8 38 9 20 10 21 11
REMARK SMILES IDX 5 12 6 13 7 14 8 15 9 17 11 18 12 19 17 20 19 21 15 22 14 23
REMARK SMILES IDX 13 24 18 25 16 26 10 28 3 30 4 31 2 32 1 33 24 34 25 35
REMARK SMILES IDX 26 36 27 38 28 39 29 40 30 41 31 42 32 43 33 44 34 45 40 50
REMARK SMILES IDX 41 51 42 52 43 53 44 54
REMARK H PARENT 6 16 16 27 10 29 26 37 33 46 33 47 34 48 34 49 44 55
ROOT
ATOM      1  N   UNL     1       7.713   1.285  14.734  1.00  0.00    -0.326 N 
ATOM      2  C   UNL     1       9.425   2.419  13.583  1.00  0.00     0.014 C 
ATOM      3  C   UNL     1       9.011   1.038  14.099  1.00  0.00     0.091 C 
ATOM      4  C   UNL     1       8.869   3.354  14.646  1.00  0.00     0.041 C 
ATOM      5  C   UNL     1       7.468   2.744  14.840  1.00  0.00     0.175 C 
ATOM      6  C   UNL     1       9.072   0.049  12.936  1.00  0.00     0.059 C 
ATOM      7  C   UNL     1      10.906   2.456  13.261  1.00  0.00     0.008 C 
ATOM      8  C   UNL     1      10.165   0.380  11.897  1.00  0.00     0.143 C 
ATOM      9  C   UNL     1      11.333   1.174  12.517  1.00  0.00     0.034 C 
ENDROOT
BRANCH   1  10
ATOM     10  C   UNL     1       6.866   0.409  15.392  1.00  0.00     0.246 C 
ATOM     11  O   UNL     1       6.489   0.683  16.537  1.00  0.00    -0.272 OA
BRANCH  10  12
ATOM     12  C   UNL     1       6.373  -0.875  14.664  1.00  0.00     0.174 C 
BRANCH  12  13
ATOM     13  N   UNL     1       4.912  -0.887  14.608  1.00  0.00    -0.342 N 
ATOM     14  C   UNL     1       4.157  -0.396  13.567  1.00  0.00     0.249 C 
ATOM     15  O   UNL     1       4.634   0.086  12.547  1.00  0.00    -0.272 OA
ATOM     16  H   UNL     1       4.378  -1.111  15.444  1.00  0.00     0.164 HD
BRANCH  14  17
ATOM     17  C   UNL     1       2.640  -0.538  13.812  1.00  0.00     0.207 C 
BRANCH  17  18
ATOM     18  C   UNL     1       2.027  -1.533  12.822  1.00  0.00     0.077 C 
BRANCH  18  19
ATOM     19  C   UNL     1       1.807  -2.890  13.452  1.00  0.00    -0.043 A 
ATOM     20  C   UNL     1       2.618  -5.108  14.007  1.00  0.00     0.083 A 
ATOM     21  C   UNL     1       2.841  -3.840  13.469  1.00  0.00     0.028 A 
ATOM     22  C   UNL     1       1.367  -5.435  14.529  1.00  0.00     0.134 A 
ATOM     23  C   UNL     1       0.334  -4.505  14.519  1.00  0.00     0.048 A 
ATOM     24  C   UNL     1       0.553  -3.235  13.980  1.00  0.00     0.008 A 
ATOM     25  Cl  UNL     1       3.901  -6.261  14.018  1.00  0.00    -0.080 Cl
BRANCH  22  26
ATOM     26  O   UNL     1       1.099  -6.669  15.058  1.00  0.00    -0.506 OA
ATOM     27  H   UNL     1       0.902  -6.532  16.003  1.00  0.00     0.293 HD
ENDBRANCH  22  26
ENDBRANCH  18  19
ENDBRANCH  17  18
BRANCH  17  28
ATOM     28  O   UNL     1       1.975   0.729  13.687  1.00  0.00    -0.383 OA
ATOM     29  H   UNL     1       1.013   0.542  13.777  1.00  0.00     0.211 HD
ENDBRANCH  17  28
ENDBRANCH  14  17
ENDBRANCH  12  13
BRANCH  12  30
ATOM     30  C   UNL     1       6.953  -2.175  15.283  1.00  0.00     0.018 C 
ATOM     31  C   UNL     1       7.249  -3.215  14.191  1.00  0.00     0.010 C 
BRANCH  30  32
ATOM     32  C   UNL     1       6.054  -2.796  16.380  1.00  0.00     0.002 C 
ATOM     33  C   UNL     1       5.809  -4.293  16.250  1.00  0.00     0.004 C 
ENDBRANCH  30  32
ENDBRANCH  12  30
ENDBRANCH  10  12
ENDBRANCH   1  10
BRANCH   5  34
ATOM     34  C   UNL     1       6.481   3.218  13.740  1.00  0.00     0.242 C 
ATOM     35  O   UNL     1       5.261   3.106  13.859  1.00  0.00    -0.273 OA
ATOM     36  N   UNL     1       7.069   3.722  12.602  1.00  0.00    -0.354 N 
ATOM     37  H   UNL     1       8.085   3.678  12.513  1.00  0.00     0.163 HD
BRANCH  36  38
ATOM     38  C   UNL     1       6.309   4.403  11.574  1.00  0.00     0.116 C 
BRANCH  38  39
ATOM     39  C   UNL     1       6.811   3.984  10.195  1.00  0.00     0.023 C 
BRANCH  39  40
ATOM     40  C   UNL     1       5.714   4.030   9.136  1.00  0.00     0.026 C 
BRANCH  40  41
ATOM     41  C   UNL     1       4.340   4.200   9.786  1.00  0.00     0.146 C 
BRANCH  41  42
ATOM     42  N   UNL     1       3.598   2.949   9.702  1.00  0.00    -0.254 NA
ATOM     43  C   UNL     1       3.103   2.434  10.765  1.00  0.00     0.185 C 
ATOM     44  N   UNL     1       3.145   2.869  12.038  1.00  0.00    -0.370 N 
ATOM     45  N   UNL     1       2.426   1.278  10.667  1.00  0.00    -0.370 N 
ATOM     46  H   UNL     1       2.928   2.248  12.799  1.00  0.00     0.159 HD
ATOM     47  H   UNL     1       3.606   3.737  12.289  1.00  0.00     0.159 HD
ATOM     48  H   UNL     1       2.340   0.886   9.739  1.00  0.00     0.159 HD
ATOM     49  H   UNL     1       1.818   0.941  11.392  1.00  0.00     0.159 HD
ENDBRANCH  41  42
ENDBRANCH  40  41
ENDBRANCH  39  40
ENDBRANCH  38  39
ENDBRANCH  36  38
ENDBRANCH   5  34
BRANCH   8  50
ATOM     50  O   UNL     1       9.610   1.149  10.830  1.00  0.00    -0.245 OA
BRANCH  50  51
ATOM     51  S   UNL     1       9.641   0.560   9.314  1.00  0.00     0.397 S 
ATOM     52  O   UNL     1       9.148   1.588   8.425  1.00  0.00    -0.169 OA
ATOM     53  O   UNL     1       9.095  -0.781   9.302  1.00  0.00    -0.169 OA
BRANCH  51  54
ATOM     54  O   UNL     1      11.220   0.454   9.028  1.00  0.00    -0.264 OA
ATOM     55  H   UNL     1      11.572  -0.284   9.566  1.00  0.00     0.236 HD
ENDBRANCH  51  54
ENDBRANCH  50  51
ENDBRANCH   8  50
TORSDOF 19
ENDMDL
MODEL 15
REMARK VINA RESULT:    -5.560      2.819      6.451
REMARK INTER + INTRA:         -16.442
REMARK INTER:                 -12.765
REMARK INTRA:                  -3.677
REMARK UNBOUND:                -5.195
REMARK SMILES CC[C@@H](C)[C@@H](NC(=O)[C@@H](O)Cc1ccc(O)c(Cl)c1)C(=O)N1[C@H](C(=O)NCCCCN=C(N)N)C[C@H]2CC[C@H](OS(=O)(=O)O)C[C@@H]21
REMARK SMILES IDX 22 1 36 2 46 3 35 4 23 5 45 6 37 7 39 8 38 9 20 10 21 11
REMARK SMILES IDX 5 12 6 13 7 14 8 15 9 17 11 18 12 19 17 20 19 21 15 22 14 23
REMARK SMILES IDX 13 24 18 25 16 26 10 28 3 30 4 31 2 32 1 33 24 34 25 35
REMARK SMILES IDX 26 36 27 38 28 39 29 40 30 41 31 42 32 43 33 44 34 45 40 50
REMARK SMILES IDX 41 51 42 52 43 53 44 54
REMARK H PARENT 6 16 16 27 10 29 26 37 33 46 33 47 34 48 34 49 44 55
ROOT
ATOM      1  N   UNL     1       6.765   3.089  10.971  1.00  0.00    -0.326 N 
ATOM      2  C   UNL     1       6.940   4.511   9.103  1.00  0.00     0.014 C 
ATOM      3  C   UNL     1       7.725   3.499   9.942  1.00  0.00     0.091 C 
ATOM      4  C   UNL     1       6.064   5.197  10.140  1.00  0.00     0.041 C 
ATOM      5  C   UNL     1       5.574   3.973  10.936  1.00  0.00     0.175 C 
ATOM      6  C   UNL     1       8.286   2.428   9.007  1.00  0.00     0.059 C 
ATOM      7  C   UNL     1       7.872   5.346   8.248  1.00  0.00     0.008 C 
ATOM      8  C   UNL     1       8.629   2.954   7.597  1.00  0.00     0.143 C 
ATOM      9  C   UNL     1       8.959   4.460   7.604  1.00  0.00     0.034 C 
ENDROOT
BRANCH   1  10
ATOM     10  C   UNL     1       6.917   2.203  12.025  1.00  0.00     0.246 C 
ATOM     11  O   UNL     1       6.132   1.256  12.132  1.00  0.00    -0.272 OA
BRANCH  10  12
ATOM     12  C   UNL     1       8.096   2.395  13.023  1.00  0.00     0.174 C 
BRANCH  12  13
ATOM     13  N   UNL     1       9.220   1.543  12.637  1.00  0.00    -0.342 N 
ATOM     14  C   UNL     1      10.400   1.994  12.088  1.00  0.00     0.249 C 
ATOM     15  O   UNL     1      10.651   3.175  11.886  1.00  0.00    -0.272 OA
ATOM     16  H   UNL     1       9.099   0.534  12.599  1.00  0.00     0.164 HD
BRANCH  14  17
ATOM     17  C   UNL     1      11.385   0.848  11.772  1.00  0.00     0.207 C 
BRANCH  17  18
ATOM     18  C   UNL     1      10.623  -0.413  11.352  1.00  0.00     0.077 C 
BRANCH  18  19
ATOM     19  C   UNL     1      10.488  -0.514   9.850  1.00  0.00    -0.043 A 
ATOM     20  C   UNL     1       9.410  -1.463   7.894  1.00  0.00     0.083 A 
ATOM     21  C   UNL     1       9.500  -1.333   9.281  1.00  0.00     0.028 A 
ATOM     22  C   UNL     1      10.303  -0.778   7.070  1.00  0.00     0.134 A 
ATOM     23  C   UNL     1      11.286   0.036   7.620  1.00  0.00     0.048 A 
ATOM     24  C   UNL     1      11.380   0.166   9.007  1.00  0.00     0.008 A 
ATOM     25  Cl  UNL     1       8.190  -2.474   7.214  1.00  0.00    -0.080 Cl
BRANCH  22  26
ATOM     26  O   UNL     1      10.261  -0.882   5.706  1.00  0.00    -0.506 OA
ATOM     27  H   UNL     1      11.047  -0.418   5.364  1.00  0.00     0.293 HD
ENDBRANCH  22  26
ENDBRANCH  18  19
ENDBRANCH  17  18
BRANCH  17  28
ATOM     28  O   UNL     1      12.212   0.549  12.908  1.00  0.00    -0.383 OA
ATOM     29  H   UNL     1      12.509  -0.382  12.791  1.00  0.00     0.211 HD
ENDBRANCH  17  28
ENDBRANCH  14  17
ENDBRANCH  12  13
BRANCH  12  30
ATOM     30  C   UNL     1       7.671   2.180  14.501  1.00  0.00     0.018 C 
ATOM     31  C   UNL     1       8.026   3.407  15.356  1.00  0.00     0.010 C 
BRANCH  30  32
ATOM     32  C   UNL     1       8.262   0.899  15.138  1.00  0.00     0.002 C 
ATOM     33  C   UNL     1       7.400  -0.350  15.009  1.00  0.00     0.004 C 
ENDBRANCH  30  32
ENDBRANCH  12  30
ENDBRANCH  10  12
ENDBRANCH   1  10
BRANCH   5  34
ATOM     34  C   UNL     1       4.386   3.268  10.228  1.00  0.00     0.242 C 
ATOM     35  O   UNL     1       4.120   3.459   9.042  1.00  0.00    -0.273 OA
ATOM     36  N   UNL     1       3.621   2.458  11.036  1.00  0.00    -0.354 N 
ATOM     37  H   UNL     1       3.818   2.434  12.038  1.00  0.00     0.163 HD
BRANCH  36  38
ATOM     38  C   UNL     1       2.614   1.563  10.503  1.00  0.00     0.116 C 
BRANCH  38  39
ATOM     39  C   UNL     1       2.793   0.169  11.098  1.00  0.00     0.023 C 
BRANCH  39  40
ATOM     40  C   UNL     1       2.066   0.006  12.429  1.00  0.00     0.026 C 
BRANCH  40  41
ATOM     41  C   UNL     1       3.056  -0.290  13.555  1.00  0.00     0.146 C 
BRANCH  41  42
ATOM     42  N   UNL     1       2.333  -0.540  14.795  1.00  0.00    -0.254 NA
ATOM     43  C   UNL     1       2.102  -1.745  15.161  1.00  0.00     0.185 C 
ATOM     44  N   UNL     1       2.431  -2.907  14.569  1.00  0.00    -0.370 N 
ATOM     45  N   UNL     1       1.430  -1.954  16.305  1.00  0.00    -0.370 N 
ATOM     46  H   UNL     1       1.978  -3.765  14.836  1.00  0.00     0.159 HD
ATOM     47  H   UNL     1       2.955  -2.933  13.700  1.00  0.00     0.159 HD
ATOM     48  H   UNL     1       1.152  -1.129  16.819  1.00  0.00     0.159 HD
ATOM     49  H   UNL     1       1.417  -2.842  16.774  1.00  0.00     0.159 HD
ENDBRANCH  41  42
ENDBRANCH  40  41
ENDBRANCH  39  40
ENDBRANCH  38  39
ENDBRANCH  36  38
ENDBRANCH   5  34
BRANCH   8  50
ATOM     50  O   UNL     1       7.531   2.735   6.711  1.00  0.00    -0.245 OA
BRANCH  50  51
ATOM     51  S   UNL     1       7.807   2.560   5.118  1.00  0.00     0.397 S 
ATOM     52  O   UNL     1       8.746   1.475   4.944  1.00  0.00    -0.169 OA
ATOM     53  O   UNL     1       8.027   3.859   4.517  1.00  0.00    -0.169 OA
BRANCH  51  54
ATOM     54  O   UNL     1       6.393   2.003   4.592  1.00  0.00    -0.264 OA
ATOM     55  H   UNL     1       6.061   1.360   5.251  1.00  0.00     0.236 HD
ENDBRANCH  51  54
ENDBRANCH  50  51
ENDBRANCH   8  50
TORSDOF 19
ENDMDL
MODEL 16
REMARK VINA RESULT:    -5.507      3.341      7.294
REMARK INTER + INTRA:         -16.337
REMARK INTER:                 -12.945
REMARK INTRA:                  -3.391
REMARK UNBOUND:                -5.195
REMARK SMILES CC[C@@H](C)[C@@H](NC(=O)[C@@H](O)Cc1ccc(O)c(Cl)c1)C(=O)N1[C@H](C(=O)NCCCCN=C(N)N)C[C@H]2CC[C@H](OS(=O)(=O)O)C[C@@H]21
REMARK SMILES IDX 22 1 36 2 46 3 35 4 23 5 45 6 37 7 39 8 38 9 20 10 21 11
REMARK SMILES IDX 5 12 6 13 7 14 8 15 9 17 11 18 12 19 17 20 19 21 15 22 14 23
REMARK SMILES IDX 13 24 18 25 16 26 10 28 3 30 4 31 2 32 1 33 24 34 25 35
REMARK SMILES IDX 26 36 27 38 28 39 29 40 30 41 31 42 32 43 33 44 34 45 40 50
REMARK SMILES IDX 41 51 42 52 43 53 44 54
REMARK H PARENT 6 16 16 27 10 29 26 37 33 46 33 47 34 48 34 49 44 55
ROOT
ATOM      1  N   UNL     1       6.716   1.558  12.672  1.00  0.00    -0.326 N 
ATOM      2  C   UNL     1       4.673   1.589  13.842  1.00  0.00     0.014 C 
ATOM      3  C   UNL     1       6.133   1.139  13.950  1.00  0.00     0.091 C 
ATOM      4  C   UNL     1       4.369   1.390  12.365  1.00  0.00     0.041 C 
ATOM      5  C   UNL     1       5.643   1.989  11.742  1.00  0.00     0.175 C 
ATOM      6  C   UNL     1       6.721   1.712  15.238  1.00  0.00     0.059 C 
ATOM      7  C   UNL     1       3.813   0.893  14.878  1.00  0.00     0.008 C 
ATOM      8  C   UNL     1       5.692   1.860  16.379  1.00  0.00     0.143 C 
ATOM      9  C   UNL     1       4.529   0.857  16.245  1.00  0.00     0.034 C 
ENDROOT
BRANCH   1  10
ATOM     10  C   UNL     1       8.004   1.401  12.190  1.00  0.00     0.246 C 
ATOM     11  O   UNL     1       8.498   0.269  12.152  1.00  0.00    -0.272 OA
BRANCH  10  12
ATOM     12  C   UNL     1       8.785   2.642  11.669  1.00  0.00     0.174 C 
BRANCH  12  13
ATOM     13  N   UNL     1       9.346   2.359  10.348  1.00  0.00    -0.342 N 
ATOM     14  C   UNL     1       8.720   2.623   9.151  1.00  0.00     0.249 C 
ATOM     15  O   UNL     1       7.621   3.156   9.058  1.00  0.00    -0.272 OA
ATOM     16  H   UNL     1      10.177   1.779  10.268  1.00  0.00     0.164 HD
BRANCH  14  17
ATOM     17  C   UNL     1       9.563   2.194   7.931  1.00  0.00     0.207 C 
BRANCH  17  18
ATOM     18  C   UNL     1      10.468   1.012   8.295  1.00  0.00     0.077 C 
BRANCH  18  19
ATOM     19  C   UNL     1      10.083  -0.243   7.544  1.00  0.00    -0.043 A 
ATOM     20  C   UNL     1      10.325  -2.627   7.171  1.00  0.00     0.083 A 
ATOM     21  C   UNL     1      10.644  -1.480   7.897  1.00  0.00     0.028 A 
ATOM     22  C   UNL     1       9.446  -2.547   6.090  1.00  0.00     0.134 A 
ATOM     23  C   UNL     1       8.883  -1.329   5.729  1.00  0.00     0.048 A 
ATOM     24  C   UNL     1       9.202  -0.178   6.453  1.00  0.00     0.008 A 
ATOM     25  Cl  UNL     1      11.025  -4.138   7.620  1.00  0.00    -0.080 Cl
BRANCH  22  26
ATOM     26  O   UNL     1       9.111  -3.643   5.341  1.00  0.00    -0.506 OA
ATOM     27  H   UNL     1       8.754  -3.308   4.498  1.00  0.00     0.293 HD
ENDBRANCH  22  26
ENDBRANCH  18  19
ENDBRANCH  17  18
BRANCH  17  28
ATOM     28  O   UNL     1      10.369   3.281   7.450  1.00  0.00    -0.383 OA
ATOM     29  H   UNL     1       9.864   4.102   7.647  1.00  0.00     0.211 HD
ENDBRANCH  17  28
ENDBRANCH  14  17
ENDBRANCH  12  13
BRANCH  12  30
ATOM     30  C   UNL     1       9.857   3.142  12.674  1.00  0.00     0.018 C 
ATOM     31  C   UNL     1      10.469   1.965  13.450  1.00  0.00     0.010 C 
BRANCH  30  32
ATOM     32  C   UNL     1       9.333   4.214  13.660  1.00  0.00     0.002 C 
ATOM     33  C   UNL     1       9.660   3.965  15.126  1.00  0.00     0.004 C 
ENDBRANCH  30  32
ENDBRANCH  12  30
ENDBRANCH  10  12
ENDBRANCH   1  10
BRANCH   5  34
ATOM     34  C   UNL     1       5.570   3.538  11.668  1.00  0.00     0.242 C 
ATOM     35  O   UNL     1       5.826   4.256  12.634  1.00  0.00    -0.273 OA
ATOM     36  N   UNL     1       5.145   4.047  10.461  1.00  0.00    -0.354 N 
ATOM     37  H   UNL     1       4.832   3.399   9.737  1.00  0.00     0.163 HD
BRANCH  36  38
ATOM     38  C   UNL     1       5.223   5.458  10.146  1.00  0.00     0.116 C 
BRANCH  38  39
ATOM     39  C   UNL     1       4.173   5.815   9.097  1.00  0.00     0.023 C 
BRANCH  39  40
ATOM     40  C   UNL     1       4.470   5.188   7.739  1.00  0.00     0.026 C 
BRANCH  40  41
ATOM     41  C   UNL     1       5.446   6.055   6.943  1.00  0.00     0.146 C 
BRANCH  41  42
ATOM     42  N   UNL     1       6.215   5.220   6.030  1.00  0.00    -0.254 NA
ATOM     43  C   UNL     1       7.469   5.056   6.228  1.00  0.00     0.185 C 
ATOM     44  N   UNL     1       8.265   5.548   7.195  1.00  0.00    -0.370 N 
ATOM     45  N   UNL     1       8.162   4.286   5.372  1.00  0.00    -0.370 N 
ATOM     46  H   UNL     1       9.265   5.539   7.091  1.00  0.00     0.159 HD
ATOM     47  H   UNL     1       7.901   6.140   7.935  1.00  0.00     0.159 HD
ATOM     48  H   UNL     1       7.635   3.869   4.617  1.00  0.00     0.159 HD
ATOM     49  H   UNL     1       9.073   3.921   5.585  1.00  0.00     0.159 HD
ENDBRANCH  41  42
ENDBRANCH  40  41
ENDBRANCH  39  40
ENDBRANCH  38  39
ENDBRANCH  36  38
ENDBRANCH   5  34
BRANCH   8  50
ATOM     50  O   UNL     1       5.152   3.182  16.384  1.00  0.00    -0.245 OA
BRANCH  50  51
ATOM     51  S   UNL     1       5.197   4.063  17.750  1.00  0.00     0.397 S 
ATOM     52  O   UNL     1       6.311   4.980  17.654  1.00  0.00    -0.169 OA
ATOM     53  O   UNL     1       5.025   3.193  18.895  1.00  0.00    -0.169 OA
BRANCH  51  54
ATOM     54  O   UNL     1       3.874   4.966  17.611  1.00  0.00    -0.264 OA
ATOM     55  H   UNL     1       3.112   4.363  17.488  1.00  0.00     0.236 HD
ENDBRANCH  51  54
ENDBRANCH  50  51
ENDBRANCH   8  50
TORSDOF 19
ENDMDL
MODEL 17
REMARK VINA RESULT:    -5.456     15.694     18.400
REMARK INTER + INTRA:         -16.232
REMARK INTER:                 -10.757
REMARK INTRA:                  -5.475
REMARK UNBOUND:                -5.195
REMARK SMILES CC[C@@H](C)[C@@H](NC(=O)[C@@H](O)Cc1ccc(O)c(Cl)c1)C(=O)N1[C@H](C(=O)NCCCCN=C(N)N)C[C@H]2CC[C@H](OS(=O)(=O)O)C[C@@H]21
REMARK SMILES IDX 22 1 36 2 46 3 35 4 23 5 45 6 37 7 39 8 38 9 20 10 21 11
REMARK SMILES IDX 5 12 6 13 7 14 8 15 9 17 11 18 12 19 17 20 19 21 15 22 14 23
REMARK SMILES IDX 13 24 18 25 16 26 10 28 3 30 4 31 2 32 1 33 24 34 25 35
REMARK SMILES IDX 26 36 27 38 28 39 29 40 30 41 31 42 32 43 33 44 34 45 40 50
REMARK SMILES IDX 41 51 42 52 43 53 44 54
REMARK H PARENT 6 16 16 27 10 29 26 37 33 46 33 47 34 48 34 49 44 55
ROOT
ATOM      1  N   UNL     1     -12.288   2.212   7.184  1.00  0.00    -0.326 N 
ATOM      2  C   UNL     1     -11.086   0.309   6.495  1.00  0.00     0.014 C 
ATOM      3  C   UNL     1     -12.418   0.754   7.104  1.00  0.00     0.091 C 
ATOM      4  C   UNL     1     -10.098   1.304   7.085  1.00  0.00     0.041 C 
ATOM      5  C   UNL     1     -10.887   2.613   6.900  1.00  0.00     0.175 C 
ATOM      6  C   UNL     1     -13.552   0.174   6.261  1.00  0.00     0.059 C 
ATOM      7  C   UNL     1     -10.862  -1.176   6.707  1.00  0.00     0.008 C 
ATOM      8  C   UNL     1     -13.216  -1.191   5.622  1.00  0.00     0.143 C 
ATOM      9  C   UNL     1     -12.159  -1.966   6.434  1.00  0.00     0.034 C 
ENDROOT
BRANCH   1  10
ATOM     10  C   UNL     1     -13.175   3.157   7.671  1.00  0.00     0.246 C 
ATOM     11  O   UNL     1     -14.015   3.642   6.906  1.00  0.00    -0.272 OA
BRANCH  10  12
ATOM     12  C   UNL     1     -13.123   3.556   9.174  1.00  0.00     0.174 C 
BRANCH  12  13
ATOM     13  N   UNL     1     -12.185   4.662   9.365  1.00  0.00    -0.342 N 
ATOM     14  C   UNL     1     -12.364   5.707  10.242  1.00  0.00     0.249 C 
ATOM     15  O   UNL     1     -13.328   5.813  10.989  1.00  0.00    -0.272 OA
ATOM     16  H   UNL     1     -11.420   4.792   8.707  1.00  0.00     0.164 HD
BRANCH  14  17
ATOM     17  C   UNL     1     -11.205   6.726  10.199  1.00  0.00     0.207 C 
BRANCH  17  18
ATOM     18  C   UNL     1      -9.917   6.095  10.739  1.00  0.00     0.077 C 
BRANCH  18  19
ATOM     19  C   UNL     1      -9.024   5.598   9.624  1.00  0.00    -0.043 A 
ATOM     20  C   UNL     1      -7.975   5.934   7.463  1.00  0.00     0.083 A 
ATOM     21  C   UNL     1      -8.758   6.414   8.513  1.00  0.00     0.028 A 
ATOM     22  C   UNL     1      -7.454   4.641   7.514  1.00  0.00     0.134 A 
ATOM     23  C   UNL     1      -7.710   3.822   8.608  1.00  0.00     0.048 A 
ATOM     24  C   UNL     1      -8.496   4.299   9.660  1.00  0.00     0.008 A 
ATOM     25  Cl  UNL     1      -7.659   6.952   6.107  1.00  0.00    -0.080 Cl
BRANCH  22  26
ATOM     26  O   UNL     1      -6.690   4.123   6.504  1.00  0.00    -0.506 OA
ATOM     27  H   UNL     1      -6.696   3.154   6.616  1.00  0.00     0.293 HD
ENDBRANCH  22  26
ENDBRANCH  18  19
ENDBRANCH  17  18
BRANCH  17  28
ATOM     28  O   UNL     1     -11.518   7.899  10.966  1.00  0.00    -0.383 OA
ATOM     29  H   UNL     1     -10.675   8.184  11.385  1.00  0.00     0.211 HD
ENDBRANCH  17  28
ENDBRANCH  14  17
ENDBRANCH  12  13
BRANCH  12  30
ATOM     30  C   UNL     1     -12.815   2.351  10.104  1.00  0.00     0.018 C 
ATOM     31  C   UNL     1     -13.790   2.315  11.291  1.00  0.00     0.010 C 
BRANCH  30  32
ATOM     32  C   UNL     1     -11.354   2.317  10.614  1.00  0.00     0.002 C 
ATOM     33  C   UNL     1     -10.716   0.935  10.669  1.00  0.00     0.004 C 
ENDBRANCH  30  32
ENDBRANCH  12  30
ENDBRANCH  10  12
ENDBRANCH   1  10
BRANCH   5  34
ATOM     34  C   UNL     1     -10.754   3.161   5.455  1.00  0.00     0.242 C 
ATOM     35  O   UNL     1     -11.692   3.149   4.657  1.00  0.00    -0.273 OA
ATOM     36  N   UNL     1      -9.499   3.612   5.112  1.00  0.00    -0.354 N 
ATOM     37  H   UNL     1      -8.734   3.486   5.776  1.00  0.00     0.163 HD
BRANCH  36  38
ATOM     38  C   UNL     1      -9.249   4.349   3.891  1.00  0.00     0.116 C 
BRANCH  38  39
ATOM     39  C   UNL     1      -8.009   3.792   3.195  1.00  0.00     0.023 C 
BRANCH  39  40
ATOM     40  C   UNL     1      -8.286   3.376   1.755  1.00  0.00     0.026 C 
BRANCH  40  41
ATOM     41  C   UNL     1      -9.737   2.921   1.592  1.00  0.00     0.146 C 
BRANCH  41  42
ATOM     42  N   UNL     1      -9.771   1.568   1.053  1.00  0.00    -0.254 NA
ATOM     43  C   UNL     1     -10.268   0.619   1.754  1.00  0.00     0.185 C 
ATOM     44  N   UNL     1     -10.805   0.645   2.988  1.00  0.00    -0.370 N 
ATOM     45  N   UNL     1     -10.286  -0.622   1.241  1.00  0.00    -0.370 N 
ATOM     46  H   UNL     1     -10.930  -0.206   3.510  1.00  0.00     0.159 HD
ATOM     47  H   UNL     1     -10.883   1.508   3.517  1.00  0.00     0.159 HD
ATOM     48  H   UNL     1      -9.908  -0.727   0.309  1.00  0.00     0.159 HD
ATOM     49  H   UNL     1     -10.859  -1.357   1.615  1.00  0.00     0.159 HD
ENDBRANCH  41  42
ENDBRANCH  40  41
ENDBRANCH  39  40
ENDBRANCH  38  39
ENDBRANCH  36  38
ENDBRANCH   5  34
BRANCH   8  50
ATOM     50  O   UNL     1     -12.721  -1.002   4.296  1.00  0.00    -0.245 OA
BRANCH  50  51
ATOM     51  S   UNL     1     -13.076  -2.094   3.144  1.00  0.00     0.397 S 
ATOM     52  O   UNL     1     -13.214  -1.389   1.889  1.00  0.00    -0.169 OA
ATOM     53  O   UNL     1     -14.101  -2.995   3.626  1.00  0.00    -0.169 OA
BRANCH  51  54
ATOM     54  O   UNL     1     -11.702  -2.922   3.031  1.00  0.00    -0.264 OA
ATOM     55  H   UNL     1     -11.110  -2.616   3.748  1.00  0.00     0.236 HD
ENDBRANCH  51  54
ENDBRANCH  50  51
ENDBRANCH   8  50
TORSDOF 19
ENDMDL
MODEL 18
REMARK VINA RESULT:    -5.435      3.732      5.844
REMARK INTER + INTRA:         -16.189
REMARK INTER:                 -12.850
REMARK INTRA:                  -3.339
REMARK UNBOUND:                -5.195
REMARK SMILES CC[C@@H](C)[C@@H](NC(=O)[C@@H](O)Cc1ccc(O)c(Cl)c1)C(=O)N1[C@H](C(=O)NCCCCN=C(N)N)C[C@H]2CC[C@H](OS(=O)(=O)O)C[C@@H]21
REMARK SMILES IDX 22 1 36 2 46 3 35 4 23 5 45 6 37 7 39 8 38 9 20 10 21 11
REMARK SMILES IDX 5 12 6 13 7 14 8 15 9 17 11 18 12 19 17 20 19 21 15 22 14 23
REMARK SMILES IDX 13 24 18 25 16 26 10 28 3 30 4 31 2 32 1 33 24 34 25 35
REMARK SMILES IDX 26 36 27 38 28 39 29 40 30 41 31 42 32 43 33 44 34 45 40 50
REMARK SMILES IDX 41 51 42 52 43 53 44 54
REMARK H PARENT 6 16 16 27 10 29 26 37 33 46 33 47 34 48 34 49 44 55
ROOT
ATOM      1  N   UNL     1       4.089   0.837  13.797  1.00  0.00    -0.326 N 
ATOM      2  C   UNL     1       5.363   2.392  15.022  1.00  0.00     0.014 C 
ATOM      3  C   UNL     1       5.329   0.928  14.573  1.00  0.00     0.091 C 
ATOM      4  C   UNL     1       3.892   2.710  15.239  1.00  0.00     0.041 C 
ATOM      5  C   UNL     1       3.286   2.071  13.976  1.00  0.00     0.175 C 
ATOM      6  C   UNL     1       6.647   0.606  13.872  1.00  0.00     0.059 C 
ATOM      7  C   UNL     1       6.342   2.586  16.163  1.00  0.00     0.008 C 
ATOM      8  C   UNL     1       7.854   1.396  14.425  1.00  0.00     0.143 C 
ATOM      9  C   UNL     1       7.650   1.811  15.896  1.00  0.00     0.034 C 
ENDROOT
BRANCH   1  10
ATOM     10  C   UNL     1       3.520  -0.252  13.157  1.00  0.00     0.246 C 
ATOM     11  O   UNL     1       3.753  -0.434  11.958  1.00  0.00    -0.272 OA
BRANCH  10  12
ATOM     12  C   UNL     1       2.637  -1.243  13.970  1.00  0.00     0.174 C 
BRANCH  12  13
ATOM     13  N   UNL     1       3.470  -2.303  14.537  1.00  0.00    -0.342 N 
ATOM     14  C   UNL     1       3.331  -2.825  15.803  1.00  0.00     0.249 C 
ATOM     15  O   UNL     1       2.465  -2.473  16.595  1.00  0.00    -0.272 OA
ATOM     16  H   UNL     1       4.323  -2.583  14.059  1.00  0.00     0.164 HD
BRANCH  14  17
ATOM     17  C   UNL     1       4.374  -3.920  16.114  1.00  0.00     0.207 C 
BRANCH  17  18
ATOM     18  C   UNL     1       4.381  -4.981  15.009  1.00  0.00     0.077 C 
BRANCH  18  19
ATOM     19  C   UNL     1       5.711  -5.037  14.292  1.00  0.00    -0.043 A 
ATOM     20  C   UNL     1       7.320  -6.243  12.935  1.00  0.00     0.083 A 
ATOM     21  C   UNL     1       6.071  -6.175  13.554  1.00  0.00     0.028 A 
ATOM     22  C   UNL     1       8.214  -5.178  13.049  1.00  0.00     0.134 A 
ATOM     23  C   UNL     1       7.870  -4.045  13.776  1.00  0.00     0.048 A 
ATOM     24  C   UNL     1       6.622  -3.975  14.398  1.00  0.00     0.008 A 
ATOM     25  Cl  UNL     1       7.745  -7.651  12.034  1.00  0.00    -0.080 Cl
BRANCH  22  26
ATOM     26  O   UNL     1       9.454  -5.204  12.468  1.00  0.00    -0.506 OA
ATOM     27  H   UNL     1       9.631  -6.131  12.226  1.00  0.00     0.293 HD
ENDBRANCH  22  26
ENDBRANCH  18  19
ENDBRANCH  17  18
BRANCH  17  28
ATOM     28  O   UNL     1       4.103  -4.549  17.377  1.00  0.00    -0.383 OA
ATOM     29  H   UNL     1       3.160  -4.832  17.343  1.00  0.00     0.211 HD
ENDBRANCH  17  28
ENDBRANCH  14  17
ENDBRANCH  12  13
BRANCH  12  30
ATOM     30  C   UNL     1       1.447  -1.802  13.144  1.00  0.00     0.018 C 
ATOM     31  C   UNL     1       0.121  -1.604  13.893  1.00  0.00     0.010 C 
BRANCH  30  32
ATOM     32  C   UNL     1       1.614  -3.288  12.741  1.00  0.00     0.002 C 
ATOM     33  C   UNL     1       0.674  -4.261  13.440  1.00  0.00     0.004 C 
ENDBRANCH  30  32
ENDBRANCH  12  30
ENDBRANCH  10  12
ENDBRANCH   1  10
BRANCH   5  34
ATOM     34  C   UNL     1       3.424   3.002  12.741  1.00  0.00     0.242 C 
ATOM     35  O   UNL     1       3.499   4.226  12.845  1.00  0.00    -0.273 OA
ATOM     36  N   UNL     1       3.403   2.363  11.521  1.00  0.00    -0.354 N 
ATOM     37  H   UNL     1       3.218   1.360  11.495  1.00  0.00     0.163 HD
BRANCH  36  38
ATOM     38  C   UNL     1       3.735   3.044  10.287  1.00  0.00     0.116 C 
BRANCH  38  39
ATOM     39  C   UNL     1       5.156   2.684   9.862  1.00  0.00     0.023 C 
BRANCH  39  40
ATOM     40  C   UNL     1       6.081   3.897   9.837  1.00  0.00     0.026 C 
BRANCH  40  41
ATOM     41  C   UNL     1       5.376   5.104   9.218  1.00  0.00     0.146 C 
BRANCH  41  42
ATOM     42  N   UNL     1       5.821   6.325   9.877  1.00  0.00    -0.254 NA
ATOM     43  C   UNL     1       5.066   6.886  10.746  1.00  0.00     0.185 C 
ATOM     44  N   UNL     1       3.850   6.528  11.196  1.00  0.00    -0.370 N 
ATOM     45  N   UNL     1       5.492   8.013  11.339  1.00  0.00    -0.370 N 
ATOM     46  H   UNL     1       3.272   7.186  11.692  1.00  0.00     0.159 HD
ATOM     47  H   UNL     1       3.383   5.690  10.862  1.00  0.00     0.159 HD
ATOM     48  H   UNL     1       6.406   8.348  11.063  1.00  0.00     0.159 HD
ATOM     49  H   UNL     1       5.081   8.374  12.181  1.00  0.00     0.159 HD
ENDBRANCH  41  42
ENDBRANCH  40  41
ENDBRANCH  39  40
ENDBRANCH  38  39
ENDBRANCH  36  38
ENDBRANCH   5  34
BRANCH   8  50
ATOM     50  O   UNL     1       8.066   2.575  13.647  1.00  0.00    -0.245 OA
BRANCH  50  51
ATOM     51  S   UNL     1       9.552   3.232  13.575  1.00  0.00     0.397 S 
ATOM     52  O   UNL     1      10.493   2.266  14.094  1.00  0.00    -0.169 OA
ATOM     53  O   UNL     1       9.506   4.592  14.072  1.00  0.00    -0.169 OA
BRANCH  51  54
ATOM     54  O   UNL     1       9.815   3.292  11.990  1.00  0.00    -0.264 OA
ATOM     55  H   UNL     1      10.471   4.000  11.823  1.00  0.00     0.236 HD
ENDBRANCH  51  54
ENDBRANCH  50  51
ENDBRANCH   8  50
TORSDOF 19
ENDMDL
MODEL 19
REMARK VINA RESULT:    -5.359      3.338      8.222
REMARK INTER + INTRA:         -16.037
REMARK INTER:                 -11.437
REMARK INTRA:                  -4.599
REMARK UNBOUND:                -5.195
REMARK SMILES CC[C@@H](C)[C@@H](NC(=O)[C@@H](O)Cc1ccc(O)c(Cl)c1)C(=O)N1[C@H](C(=O)NCCCCN=C(N)N)C[C@H]2CC[C@H](OS(=O)(=O)O)C[C@@H]21
REMARK SMILES IDX 22 1 36 2 46 3 35 4 23 5 45 6 37 7 39 8 38 9 20 10 21 11
REMARK SMILES IDX 5 12 6 13 7 14 8 15 9 17 11 18 12 19 17 20 19 21 15 22 14 23
REMARK SMILES IDX 13 24 18 25 16 26 10 28 3 30 4 31 2 32 1 33 24 34 25 35
REMARK SMILES IDX 26 36 27 38 28 39 29 40 30 41 31 42 32 43 33 44 34 45 40 50
REMARK SMILES IDX 41 51 42 52 43 53 44 54
REMARK H PARENT 6 16 16 27 10 29 26 37 33 46 33 47 34 48 34 49 44 55
ROOT
ATOM      1  N   UNL     1       8.276   1.677  10.869  1.00  0.00    -0.326 N 
ATOM      2  C   UNL     1       6.948   3.469  11.625  1.00  0.00     0.014 C 
ATOM      3  C   UNL     1       7.247   2.607  10.394  1.00  0.00     0.091 C 
ATOM      4  C   UNL     1       8.307   3.568  12.302  1.00  0.00     0.041 C 
ATOM      5  C   UNL     1       8.768   2.102  12.203  1.00  0.00     0.175 C 
ATOM      6  C   UNL     1       5.931   2.030   9.878  1.00  0.00     0.059 C 
ATOM      7  C   UNL     1       6.219   4.739  11.233  1.00  0.00     0.008 C 
ATOM      8  C   UNL     1       4.713   2.950  10.113  1.00  0.00     0.143 C 
ATOM      9  C   UNL     1       5.118   4.436  10.195  1.00  0.00     0.034 C 
ENDROOT
BRANCH   1  10
ATOM     10  C   UNL     1       8.946   0.674  10.190  1.00  0.00     0.246 C 
ATOM     11  O   UNL     1       8.765  -0.502  10.523  1.00  0.00    -0.272 OA
BRANCH  10  12
ATOM     12  C   UNL     1       9.877   1.043   8.999  1.00  0.00     0.174 C 
BRANCH  12  13
ATOM     13  N   UNL     1       9.094   1.650   7.923  1.00  0.00    -0.342 N 
ATOM     14  C   UNL     1       9.312   2.904   7.398  1.00  0.00     0.249 C 
ATOM     15  O   UNL     1      10.216   3.647   7.760  1.00  0.00    -0.272 OA
ATOM     16  H   UNL     1       8.220   1.220   7.632  1.00  0.00     0.164 HD
BRANCH  14  17
ATOM     17  C   UNL     1       8.306   3.267   6.285  1.00  0.00     0.207 C 
BRANCH  17  18
ATOM     18  C   UNL     1       6.896   3.412   6.865  1.00  0.00     0.077 C 
BRANCH  18  19
ATOM     19  C   UNL     1       6.493   4.863   7.006  1.00  0.00    -0.043 A 
ATOM     20  C   UNL     1       7.044   7.150   7.597  1.00  0.00     0.083 A 
ATOM     21  C   UNL     1       7.431   5.821   7.420  1.00  0.00     0.028 A 
ATOM     22  C   UNL     1       5.721   7.529   7.364  1.00  0.00     0.134 A 
ATOM     23  C   UNL     1       4.782   6.590   6.954  1.00  0.00     0.048 A 
ATOM     24  C   UNL     1       5.166   5.259   6.778  1.00  0.00     0.008 A 
ATOM     25  Cl  UNL     1       8.211   8.313   8.105  1.00  0.00    -0.080 Cl
BRANCH  22  26
ATOM     26  O   UNL     1       5.293   8.818   7.534  1.00  0.00    -0.506 OA
ATOM     27  H   UNL     1       4.322   8.804   7.442  1.00  0.00     0.293 HD
ENDBRANCH  22  26
ENDBRANCH  18  19
ENDBRANCH  17  18
BRANCH  17  28
ATOM     28  O   UNL     1       8.296   2.269   5.252  1.00  0.00    -0.383 OA
ATOM     29  H   UNL     1       7.837   1.487   5.633  1.00  0.00     0.211 HD
ENDBRANCH  17  28
ENDBRANCH  14  17
ENDBRANCH  12  13
BRANCH  12  30
ATOM     30  C   UNL     1      10.727  -0.160   8.507  1.00  0.00     0.018 C 
ATOM     31  C   UNL     1      12.109  -0.164   9.180  1.00  0.00     0.010 C 
BRANCH  30  32
ATOM     32  C   UNL     1      10.884  -0.221   6.968  1.00  0.00     0.002 C 
ATOM     33  C   UNL     1      10.063  -1.298   6.271  1.00  0.00     0.004 C 
ENDBRANCH  30  32
ENDBRANCH  12  30
ENDBRANCH  10  12
ENDBRANCH   1  10
BRANCH   5  34
ATOM     34  C   UNL     1       8.143   1.228  13.323  1.00  0.00     0.242 C 
ATOM     35  O   UNL     1       7.214   0.450  13.109  1.00  0.00    -0.273 OA
ATOM     36  N   UNL     1       8.666   1.427  14.581  1.00  0.00    -0.354 N 
ATOM     37  H   UNL     1       9.352   2.171  14.716  1.00  0.00     0.163 HD
BRANCH  36  38
ATOM     38  C   UNL     1       8.357   0.553  15.694  1.00  0.00     0.116 C 
BRANCH  38  39
ATOM     39  C   UNL     1       8.197   1.377  16.970  1.00  0.00     0.023 C 
BRANCH  39  40
ATOM     40  C   UNL     1       6.850   1.147  17.647  1.00  0.00     0.026 C 
BRANCH  40  41
ATOM     41  C   UNL     1       5.752   1.959  16.960  1.00  0.00     0.146 C 
BRANCH  41  42
ATOM     42  N   UNL     1       4.697   1.067  16.497  1.00  0.00    -0.254 NA
ATOM     43  C   UNL     1       4.309   1.123  15.278  1.00  0.00     0.185 C 
ATOM     44  N   UNL     1       4.730   1.911  14.272  1.00  0.00    -0.370 N 
ATOM     45  N   UNL     1       3.332   0.296  14.873  1.00  0.00    -0.370 N 
ATOM     46  H   UNL     1       4.176   2.019  13.440  1.00  0.00     0.159 HD
ATOM     47  H   UNL     1       5.476   2.588  14.401  1.00  0.00     0.159 HD
ATOM     48  H   UNL     1       2.964  -0.338  15.569  1.00  0.00     0.159 HD
ATOM     49  H   UNL     1       3.141   0.113  13.904  1.00  0.00     0.159 HD
ENDBRANCH  41  42
ENDBRANCH  40  41
ENDBRANCH  39  40
ENDBRANCH  38  39
ENDBRANCH  36  38
ENDBRANCH   5  34
BRANCH   8  50
ATOM     50  O   UNL     1       4.055   2.591  11.329  1.00  0.00    -0.245 OA
BRANCH  50  51
ATOM     51  S   UNL     1       3.004   1.350  11.337  1.00  0.00     0.397 S 
ATOM     52  O   UNL     1       3.700   0.179  11.820  1.00  0.00    -0.169 OA
ATOM     53  O   UNL     1       2.261   1.334  10.094  1.00  0.00    -0.169 OA
BRANCH  51  54
ATOM     54  O   UNL     1       1.993   1.775  12.513  1.00  0.00    -0.264 OA
ATOM     55  H   UNL     1       1.259   1.127  12.524  1.00  0.00     0.236 HD
ENDBRANCH  51  54
ENDBRANCH  50  51
ENDBRANCH   8  50
TORSDOF 19
ENDMDL
MODEL 20
REMARK VINA RESULT:    -5.281      4.963      8.274
REMARK INTER + INTRA:         -15.879
REMARK INTER:                 -13.821
REMARK INTRA:                  -2.058
REMARK UNBOUND:                -5.195
REMARK SMILES CC[C@@H](C)[C@@H](NC(=O)[C@@H](O)Cc1ccc(O)c(Cl)c1)C(=O)N1[C@H](C(=O)NCCCCN=C(N)N)C[C@H]2CC[C@H](OS(=O)(=O)O)C[C@@H]21
REMARK SMILES IDX 22 1 36 2 46 3 35 4 23 5 45 6 37 7 39 8 38 9 20 10 21 11
REMARK SMILES IDX 5 12 6 13 7 14 8 15 9 17 11 18 12 19 17 20 19 21 15 22 14 23
REMARK SMILES IDX 13 24 18 25 16 26 10 28 3 30 4 31 2 32 1 33 24 34 25 35
REMARK SMILES IDX 26 36 27 38 28 39 29 40 30 41 31 42 32 43 33 44 34 45 40 50
REMARK SMILES IDX 41 51 42 52 43 53 44 54
REMARK H PARENT 6 16 16 27 10 29 26 37 33 46 33 47 34 48 34 49 44 55
ROOT
ATOM      1  N   UNL     1       5.655   7.588   5.574  1.00  0.00    -0.326 N 
ATOM      2  C   UNL     1       6.635   8.549   3.661  1.00  0.00     0.014 C 
ATOM      3  C   UNL     1       6.956   7.726   4.913  1.00  0.00     0.091 C 
ATOM      4  C   UNL     1       5.531   9.477   4.144  1.00  0.00     0.041 C 
ATOM      5  C   UNL     1       4.659   8.479   4.928  1.00  0.00     0.175 C 
ATOM      6  C   UNL     1       7.688   6.457   4.482  1.00  0.00     0.059 C 
ATOM      7  C   UNL     1       7.896   9.141   3.064  1.00  0.00     0.008 C 
ATOM      8  C   UNL     1       8.563   6.641   3.223  1.00  0.00     0.143 C 
ATOM      9  C   UNL     1       9.035   8.099   3.054  1.00  0.00     0.034 C 
ENDROOT
BRANCH   1  10
ATOM     10  C   UNL     1       5.325   6.958   6.762  1.00  0.00     0.246 C 
ATOM     11  O   UNL     1       4.354   6.195   6.788  1.00  0.00    -0.272 OA
BRANCH  10  12
ATOM     12  C   UNL     1       6.208   7.188   8.023  1.00  0.00     0.174 C 
BRANCH  12  13
ATOM     13  N   UNL     1       6.298   5.953   8.801  1.00  0.00    -0.342 N 
ATOM     14  C   UNL     1       7.211   4.945   8.581  1.00  0.00     0.249 C 
ATOM     15  O   UNL     1       8.076   4.986   7.715  1.00  0.00    -0.272 OA
ATOM     16  H   UNL     1       5.552   5.709   9.447  1.00  0.00     0.164 HD
BRANCH  14  17
ATOM     17  C   UNL     1       7.040   3.763   9.559  1.00  0.00     0.207 C 
BRANCH  17  18
ATOM     18  C   UNL     1       6.448   4.248  10.886  1.00  0.00     0.077 C 
BRANCH  18  19
ATOM     19  C   UNL     1       5.138   3.562  11.202  1.00  0.00    -0.043 A 
ATOM     20  C   UNL     1       3.277   3.174  12.708  1.00  0.00     0.083 A 
ATOM     21  C   UNL     1       4.460   3.845  12.397  1.00  0.00     0.028 A 
ATOM     22  C   UNL     1       2.765   2.218  11.830  1.00  0.00     0.134 A 
ATOM     23  C   UNL     1       3.426   1.927  10.643  1.00  0.00     0.048 A 
ATOM     24  C   UNL     1       4.612   2.596  10.330  1.00  0.00     0.008 A 
ATOM     25  Cl  UNL     1       2.458   3.536  14.182  1.00  0.00    -0.080 Cl
BRANCH  22  26
ATOM     26  O   UNL     1       1.614   1.527  12.097  1.00  0.00    -0.506 OA
ATOM     27  H   UNL     1       1.453   0.945  11.331  1.00  0.00     0.293 HD
ENDBRANCH  22  26
ENDBRANCH  18  19
ENDBRANCH  17  18
BRANCH  17  28
ATOM     28  O   UNL     1       8.295   3.111   9.806  1.00  0.00    -0.383 OA
ATOM     29  H   UNL     1       8.078   2.270  10.270  1.00  0.00     0.211 HD
ENDBRANCH  17  28
ENDBRANCH  14  17
ENDBRANCH  12  13
BRANCH  12  30
ATOM     30  C   UNL     1       5.730   8.393   8.877  1.00  0.00     0.018 C 
ATOM     31  C   UNL     1       5.726   8.035  10.372  1.00  0.00     0.010 C 
BRANCH  30  32
ATOM     32  C   UNL     1       4.344   8.941   8.458  1.00  0.00     0.002 C 
ATOM     33  C   UNL     1       4.251  10.457   8.346  1.00  0.00     0.004 C 
ENDBRANCH  30  32
ENDBRANCH  12  30
ENDBRANCH  10  12
ENDBRANCH   1  10
BRANCH   5  34
ATOM     34  C   UNL     1       3.727   7.671   3.986  1.00  0.00     0.242 C 
ATOM     35  O   UNL     1       3.835   6.454   3.840  1.00  0.00    -0.273 OA
ATOM     36  N   UNL     1       2.809   8.422   3.286  1.00  0.00    -0.354 N 
ATOM     37  H   UNL     1       2.848   9.439   3.359  1.00  0.00     0.163 HD
BRANCH  36  38
ATOM     38  C   UNL     1       1.729   7.817   2.534  1.00  0.00     0.116 C 
BRANCH  38  39
ATOM     39  C   UNL     1       2.244   7.345   1.177  1.00  0.00     0.023 C 
BRANCH  39  40
ATOM     40  C   UNL     1       1.174   6.617   0.369  1.00  0.00     0.026 C 
BRANCH  40  41
ATOM     41  C   UNL     1       1.114   7.156  -1.060  1.00  0.00     0.146 C 
BRANCH  41  42
ATOM     42  N   UNL     1       1.950   6.339  -1.930  1.00  0.00    -0.254 NA
ATOM     43  C   UNL     1       1.424   5.737  -2.930  1.00  0.00     0.185 C 
ATOM     44  N   UNL     1       0.147   5.719  -3.356  1.00  0.00    -0.370 N 
ATOM     45  N   UNL     1       2.210   4.985  -3.717  1.00  0.00    -0.370 N 
ATOM     46  H   UNL     1      -0.168   5.015  -4.002  1.00  0.00     0.159 HD
ATOM     47  H   UNL     1      -0.580   6.246  -2.883  1.00  0.00     0.159 HD
ATOM     48  H   UNL     1       3.190   4.951  -3.471  1.00  0.00     0.159 HD
ATOM     49  H   UNL     1       1.932   4.682  -4.634  1.00  0.00     0.159 HD
ENDBRANCH  41  42
ENDBRANCH  40  41
ENDBRANCH  39  40
ENDBRANCH  38  39
ENDBRANCH  36  38
ENDBRANCH   5  34
BRANCH   8  50
ATOM     50  O   UNL     1       7.831   6.263   2.057  1.00  0.00    -0.245 OA
BRANCH  50  51
ATOM     51  S   UNL     1       8.458   5.162   1.037  1.00  0.00     0.397 S 
ATOM     52  O   UNL     1       9.891   5.349   1.004  1.00  0.00    -0.169 OA
ATOM     53  O   UNL     1       7.669   5.120  -0.177  1.00  0.00    -0.169 OA
BRANCH  51  54
ATOM     54  O   UNL     1       8.213   3.788   1.836  1.00  0.00    -0.264 OA
ATOM     55  H   UNL     1       8.213   3.059   1.182  1.00  0.00     0.236 HD
ENDBRANCH  51  54
ENDBRANCH  50  51
ENDBRANCH   8  50
TORSDOF 19
ENDMDL
MODEL 21
REMARK VINA RESULT:    -5.227      3.238      8.424
REMARK INTER + INTRA:         -15.769
REMARK INTER:                 -12.004
REMARK INTRA:                  -3.766
REMARK UNBOUND:                -5.195
REMARK SMILES CC[C@@H](C)[C@@H](NC(=O)[C@@H](O)Cc1ccc(O)c(Cl)c1)C(=O)N1[C@H](C(=O)NCCCCN=C(N)N)C[C@H]2CC[C@H](OS(=O)(=O)O)C[C@@H]21
REMARK SMILES IDX 22 1 36 2 46 3 35 4 23 5 45 6 37 7 39 8 38 9 20 10 21 11
REMARK SMILES IDX 5 12 6 13 7 14 8 15 9 17 11 18 12 19 17 20 19 21 15 22 14 23
REMARK SMILES IDX 13 24 18 25 16 26 10 28 3 30 4 31 2 32 1 33 24 34 25 35
REMARK SMILES IDX 26 36 27 38 28 39 29 40 30 41 31 42 32 43 33 44 34 45 40 50
REMARK SMILES IDX 41 51 42 52 43 53 44 54
REMARK H PARENT 6 16 16 27 10 29 26 37 33 46 33 47 34 48 34 49 44 55
ROOT
ATOM      1  N   UNL     1       8.538   1.661  10.603  1.00  0.00    -0.326 N 
ATOM      2  C   UNL     1       7.328   3.408  11.615  1.00  0.00     0.014 C 
ATOM      3  C   UNL     1       7.361   2.506  10.378  1.00  0.00     0.091 C 
ATOM      4  C   UNL     1       8.804   3.618  11.917  1.00  0.00     0.041 C 
ATOM      5  C   UNL     1       9.323   2.178  11.751  1.00  0.00     0.175 C 
ATOM      6  C   UNL     1       5.999   1.829  10.237  1.00  0.00     0.059 C 
ATOM      7  C   UNL     1       6.438   4.613  11.383  1.00  0.00     0.008 C 
ATOM      8  C   UNL     1       4.822   2.689  10.747  1.00  0.00     0.143 C 
ATOM      9  C   UNL     1       5.133   4.197  10.673  1.00  0.00     0.034 C 
ENDROOT
BRANCH   1  10
ATOM     10  C   UNL     1       9.080   0.665   9.808  1.00  0.00     0.246 C 
ATOM     11  O   UNL     1       8.944  -0.515  10.147  1.00  0.00    -0.272 OA
BRANCH  10  12
ATOM     12  C   UNL     1       9.810   1.049   8.488  1.00  0.00     0.174 C 
BRANCH  12  13
ATOM     13  N   UNL     1       8.897   1.779   7.608  1.00  0.00    -0.342 N 
ATOM     14  C   UNL     1       9.050   3.093   7.226  1.00  0.00     0.249 C 
ATOM     15  O   UNL     1       9.994   3.796   7.564  1.00  0.00    -0.272 OA
ATOM     16  H   UNL     1       7.992   1.377   7.376  1.00  0.00     0.164 HD
BRANCH  14  17
ATOM     17  C   UNL     1       7.911   3.582   6.306  1.00  0.00     0.207 C 
BRANCH  17  18
ATOM     18  C   UNL     1       6.623   3.786   7.110  1.00  0.00     0.077 C 
BRANCH  18  19
ATOM     19  C   UNL     1       6.309   5.252   7.307  1.00  0.00    -0.043 A 
ATOM     20  C   UNL     1       7.035   7.504   7.841  1.00  0.00     0.083 A 
ATOM     21  C   UNL     1       7.335   6.161   7.612  1.00  0.00     0.028 A 
ATOM     22  C   UNL     1       5.714   7.947   7.769  1.00  0.00     0.134 A 
ATOM     23  C   UNL     1       4.689   7.058   7.467  1.00  0.00     0.048 A 
ATOM     24  C   UNL     1       4.985   5.712   7.239  1.00  0.00     0.008 A 
ATOM     25  Cl  UNL     1       8.308   8.605   8.215  1.00  0.00    -0.080 Cl
BRANCH  22  26
ATOM     26  O   UNL     1       5.370   9.252   7.996  1.00  0.00    -0.506 OA
ATOM     27  H   UNL     1       4.503   9.391   7.573  1.00  0.00     0.293 HD
ENDBRANCH  22  26
ENDBRANCH  18  19
ENDBRANCH  17  18
BRANCH  17  28
ATOM     28  O   UNL     1       7.666   2.646   5.244  1.00  0.00    -0.383 OA
ATOM     29  H   UNL     1       8.547   2.291   4.985  1.00  0.00     0.211 HD
ENDBRANCH  17  28
ENDBRANCH  14  17
ENDBRANCH  12  13
BRANCH  12  30
ATOM     30  C   UNL     1      10.460  -0.172   7.785  1.00  0.00     0.018 C 
ATOM     31  C   UNL     1      11.972   0.041   7.607  1.00  0.00     0.010 C 
BRANCH  30  32
ATOM     32  C   UNL     1       9.810  -0.527   6.426  1.00  0.00     0.002 C 
ATOM     33  C   UNL     1       9.689  -2.016   6.130  1.00  0.00     0.004 C 
ENDBRANCH  30  32
ENDBRANCH  12  30
ENDBRANCH  10  12
ENDBRANCH   1  10
BRANCH   5  34
ATOM     34  C   UNL     1       9.064   1.326  13.022  1.00  0.00     0.242 C 
ATOM     35  O   UNL     1       9.901   1.210  13.917  1.00  0.00    -0.273 OA
ATOM     36  N   UNL     1       7.855   0.668  13.050  1.00  0.00    -0.354 N 
ATOM     37  H   UNL     1       7.255   0.706  12.225  1.00  0.00     0.163 HD
BRANCH  36  38
ATOM     38  C   UNL     1       7.361   0.009  14.241  1.00  0.00     0.116 C 
BRANCH  38  39
ATOM     39  C   UNL     1       5.911  -0.421  14.032  1.00  0.00     0.023 C 
BRANCH  39  40
ATOM     40  C   UNL     1       5.713  -1.919  14.232  1.00  0.00     0.026 C 
BRANCH  40  41
ATOM     41  C   UNL     1       4.239  -2.243  14.477  1.00  0.00     0.146 C 
BRANCH  41  42
ATOM     42  N   UNL     1       3.402  -1.209  13.882  1.00  0.00    -0.254 NA
ATOM     43  C   UNL     1       2.366  -1.543  13.209  1.00  0.00     0.185 C 
ATOM     44  N   UNL     1       1.871  -2.762  12.930  1.00  0.00    -0.370 N 
ATOM     45  N   UNL     1       1.610  -0.574  12.666  1.00  0.00    -0.370 N 
ATOM     46  H   UNL     1       1.198  -2.886  12.193  1.00  0.00     0.159 HD
ATOM     47  H   UNL     1       2.312  -3.609  13.275  1.00  0.00     0.159 HD
ATOM     48  H   UNL     1       1.909   0.376  12.836  1.00  0.00     0.159 HD
ATOM     49  H   UNL     1       0.675  -0.735  12.336  1.00  0.00     0.159 HD
ENDBRANCH  41  42
ENDBRANCH  40  41
ENDBRANCH  39  40
ENDBRANCH  38  39
ENDBRANCH  36  38
ENDBRANCH   5  34
BRANCH   8  50
ATOM     50  O   UNL     1       4.521   2.353  12.102  1.00  0.00    -0.245 OA
BRANCH  50  51
ATOM     51  S   UNL     1       3.067   2.740  12.720  1.00  0.00     0.397 S 
ATOM     52  O   UNL     1       2.054   2.289  11.793  1.00  0.00    -0.169 OA
ATOM     53  O   UNL     1       3.095   4.101  13.213  1.00  0.00    -0.169 OA
BRANCH  51  54
ATOM     54  O   UNL     1       2.970   1.756  13.988  1.00  0.00    -0.264 OA
ATOM     55  H   UNL     1       2.478   0.957  13.709  1.00  0.00     0.236 HD
ENDBRANCH  51  54
ENDBRANCH  50  51
ENDBRANCH   8  50
TORSDOF 19
ENDMDL
MODEL 22
REMARK VINA RESULT:    -5.226      5.636     11.158
REMARK INTER + INTRA:         -15.767
REMARK INTER:                 -12.755
REMARK INTRA:                  -3.012
REMARK UNBOUND:                -5.195
REMARK SMILES CC[C@@H](C)[C@@H](NC(=O)[C@@H](O)Cc1ccc(O)c(Cl)c1)C(=O)N1[C@H](C(=O)NCCCCN=C(N)N)C[C@H]2CC[C@H](OS(=O)(=O)O)C[C@@H]21
REMARK SMILES IDX 22 1 36 2 46 3 35 4 23 5 45 6 37 7 39 8 38 9 20 10 21 11
REMARK SMILES IDX 5 12 6 13 7 14 8 15 9 17 11 18 12 19 17 20 19 21 15 22 14 23
REMARK SMILES IDX 13 24 18 25 16 26 10 28 3 30 4 31 2 32 1 33 24 34 25 35
REMARK SMILES IDX 26 36 27 38 28 39 29 40 30 41 31 42 32 43 33 44 34 45 40 50
REMARK SMILES IDX 41 51 42 52 43 53 44 54
REMARK H PARENT 6 16 16 27 10 29 26 37 33 46 33 47 34 48 34 49 44 55
ROOT
ATOM      1  N   UNL     1       5.892   7.195   6.711  1.00  0.00    -0.326 N 
ATOM      2  C   UNL     1       6.440   7.777   8.926  1.00  0.00     0.014 C 
ATOM      3  C   UNL     1       5.255   7.522   7.990  1.00  0.00     0.091 C 
ATOM      4  C   UNL     1       7.465   8.415   8.001  1.00  0.00     0.041 C 
ATOM      5  C   UNL     1       7.345   7.487   6.779  1.00  0.00     0.175 C 
ATOM      6  C   UNL     1       4.346   6.476   8.635  1.00  0.00     0.059 C 
ATOM      7  C   UNL     1       5.997   8.519  10.171  1.00  0.00     0.008 C 
ATOM      8  C   UNL     1       4.337   6.529  10.178  1.00  0.00     0.143 C 
ATOM      9  C   UNL     1       4.675   7.935  10.712  1.00  0.00     0.034 C 
ENDROOT
BRANCH   1  10
ATOM     10  C   UNL     1       5.321   6.890   5.487  1.00  0.00     0.246 C 
ATOM     11  O   UNL     1       4.940   5.734   5.273  1.00  0.00    -0.272 OA
BRANCH  10  12
ATOM     12  C   UNL     1       5.133   8.014   4.427  1.00  0.00     0.174 C 
BRANCH  12  13
ATOM     13  N   UNL     1       4.126   7.611   3.447  1.00  0.00    -0.342 N 
ATOM     14  C   UNL     1       2.943   8.276   3.210  1.00  0.00     0.249 C 
ATOM     15  O   UNL     1       2.614   9.306   3.783  1.00  0.00    -0.272 OA
ATOM     16  H   UNL     1       4.187   6.695   3.009  1.00  0.00     0.164 HD
BRANCH  14  17
ATOM     17  C   UNL     1       2.083   7.592   2.126  1.00  0.00     0.207 C 
BRANCH  17  18
ATOM     18  C   UNL     1       2.123   8.398   0.824  1.00  0.00     0.077 C 
BRANCH  18  19
ATOM     19  C   UNL     1       2.803   7.634  -0.290  1.00  0.00    -0.043 A 
ATOM     20  C   UNL     1       2.671   6.176  -2.224  1.00  0.00     0.083 A 
ATOM     21  C   UNL     1       2.040   6.921  -1.228  1.00  0.00     0.028 A 
ATOM     22  C   UNL     1       4.065   6.137  -2.290  1.00  0.00     0.134 A 
ATOM     23  C   UNL     1       4.832   6.839  -1.368  1.00  0.00     0.048 A 
ATOM     24  C   UNL     1       4.203   7.584  -0.368  1.00  0.00     0.008 A 
ATOM     25  Cl  UNL     1       1.717   5.306  -3.367  1.00  0.00    -0.080 Cl
BRANCH  22  26
ATOM     26  O   UNL     1       4.729   5.412  -3.242  1.00  0.00    -0.506 OA
ATOM     27  H   UNL     1       5.411   4.895  -2.776  1.00  0.00     0.293 HD
ENDBRANCH  22  26
ENDBRANCH  18  19
ENDBRANCH  17  18
BRANCH  17  28
ATOM     28  O   UNL     1       0.720   7.453   2.558  1.00  0.00    -0.383 OA
ATOM     29  H   UNL     1       0.200   8.102   2.032  1.00  0.00     0.211 HD
ENDBRANCH  17  28
ENDBRANCH  14  17
ENDBRANCH  12  13
BRANCH  12  30
ATOM     30  C   UNL     1       6.470   8.441   3.763  1.00  0.00     0.018 C 
ATOM     31  C   UNL     1       6.236   9.560   2.736  1.00  0.00     0.010 C 
BRANCH  30  32
ATOM     32  C   UNL     1       7.240   7.270   3.107  1.00  0.00     0.002 C 
ATOM     33  C   UNL     1       7.318   7.312   1.586  1.00  0.00     0.004 C 
ENDBRANCH  30  32
ENDBRANCH  12  30
ENDBRANCH  10  12
ENDBRANCH   1  10
BRANCH   5  34
ATOM     34  C   UNL     1       8.161   6.180   6.971  1.00  0.00     0.242 C 
ATOM     35  O   UNL     1       9.041   6.074   7.824  1.00  0.00    -0.273 OA
ATOM     36  N   UNL     1       7.865   5.169   6.084  1.00  0.00    -0.354 N 
ATOM     37  H   UNL     1       7.211   5.359   5.324  1.00  0.00     0.163 HD
BRANCH  36  38
ATOM     38  C   UNL     1       8.368   3.822   6.251  1.00  0.00     0.116 C 
BRANCH  38  39
ATOM     39  C   UNL     1       7.224   2.883   6.625  1.00  0.00     0.023 C 
BRANCH  39  40
ATOM     40  C   UNL     1       6.840   2.990   8.097  1.00  0.00     0.026 C 
BRANCH  40  41
ATOM     41  C   UNL     1       7.470   1.855   8.905  1.00  0.00     0.146 C 
BRANCH  41  42
ATOM     42  N   UNL     1       8.812   2.236   9.324  1.00  0.00    -0.254 NA
ATOM     43  C   UNL     1       9.008   2.654  10.518  1.00  0.00     0.185 C 
ATOM     44  N   UNL     1       8.137   2.818  11.531  1.00  0.00    -0.370 N 
ATOM     45  N   UNL     1      10.252   3.005  10.884  1.00  0.00    -0.370 N 
ATOM     46  H   UNL     1       8.379   3.381  12.329  1.00  0.00     0.159 HD
ATOM     47  H   UNL     1       7.154   2.588  11.431  1.00  0.00     0.159 HD
ATOM     48  H   UNL     1      10.971   2.903  10.180  1.00  0.00     0.159 HD
ATOM     49  H   UNL     1      10.527   3.111  11.844  1.00  0.00     0.159 HD
ENDBRANCH  41  42
ENDBRANCH  40  41
ENDBRANCH  39  40
ENDBRANCH  38  39
ENDBRANCH  36  38
ENDBRANCH   5  34
BRANCH   8  50
ATOM     50  O   UNL     1       5.286   5.602  10.706  1.00  0.00    -0.245 OA
BRANCH  50  51
ATOM     51  S   UNL     1       4.781   4.401  11.679  1.00  0.00     0.397 S 
ATOM     52  O   UNL     1       5.783   4.203  12.701  1.00  0.00    -0.169 OA
ATOM     53  O   UNL     1       4.287   3.301  10.876  1.00  0.00    -0.169 OA
BRANCH  51  54
ATOM     54  O   UNL     1       3.525   5.076  12.421  1.00  0.00    -0.264 OA
ATOM     55  H   UNL     1       3.024   4.363  12.868  1.00  0.00     0.236 HD
ENDBRANCH  51  54
ENDBRANCH  50  51
ENDBRANCH   8  50
TORSDOF 19
ENDMDL
MODEL 23
REMARK VINA RESULT:    -5.198      4.090      7.373
REMARK INTER + INTRA:         -15.711
REMARK INTER:                 -13.563
REMARK INTRA:                  -2.148
REMARK UNBOUND:                -5.195
REMARK SMILES CC[C@@H](C)[C@@H](NC(=O)[C@@H](O)Cc1ccc(O)c(Cl)c1)C(=O)N1[C@H](C(=O)NCCCCN=C(N)N)C[C@H]2CC[C@H](OS(=O)(=O)O)C[C@@H]21
REMARK SMILES IDX 22 1 36 2 46 3 35 4 23 5 45 6 37 7 39 8 38 9 20 10 21 11
REMARK SMILES IDX 5 12 6 13 7 14 8 15 9 17 11 18 12 19 17 20 19 21 15 22 14 23
REMARK SMILES IDX 13 24 18 25 16 26 10 28 3 30 4 31 2 32 1 33 24 34 25 35
REMARK SMILES IDX 26 36 27 38 28 39 29 40 30 41 31 42 32 43 33 44 34 45 40 50
REMARK SMILES IDX 41 51 42 52 43 53 44 54
REMARK H PARENT 6 16 16 27 10 29 26 37 33 46 33 47 34 48 34 49 44 55
ROOT
ATOM      1  N   UNL     1       6.047   3.746  10.679  1.00  0.00    -0.326 N 
ATOM      2  C   UNL     1       5.566   4.433   8.479  1.00  0.00     0.014 C 
ATOM      3  C   UNL     1       5.443   4.861   9.944  1.00  0.00     0.091 C 
ATOM      4  C   UNL     1       5.384   2.924   8.554  1.00  0.00     0.041 C 
ATOM      5  C   UNL     1       6.281   2.602   9.763  1.00  0.00     0.175 C 
ATOM      6  C   UNL     1       6.062   6.249  10.096  1.00  0.00     0.059 C 
ATOM      7  C   UNL     1       4.644   5.250   7.596  1.00  0.00     0.008 C 
ATOM      8  C   UNL     1       5.920   7.134   8.838  1.00  0.00     0.143 C 
ATOM      9  C   UNL     1       4.693   6.741   7.990  1.00  0.00     0.034 C 
ENDROOT
BRANCH   1  10
ATOM     10  C   UNL     1       6.203   3.562  12.042  1.00  0.00     0.246 C 
ATOM     11  O   UNL     1       6.433   4.542  12.759  1.00  0.00    -0.272 OA
BRANCH  10  12
ATOM     12  C   UNL     1       6.042   2.137  12.647  1.00  0.00     0.174 C 
BRANCH  12  13
ATOM     13  N   UNL     1       4.634   1.878  12.947  1.00  0.00    -0.342 N 
ATOM     14  C   UNL     1       3.807   1.061  12.209  1.00  0.00     0.249 C 
ATOM     15  O   UNL     1       4.172   0.430  11.225  1.00  0.00    -0.272 OA
ATOM     16  H   UNL     1       4.153   2.449  13.637  1.00  0.00     0.164 HD
BRANCH  14  17
ATOM     17  C   UNL     1       2.370   1.006  12.770  1.00  0.00     0.207 C 
BRANCH  17  18
ATOM     18  C   UNL     1       1.738  -0.362  12.492  1.00  0.00     0.077 C 
BRANCH  18  19
ATOM     19  C   UNL     1       1.380  -1.086  13.771  1.00  0.00    -0.043 A 
ATOM     20  C   UNL     1       2.029  -1.998  15.922  1.00  0.00     0.083 A 
ATOM     21  C   UNL     1       2.350  -1.287  14.766  1.00  0.00     0.028 A 
ATOM     22  C   UNL     1       0.743  -2.513  16.092  1.00  0.00     0.134 A 
ATOM     23  C   UNL     1      -0.226  -2.322  15.114  1.00  0.00     0.048 A 
ATOM     24  C   UNL     1       0.092  -1.611  13.955  1.00  0.00     0.008 A 
ATOM     25  Cl  UNL     1       3.234  -2.235  17.134  1.00  0.00    -0.080 Cl
BRANCH  22  26
ATOM     26  O   UNL     1       0.386  -3.227  17.204  1.00  0.00    -0.506 OA
ATOM     27  H   UNL     1       0.027  -2.585  17.845  1.00  0.00     0.293 HD
ENDBRANCH  22  26
ENDBRANCH  18  19
ENDBRANCH  17  18
BRANCH  17  28
ATOM     28  O   UNL     1       1.550   2.036  12.194  1.00  0.00    -0.383 OA
ATOM     29  H   UNL     1       1.700   1.991  11.222  1.00  0.00     0.211 HD
ENDBRANCH  17  28
ENDBRANCH  14  17
ENDBRANCH  12  13
BRANCH  12  30
ATOM     30  C   UNL     1       6.962   1.899  13.875  1.00  0.00     0.018 C 
ATOM     31  C   UNL     1       8.431   1.777  13.442  1.00  0.00     0.010 C 
BRANCH  30  32
ATOM     32  C   UNL     1       6.555   0.673  14.728  1.00  0.00     0.002 C 
ATOM     33  C   UNL     1       6.392   0.942  16.219  1.00  0.00     0.004 C 
ENDBRANCH  30  32
ENDBRANCH  12  30
ENDBRANCH  10  12
ENDBRANCH   1  10
BRANCH   5  34
ATOM     34  C   UNL     1       7.778   2.518   9.360  1.00  0.00     0.242 C 
ATOM     35  O   UNL     1       8.592   3.387   9.669  1.00  0.00    -0.273 OA
ATOM     36  N   UNL     1       8.115   1.430   8.585  1.00  0.00    -0.354 N 
ATOM     37  H   UNL     1       7.373   0.809   8.261  1.00  0.00     0.163 HD
BRANCH  36  38
ATOM     38  C   UNL     1       9.491   1.081   8.302  1.00  0.00     0.116 C 
BRANCH  38  39
ATOM     39  C   UNL     1       9.624   0.636   6.847  1.00  0.00     0.023 C 
BRANCH  39  40
ATOM     40  C   UNL     1      10.132  -0.796   6.719  1.00  0.00     0.026 C 
BRANCH  40  41
ATOM     41  C   UNL     1      10.158  -1.486   8.082  1.00  0.00     0.146 C 
BRANCH  41  42
ATOM     42  N   UNL     1      10.822  -2.778   7.968  1.00  0.00    -0.254 NA
ATOM     43  C   UNL     1      11.627  -3.160   8.887  1.00  0.00     0.185 C 
ATOM     44  N   UNL     1      11.999  -2.542  10.023  1.00  0.00    -0.370 N 
ATOM     45  N   UNL     1      12.232  -4.352   8.760  1.00  0.00    -0.370 N 
ATOM     46  H   UNL     1      12.817  -2.843  10.526  1.00  0.00     0.159 HD
ATOM     47  H   UNL     1      11.626  -1.634  10.283  1.00  0.00     0.159 HD
ATOM     48  H   UNL     1      11.999  -4.888   7.935  1.00  0.00     0.159 HD
ATOM     49  H   UNL     1      12.679  -4.820   9.529  1.00  0.00     0.159 HD
ENDBRANCH  41  42
ENDBRANCH  40  41
ENDBRANCH  39  40
ENDBRANCH  38  39
ENDBRANCH  36  38
ENDBRANCH   5  34
BRANCH   8  50
ATOM     50  O   UNL     1       7.088   7.022   8.025  1.00  0.00    -0.245 OA
BRANCH  50  51
ATOM     51  S   UNL     1       7.766   8.365   7.406  1.00  0.00     0.397 S 
ATOM     52  O   UNL     1       8.941   8.673   8.189  1.00  0.00    -0.169 OA
ATOM     53  O   UNL     1       6.740   9.355   7.152  1.00  0.00    -0.169 OA
BRANCH  51  54
ATOM     54  O   UNL     1       8.311   7.841   5.986  1.00  0.00    -0.264 OA
ATOM     55  H   UNL     1       8.468   6.878   6.064  1.00  0.00     0.236 HD
ENDBRANCH  51  54
ENDBRANCH  50  51
ENDBRANCH   8  50
TORSDOF 19
ENDMDL
MODEL 24
REMARK VINA RESULT:    -5.192     16.715     19.624
REMARK INTER + INTRA:         -15.699
REMARK INTER:                 -11.160
REMARK INTRA:                  -4.539
REMARK UNBOUND:                -5.195
REMARK SMILES CC[C@@H](C)[C@@H](NC(=O)[C@@H](O)Cc1ccc(O)c(Cl)c1)C(=O)N1[C@H](C(=O)NCCCCN=C(N)N)C[C@H]2CC[C@H](OS(=O)(=O)O)C[C@@H]21
REMARK SMILES IDX 22 1 36 2 46 3 35 4 23 5 45 6 37 7 39 8 38 9 20 10 21 11
REMARK SMILES IDX 5 12 6 13 7 14 8 15 9 17 11 18 12 19 17 20 19 21 15 22 14 23
REMARK SMILES IDX 13 24 18 25 16 26 10 28 3 30 4 31 2 32 1 33 24 34 25 35
REMARK SMILES IDX 26 36 27 38 28 39 29 40 30 41 31 42 32 43 33 44 34 45 40 50
REMARK SMILES IDX 41 51 42 52 43 53 44 54
REMARK H PARENT 6 16 16 27 10 29 26 37 33 46 33 47 34 48 34 49 44 55
ROOT
ATOM      1  N   UNL     1     -12.460   3.023   5.079  1.00  0.00    -0.326 N 
ATOM      2  C   UNL     1     -11.802   5.266   5.353  1.00  0.00     0.014 C 
ATOM      3  C   UNL     1     -11.979   3.946   6.110  1.00  0.00     0.091 C 
ATOM      4  C   UNL     1     -12.936   5.227   4.341  1.00  0.00     0.041 C 
ATOM      5  C   UNL     1     -12.810   3.773   3.848  1.00  0.00     0.175 C 
ATOM      6  C   UNL     1     -10.668   3.618   6.821  1.00  0.00     0.059 C 
ATOM      7  C   UNL     1     -11.705   6.434   6.316  1.00  0.00     0.008 C 
ATOM      8  C   UNL     1      -9.875   4.865   7.271  1.00  0.00     0.143 C 
ATOM      9  C   UNL     1     -10.794   6.080   7.510  1.00  0.00     0.034 C 
ENDROOT
BRANCH   1  10
ATOM     10  C   UNL     1     -12.812   1.687   5.177  1.00  0.00     0.246 C 
ATOM     11  O   UNL     1     -14.003   1.370   5.082  1.00  0.00    -0.272 OA
BRANCH  10  12
ATOM     12  C   UNL     1     -11.701   0.613   5.362  1.00  0.00     0.174 C 
BRANCH  12  13
ATOM     13  N   UNL     1     -11.519  -0.135   4.119  1.00  0.00    -0.342 N 
ATOM     14  C   UNL     1     -12.265  -1.228   3.738  1.00  0.00     0.249 C 
ATOM     15  O   UNL     1     -13.194  -1.682   4.394  1.00  0.00    -0.272 OA
ATOM     16  H   UNL     1     -10.691   0.026   3.551  1.00  0.00     0.164 HD
BRANCH  14  17
ATOM     17  C   UNL     1     -11.818  -1.809   2.380  1.00  0.00     0.207 C 
BRANCH  17  18
ATOM     18  C   UNL     1     -12.810  -1.421   1.279  1.00  0.00     0.077 C 
BRANCH  18  19
ATOM     19  C   UNL     1     -12.203  -0.450   0.292  1.00  0.00    -0.043 A 
ATOM     20  C   UNL     1     -12.315   0.762  -1.807  1.00  0.00     0.083 A 
ATOM     21  C   UNL     1     -12.900  -0.096  -0.875  1.00  0.00     0.028 A 
ATOM     22  C   UNL     1     -11.035   1.269  -1.583  1.00  0.00     0.134 A 
ATOM     23  C   UNL     1     -10.334   0.928  -0.432  1.00  0.00     0.048 A 
ATOM     24  C   UNL     1     -10.915   0.068   0.502  1.00  0.00     0.008 A 
ATOM     25  Cl  UNL     1     -13.187   1.184  -3.234  1.00  0.00    -0.080 Cl
BRANCH  22  26
ATOM     26  O   UNL     1     -10.417   2.105  -2.473  1.00  0.00    -0.506 OA
ATOM     27  H   UNL     1      -9.992   1.537  -3.142  1.00  0.00     0.293 HD
ENDBRANCH  22  26
ENDBRANCH  18  19
ENDBRANCH  17  18
BRANCH  17  28
ATOM     28  O   UNL     1     -11.710  -3.240   2.440  1.00  0.00    -0.383 OA
ATOM     29  H   UNL     1     -11.801  -3.560   1.514  1.00  0.00     0.211 HD
ENDBRANCH  17  28
ENDBRANCH  14  17
ENDBRANCH  12  13
BRANCH  12  30
ATOM     30  C   UNL     1     -11.960  -0.315   6.580  1.00  0.00     0.018 C 
ATOM     31  C   UNL     1     -12.553   0.479   7.755  1.00  0.00     0.010 C 
BRANCH  30  32
ATOM     32  C   UNL     1     -10.707  -1.096   7.044  1.00  0.00     0.002 C 
ATOM     33  C   UNL     1     -10.120  -0.652   8.377  1.00  0.00     0.004 C 
ENDBRANCH  30  32
ENDBRANCH  12  30
ENDBRANCH  10  12
ENDBRANCH   1  10
BRANCH   5  34
ATOM     34  C   UNL     1     -11.695   3.627   2.778  1.00  0.00     0.242 C 
ATOM     35  O   UNL     1     -10.773   2.821   2.895  1.00  0.00    -0.273 OA
ATOM     36  N   UNL     1     -11.783   4.501   1.717  1.00  0.00    -0.354 N 
ATOM     37  H   UNL     1     -12.501   5.226   1.736  1.00  0.00     0.163 HD
BRANCH  36  38
ATOM     38  C   UNL     1     -10.961   4.363   0.533  1.00  0.00     0.116 C 
BRANCH  38  39
ATOM     39  C   UNL     1      -9.810   5.365   0.582  1.00  0.00     0.023 C 
BRANCH  39  40
ATOM     40  C   UNL     1      -8.516   4.794   0.011  1.00  0.00     0.026 C 
BRANCH  40  41
ATOM     41  C   UNL     1      -8.116   3.515   0.748  1.00  0.00     0.146 C 
BRANCH  41  42
ATOM     42  N   UNL     1      -6.894   3.746   1.507  1.00  0.00    -0.254 NA
ATOM     43  C   UNL     1      -6.968   4.034   2.752  1.00  0.00     0.185 C 
ATOM     44  N   UNL     1      -8.045   4.172   3.547  1.00  0.00    -0.370 N 
ATOM     45  N   UNL     1      -5.830   4.247   3.433  1.00  0.00    -0.370 N 
ATOM     46  H   UNL     1      -7.970   4.636   4.436  1.00  0.00     0.159 HD
ATOM     47  H   UNL     1      -8.987   4.031   3.196  1.00  0.00     0.159 HD
ATOM     48  H   UNL     1      -4.970   4.154   2.910  1.00  0.00     0.159 HD
ATOM     49  H   UNL     1      -5.787   4.241   4.437  1.00  0.00     0.159 HD
ENDBRANCH  41  42
ENDBRANCH  40  41
ENDBRANCH  39  40
ENDBRANCH  38  39
ENDBRANCH  36  38
ENDBRANCH   5  34
BRANCH   8  50
ATOM     50  O   UNL     1      -8.909   5.215   6.279  1.00  0.00    -0.245 OA
BRANCH  50  51
ATOM     51  S   UNL     1      -7.335   5.281   6.681  1.00  0.00     0.397 S 
ATOM     52  O   UNL     1      -6.747   3.992   6.393  1.00  0.00    -0.169 OA
ATOM     53  O   UNL     1      -7.189   5.910   7.977  1.00  0.00    -0.169 OA
BRANCH  51  54
ATOM     54  O   UNL     1      -6.748   6.288   5.573  1.00  0.00    -0.264 OA
ATOM     55  H   UNL     1      -6.233   5.757   4.931  1.00  0.00     0.236 HD
ENDBRANCH  51  54
ENDBRANCH  50  51
ENDBRANCH   8  50
TORSDOF 19
ENDMDL
MODEL 25
REMARK VINA RESULT:    -5.188     16.477     19.447
REMARK INTER + INTRA:         -15.691
REMARK INTER:                 -11.821
REMARK INTRA:                  -3.870
REMARK UNBOUND:                -5.195
REMARK SMILES CC[C@@H](C)[C@@H](NC(=O)[C@@H](O)Cc1ccc(O)c(Cl)c1)C(=O)N1[C@H](C(=O)NCCCCN=C(N)N)C[C@H]2CC[C@H](OS(=O)(=O)O)C[C@@H]21
REMARK SMILES IDX 22 1 36 2 46 3 35 4 23 5 45 6 37 7 39 8 38 9 20 10 21 11
REMARK SMILES IDX 5 12 6 13 7 14 8 15 9 17 11 18 12 19 17 20 19 21 15 22 14 23
REMARK SMILES IDX 13 24 18 25 16 26 10 28 3 30 4 31 2 32 1 33 24 34 25 35
REMARK SMILES IDX 26 36 27 38 28 39 29 40 30 41 31 42 32 43 33 44 34 45 40 50
REMARK SMILES IDX 41 51 42 52 43 53 44 54
REMARK H PARENT 6 16 16 27 10 29 26 37 33 46 33 47 34 48 34 49 44 55
ROOT
ATOM      1  N   UNL     1     -11.607   2.200   2.545  1.00  0.00    -0.326 N 
ATOM      2  C   UNL     1     -11.713   3.966   4.099  1.00  0.00     0.014 C 
ATOM      3  C   UNL     1     -11.577   2.445   3.990  1.00  0.00     0.091 C 
ATOM      4  C   UNL     1     -12.633   4.304   2.935  1.00  0.00     0.041 C 
ATOM      5  C   UNL     1     -12.001   3.439   1.829  1.00  0.00     0.175 C 
ATOM      6  C   UNL     1     -10.337   2.014   4.772  1.00  0.00     0.059 C 
ATOM      7  C   UNL     1     -12.110   4.376   5.503  1.00  0.00     0.008 C 
ATOM      8  C   UNL     1     -10.034   2.904   5.997  1.00  0.00     0.143 C 
ATOM      9  C   UNL     1     -11.305   3.578   6.551  1.00  0.00     0.034 C 
ENDROOT
BRANCH   1  10
ATOM     10  C   UNL     1     -11.542   1.008   1.845  1.00  0.00     0.246 C 
ATOM     11  O   UNL     1     -10.442   0.471   1.674  1.00  0.00    -0.272 OA
BRANCH  10  12
ATOM     12  C   UNL     1     -12.853   0.349   1.328  1.00  0.00     0.174 C 
BRANCH  12  13
ATOM     13  N   UNL     1     -13.436  -0.491   2.374  1.00  0.00    -0.342 N 
ATOM     14  C   UNL     1     -12.951  -1.720   2.762  1.00  0.00     0.249 C 
ATOM     15  O   UNL     1     -11.949  -2.239   2.286  1.00  0.00    -0.272 OA
ATOM     16  H   UNL     1     -14.355  -0.266   2.747  1.00  0.00     0.164 HD
BRANCH  14  17
ATOM     17  C   UNL     1     -13.796  -2.367   3.879  1.00  0.00     0.207 C 
BRANCH  17  18
ATOM     18  C   UNL     1     -12.908  -2.758   5.065  1.00  0.00     0.077 C 
BRANCH  18  19
ATOM     19  C   UNL     1     -12.745  -1.617   6.044  1.00  0.00    -0.043 A 
ATOM     20  C   UNL     1     -11.341  -0.287   7.508  1.00  0.00     0.083 A 
ATOM     21  C   UNL     1     -11.479  -1.307   6.566  1.00  0.00     0.028 A 
ATOM     22  C   UNL     1     -12.461   0.428   7.933  1.00  0.00     0.134 A 
ATOM     23  C   UNL     1     -13.720   0.132   7.424  1.00  0.00     0.048 A 
ATOM     24  C   UNL     1     -13.863  -0.891   6.483  1.00  0.00     0.008 A 
ATOM     25  Cl  UNL     1      -9.778   0.079   8.138  1.00  0.00    -0.080 Cl
BRANCH  22  26
ATOM     26  O   UNL     1     -12.376   1.430   8.862  1.00  0.00    -0.506 OA
ATOM     27  H   UNL     1     -12.477   2.270   8.377  1.00  0.00     0.293 HD
ENDBRANCH  22  26
ENDBRANCH  18  19
ENDBRANCH  17  18
BRANCH  17  28
ATOM     28  O   UNL     1     -14.486  -3.532   3.397  1.00  0.00    -0.383 OA
ATOM     29  H   UNL     1     -15.443  -3.301   3.400  1.00  0.00     0.211 HD
ENDBRANCH  17  28
ENDBRANCH  14  17
ENDBRANCH  12  13
BRANCH  12  30
ATOM     30  C   UNL     1     -12.653  -0.419  -0.006  1.00  0.00     0.018 C 
ATOM     31  C   UNL     1     -12.139   0.522  -1.107  1.00  0.00     0.010 C 
BRANCH  30  32
ATOM     32  C   UNL     1     -13.921  -1.163  -0.491  1.00  0.00     0.002 C 
ATOM     33  C   UNL     1     -15.110  -0.273  -0.827  1.00  0.00     0.004 C 
ENDBRANCH  30  32
ENDBRANCH  12  30
ENDBRANCH  10  12
ENDBRANCH   1  10
BRANCH   5  34
ATOM     34  C   UNL     1     -10.761   4.129   1.201  1.00  0.00     0.242 C 
ATOM     35  O   UNL     1     -10.666   5.353   1.109  1.00  0.00    -0.273 OA
ATOM     36  N   UNL     1      -9.803   3.274   0.706  1.00  0.00    -0.354 N 
ATOM     37  H   UNL     1      -9.994   2.271   0.702  1.00  0.00     0.163 HD
BRANCH  36  38
ATOM     38  C   UNL     1      -8.496   3.736   0.285  1.00  0.00     0.116 C 
BRANCH  38  39
ATOM     39  C   UNL     1      -7.419   3.133   1.183  1.00  0.00     0.023 C 
BRANCH  39  40
ATOM     40  C   UNL     1      -7.266   3.889   2.498  1.00  0.00     0.026 C 
BRANCH  40  41
ATOM     41  C   UNL     1      -7.029   5.378   2.243  1.00  0.00     0.146 C 
BRANCH  41  42
ATOM     42  N   UNL     1      -7.267   6.131   3.467  1.00  0.00    -0.254 NA
ATOM     43  C   UNL     1      -6.319   6.822   3.980  1.00  0.00     0.185 C 
ATOM     44  N   UNL     1      -5.051   6.993   3.565  1.00  0.00    -0.370 N 
ATOM     45  N   UNL     1      -6.558   7.505   5.111  1.00  0.00    -0.370 N 
ATOM     46  H   UNL     1      -4.352   7.359   4.189  1.00  0.00     0.159 HD
ATOM     47  H   UNL     1      -4.704   6.557   2.716  1.00  0.00     0.159 HD
ATOM     48  H   UNL     1      -7.494   7.437   5.487  1.00  0.00     0.159 HD
ATOM     49  H   UNL     1      -5.958   8.242   5.438  1.00  0.00     0.159 HD
ENDBRANCH  41  42
ENDBRANCH  40  41
ENDBRANCH  39  40
ENDBRANCH  38  39
ENDBRANCH  36  38
ENDBRANCH   5  34
BRANCH   8  50
ATOM     50  O   UNL     1      -9.098   3.923   5.643  1.00  0.00    -0.245 OA
BRANCH  50  51
ATOM     51  S   UNL     1      -8.023   4.444   6.748  1.00  0.00     0.397 S 
ATOM     52  O   UNL     1      -8.007   3.494   7.837  1.00  0.00    -0.169 OA
ATOM     53  O   UNL     1      -8.212   5.861   6.978  1.00  0.00    -0.169 OA
BRANCH  51  54
ATOM     54  O   UNL     1      -6.627   4.249   5.975  1.00  0.00    -0.264 OA
ATOM     55  H   UNL     1      -6.169   5.114   5.964  1.00  0.00     0.236 HD
ENDBRANCH  51  54
ENDBRANCH  50  51
ENDBRANCH   8  50
TORSDOF 19
ENDMDL
MODEL 26
REMARK VINA RESULT:    -5.173      3.915      8.102
REMARK INTER + INTRA:         -15.661
REMARK INTER:                 -12.029
REMARK INTRA:                  -3.632
REMARK UNBOUND:                -5.195
REMARK SMILES CC[C@@H](C)[C@@H](NC(=O)[C@@H](O)Cc1ccc(O)c(Cl)c1)C(=O)N1[C@H](C(=O)NCCCCN=C(N)N)C[C@H]2CC[C@H](OS(=O)(=O)O)C[C@@H]21
REMARK SMILES IDX 22 1 36 2 46 3 35 4 23 5 45 6 37 7 39 8 38 9 20 10 21 11
REMARK SMILES IDX 5 12 6 13 7 14 8 15 9 17 11 18 12 19 17 20 19 21 15 22 14 23
REMARK SMILES IDX 13 24 18 25 16 26 10 28 3 30 4 31 2 32 1 33 24 34 25 35
REMARK SMILES IDX 26 36 27 38 28 39 29 40 30 41 31 42 32 43 33 44 34 45 40 50
REMARK SMILES IDX 41 51 42 52 43 53 44 54
REMARK H PARENT 6 16 16 27 10 29 26 37 33 46 33 47 34 48 34 49 44 55
ROOT
ATOM      1  N   UNL     1       5.915   8.770   5.835  1.00  0.00    -0.326 N 
ATOM      2  C   UNL     1       5.331   7.981   3.695  1.00  0.00     0.014 C 
ATOM      3  C   UNL     1       5.926   9.186   4.430  1.00  0.00     0.091 C 
ATOM      4  C   UNL     1       4.307   7.455   4.689  1.00  0.00     0.041 C 
ATOM      5  C   UNL     1       5.130   7.520   5.988  1.00  0.00     0.175 C 
ATOM      6  C   UNL     1       7.268   9.529   3.786  1.00  0.00     0.059 C 
ATOM      7  C   UNL     1       4.883   8.365   2.299  1.00  0.00     0.008 C 
ATOM      8  C   UNL     1       7.330   9.221   2.275  1.00  0.00     0.143 C 
ATOM      9  C   UNL     1       5.935   9.265   1.617  1.00  0.00     0.034 C 
ENDROOT
BRANCH   1  10
ATOM     10  C   UNL     1       6.318   9.457   6.968  1.00  0.00     0.246 C 
ATOM     11  O   UNL     1       7.524   9.643   7.160  1.00  0.00    -0.272 OA
BRANCH  10  12
ATOM     12  C   UNL     1       5.246  10.015   7.948  1.00  0.00     0.174 C 
BRANCH  12  13
ATOM     13  N   UNL     1       4.549   8.910   8.606  1.00  0.00    -0.342 N 
ATOM     14  C   UNL     1       5.025   8.211   9.693  1.00  0.00     0.249 C 
ATOM     15  O   UNL     1       6.086   8.460  10.252  1.00  0.00    -0.272 OA
ATOM     16  H   UNL     1       3.736   8.491   8.162  1.00  0.00     0.164 HD
BRANCH  14  17
ATOM     17  C   UNL     1       4.066   7.090  10.147  1.00  0.00     0.207 C 
BRANCH  17  18
ATOM     18  C   UNL     1       4.168   5.885   9.207  1.00  0.00     0.077 C 
BRANCH  18  19
ATOM     19  C   UNL     1       4.657   4.649   9.929  1.00  0.00    -0.043 A 
ATOM     20  C   UNL     1       4.821   3.324  11.954  1.00  0.00     0.083 A 
ATOM     21  C   UNL     1       4.327   4.440  11.277  1.00  0.00     0.028 A 
ATOM     22  C   UNL     1       5.646   2.414  11.291  1.00  0.00     0.134 A 
ATOM     23  C   UNL     1       5.980   2.609   9.956  1.00  0.00     0.048 A 
ATOM     24  C   UNL     1       5.488   3.726   9.277  1.00  0.00     0.008 A 
ATOM     25  Cl  UNL     1       4.406   3.084  13.610  1.00  0.00    -0.080 Cl
BRANCH  22  26
ATOM     26  O   UNL     1       6.162   1.311  11.916  1.00  0.00    -0.506 OA
ATOM     27  H   UNL     1       6.918   1.620  12.449  1.00  0.00     0.293 HD
ENDBRANCH  22  26
ENDBRANCH  18  19
ENDBRANCH  17  18
BRANCH  17  28
ATOM     28  O   UNL     1       2.707   7.555  10.181  1.00  0.00    -0.383 OA
ATOM     29  H   UNL     1       2.479   7.796   9.254  1.00  0.00     0.211 HD
ENDBRANCH  17  28
ENDBRANCH  14  17
ENDBRANCH  12  13
BRANCH  12  30
ATOM     30  C   UNL     1       4.268  11.009   7.265  1.00  0.00     0.018 C 
ATOM     31  C   UNL     1       3.944  12.185   8.200  1.00  0.00     0.010 C 
BRANCH  30  32
ATOM     32  C   UNL     1       2.959  10.349   6.766  1.00  0.00     0.002 C 
ATOM     33  C   UNL     1       2.590  10.648   5.319  1.00  0.00     0.004 C 
ENDBRANCH  30  32
ENDBRANCH  12  30
ENDBRANCH  10  12
ENDBRANCH   1  10
BRANCH   5  34
ATOM     34  C   UNL     1       6.071   6.293   6.131  1.00  0.00     0.242 C 
ATOM     35  O   UNL     1       5.689   5.143   5.915  1.00  0.00    -0.273 OA
ATOM     36  N   UNL     1       7.344   6.580   6.569  1.00  0.00    -0.354 N 
ATOM     37  H   UNL     1       7.565   7.537   6.846  1.00  0.00     0.163 HD
BRANCH  36  38
ATOM     38  C   UNL     1       8.407   5.596   6.552  1.00  0.00     0.116 C 
BRANCH  38  39
ATOM     39  C   UNL     1       8.585   5.001   7.946  1.00  0.00     0.023 C 
BRANCH  39  40
ATOM     40  C   UNL     1       9.611   3.873   7.972  1.00  0.00     0.026 C 
BRANCH  40  41
ATOM     41  C   UNL     1       8.926   2.513   7.839  1.00  0.00     0.146 C 
BRANCH  41  42
ATOM     42  N   UNL     1       9.010   2.052   6.460  1.00  0.00    -0.254 NA
ATOM     43  C   UNL     1       7.970   2.095   5.714  1.00  0.00     0.185 C 
ATOM     44  N   UNL     1       6.723   2.519   5.991  1.00  0.00    -0.370 N 
ATOM     45  N   UNL     1       8.067   1.661   4.446  1.00  0.00    -0.370 N 
ATOM     46  H   UNL     1       5.953   2.269   5.394  1.00  0.00     0.159 HD
ATOM     47  H   UNL     1       6.478   2.893   6.902  1.00  0.00     0.159 HD
ATOM     48  H   UNL     1       8.977   1.332   4.153  1.00  0.00     0.159 HD
ATOM     49  H   UNL     1       7.382   1.878   3.744  1.00  0.00     0.159 HD
ENDBRANCH  41  42
ENDBRANCH  40  41
ENDBRANCH  39  40
ENDBRANCH  38  39
ENDBRANCH  36  38
ENDBRANCH   5  34
BRANCH   8  50
ATOM     50  O   UNL     1       7.891   7.926   2.061  1.00  0.00    -0.245 OA
BRANCH  50  51
ATOM     51  S   UNL     1       9.462   7.787   1.663  1.00  0.00     0.397 S 
ATOM     52  O   UNL     1       9.758   8.784   0.659  1.00  0.00    -0.169 OA
ATOM     53  O   UNL     1       9.793   6.391   1.468  1.00  0.00    -0.169 OA
BRANCH  51  54
ATOM     54  O   UNL     1      10.193   8.287   3.005  1.00  0.00    -0.264 OA
ATOM     55  H   UNL     1      10.318   9.255   2.934  1.00  0.00     0.236 HD
ENDBRANCH  51  54
ENDBRANCH  50  51
ENDBRANCH   8  50
TORSDOF 19
ENDMDL
MODEL 27
REMARK VINA RESULT:    -5.145      3.334      7.640
REMARK INTER + INTRA:         -15.603
REMARK INTER:                 -11.692
REMARK INTRA:                  -3.911
REMARK UNBOUND:                -5.195
REMARK SMILES CC[C@@H](C)[C@@H](NC(=O)[C@@H](O)Cc1ccc(O)c(Cl)c1)C(=O)N1[C@H](C(=O)NCCCCN=C(N)N)C[C@H]2CC[C@H](OS(=O)(=O)O)C[C@@H]21
REMARK SMILES IDX 22 1 36 2 46 3 35 4 23 5 45 6 37 7 39 8 38 9 20 10 21 11
REMARK SMILES IDX 5 12 6 13 7 14 8 15 9 17 11 18 12 19 17 20 19 21 15 22 14 23
REMARK SMILES IDX 13 24 18 25 16 26 10 28 3 30 4 31 2 32 1 33 24 34 25 35
REMARK SMILES IDX 26 36 27 38 28 39 29 40 30 41 31 42 32 43 33 44 34 45 40 50
REMARK SMILES IDX 41 51 42 52 43 53 44 54
REMARK H PARENT 6 16 16 27 10 29 26 37 33 46 33 47 34 48 34 49 44 55
ROOT
ATOM      1  N   UNL     1       6.744   3.189  12.450  1.00  0.00    -0.326 N 
ATOM      2  C   UNL     1       8.290   2.072  13.830  1.00  0.00     0.014 C 
ATOM      3  C   UNL     1       8.030   3.404  13.121  1.00  0.00     0.091 C 
ATOM      4  C   UNL     1       7.698   1.057  12.865  1.00  0.00     0.041 C 
ATOM      5  C   UNL     1       6.370   1.755  12.516  1.00  0.00     0.175 C 
ATOM      6  C   UNL     1       8.131   4.527  14.151  1.00  0.00     0.059 C 
ATOM      7  C   UNL     1       9.745   1.949  14.237  1.00  0.00     0.008 C 
ATOM      8  C   UNL     1       9.140   4.243  15.284  1.00  0.00     0.143 C 
ATOM      9  C   UNL     1      10.256   3.276  14.837  1.00  0.00     0.034 C 
ENDROOT
BRANCH   1  10
ATOM     10  C   UNL     1       6.013   4.041  11.639  1.00  0.00     0.246 C 
ATOM     11  O   UNL     1       5.391   4.975  12.155  1.00  0.00    -0.272 OA
BRANCH  10  12
ATOM     12  C   UNL     1       6.025   3.830  10.097  1.00  0.00     0.174 C 
BRANCH  12  13
ATOM     13  N   UNL     1       7.357   3.412   9.661  1.00  0.00    -0.342 N 
ATOM     14  C   UNL     1       7.677   2.161   9.184  1.00  0.00     0.249 C 
ATOM     15  O   UNL     1       6.863   1.256   9.044  1.00  0.00    -0.272 OA
ATOM     16  H   UNL     1       8.161   4.001   9.864  1.00  0.00     0.164 HD
BRANCH  14  17
ATOM     17  C   UNL     1       9.171   2.025   8.822  1.00  0.00     0.207 C 
BRANCH  17  18
ATOM     18  C   UNL     1       9.893   1.146   9.848  1.00  0.00     0.077 C 
BRANCH  18  19
ATOM     19  C   UNL     1       9.897  -0.309   9.438  1.00  0.00    -0.043 A 
ATOM     20  C   UNL     1       9.704  -2.010   7.718  1.00  0.00     0.083 A 
ATOM     21  C   UNL     1       9.751  -0.665   8.088  1.00  0.00     0.028 A 
ATOM     22  C   UNL     1       9.802  -3.005   8.691  1.00  0.00     0.134 A 
ATOM     23  C   UNL     1       9.947  -2.667  10.032  1.00  0.00     0.048 A 
ATOM     24  C   UNL     1       9.992  -1.321  10.405  1.00  0.00     0.008 A 
ATOM     25  Cl  UNL     1       9.524  -2.427   6.055  1.00  0.00    -0.080 Cl
BRANCH  22  26
ATOM     26  O   UNL     1       9.752  -4.336   8.379  1.00  0.00    -0.506 OA
ATOM     27  H   UNL     1      10.674  -4.648   8.332  1.00  0.00     0.293 HD
ENDBRANCH  22  26
ENDBRANCH  18  19
ENDBRANCH  17  18
BRANCH  17  28
ATOM     28  O   UNL     1       9.808   3.312   8.764  1.00  0.00    -0.383 OA
ATOM     29  H   UNL     1       9.119   3.943   8.454  1.00  0.00     0.211 HD
ENDBRANCH  17  28
ENDBRANCH  14  17
ENDBRANCH  12  13
BRANCH  12  30
ATOM     30  C   UNL     1       5.508   5.069   9.318  1.00  0.00     0.018 C 
ATOM     31  C   UNL     1       4.162   4.766   8.641  1.00  0.00     0.010 C 
BRANCH  30  32
ATOM     32  C   UNL     1       6.516   5.614   8.277  1.00  0.00     0.002 C 
ATOM     33  C   UNL     1       6.696   7.127   8.276  1.00  0.00     0.004 C 
ENDBRANCH  30  32
ENDBRANCH  12  30
ENDBRANCH  10  12
ENDBRANCH   1  10
BRANCH   5  34
ATOM     34  C   UNL     1       5.294   1.517  13.609  1.00  0.00     0.242 C 
ATOM     35  O   UNL     1       4.732   2.444  14.192  1.00  0.00    -0.273 OA
ATOM     36  N   UNL     1       5.054   0.196  13.917  1.00  0.00    -0.354 N 
ATOM     37  H   UNL     1       5.637  -0.522  13.486  1.00  0.00     0.163 HD
BRANCH  36  38
ATOM     38  C   UNL     1       3.942  -0.214  14.748  1.00  0.00     0.116 C 
BRANCH  38  39
ATOM     39  C   UNL     1       3.097  -1.249  14.009  1.00  0.00     0.023 C 
BRANCH  39  40
ATOM     40  C   UNL     1       1.676  -0.761  13.745  1.00  0.00     0.026 C 
BRANCH  40  41
ATOM     41  C   UNL     1       1.673   0.361  12.707  1.00  0.00     0.146 C 
BRANCH  41  42
ATOM     42  N   UNL     1       2.639   0.064  11.657  1.00  0.00    -0.254 NA
ATOM     43  C   UNL     1       3.064   1.006  10.902  1.00  0.00     0.185 C 
ATOM     44  N   UNL     1       2.760   2.317  10.900  1.00  0.00    -0.370 N 
ATOM     45  N   UNL     1       3.951   0.711   9.938  1.00  0.00    -0.370 N 
ATOM     46  H   UNL     1       2.976   2.892  10.104  1.00  0.00     0.159 HD
ATOM     47  H   UNL     1       2.113   2.715  11.574  1.00  0.00     0.159 HD
ATOM     48  H   UNL     1       4.241  -0.256   9.876  1.00  0.00     0.159 HD
ATOM     49  H   UNL     1       4.501   1.410   9.472  1.00  0.00     0.159 HD
ENDBRANCH  41  42
ENDBRANCH  40  41
ENDBRANCH  39  40
ENDBRANCH  38  39
ENDBRANCH  36  38
ENDBRANCH   5  34
BRANCH   8  50
ATOM     50  O   UNL     1       8.469   3.671  16.407  1.00  0.00    -0.245 OA
BRANCH  50  51
ATOM     51  S   UNL     1       8.127   4.601  17.697  1.00  0.00     0.397 S 
ATOM     52  O   UNL     1       7.218   5.640  17.269  1.00  0.00    -0.169 OA
ATOM     53  O   UNL     1       9.348   4.907  18.413  1.00  0.00    -0.169 OA
BRANCH  51  54
ATOM     54  O   UNL     1       7.254   3.604  18.607  1.00  0.00    -0.264 OA
ATOM     55  H   UNL     1       6.446   4.082  18.884  1.00  0.00     0.236 HD
ENDBRANCH  51  54
ENDBRANCH  50  51
ENDBRANCH   8  50
TORSDOF 19
ENDMDL
MODEL 28
REMARK VINA RESULT:    -5.144      3.897      7.584
REMARK INTER + INTRA:         -15.602
REMARK INTER:                 -13.480
REMARK INTRA:                  -2.121
REMARK UNBOUND:                -5.195
REMARK SMILES CC[C@@H](C)[C@@H](NC(=O)[C@@H](O)Cc1ccc(O)c(Cl)c1)C(=O)N1[C@H](C(=O)NCCCCN=C(N)N)C[C@H]2CC[C@H](OS(=O)(=O)O)C[C@@H]21
REMARK SMILES IDX 22 1 36 2 46 3 35 4 23 5 45 6 37 7 39 8 38 9 20 10 21 11
REMARK SMILES IDX 5 12 6 13 7 14 8 15 9 17 11 18 12 19 17 20 19 21 15 22 14 23
REMARK SMILES IDX 13 24 18 25 16 26 10 28 3 30 4 31 2 32 1 33 24 34 25 35
REMARK SMILES IDX 26 36 27 38 28 39 29 40 30 41 31 42 32 43 33 44 34 45 40 50
REMARK SMILES IDX 41 51 42 52 43 53 44 54
REMARK H PARENT 6 16 16 27 10 29 26 37 33 46 33 47 34 48 34 49 44 55
ROOT
ATOM      1  N   UNL     1       5.895   3.924  10.469  1.00  0.00    -0.326 N 
ATOM      2  C   UNL     1       5.932   4.379   8.159  1.00  0.00     0.014 C 
ATOM      3  C   UNL     1       5.382   4.891   9.494  1.00  0.00     0.091 C 
ATOM      4  C   UNL     1       5.907   2.869   8.344  1.00  0.00     0.041 C 
ATOM      5  C   UNL     1       6.488   2.760   9.766  1.00  0.00     0.175 C 
ATOM      6  C   UNL     1       5.780   6.357   9.649  1.00  0.00     0.059 C 
ATOM      7  C   UNL     1       5.187   4.997   6.993  1.00  0.00     0.008 C 
ATOM      8  C   UNL     1       5.872   7.122   8.311  1.00  0.00     0.143 C 
ATOM      9  C   UNL     1       4.963   6.506   7.228  1.00  0.00     0.034 C 
ENDROOT
BRANCH   1  10
ATOM     10  C   UNL     1       5.709   3.862  11.839  1.00  0.00     0.246 C 
ATOM     11  O   UNL     1       5.296   4.862  12.436  1.00  0.00    -0.272 OA
BRANCH  10  12
ATOM     12  C   UNL     1       5.981   2.527  12.591  1.00  0.00     0.174 C 
BRANCH  12  13
ATOM     13  N   UNL     1       4.727   1.984  13.113  1.00  0.00    -0.342 N 
ATOM     14  C   UNL     1       3.959   1.027  12.489  1.00  0.00     0.249 C 
ATOM     15  O   UNL     1       4.260   0.498  11.426  1.00  0.00    -0.272 OA
ATOM     16  H   UNL     1       4.273   2.436  13.903  1.00  0.00     0.164 HD
BRANCH  14  17
ATOM     17  C   UNL     1       2.684   0.675  13.284  1.00  0.00     0.207 C 
BRANCH  17  18
ATOM     18  C   UNL     1       1.706  -0.113  12.406  1.00  0.00     0.077 C 
BRANCH  18  19
ATOM     19  C   UNL     1       1.376  -1.462  13.004  1.00  0.00    -0.043 A 
ATOM     20  C   UNL     1      -0.039  -2.854  14.398  1.00  0.00     0.083 A 
ATOM     21  C   UNL     1       0.236  -1.620  13.808  1.00  0.00     0.028 A 
ATOM     22  C   UNL     1       0.820  -3.934  14.192  1.00  0.00     0.134 A 
ATOM     23  C   UNL     1       1.952  -3.791  13.398  1.00  0.00     0.048 A 
ATOM     24  C   UNL     1       2.231  -2.557  12.807  1.00  0.00     0.008 A 
ATOM     25  Cl  UNL     1      -1.444  -3.030  15.383  1.00  0.00    -0.080 Cl
BRANCH  22  26
ATOM     26  O   UNL     1       0.598  -5.160  14.758  1.00  0.00    -0.506 OA
ATOM     27  H   UNL     1       0.854  -5.086  15.696  1.00  0.00     0.293 HD
ENDBRANCH  22  26
ENDBRANCH  18  19
ENDBRANCH  17  18
BRANCH  17  28
ATOM     28  O   UNL     1       2.036   1.860  13.774  1.00  0.00    -0.383 OA
ATOM     29  H   UNL     1       2.680   2.291  14.381  1.00  0.00     0.211 HD
ENDBRANCH  17  28
ENDBRANCH  14  17
ENDBRANCH  12  13
BRANCH  12  30
ATOM     30  C   UNL     1       7.069   2.667  13.689  1.00  0.00     0.018 C 
ATOM     31  C   UNL     1       6.447   2.567  15.091  1.00  0.00     0.010 C 
BRANCH  30  32
ATOM     32  C   UNL     1       7.908   3.963  13.571  1.00  0.00     0.002 C 
ATOM     33  C   UNL     1       8.767   4.295  14.783  1.00  0.00     0.004 C 
ENDBRANCH  30  32
ENDBRANCH  12  30
ENDBRANCH  10  12
ENDBRANCH   1  10
BRANCH   5  34
ATOM     34  C   UNL     1       8.037   2.851   9.760  1.00  0.00     0.242 C 
ATOM     35  O   UNL     1       8.637   3.834   9.326  1.00  0.00    -0.273 OA
ATOM     36  N   UNL     1       8.691   1.732  10.225  1.00  0.00    -0.354 N 
ATOM     37  H   UNL     1       8.143   0.903  10.458  1.00  0.00     0.163 HD
BRANCH  36  38
ATOM     38  C   UNL     1      10.115   1.723  10.490  1.00  0.00     0.116 C 
BRANCH  38  39
ATOM     39  C   UNL     1      10.362   1.780  11.996  1.00  0.00     0.023 C 
BRANCH  39  40
ATOM     40  C   UNL     1      11.696   1.157  12.392  1.00  0.00     0.026 C 
BRANCH  40  41
ATOM     41  C   UNL     1      11.755  -0.311  11.968  1.00  0.00     0.146 C 
BRANCH  41  42
ATOM     42  N   UNL     1      10.796  -1.086  12.744  1.00  0.00    -0.254 NA
ATOM     43  C   UNL     1      10.077  -1.970  12.161  1.00  0.00     0.185 C 
ATOM     44  N   UNL     1      10.043  -2.342  10.868  1.00  0.00    -0.370 N 
ATOM     45  N   UNL     1       9.195  -2.671  12.893  1.00  0.00    -0.370 N 
ATOM     46  H   UNL     1       9.266  -2.869  10.507  1.00  0.00     0.159 HD
ATOM     47  H   UNL     1      10.655  -1.922  10.176  1.00  0.00     0.159 HD
ATOM     48  H   UNL     1       9.163  -2.458  13.880  1.00  0.00     0.159 HD
ATOM     49  H   UNL     1       8.776  -3.524  12.569  1.00  0.00     0.159 HD
ENDBRANCH  41  42
ENDBRANCH  40  41
ENDBRANCH  39  40
ENDBRANCH  38  39
ENDBRANCH  36  38
ENDBRANCH   5  34
BRANCH   8  50
ATOM     50  O   UNL     1       7.218   7.111   7.832  1.00  0.00    -0.245 OA
BRANCH  50  51
ATOM     51  S   UNL     1       7.896   8.496   7.313  1.00  0.00     0.397 S 
ATOM     52  O   UNL     1       9.101   8.717   8.079  1.00  0.00    -0.169 OA
ATOM     53  O   UNL     1       6.877   9.518   7.186  1.00  0.00    -0.169 OA
BRANCH  51  54
ATOM     54  O   UNL     1       8.384   8.096   5.834  1.00  0.00    -0.264 OA
ATOM     55  H   UNL     1       8.029   8.764   5.212  1.00  0.00     0.236 HD
ENDBRANCH  51  54
ENDBRANCH  50  51
ENDBRANCH   8  50
TORSDOF 19
ENDMDL
MODEL 29
REMARK VINA RESULT:    -5.144      4.253      7.394
REMARK INTER + INTRA:         -15.602
REMARK INTER:                 -14.186
REMARK INTRA:                  -1.415
REMARK UNBOUND:                -5.195
REMARK SMILES CC[C@@H](C)[C@@H](NC(=O)[C@@H](O)Cc1ccc(O)c(Cl)c1)C(=O)N1[C@H](C(=O)NCCCCN=C(N)N)C[C@H]2CC[C@H](OS(=O)(=O)O)C[C@@H]21
REMARK SMILES IDX 22 1 36 2 46 3 35 4 23 5 45 6 37 7 39 8 38 9 20 10 21 11
REMARK SMILES IDX 5 12 6 13 7 14 8 15 9 17 11 18 12 19 17 20 19 21 15 22 14 23
REMARK SMILES IDX 13 24 18 25 16 26 10 28 3 30 4 31 2 32 1 33 24 34 25 35
REMARK SMILES IDX 26 36 27 38 28 39 29 40 30 41 31 42 32 43 33 44 34 45 40 50
REMARK SMILES IDX 41 51 42 52 43 53 44 54
REMARK H PARENT 6 16 16 27 10 29 26 37 33 46 33 47 34 48 34 49 44 55
ROOT
ATOM      1  N   UNL     1       5.134   3.611   9.048  1.00  0.00    -0.326 N 
ATOM      2  C   UNL     1       6.358   4.588   7.290  1.00  0.00     0.014 C 
ATOM      3  C   UNL     1       5.097   4.762   8.141  1.00  0.00     0.091 C 
ATOM      4  C   UNL     1       6.469   3.076   7.161  1.00  0.00     0.041 C 
ATOM      5  C   UNL     1       6.186   2.657   8.615  1.00  0.00     0.175 C 
ATOM      6  C   UNL     1       5.114   6.163   8.748  1.00  0.00     0.059 C 
ATOM      7  C   UNL     1       6.288   5.438   6.037  1.00  0.00     0.008 C 
ATOM      8  C   UNL     1       5.805   7.219   7.858  1.00  0.00     0.143 C 
ATOM      9  C   UNL     1       5.743   6.844   6.363  1.00  0.00     0.034 C 
ENDROOT
BRANCH   1  10
ATOM     10  C   UNL     1       4.241   3.228  10.034  1.00  0.00     0.246 C 
ATOM     11  O   UNL     1       3.033   3.421   9.858  1.00  0.00    -0.272 OA
BRANCH  10  12
ATOM     12  C   UNL     1       4.770   2.527  11.318  1.00  0.00     0.174 C 
BRANCH  12  13
ATOM     13  N   UNL     1       3.831   1.490  11.743  1.00  0.00    -0.342 N 
ATOM     14  C   UNL     1       3.463   0.399  10.988  1.00  0.00     0.249 C 
ATOM     15  O   UNL     1       3.910   0.160   9.873  1.00  0.00    -0.272 OA
ATOM     16  H   UNL     1       3.264   1.634  12.575  1.00  0.00     0.164 HD
BRANCH  14  17
ATOM     17  C   UNL     1       2.440  -0.506  11.707  1.00  0.00     0.207 C 
BRANCH  17  18
ATOM     18  C   UNL     1       2.023   0.115  13.044  1.00  0.00     0.077 C 
BRANCH  18  19
ATOM     19  C   UNL     1       1.442  -0.916  13.986  1.00  0.00    -0.043 A 
ATOM     20  C   UNL     1      -0.428  -2.274  14.722  1.00  0.00     0.083 A 
ATOM     21  C   UNL     1       0.121  -1.359  13.823  1.00  0.00     0.028 A 
ATOM     22  C   UNL     1       0.337  -2.749  15.788  1.00  0.00     0.134 A 
ATOM     23  C   UNL     1       1.647  -2.319  15.961  1.00  0.00     0.048 A 
ATOM     24  C   UNL     1       2.199  -1.403  15.063  1.00  0.00     0.008 A 
ATOM     25  Cl  UNL     1      -2.054  -2.806  14.506  1.00  0.00    -0.080 Cl
BRANCH  22  26
ATOM     26  O   UNL     1      -0.161  -3.639  16.702  1.00  0.00    -0.506 OA
ATOM     27  H   UNL     1      -0.953  -4.041  16.298  1.00  0.00     0.293 HD
ENDBRANCH  22  26
ENDBRANCH  18  19
ENDBRANCH  17  18
BRANCH  17  28
ATOM     28  O   UNL     1       2.981  -1.816  11.938  1.00  0.00    -0.383 OA
ATOM     29  H   UNL     1       2.347  -2.271  12.537  1.00  0.00     0.211 HD
ENDBRANCH  17  28
ENDBRANCH  14  17
ENDBRANCH  12  13
BRANCH  12  30
ATOM     30  C   UNL     1       5.100   3.530  12.456  1.00  0.00     0.018 C 
ATOM     31  C   UNL     1       6.543   3.342  12.950  1.00  0.00     0.010 C 
BRANCH  30  32
ATOM     32  C   UNL     1       4.116   3.461  13.650  1.00  0.00     0.002 C 
ATOM     33  C   UNL     1       4.553   2.566  14.802  1.00  0.00     0.004 C 
ENDBRANCH  30  32
ENDBRANCH  12  30
ENDBRANCH  10  12
ENDBRANCH   1  10
BRANCH   5  34
ATOM     34  C   UNL     1       7.450   2.790   9.506  1.00  0.00     0.242 C 
ATOM     35  O   UNL     1       7.972   3.878   9.749  1.00  0.00    -0.273 OA
ATOM     36  N   UNL     1       7.975   1.601   9.958  1.00  0.00    -0.354 N 
ATOM     37  H   UNL     1       7.570   0.726   9.625  1.00  0.00     0.163 HD
BRANCH  36  38
ATOM     38  C   UNL     1       9.014   1.548  10.966  1.00  0.00     0.116 C 
BRANCH  38  39
ATOM     39  C   UNL     1      10.233   0.811  10.417  1.00  0.00     0.023 C 
BRANCH  39  40
ATOM     40  C   UNL     1       9.895  -0.596   9.936  1.00  0.00     0.026 C 
BRANCH  40  41
ATOM     41  C   UNL     1      10.441  -0.834   8.529  1.00  0.00     0.146 C 
BRANCH  41  42
ATOM     42  N   UNL     1      11.805  -1.342   8.609  1.00  0.00    -0.254 NA
ATOM     43  C   UNL     1      12.771  -0.635   8.156  1.00  0.00     0.185 C 
ATOM     44  N   UNL     1      12.758   0.580   7.578  1.00  0.00    -0.370 N 
ATOM     45  N   UNL     1      14.020  -1.123   8.235  1.00  0.00    -0.370 N 
ATOM     46  H   UNL     1      13.551   0.907   7.053  1.00  0.00     0.159 HD
ATOM     47  H   UNL     1      11.896   1.101   7.451  1.00  0.00     0.159 HD
ATOM     48  H   UNL     1      14.120  -2.032   8.666  1.00  0.00     0.159 HD
ATOM     49  H   UNL     1      14.837  -0.548   8.126  1.00  0.00     0.159 HD
ENDBRANCH  41  42
ENDBRANCH  40  41
ENDBRANCH  39  40
ENDBRANCH  38  39
ENDBRANCH  36  38
ENDBRANCH   5  34
BRANCH   8  50
ATOM     50  O   UNL     1       7.175   7.357   8.234  1.00  0.00    -0.245 OA
BRANCH  50  51
ATOM     51  S   UNL     1       8.062   8.569   7.609  1.00  0.00     0.397 S 
ATOM     52  O   UNL     1       9.107   8.891   8.554  1.00  0.00    -0.169 OA
ATOM     53  O   UNL     1       7.183   9.586   7.071  1.00  0.00    -0.169 OA
BRANCH  51  54
ATOM     54  O   UNL     1       8.795   7.845   6.374  1.00  0.00    -0.264 OA
ATOM     55  H   UNL     1       8.684   6.879   6.486  1.00  0.00     0.236 HD
ENDBRANCH  51  54
ENDBRANCH  50  51
ENDBRANCH   8  50
TORSDOF 19
ENDMDL
MODEL 30
REMARK VINA RESULT:    -5.140      3.973      7.674
REMARK INTER + INTRA:         -15.594
REMARK INTER:                 -13.630
REMARK INTRA:                  -1.964
REMARK UNBOUND:                -5.195
REMARK SMILES CC[C@@H](C)[C@@H](NC(=O)[C@@H](O)Cc1ccc(O)c(Cl)c1)C(=O)N1[C@H](C(=O)NCCCCN=C(N)N)C[C@H]2CC[C@H](OS(=O)(=O)O)C[C@@H]21
REMARK SMILES IDX 22 1 36 2 46 3 35 4 23 5 45 6 37 7 39 8 38 9 20 10 21 11
REMARK SMILES IDX 5 12 6 13 7 14 8 15 9 17 11 18 12 19 17 20 19 21 15 22 14 23
REMARK SMILES IDX 13 24 18 25 16 26 10 28 3 30 4 31 2 32 1 33 24 34 25 35
REMARK SMILES IDX 26 36 27 38 28 39 29 40 30 41 31 42 32 43 33 44 34 45 40 50
REMARK SMILES IDX 41 51 42 52 43 53 44 54
REMARK H PARENT 6 16 16 27 10 29 26 37 33 46 33 47 34 48 34 49 44 55
ROOT
ATOM      1  N   UNL     1       6.393   3.507  10.818  1.00  0.00    -0.326 N 
ATOM      2  C   UNL     1       6.759   3.924   8.530  1.00  0.00     0.014 C 
ATOM      3  C   UNL     1       5.858   4.303   9.709  1.00  0.00     0.091 C 
ATOM      4  C   UNL     1       7.063   2.458   8.798  1.00  0.00     0.041 C 
ATOM      5  C   UNL     1       7.371   2.516  10.306  1.00  0.00     0.175 C 
ATOM      6  C   UNL     1       5.855   5.825   9.845  1.00  0.00     0.059 C 
ATOM      7  C   UNL     1       6.123   4.322   7.212  1.00  0.00     0.008 C 
ATOM      8  C   UNL     1       6.014   6.569   8.502  1.00  0.00     0.143 C 
ATOM      9  C   UNL     1       5.503   5.732   7.312  1.00  0.00     0.034 C 
ENDROOT
BRANCH   1  10
ATOM     10  C   UNL     1       5.969   3.420  12.133  1.00  0.00     0.246 C 
ATOM     11  O   UNL     1       5.514   4.427  12.686  1.00  0.00    -0.272 OA
BRANCH  10  12
ATOM     12  C   UNL     1       6.036   2.052  12.872  1.00  0.00     0.174 C 
BRANCH  12  13
ATOM     13  N   UNL     1       4.689   1.504  13.028  1.00  0.00    -0.342 N 
ATOM     14  C   UNL     1       3.946   0.934  12.019  1.00  0.00     0.249 C 
ATOM     15  O   UNL     1       4.347   0.798  10.870  1.00  0.00    -0.272 OA
ATOM     16  H   UNL     1       4.168   1.686  13.882  1.00  0.00     0.164 HD
BRANCH  14  17
ATOM     17  C   UNL     1       2.555   0.465  12.496  1.00  0.00     0.207 C 
BRANCH  17  18
ATOM     18  C   UNL     1       2.230  -0.917  11.921  1.00  0.00     0.077 C 
BRANCH  18  19
ATOM     19  C   UNL     1       1.615  -1.828  12.960  1.00  0.00    -0.043 A 
ATOM     20  C   UNL     1       1.523  -3.976  14.083  1.00  0.00     0.083 A 
ATOM     21  C   UNL     1       2.123  -3.121  13.158  1.00  0.00     0.028 A 
ATOM     22  C   UNL     1       0.413  -3.547  14.812  1.00  0.00     0.134 A 
ATOM     23  C   UNL     1      -0.100  -2.269  14.626  1.00  0.00     0.048 A 
ATOM     24  C   UNL     1       0.497  -1.411  13.700  1.00  0.00     0.008 A 
ATOM     25  Cl  UNL     1       2.162  -5.561  14.312  1.00  0.00    -0.080 Cl
BRANCH  22  26
ATOM     26  O   UNL     1      -0.216  -4.353  15.722  1.00  0.00    -0.506 OA
ATOM     27  H   UNL     1      -0.664  -5.054  15.213  1.00  0.00     0.293 HD
ENDBRANCH  22  26
ENDBRANCH  18  19
ENDBRANCH  17  18
BRANCH  17  28
ATOM     28  O   UNL     1       1.533   1.396  12.106  1.00  0.00    -0.383 OA
ATOM     29  H   UNL     1       1.074   0.990  11.336  1.00  0.00     0.211 HD
ENDBRANCH  17  28
ENDBRANCH  14  17
ENDBRANCH  12  13
BRANCH  12  30
ATOM     30  C   UNL     1       6.803   2.134  14.219  1.00  0.00     0.018 C 
ATOM     31  C   UNL     1       7.699   0.902  14.414  1.00  0.00     0.010 C 
BRANCH  30  32
ATOM     32  C   UNL     1       5.880   2.321  15.448  1.00  0.00     0.002 C 
ATOM     33  C   UNL     1       5.928   1.197  16.475  1.00  0.00     0.004 C 
ENDBRANCH  30  32
ENDBRANCH  12  30
ENDBRANCH  10  12
ENDBRANCH   1  10
BRANCH   5  34
ATOM     34  C   UNL     1       8.825   2.987  10.575  1.00  0.00     0.242 C 
ATOM     35  O   UNL     1       9.493   3.577   9.726  1.00  0.00    -0.273 OA
ATOM     36  N   UNL     1       9.330   2.651  11.811  1.00  0.00    -0.354 N 
ATOM     37  H   UNL     1       8.771   2.058  12.426  1.00  0.00     0.163 HD
BRANCH  36  38
ATOM     38  C   UNL     1      10.578   3.190  12.309  1.00  0.00     0.116 C 
BRANCH  38  39
ATOM     39  C   UNL     1      10.436   3.547  13.787  1.00  0.00     0.023 C 
BRANCH  39  40
ATOM     40  C   UNL     1      11.383   2.746  14.673  1.00  0.00     0.026 C 
BRANCH  40  41
ATOM     41  C   UNL     1      10.815   2.603  16.085  1.00  0.00     0.146 C 
BRANCH  41  42
ATOM     42  N   UNL     1      11.165   3.775  16.878  1.00  0.00    -0.254 NA
ATOM     43  C   UNL     1      12.231   3.764  17.587  1.00  0.00     0.185 C 
ATOM     44  N   UNL     1      13.155   2.799  17.745  1.00  0.00    -0.370 N 
ATOM     45  N   UNL     1      12.534   4.852  18.314  1.00  0.00    -0.370 N 
ATOM     46  H   UNL     1      13.803   2.831  18.514  1.00  0.00     0.159 HD
ATOM     47  H   UNL     1      13.088   1.912  17.256  1.00  0.00     0.159 HD
ATOM     48  H   UNL     1      11.892   5.631  18.244  1.00  0.00     0.159 HD
ATOM     49  H   UNL     1      13.448   5.013  18.697  1.00  0.00     0.159 HD
ENDBRANCH  41  42
ENDBRANCH  40  41
ENDBRANCH  39  40
ENDBRANCH  38  39
ENDBRANCH  36  38
ENDBRANCH   5  34
BRANCH   8  50
ATOM     50  O   UNL     1       7.388   6.885   8.276  1.00  0.00    -0.245 OA
BRANCH  50  51
ATOM     51  S   UNL     1       7.786   8.326   7.634  1.00  0.00     0.397 S 
ATOM     52  O   UNL     1       8.982   8.795   8.296  1.00  0.00    -0.169 OA
ATOM     53  O   UNL     1       6.602   9.153   7.526  1.00  0.00    -0.169 OA
BRANCH  51  54
ATOM     54  O   UNL     1       8.241   7.916   6.147  1.00  0.00    -0.264 OA
ATOM     55  H   UNL     1       9.172   7.616   6.192  1.00  0.00     0.236 HD
ENDBRANCH  51  54
ENDBRANCH  50  51
ENDBRANCH   8  50
TORSDOF 19
ENDMDL
MODEL 31
REMARK VINA RESULT:    -5.140      2.918      6.468
REMARK INTER + INTRA:         -15.593
REMARK INTER:                 -12.170
REMARK INTRA:                  -3.423
REMARK UNBOUND:                -5.195
REMARK SMILES CC[C@@H](C)[C@@H](NC(=O)[C@@H](O)Cc1ccc(O)c(Cl)c1)C(=O)N1[C@H](C(=O)NCCCCN=C(N)N)C[C@H]2CC[C@H](OS(=O)(=O)O)C[C@@H]21
REMARK SMILES IDX 22 1 36 2 46 3 35 4 23 5 45 6 37 7 39 8 38 9 20 10 21 11
REMARK SMILES IDX 5 12 6 13 7 14 8 15 9 17 11 18 12 19 17 20 19 21 15 22 14 23
REMARK SMILES IDX 13 24 18 25 16 26 10 28 3 30 4 31 2 32 1 33 24 34 25 35
REMARK SMILES IDX 26 36 27 38 28 39 29 40 30 41 31 42 32 43 33 44 34 45 40 50
REMARK SMILES IDX 41 51 42 52 43 53 44 54
REMARK H PARENT 6 16 16 27 10 29 26 37 33 46 33 47 34 48 34 49 44 55
ROOT
ATOM      1  N   UNL     1       5.844   4.285  10.423  1.00  0.00    -0.326 N 
ATOM      2  C   UNL     1       5.539   4.199   8.091  1.00  0.00     0.014 C 
ATOM      3  C   UNL     1       6.518   4.655   9.176  1.00  0.00     0.091 C 
ATOM      4  C   UNL     1       4.184   4.447   8.736  1.00  0.00     0.041 C 
ATOM      5  C   UNL     1       4.445   3.879  10.143  1.00  0.00     0.175 C 
ATOM      6  C   UNL     1       7.886   4.042   8.882  1.00  0.00     0.059 C 
ATOM      7  C   UNL     1       5.860   4.852   6.761  1.00  0.00     0.008 C 
ATOM      8  C   UNL     1       8.169   3.846   7.376  1.00  0.00     0.143 C 
ATOM      9  C   UNL     1       7.382   4.846   6.505  1.00  0.00     0.034 C 
ENDROOT
BRANCH   1  10
ATOM     10  C   UNL     1       6.243   4.468  11.736  1.00  0.00     0.246 C 
ATOM     11  O   UNL     1       6.107   5.581  12.257  1.00  0.00    -0.272 OA
BRANCH  10  12
ATOM     12  C   UNL     1       6.812   3.263  12.540  1.00  0.00     0.174 C 
BRANCH  12  13
ATOM     13  N   UNL     1       5.922   2.941  13.654  1.00  0.00    -0.342 N 
ATOM     14  C   UNL     1       5.307   1.725  13.848  1.00  0.00     0.249 C 
ATOM     15  O   UNL     1       5.462   0.757  13.114  1.00  0.00    -0.272 OA
ATOM     16  H   UNL     1       5.576   3.686  14.254  1.00  0.00     0.164 HD
BRANCH  14  17
ATOM     17  C   UNL     1       4.413   1.703  15.107  1.00  0.00     0.207 C 
BRANCH  17  18
ATOM     18  C   UNL     1       5.217   2.120  16.342  1.00  0.00     0.077 C 
BRANCH  18  19
ATOM     19  C   UNL     1       6.211   1.056  16.751  1.00  0.00    -0.043 A 
ATOM     20  C   UNL     1       6.771  -0.905  18.063  1.00  0.00     0.083 A 
ATOM     21  C   UNL     1       5.837   0.046  17.650  1.00  0.00     0.028 A 
ATOM     22  C   UNL     1       8.080  -0.853  17.584  1.00  0.00     0.134 A 
ATOM     23  C   UNL     1       8.464   0.142  16.693  1.00  0.00     0.048 A 
ATOM     24  C   UNL     1       7.532   1.097  16.278  1.00  0.00     0.008 A 
ATOM     25  Cl  UNL     1       6.293  -2.139  19.169  1.00  0.00    -0.080 Cl
BRANCH  22  26
ATOM     26  O   UNL     1       9.033  -1.757  17.968  1.00  0.00    -0.506 OA
ATOM     27  H   UNL     1       8.558  -2.526  18.333  1.00  0.00     0.293 HD
ENDBRANCH  22  26
ENDBRANCH  18  19
ENDBRANCH  17  18
BRANCH  17  28
ATOM     28  O   UNL     1       3.853   0.398  15.321  1.00  0.00    -0.383 OA
ATOM     29  H   UNL     1       4.206   0.089  16.186  1.00  0.00     0.211 HD
ENDBRANCH  17  28
ENDBRANCH  14  17
ENDBRANCH  12  13
BRANCH  12  30
ATOM     30  C   UNL     1       8.278   3.487  12.999  1.00  0.00     0.018 C 
ATOM     31  C   UNL     1       9.051   2.159  13.030  1.00  0.00     0.010 C 
BRANCH  30  32
ATOM     32  C   UNL     1       8.399   4.204  14.366  1.00  0.00     0.002 C 
ATOM     33  C   UNL     1       9.667   3.898  15.152  1.00  0.00     0.004 C 
ENDBRANCH  30  32
ENDBRANCH  12  30
ENDBRANCH  10  12
ENDBRANCH   1  10
BRANCH   5  34
ATOM     34  C   UNL     1       4.305   2.333  10.171  1.00  0.00     0.242 C 
ATOM     35  O   UNL     1       5.218   1.584   9.827  1.00  0.00    -0.273 OA
ATOM     36  N   UNL     1       3.069   1.864  10.556  1.00  0.00    -0.354 N 
ATOM     37  H   UNL     1       2.315   2.535  10.713  1.00  0.00     0.163 HD
BRANCH  36  38
ATOM     38  C   UNL     1       2.828   0.465  10.844  1.00  0.00     0.116 C 
BRANCH  38  39
ATOM     39  C   UNL     1       2.006   0.333  12.123  1.00  0.00     0.023 C 
BRANCH  39  40
ATOM     40  C   UNL     1       2.138  -1.045  12.762  1.00  0.00     0.026 C 
BRANCH  40  41
ATOM     41  C   UNL     1       0.961  -1.326  13.695  1.00  0.00     0.146 C 
BRANCH  41  42
ATOM     42  N   UNL     1       1.427  -1.380  15.074  1.00  0.00    -0.254 NA
ATOM     43  C   UNL     1       1.291  -2.461  15.747  1.00  0.00     0.185 C 
ATOM     44  N   UNL     1       0.758  -3.642  15.387  1.00  0.00    -0.370 N 
ATOM     45  N   UNL     1       1.724  -2.489  17.018  1.00  0.00    -0.370 N 
ATOM     46  H   UNL     1       0.494  -4.319  16.083  1.00  0.00     0.159 HD
ATOM     47  H   UNL     1       0.393  -3.800  14.453  1.00  0.00     0.159 HD
ATOM     48  H   UNL     1       2.148  -1.639  17.366  1.00  0.00     0.159 HD
ATOM     49  H   UNL     1       1.870  -3.344  17.524  1.00  0.00     0.159 HD
ENDBRANCH  41  42
ENDBRANCH  40  41
ENDBRANCH  39  40
ENDBRANCH  38  39
ENDBRANCH  36  38
ENDBRANCH   5  34
BRANCH   8  50
ATOM     50  O   UNL     1       7.815   2.522   6.979  1.00  0.00    -0.245 OA
BRANCH  50  51
ATOM     51  S   UNL     1       8.900   1.320   7.132  1.00  0.00     0.397 S 
ATOM     52  O   UNL     1       8.384   0.371   8.092  1.00  0.00    -0.169 OA
ATOM     53  O   UNL     1      10.230   1.880   7.257  1.00  0.00    -0.169 OA
BRANCH  51  54
ATOM     54  O   UNL     1       8.801   0.594   5.701  1.00  0.00    -0.264 OA
ATOM     55  H   UNL     1       8.056   0.999   5.211  1.00  0.00     0.236 HD
ENDBRANCH  51  54
ENDBRANCH  50  51
ENDBRANCH   8  50
TORSDOF 19
ENDMDL
MODEL 32
REMARK VINA RESULT:    -5.131      5.488     10.140
REMARK INTER + INTRA:         -15.574
REMARK INTER:                 -12.375
REMARK INTRA:                  -3.200
REMARK UNBOUND:                -5.195
REMARK SMILES CC[C@@H](C)[C@@H](NC(=O)[C@@H](O)Cc1ccc(O)c(Cl)c1)C(=O)N1[C@H](C(=O)NCCCCN=C(N)N)C[C@H]2CC[C@H](OS(=O)(=O)O)C[C@@H]21
REMARK SMILES IDX 22 1 36 2 46 3 35 4 23 5 45 6 37 7 39 8 38 9 20 10 21 11
REMARK SMILES IDX 5 12 6 13 7 14 8 15 9 17 11 18 12 19 17 20 19 21 15 22 14 23
REMARK SMILES IDX 13 24 18 25 16 26 10 28 3 30 4 31 2 32 1 33 24 34 25 35
REMARK SMILES IDX 26 36 27 38 28 39 29 40 30 41 31 42 32 43 33 44 34 45 40 50
REMARK SMILES IDX 41 51 42 52 43 53 44 54
REMARK H PARENT 6 16 16 27 10 29 26 37 33 46 33 47 34 48 34 49 44 55
ROOT
ATOM      1  N   UNL     1       5.962   7.339   6.620  1.00  0.00    -0.326 N 
ATOM      2  C   UNL     1       6.490   7.707   8.885  1.00  0.00     0.014 C 
ATOM      3  C   UNL     1       5.315   7.614   7.907  1.00  0.00     0.091 C 
ATOM      4  C   UNL     1       7.584   8.335   8.035  1.00  0.00     0.041 C 
ATOM      5  C   UNL     1       7.430   7.514   6.742  1.00  0.00     0.175 C 
ATOM      6  C   UNL     1       4.315   6.594   8.448  1.00  0.00     0.059 C 
ATOM      7  C   UNL     1       6.069   8.384  10.174  1.00  0.00     0.008 C 
ATOM      8  C   UNL     1       4.267   6.529   9.990  1.00  0.00     0.143 C 
ATOM      9  C   UNL     1       4.694   7.861  10.639  1.00  0.00     0.034 C 
ENDROOT
BRANCH   1  10
ATOM     10  C   UNL     1       5.404   7.172   5.364  1.00  0.00     0.246 C 
ATOM     11  O   UNL     1       4.964   6.063   5.044  1.00  0.00    -0.272 OA
BRANCH  10  12
ATOM     12  C   UNL     1       5.304   8.390   4.401  1.00  0.00     0.174 C 
BRANCH  12  13
ATOM     13  N   UNL     1       5.374   9.636   5.164  1.00  0.00    -0.342 N 
ATOM     14  C   UNL     1       6.400  10.551   5.092  1.00  0.00     0.249 C 
ATOM     15  O   UNL     1       7.367  10.433   4.350  1.00  0.00    -0.272 OA
ATOM     16  H   UNL     1       4.725   9.794   5.932  1.00  0.00     0.164 HD
BRANCH  14  17
ATOM     17  C   UNL     1       6.192  11.756   6.034  1.00  0.00     0.207 C 
BRANCH  17  18
ATOM     18  C   UNL     1       4.810  12.378   5.810  1.00  0.00     0.077 C 
BRANCH  18  19
ATOM     19  C   UNL     1       3.764  11.765   6.713  1.00  0.00    -0.043 A 
ATOM     20  C   UNL     1       1.438  11.300   7.224  1.00  0.00     0.083 A 
ATOM     21  C   UNL     1       2.405  11.823   6.365  1.00  0.00     0.028 A 
ATOM     22  C   UNL     1       1.820  10.718   8.434  1.00  0.00     0.134 A 
ATOM     23  C   UNL     1       3.162  10.653   8.791  1.00  0.00     0.048 A 
ATOM     24  C   UNL     1       4.132  11.178   7.933  1.00  0.00     0.008 A 
ATOM     25  Cl  UNL     1      -0.226  11.382   6.779  1.00  0.00    -0.080 Cl
BRANCH  22  26
ATOM     26  O   UNL     1       0.908  10.202   9.313  1.00  0.00    -0.506 OA
ATOM     27  H   UNL     1       0.509   9.425   8.879  1.00  0.00     0.293 HD
ENDBRANCH  22  26
ENDBRANCH  18  19
ENDBRANCH  17  18
BRANCH  17  28
ATOM     28  O   UNL     1       7.204  12.754   5.828  1.00  0.00    -0.383 OA
ATOM     29  H   UNL     1       8.060  12.271   5.794  1.00  0.00     0.211 HD
ENDBRANCH  17  28
ENDBRANCH  14  17
ENDBRANCH  12  13
BRANCH  12  30
ATOM     30  C   UNL     1       4.054   8.328   3.482  1.00  0.00     0.018 C 
ATOM     31  C   UNL     1       4.465   8.315   2.001  1.00  0.00     0.010 C 
BRANCH  30  32
ATOM     32  C   UNL     1       3.035   9.464   3.741  1.00  0.00     0.002 C 
ATOM     33  C   UNL     1       2.901  10.487   2.621  1.00  0.00     0.004 C 
ENDBRANCH  30  32
ENDBRANCH  12  30
ENDBRANCH  10  12
ENDBRANCH   1  10
BRANCH   5  34
ATOM     34  C   UNL     1       8.142   6.139   6.849  1.00  0.00     0.242 C 
ATOM     35  O   UNL     1       8.907   5.865   7.773  1.00  0.00    -0.273 OA
ATOM     36  N   UNL     1       7.897   5.271   5.809  1.00  0.00    -0.354 N 
ATOM     37  H   UNL     1       7.350   5.599   5.012  1.00  0.00     0.163 HD
BRANCH  36  38
ATOM     38  C   UNL     1       8.301   3.880   5.851  1.00  0.00     0.116 C 
BRANCH  38  39
ATOM     39  C   UNL     1       7.277   3.068   6.641  1.00  0.00     0.023 C 
BRANCH  39  40
ATOM     40  C   UNL     1       7.929   2.168   7.686  1.00  0.00     0.026 C 
BRANCH  40  41
ATOM     41  C   UNL     1       8.837   1.134   7.021  1.00  0.00     0.146 C 
BRANCH  41  42
ATOM     42  N   UNL     1      10.197   1.276   7.526  1.00  0.00    -0.254 NA
ATOM     43  C   UNL     1      10.927   0.235   7.679  1.00  0.00     0.185 C 
ATOM     44  N   UNL     1      10.649  -1.060   7.440  1.00  0.00    -0.370 N 
ATOM     45  N   UNL     1      12.175   0.387   8.150  1.00  0.00    -0.370 N 
ATOM     46  H   UNL     1      11.221  -1.787   7.833  1.00  0.00     0.159 HD
ATOM     47  H   UNL     1       9.751  -1.352   7.067  1.00  0.00     0.159 HD
ATOM     48  H   UNL     1      12.468   1.334   8.347  1.00  0.00     0.159 HD
ATOM     49  H   UNL     1      12.876  -0.329   8.074  1.00  0.00     0.159 HD
ENDBRANCH  41  42
ENDBRANCH  40  41
ENDBRANCH  39  40
ENDBRANCH  38  39
ENDBRANCH  36  38
ENDBRANCH   5  34
BRANCH   8  50
ATOM     50  O   UNL     1       5.132   5.496  10.464  1.00  0.00    -0.245 OA
BRANCH  50  51
ATOM     51  S   UNL     1       4.494   4.178  11.172  1.00  0.00     0.397 S 
ATOM     52  O   UNL     1       5.583   3.376  11.685  1.00  0.00    -0.169 OA
ATOM     53  O   UNL     1       3.473   3.612  10.316  1.00  0.00    -0.169 OA
BRANCH  51  54
ATOM     54  O   UNL     1       3.768   4.807  12.461  1.00  0.00    -0.264 OA
ATOM     55  H   UNL     1       4.340   5.523  12.806  1.00  0.00     0.236 HD
ENDBRANCH  51  54
ENDBRANCH  50  51
ENDBRANCH   8  50
TORSDOF 19
ENDMDL
MODEL 33
REMARK VINA RESULT:    -5.114     16.032     18.959
REMARK INTER + INTRA:         -15.540
REMARK INTER:                 -11.570
REMARK INTRA:                  -3.970
REMARK UNBOUND:                -5.195
REMARK SMILES CC[C@@H](C)[C@@H](NC(=O)[C@@H](O)Cc1ccc(O)c(Cl)c1)C(=O)N1[C@H](C(=O)NCCCCN=C(N)N)C[C@H]2CC[C@H](OS(=O)(=O)O)C[C@@H]21
REMARK SMILES IDX 22 1 36 2 46 3 35 4 23 5 45 6 37 7 39 8 38 9 20 10 21 11
REMARK SMILES IDX 5 12 6 13 7 14 8 15 9 17 11 18 12 19 17 20 19 21 15 22 14 23
REMARK SMILES IDX 13 24 18 25 16 26 10 28 3 30 4 31 2 32 1 33 24 34 25 35
REMARK SMILES IDX 26 36 27 38 28 39 29 40 30 41 31 42 32 43 33 44 34 45 40 50
REMARK SMILES IDX 41 51 42 52 43 53 44 54
REMARK H PARENT 6 16 16 27 10 29 26 37 33 46 33 47 34 48 34 49 44 55
ROOT
ATOM      1  N   UNL     1     -11.741   3.194   5.038  1.00  0.00    -0.326 N 
ATOM      2  C   UNL     1     -12.954   2.708   3.080  1.00  0.00     0.014 C 
ATOM      3  C   UNL     1     -12.012   3.740   3.705  1.00  0.00     0.091 C 
ATOM      4  C   UNL     1     -13.771   2.235   4.273  1.00  0.00     0.041 C 
ATOM      5  C   UNL     1     -12.652   2.057   5.316  1.00  0.00     0.175 C 
ATOM      6  C   UNL     1     -10.833   3.955   2.757  1.00  0.00     0.059 C 
ATOM      7  C   UNL     1     -13.667   3.285   1.873  1.00  0.00     0.008 C 
ATOM      8  C   UNL     1     -11.198   3.790   1.265  1.00  0.00     0.143 C 
ATOM      9  C   UNL     1     -12.686   4.091   0.996  1.00  0.00     0.034 C 
ENDROOT
BRANCH   1  10
ATOM     10  C   UNL     1     -10.966   3.705   6.066  1.00  0.00     0.246 C 
ATOM     11  O   UNL     1     -11.133   4.878   6.418  1.00  0.00    -0.272 OA
BRANCH  10  12
ATOM     12  C   UNL     1      -9.937   2.783   6.782  1.00  0.00     0.174 C 
BRANCH  12  13
ATOM     13  N   UNL     1     -10.276   2.664   8.199  1.00  0.00    -0.342 N 
ATOM     14  C   UNL     1     -10.505   1.478   8.860  1.00  0.00     0.249 C 
ATOM     15  O   UNL     1     -10.422   0.376   8.332  1.00  0.00    -0.272 OA
ATOM     16  H   UNL     1     -10.533   3.494   8.727  1.00  0.00     0.164 HD
BRANCH  14  17
ATOM     17  C   UNL     1     -10.859   1.684  10.348  1.00  0.00     0.207 C 
BRANCH  17  18
ATOM     18  C   UNL     1     -10.358   0.503  11.186  1.00  0.00     0.077 C 
BRANCH  18  19
ATOM     19  C   UNL     1     -10.280   0.850  12.656  1.00  0.00    -0.043 A 
ATOM     20  C   UNL     1     -11.082   0.569  14.928  1.00  0.00     0.083 A 
ATOM     21  C   UNL     1     -11.122   0.211  13.580  1.00  0.00     0.028 A 
ATOM     22  C   UNL     1     -10.205   1.565  15.361  1.00  0.00     0.134 A 
ATOM     23  C   UNL     1      -9.366   2.205  14.456  1.00  0.00     0.048 A 
ATOM     24  C   UNL     1      -9.405   1.850  13.106  1.00  0.00     0.008 A 
ATOM     25  Cl  UNL     1     -12.124  -0.226  16.048  1.00  0.00    -0.080 Cl
BRANCH  22  26
ATOM     26  O   UNL     1     -10.138   1.957  16.670  1.00  0.00    -0.506 OA
ATOM     27  H   UNL     1      -9.258   2.356  16.798  1.00  0.00     0.293 HD
ENDBRANCH  22  26
ENDBRANCH  18  19
ENDBRANCH  17  18
BRANCH  17  28
ATOM     28  O   UNL     1     -12.277   1.828  10.528  1.00  0.00    -0.383 OA
ATOM     29  H   UNL     1     -12.697   1.268   9.836  1.00  0.00     0.211 HD
ENDBRANCH  17  28
ENDBRANCH  14  17
ENDBRANCH  12  13
BRANCH  12  30
ATOM     30  C   UNL     1      -8.469   3.237   6.560  1.00  0.00     0.018 C 
ATOM     31  C   UNL     1      -8.006   4.163   7.695  1.00  0.00     0.010 C 
BRANCH  30  32
ATOM     32  C   UNL     1      -8.229   3.915   5.189  1.00  0.00     0.002 C 
ATOM     33  C   UNL     1      -6.877   4.598   5.028  1.00  0.00     0.004 C 
ENDBRANCH  30  32
ENDBRANCH  12  30
ENDBRANCH  10  12
ENDBRANCH   1  10
BRANCH   5  34
ATOM     34  C   UNL     1     -11.913   0.704   5.137  1.00  0.00     0.242 C 
ATOM     35  O   UNL     1     -10.964   0.569   4.365  1.00  0.00    -0.273 OA
ATOM     36  N   UNL     1     -12.430  -0.346   5.863  1.00  0.00    -0.354 N 
ATOM     37  H   UNL     1     -13.291  -0.201   6.392  1.00  0.00     0.163 HD
BRANCH  36  38
ATOM     38  C   UNL     1     -11.743  -1.615   5.984  1.00  0.00     0.116 C 
BRANCH  38  39
ATOM     39  C   UNL     1     -12.646  -2.743   5.491  1.00  0.00     0.023 C 
BRANCH  39  40
ATOM     40  C   UNL     1     -13.279  -2.434   4.138  1.00  0.00     0.026 C 
BRANCH  40  41
ATOM     41  C   UNL     1     -12.236  -2.505   3.023  1.00  0.00     0.146 C 
BRANCH  41  42
ATOM     42  N   UNL     1     -12.705  -1.760   1.862  1.00  0.00    -0.254 NA
ATOM     43  C   UNL     1     -11.919  -0.934   1.280  1.00  0.00     0.185 C 
ATOM     44  N   UNL     1     -10.646  -0.603   1.565  1.00  0.00    -0.370 N 
ATOM     45  N   UNL     1     -12.372  -0.254   0.214  1.00  0.00    -0.370 N 
ATOM     46  H   UNL     1     -10.235   0.231   1.182  1.00  0.00     0.159 HD
ATOM     47  H   UNL     1     -10.143  -1.034   2.335  1.00  0.00     0.159 HD
ATOM     48  H   UNL     1     -13.321  -0.450  -0.073  1.00  0.00     0.159 HD
ATOM     49  H   UNL     1     -11.761   0.221  -0.427  1.00  0.00     0.159 HD
ENDBRANCH  41  42
ENDBRANCH  40  41
ENDBRANCH  39  40
ENDBRANCH  38  39
ENDBRANCH  36  38
ENDBRANCH   5  34
BRANCH   8  50
ATOM     50  O   UNL     1     -10.920   2.457   0.838  1.00  0.00    -0.245 OA
BRANCH  50  51
ATOM     51  S   UNL     1      -9.701   2.185  -0.204  1.00  0.00     0.397 S 
ATOM     52  O   UNL     1      -9.250   3.463  -0.707  1.00  0.00    -0.169 OA
ATOM     53  O   UNL     1     -10.056   1.100  -1.096  1.00  0.00    -0.169 OA
BRANCH  51  54
ATOM     54  O   UNL     1      -8.535   1.663   0.773  1.00  0.00    -0.264 OA
ATOM     55  H   UNL     1      -8.471   2.289   1.522  1.00  0.00     0.236 HD
ENDBRANCH  51  54
ENDBRANCH  50  51
ENDBRANCH   8  50
TORSDOF 19
ENDMDL
MODEL 34
REMARK VINA RESULT:    -5.100     16.026     18.764
REMARK INTER + INTRA:         -15.513
REMARK INTER:                 -11.574
REMARK INTRA:                  -3.939
REMARK UNBOUND:                -5.195
REMARK SMILES CC[C@@H](C)[C@@H](NC(=O)[C@@H](O)Cc1ccc(O)c(Cl)c1)C(=O)N1[C@H](C(=O)NCCCCN=C(N)N)C[C@H]2CC[C@H](OS(=O)(=O)O)C[C@@H]21
REMARK SMILES IDX 22 1 36 2 46 3 35 4 23 5 45 6 37 7 39 8 38 9 20 10 21 11
REMARK SMILES IDX 5 12 6 13 7 14 8 15 9 17 11 18 12 19 17 20 19 21 15 22 14 23
REMARK SMILES IDX 13 24 18 25 16 26 10 28 3 30 4 31 2 32 1 33 24 34 25 35
REMARK SMILES IDX 26 36 27 38 28 39 29 40 30 41 31 42 32 43 33 44 34 45 40 50
REMARK SMILES IDX 41 51 42 52 43 53 44 54
REMARK H PARENT 6 16 16 27 10 29 26 37 33 46 33 47 34 48 34 49 44 55
ROOT
ATOM      1  N   UNL     1     -10.199   4.540   4.066  1.00  0.00    -0.326 N 
ATOM      2  C   UNL     1      -9.398   5.132   1.933  1.00  0.00     0.014 C 
ATOM      3  C   UNL     1      -9.149   4.181   3.107  1.00  0.00     0.091 C 
ATOM      4  C   UNL     1      -9.887   6.396   2.622  1.00  0.00     0.041 C 
ATOM      5  C   UNL     1     -10.874   5.789   3.636  1.00  0.00     0.175 C 
ATOM      6  C   UNL     1      -9.114   2.751   2.572  1.00  0.00     0.059 C 
ATOM      7  C   UNL     1      -8.186   5.201   1.025  1.00  0.00     0.008 C 
ATOM      8  C   UNL     1      -8.563   2.639   1.134  1.00  0.00     0.143 C 
ATOM      9  C   UNL     1      -7.599   3.793   0.792  1.00  0.00     0.034 C 
ENDROOT
BRANCH   1  10
ATOM     10  C   UNL     1     -10.463   4.029   5.325  1.00  0.00     0.246 C 
ATOM     11  O   UNL     1     -11.562   4.250   5.845  1.00  0.00    -0.272 OA
BRANCH  10  12
ATOM     12  C   UNL     1      -9.392   3.154   6.038  1.00  0.00     0.174 C 
BRANCH  12  13
ATOM     13  N   UNL     1     -10.042   2.078   6.784  1.00  0.00    -0.342 N 
ATOM     14  C   UNL     1     -10.624   0.964   6.221  1.00  0.00     0.249 C 
ATOM     15  O   UNL     1     -10.635   0.737   5.017  1.00  0.00    -0.272 OA
ATOM     16  H   UNL     1     -10.247   2.203   7.773  1.00  0.00     0.164 HD
BRANCH  14  17
ATOM     17  C   UNL     1     -11.243   0.019   7.272  1.00  0.00     0.207 C 
BRANCH  17  18
ATOM     18  C   UNL     1     -10.144  -0.707   8.053  1.00  0.00     0.077 C 
BRANCH  18  19
ATOM     19  C   UNL     1     -10.223  -0.418   9.535  1.00  0.00    -0.043 A 
ATOM     20  C   UNL     1     -10.776   1.084  11.358  1.00  0.00     0.083 A 
ATOM     21  C   UNL     1     -10.750   0.800   9.992  1.00  0.00     0.028 A 
ATOM     22  C   UNL     1     -10.276   0.157  12.274  1.00  0.00     0.134 A 
ATOM     23  C   UNL     1      -9.752  -1.053  11.835  1.00  0.00     0.048 A 
ATOM     24  C   UNL     1      -9.722  -1.339  10.468  1.00  0.00     0.008 A 
ATOM     25  Cl  UNL     1     -11.427   2.586  11.900  1.00  0.00    -0.080 Cl
BRANCH  22  26
ATOM     26  O   UNL     1     -10.271   0.396  13.621  1.00  0.00    -0.506 OA
ATOM     27  H   UNL     1     -10.833   1.178  13.770  1.00  0.00     0.293 HD
ENDBRANCH  22  26
ENDBRANCH  18  19
ENDBRANCH  17  18
BRANCH  17  28
ATOM     28  O   UNL     1     -12.106  -0.948   6.653  1.00  0.00    -0.383 OA
ATOM     29  H   UNL     1     -11.718  -1.829   6.857  1.00  0.00     0.211 HD
ENDBRANCH  17  28
ENDBRANCH  14  17
ENDBRANCH  12  13
BRANCH  12  30
ATOM     30  C   UNL     1      -8.427   3.990   6.922  1.00  0.00     0.018 C 
ATOM     31  C   UNL     1      -7.039   4.093   6.271  1.00  0.00     0.010 C 
BRANCH  30  32
ATOM     32  C   UNL     1      -8.296   3.459   8.371  1.00  0.00     0.002 C 
ATOM     33  C   UNL     1      -9.146   4.182   9.408  1.00  0.00     0.004 C 
ENDBRANCH  30  32
ENDBRANCH  12  30
ENDBRANCH  10  12
ENDBRANCH   1  10
BRANCH   5  34
ATOM     34  C   UNL     1     -12.246   5.476   2.981  1.00  0.00     0.242 C 
ATOM     35  O   UNL     1     -12.953   6.353   2.483  1.00  0.00    -0.273 OA
ATOM     36  N   UNL     1     -12.639   4.158   3.047  1.00  0.00    -0.354 N 
ATOM     37  H   UNL     1     -12.067   3.500   3.578  1.00  0.00     0.163 HD
BRANCH  36  38
ATOM     38  C   UNL     1     -13.777   3.653   2.306  1.00  0.00     0.116 C 
BRANCH  38  39
ATOM     39  C   UNL     1     -14.575   2.686   3.178  1.00  0.00     0.023 C 
BRANCH  39  40
ATOM     40  C   UNL     1     -13.709   1.571   3.754  1.00  0.00     0.026 C 
BRANCH  40  41
ATOM     41  C   UNL     1     -13.910   0.271   2.976  1.00  0.00     0.146 C 
BRANCH  41  42
ATOM     42  N   UNL     1     -13.497  -0.862   3.794  1.00  0.00    -0.254 NA
ATOM     43  C   UNL     1     -12.664  -1.713   3.323  1.00  0.00     0.185 C 
ATOM     44  N   UNL     1     -12.055  -1.755   2.124  1.00  0.00    -0.370 N 
ATOM     45  N   UNL     1     -12.300  -2.752   4.092  1.00  0.00    -0.370 N 
ATOM     46  H   UNL     1     -11.621  -2.602   1.800  1.00  0.00     0.159 HD
ATOM     47  H   UNL     1     -12.208  -1.036   1.423  1.00  0.00     0.159 HD
ATOM     48  H   UNL     1     -12.707  -2.791   5.016  1.00  0.00     0.159 HD
ATOM     49  H   UNL     1     -11.492  -3.316   3.896  1.00  0.00     0.159 HD
ENDBRANCH  41  42
ENDBRANCH  40  41
ENDBRANCH  39  40
ENDBRANCH  38  39
ENDBRANCH  36  38
ENDBRANCH   5  34
BRANCH   8  50
ATOM     50  O   UNL     1      -9.638   2.652   0.195  1.00  0.00    -0.245 OA
BRANCH  50  51
ATOM     51  S   UNL     1     -10.253   1.244  -0.342  1.00  0.00     0.397 S 
ATOM     52  O   UNL     1     -10.408   1.343  -1.775  1.00  0.00    -0.169 OA
ATOM     53  O   UNL     1     -11.346   0.833   0.515  1.00  0.00    -0.169 OA
BRANCH  51  54
ATOM     54  O   UNL     1      -9.027   0.231  -0.103  1.00  0.00    -0.264 OA
ATOM     55  H   UNL     1      -9.075  -0.082   0.824  1.00  0.00     0.236 HD
ENDBRANCH  51  54
ENDBRANCH  50  51
ENDBRANCH   8  50
TORSDOF 19
ENDMDL
MODEL 35
REMARK VINA RESULT:    -5.097     16.522     19.221
REMARK INTER + INTRA:         -15.507
REMARK INTER:                 -11.273
REMARK INTRA:                  -4.234
REMARK UNBOUND:                -5.195
REMARK SMILES CC[C@@H](C)[C@@H](NC(=O)[C@@H](O)Cc1ccc(O)c(Cl)c1)C(=O)N1[C@H](C(=O)NCCCCN=C(N)N)C[C@H]2CC[C@H](OS(=O)(=O)O)C[C@@H]21
REMARK SMILES IDX 22 1 36 2 46 3 35 4 23 5 45 6 37 7 39 8 38 9 20 10 21 11
REMARK SMILES IDX 5 12 6 13 7 14 8 15 9 17 11 18 12 19 17 20 19 21 15 22 14 23
REMARK SMILES IDX 13 24 18 25 16 26 10 28 3 30 4 31 2 32 1 33 24 34 25 35
REMARK SMILES IDX 26 36 27 38 28 39 29 40 30 41 31 42 32 43 33 44 34 45 40 50
REMARK SMILES IDX 41 51 42 52 43 53 44 54
REMARK H PARENT 6 16 16 27 10 29 26 37 33 46 33 47 34 48 34 49 44 55
ROOT
ATOM      1  N   UNL     1     -11.899   2.092   2.659  1.00  0.00    -0.326 N 
ATOM      2  C   UNL     1      -9.715   2.729   2.055  1.00  0.00     0.014 C 
ATOM      3  C   UNL     1     -11.139   2.592   1.510  1.00  0.00     0.091 C 
ATOM      4  C   UNL     1      -9.616   1.565   3.030  1.00  0.00     0.041 C 
ATOM      5  C   UNL     1     -10.972   1.695   3.748  1.00  0.00     0.175 C 
ATOM      6  C   UNL     1     -11.551   3.928   0.895  1.00  0.00     0.059 C 
ATOM      7  C   UNL     1      -8.710   2.839   0.925  1.00  0.00     0.008 C 
ATOM      8  C   UNL     1     -10.376   4.717   0.278  1.00  0.00     0.143 C 
ATOM      9  C   UNL     1      -9.230   3.790  -0.174  1.00  0.00     0.034 C 
ENDROOT
BRANCH   1  10
ATOM     10  C   UNL     1     -13.240   1.761   2.761  1.00  0.00     0.246 C 
ATOM     11  O   UNL     1     -14.068   2.659   2.948  1.00  0.00    -0.272 OA
BRANCH  10  12
ATOM     12  C   UNL     1     -13.679   0.277   2.594  1.00  0.00     0.174 C 
BRANCH  12  13
ATOM     13  N   UNL     1     -13.377  -0.471   3.814  1.00  0.00    -0.342 N 
ATOM     14  C   UNL     1     -14.174  -1.456   4.354  1.00  0.00     0.249 C 
ATOM     15  O   UNL     1     -15.223  -1.837   3.850  1.00  0.00    -0.272 OA
ATOM     16  H   UNL     1     -12.625  -0.160   4.423  1.00  0.00     0.164 HD
BRANCH  14  17
ATOM     17  C   UNL     1     -13.592  -2.046   5.656  1.00  0.00     0.207 C 
BRANCH  17  18
ATOM     18  C   UNL     1     -12.070  -1.872   5.689  1.00  0.00     0.077 C 
BRANCH  18  19
ATOM     19  C   UNL     1     -11.636  -0.927   6.787  1.00  0.00    -0.043 A 
ATOM     20  C   UNL     1     -12.032   1.047   8.140  1.00  0.00     0.083 A 
ATOM     21  C   UNL     1     -12.458   0.148   7.162  1.00  0.00     0.028 A 
ATOM     22  C   UNL     1     -10.787   0.880   8.748  1.00  0.00     0.134 A 
ATOM     23  C   UNL     1      -9.964  -0.180   8.386  1.00  0.00     0.048 A 
ATOM     24  C   UNL     1     -10.386  -1.081   7.406  1.00  0.00     0.008 A 
ATOM     25  Cl  UNL     1     -13.055   2.361   8.587  1.00  0.00    -0.080 Cl
BRANCH  22  26
ATOM     26  O   UNL     1     -10.322   1.741   9.704  1.00  0.00    -0.506 OA
ATOM     27  H   UNL     1     -10.637   1.402  10.563  1.00  0.00     0.293 HD
ENDBRANCH  22  26
ENDBRANCH  18  19
ENDBRANCH  17  18
BRANCH  17  28
ATOM     28  O   UNL     1     -13.916  -3.440   5.783  1.00  0.00    -0.383 OA
ATOM     29  H   UNL     1     -14.197  -3.736   4.887  1.00  0.00     0.211 HD
ENDBRANCH  17  28
ENDBRANCH  14  17
ENDBRANCH  12  13
BRANCH  12  30
ATOM     30  C   UNL     1     -13.077  -0.388   1.327  1.00  0.00     0.018 C 
ATOM     31  C   UNL     1     -14.182  -1.010   0.459  1.00  0.00     0.010 C 
BRANCH  30  32
ATOM     32  C   UNL     1     -11.986  -1.442   1.637  1.00  0.00     0.002 C 
ATOM     33  C   UNL     1     -10.570  -1.051   1.236  1.00  0.00     0.004 C 
ENDBRANCH  30  32
ENDBRANCH  12  30
ENDBRANCH  10  12
ENDBRANCH   1  10
BRANCH   5  34
ATOM     34  C   UNL     1     -10.930   2.780   4.857  1.00  0.00     0.242 C 
ATOM     35  O   UNL     1     -11.867   3.553   5.057  1.00  0.00    -0.273 OA
ATOM     36  N   UNL     1      -9.751   2.849   5.564  1.00  0.00    -0.354 N 
ATOM     37  H   UNL     1      -8.968   2.263   5.272  1.00  0.00     0.163 HD
BRANCH  36  38
ATOM     38  C   UNL     1      -9.615   3.647   6.765  1.00  0.00     0.116 C 
BRANCH  38  39
ATOM     39  C   UNL     1      -8.189   3.540   7.300  1.00  0.00     0.023 C 
BRANCH  39  40
ATOM     40  C   UNL     1      -7.159   4.114   6.333  1.00  0.00     0.026 C 
BRANCH  40  41
ATOM     41  C   UNL     1      -7.683   5.391   5.678  1.00  0.00     0.146 C 
BRANCH  41  42
ATOM     42  N   UNL     1      -7.721   5.223   4.231  1.00  0.00    -0.254 NA
ATOM     43  C   UNL     1      -6.798   5.738   3.509  1.00  0.00     0.185 C 
ATOM     44  N   UNL     1      -5.719   6.458   3.868  1.00  0.00    -0.370 N 
ATOM     45  N   UNL     1      -6.853   5.575   2.177  1.00  0.00    -0.370 N 
ATOM     46  H   UNL     1      -5.216   7.002   3.188  1.00  0.00     0.159 HD
ATOM     47  H   UNL     1      -5.515   6.664   4.841  1.00  0.00     0.159 HD
ATOM     48  H   UNL     1      -7.632   5.036   1.823  1.00  0.00     0.159 HD
ATOM     49  H   UNL     1      -6.065   5.736   1.576  1.00  0.00     0.159 HD
ENDBRANCH  41  42
ENDBRANCH  40  41
ENDBRANCH  39  40
ENDBRANCH  38  39
ENDBRANCH  36  38
ENDBRANCH   5  34
BRANCH   8  50
ATOM     50  O   UNL     1      -9.858   5.648   1.228  1.00  0.00    -0.245 OA
BRANCH  50  51
ATOM     51  S   UNL     1      -9.910   7.241   0.903  1.00  0.00     0.397 S 
ATOM     52  O   UNL     1     -10.190   7.399  -0.507  1.00  0.00    -0.169 OA
ATOM     53  O   UNL     1      -8.786   7.903   1.533  1.00  0.00    -0.169 OA
BRANCH  51  54
ATOM     54  O   UNL     1     -11.248   7.697   1.669  1.00  0.00    -0.264 OA
ATOM     55  H   UNL     1     -11.359   8.659   1.529  1.00  0.00     0.236 HD
ENDBRANCH  51  54
ENDBRANCH  50  51
ENDBRANCH   8  50
TORSDOF 19
ENDMDL
MODEL 36
REMARK VINA RESULT:    -5.075     16.297     18.647
REMARK INTER + INTRA:         -15.461
REMARK INTER:                 -11.080
REMARK INTRA:                  -4.382
REMARK UNBOUND:                -5.195
REMARK SMILES CC[C@@H](C)[C@@H](NC(=O)[C@@H](O)Cc1ccc(O)c(Cl)c1)C(=O)N1[C@H](C(=O)NCCCCN=C(N)N)C[C@H]2CC[C@H](OS(=O)(=O)O)C[C@@H]21
REMARK SMILES IDX 22 1 36 2 46 3 35 4 23 5 45 6 37 7 39 8 38 9 20 10 21 11
REMARK SMILES IDX 5 12 6 13 7 14 8 15 9 17 11 18 12 19 17 20 19 21 15 22 14 23
REMARK SMILES IDX 13 24 18 25 16 26 10 28 3 30 4 31 2 32 1 33 24 34 25 35
REMARK SMILES IDX 26 36 27 38 28 39 29 40 30 41 31 42 32 43 33 44 34 45 40 50
REMARK SMILES IDX 41 51 42 52 43 53 44 54
REMARK H PARENT 6 16 16 27 10 29 26 37 33 46 33 47 34 48 34 49 44 55
ROOT
ATOM      1  N   UNL     1     -12.364   1.699   4.204  1.00  0.00    -0.326 N 
ATOM      2  C   UNL     1     -10.862   0.993   2.534  1.00  0.00     0.014 C 
ATOM      3  C   UNL     1     -12.246   0.711   3.127  1.00  0.00     0.091 C 
ATOM      4  C   UNL     1     -10.053   1.408   3.753  1.00  0.00     0.041 C 
ATOM      5  C   UNL     1     -11.056   2.359   4.434  1.00  0.00     0.175 C 
ATOM      6  C   UNL     1     -13.272   0.744   1.996  1.00  0.00     0.059 C 
ATOM      7  C   UNL     1     -10.387  -0.173   1.689  1.00  0.00     0.008 C 
ATOM      8  C   UNL     1     -12.714   0.272   0.636  1.00  0.00     0.143 C 
ATOM      9  C   UNL     1     -11.533  -0.705   0.803  1.00  0.00     0.034 C 
ENDROOT
BRANCH   1  10
ATOM     10  C   UNL     1     -13.395   1.912   5.103  1.00  0.00     0.246 C 
ATOM     11  O   UNL     1     -14.242   2.775   4.853  1.00  0.00    -0.272 OA
BRANCH  10  12
ATOM     12  C   UNL     1     -13.488   1.033   6.384  1.00  0.00     0.174 C 
BRANCH  12  13
ATOM     13  N   UNL     1     -12.220   1.074   7.111  1.00  0.00    -0.342 N 
ATOM     14  C   UNL     1     -12.083   1.400   8.442  1.00  0.00     0.249 C 
ATOM     15  O   UNL     1     -13.023   1.667   9.180  1.00  0.00    -0.272 OA
ATOM     16  H   UNL     1     -11.344   1.030   6.598  1.00  0.00     0.164 HD
BRANCH  14  17
ATOM     17  C   UNL     1     -10.613   1.372   8.913  1.00  0.00     0.207 C 
BRANCH  17  18
ATOM     18  C   UNL     1      -9.666   1.565   7.725  1.00  0.00     0.077 C 
BRANCH  18  19
ATOM     19  C   UNL     1      -8.936   2.888   7.797  1.00  0.00    -0.043 A 
ATOM     20  C   UNL     1      -8.550   5.019   8.889  1.00  0.00     0.083 A 
ATOM     21  C   UNL     1      -9.188   3.779   8.852  1.00  0.00     0.028 A 
ATOM     22  C   UNL     1      -7.660   5.377   7.876  1.00  0.00     0.134 A 
ATOM     23  C   UNL     1      -7.401   4.505   6.826  1.00  0.00     0.048 A 
ATOM     24  C   UNL     1      -8.040   3.263   6.784  1.00  0.00     0.008 A 
ATOM     25  Cl  UNL     1      -8.873   6.100  10.194  1.00  0.00    -0.080 Cl
BRANCH  22  26
ATOM     26  O   UNL     1      -7.019   6.586   7.864  1.00  0.00    -0.506 OA
ATOM     27  H   UNL     1      -7.669   7.251   8.159  1.00  0.00     0.293 HD
ENDBRANCH  22  26
ENDBRANCH  18  19
ENDBRANCH  17  18
BRANCH  17  28
ATOM     28  O   UNL     1     -10.304   0.133   9.572  1.00  0.00    -0.383 OA
ATOM     29  H   UNL     1     -11.166  -0.320   9.717  1.00  0.00     0.211 HD
ENDBRANCH  17  28
ENDBRANCH  14  17
ENDBRANCH  12  13
BRANCH  12  30
ATOM     30  C   UNL     1     -13.952  -0.418   6.084  1.00  0.00     0.018 C 
ATOM     31  C   UNL     1     -15.051  -0.855   7.065  1.00  0.00     0.010 C 
BRANCH  30  32
ATOM     32  C   UNL     1     -12.798  -1.451   6.083  1.00  0.00     0.002 C 
ATOM     33  C   UNL     1     -13.203  -2.878   5.737  1.00  0.00     0.004 C 
ENDBRANCH  30  32
ENDBRANCH  12  30
ENDBRANCH  10  12
ENDBRANCH   1  10
BRANCH   5  34
ATOM     34  C   UNL     1     -11.031   3.771   3.791  1.00  0.00     0.242 C 
ATOM     35  O   UNL     1     -11.889   4.145   2.992  1.00  0.00    -0.273 OA
ATOM     36  N   UNL     1      -9.953   4.554   4.138  1.00  0.00    -0.354 N 
ATOM     37  H   UNL     1      -9.213   4.145   4.710  1.00  0.00     0.163 HD
BRANCH  36  38
ATOM     38  C   UNL     1      -9.881   5.962   3.807  1.00  0.00     0.116 C 
BRANCH  38  39
ATOM     39  C   UNL     1      -8.687   6.219   2.891  1.00  0.00     0.023 C 
BRANCH  39  40
ATOM     40  C   UNL     1      -7.487   5.345   3.238  1.00  0.00     0.026 C 
BRANCH  40  41
ATOM     41  C   UNL     1      -7.025   4.549   2.017  1.00  0.00     0.146 C 
BRANCH  41  42
ATOM     42  N   UNL     1      -8.094   3.663   1.573  1.00  0.00    -0.254 NA
ATOM     43  C   UNL     1      -8.565   3.784   0.390  1.00  0.00     0.185 C 
ATOM     44  N   UNL     1      -8.230   4.641  -0.592  1.00  0.00    -0.370 N 
ATOM     45  N   UNL     1      -9.553   2.961   0.001  1.00  0.00    -0.370 N 
ATOM     46  H   UNL     1      -8.842   4.787  -1.377  1.00  0.00     0.159 HD
ATOM     47  H   UNL     1      -7.490   5.326  -0.472  1.00  0.00     0.159 HD
ATOM     48  H   UNL     1      -9.860   2.277   0.680  1.00  0.00     0.159 HD
ATOM     49  H   UNL     1      -9.806   2.833  -0.962  1.00  0.00     0.159 HD
ENDBRANCH  41  42
ENDBRANCH  40  41
ENDBRANCH  39  40
ENDBRANCH  38  39
ENDBRANCH  36  38
ENDBRANCH   5  34
BRANCH   8  50
ATOM     50  O   UNL     1     -12.271   1.394  -0.128  1.00  0.00    -0.245 OA
BRANCH  50  51
ATOM     51  S   UNL     1     -12.336   1.336  -1.752  1.00  0.00     0.397 S 
ATOM     52  O   UNL     1     -12.741   2.639  -2.229  1.00  0.00    -0.169 OA
ATOM     53  O   UNL     1     -13.020   0.129  -2.168  1.00  0.00    -0.169 OA
BRANCH  51  54
ATOM     54  O   UNL     1     -10.785   1.188  -2.146  1.00  0.00    -0.264 OA
ATOM     55  H   UNL     1     -10.555   1.931  -2.740  1.00  0.00     0.236 HD
ENDBRANCH  51  54
ENDBRANCH  50  51
ENDBRANCH   8  50
TORSDOF 19
ENDMDL
MODEL 37
REMARK VINA RESULT:    -5.070     15.948     18.870
REMARK INTER + INTRA:         -15.451
REMARK INTER:                 -10.227
REMARK INTRA:                  -5.224
REMARK UNBOUND:                -5.195
REMARK SMILES CC[C@@H](C)[C@@H](NC(=O)[C@@H](O)Cc1ccc(O)c(Cl)c1)C(=O)N1[C@H](C(=O)NCCCCN=C(N)N)C[C@H]2CC[C@H](OS(=O)(=O)O)C[C@@H]21
REMARK SMILES IDX 22 1 36 2 46 3 35 4 23 5 45 6 37 7 39 8 38 9 20 10 21 11
REMARK SMILES IDX 5 12 6 13 7 14 8 15 9 17 11 18 12 19 17 20 19 21 15 22 14 23
REMARK SMILES IDX 13 24 18 25 16 26 10 28 3 30 4 31 2 32 1 33 24 34 25 35
REMARK SMILES IDX 26 36 27 38 28 39 29 40 30 41 31 42 32 43 33 44 34 45 40 50
REMARK SMILES IDX 41 51 42 52 43 53 44 54
REMARK H PARENT 6 16 16 27 10 29 26 37 33 46 33 47 34 48 34 49 44 55
ROOT
ATOM      1  N   UNL     1     -11.182   1.574   6.272  1.00  0.00    -0.326 N 
ATOM      2  C   UNL     1     -12.182   2.076   4.200  1.00  0.00     0.014 C 
ATOM      3  C   UNL     1     -11.009   2.453   5.111  1.00  0.00     0.091 C 
ATOM      4  C   UNL     1     -13.287   1.754   5.194  1.00  0.00     0.041 C 
ATOM      5  C   UNL     1     -12.502   0.901   6.207  1.00  0.00     0.175 C 
ATOM      6  C   UNL     1      -9.717   2.342   4.305  1.00  0.00     0.059 C 
ATOM      7  C   UNL     1     -12.415   3.143   3.149  1.00  0.00     0.008 C 
ATOM      8  C   UNL     1      -9.890   2.669   2.805  1.00  0.00     0.143 C 
ATOM      9  C   UNL     1     -11.075   3.623   2.553  1.00  0.00     0.034 C 
ENDROOT
BRANCH   1  10
ATOM     10  C   UNL     1     -10.430   1.476   7.430  1.00  0.00     0.246 C 
ATOM     11  O   UNL     1      -9.625   0.546   7.548  1.00  0.00    -0.272 OA
BRANCH  10  12
ATOM     12  C   UNL     1     -10.583   2.560   8.537  1.00  0.00     0.174 C 
BRANCH  12  13
ATOM     13  N   UNL     1      -9.713   3.698   8.244  1.00  0.00    -0.342 N 
ATOM     14  C   UNL     1     -10.125   4.881   7.672  1.00  0.00     0.249 C 
ATOM     15  O   UNL     1     -11.286   5.123   7.367  1.00  0.00    -0.272 OA
ATOM     16  H   UNL     1      -8.703   3.587   8.297  1.00  0.00     0.164 HD
BRANCH  14  17
ATOM     17  C   UNL     1      -8.967   5.882   7.475  1.00  0.00     0.207 C 
BRANCH  17  18
ATOM     18  C   UNL     1      -7.699   5.151   7.020  1.00  0.00     0.077 C 
BRANCH  18  19
ATOM     19  C   UNL     1      -7.544   5.178   5.516  1.00  0.00    -0.043 A 
ATOM     20  C   UNL     1      -8.223   6.024   3.347  1.00  0.00     0.083 A 
ATOM     21  C   UNL     1      -8.334   6.038   4.738  1.00  0.00     0.028 A 
ATOM     22  C   UNL     1      -7.326   5.154   2.726  1.00  0.00     0.134 A 
ATOM     23  C   UNL     1      -6.537   4.298   3.485  1.00  0.00     0.048 A 
ATOM     24  C   UNL     1      -6.647   4.307   4.878  1.00  0.00     0.008 A 
ATOM     25  Cl  UNL     1      -9.203   7.087   2.407  1.00  0.00    -0.080 Cl
BRANCH  22  26
ATOM     26  O   UNL     1      -7.190   5.097   1.366  1.00  0.00    -0.506 OA
ATOM     27  H   UNL     1      -6.233   5.060   1.181  1.00  0.00     0.293 HD
ENDBRANCH  22  26
ENDBRANCH  18  19
ENDBRANCH  17  18
BRANCH  17  28
ATOM     28  O   UNL     1      -8.693   6.602   8.687  1.00  0.00    -0.383 OA
ATOM     29  H   UNL     1      -9.458   7.205   8.824  1.00  0.00     0.211 HD
ENDBRANCH  17  28
ENDBRANCH  14  17
ENDBRANCH  12  13
BRANCH  12  30
ATOM     30  C   UNL     1     -10.358   1.994   9.965  1.00  0.00     0.018 C 
ATOM     31  C   UNL     1     -11.695   1.604  10.616  1.00  0.00     0.010 C 
BRANCH  30  32
ATOM     32  C   UNL     1      -9.572   2.950  10.896  1.00  0.00     0.002 C 
ATOM     33  C   UNL     1      -9.127   2.348  12.222  1.00  0.00     0.004 C 
ENDBRANCH  30  32
ENDBRANCH  12  30
ENDBRANCH  10  12
ENDBRANCH   1  10
BRANCH   5  34
ATOM     34  C   UNL     1     -12.349  -0.566   5.724  1.00  0.00     0.242 C 
ATOM     35  O   UNL     1     -11.322  -0.977   5.185  1.00  0.00    -0.273 OA
ATOM     36  N   UNL     1     -13.464  -1.357   5.891  1.00  0.00    -0.354 N 
ATOM     37  H   UNL     1     -14.324  -0.928   6.233  1.00  0.00     0.163 HD
BRANCH  36  38
ATOM     38  C   UNL     1     -13.430  -2.792   5.698  1.00  0.00     0.116 C 
BRANCH  38  39
ATOM     39  C   UNL     1     -14.480  -3.202   4.668  1.00  0.00     0.023 C 
BRANCH  39  40
ATOM     40  C   UNL     1     -15.173  -2.001   4.033  1.00  0.00     0.026 C 
BRANCH  40  41
ATOM     41  C   UNL     1     -14.685  -1.789   2.600  1.00  0.00     0.146 C 
BRANCH  41  42
ATOM     42  N   UNL     1     -13.256  -2.063   2.520  1.00  0.00    -0.254 NA
ATOM     43  C   UNL     1     -12.484  -1.229   1.932  1.00  0.00     0.185 C 
ATOM     44  N   UNL     1     -12.770  -0.060   1.329  1.00  0.00    -0.370 N 
ATOM     45  N   UNL     1     -11.170  -1.501   1.866  1.00  0.00    -0.370 N 
ATOM     46  H   UNL     1     -12.112   0.367   0.700  1.00  0.00     0.159 HD
ATOM     47  H   UNL     1     -13.717   0.306   1.299  1.00  0.00     0.159 HD
ATOM     48  H   UNL     1     -10.868  -2.361   2.304  1.00  0.00     0.159 HD
ATOM     49  H   UNL     1     -10.481  -0.806   1.640  1.00  0.00     0.159 HD
ENDBRANCH  41  42
ENDBRANCH  40  41
ENDBRANCH  39  40
ENDBRANCH  38  39
ENDBRANCH  36  38
ENDBRANCH   5  34
BRANCH   8  50
ATOM     50  O   UNL     1     -10.109   1.468   2.065  1.00  0.00    -0.245 OA
BRANCH  50  51
ATOM     51  S   UNL     1      -9.560   1.355   0.538  1.00  0.00     0.397 S 
ATOM     52  O   UNL     1     -10.599   1.833  -0.347  1.00  0.00    -0.169 OA
ATOM     53  O   UNL     1      -8.930   0.066   0.342  1.00  0.00    -0.169 OA
BRANCH  51  54
ATOM     54  O   UNL     1      -8.410   2.478   0.511  1.00  0.00    -0.264 OA
ATOM     55  H   UNL     1      -8.051   2.515  -0.399  1.00  0.00     0.236 HD
ENDBRANCH  51  54
ENDBRANCH  50  51
ENDBRANCH   8  50
TORSDOF 19
ENDMDL
MODEL 38
REMARK VINA RESULT:    -5.070      3.292      8.010
REMARK INTER + INTRA:         -15.451
REMARK INTER:                 -11.809
REMARK INTRA:                  -3.642
REMARK UNBOUND:                -5.195
REMARK SMILES CC[C@@H](C)[C@@H](NC(=O)[C@@H](O)Cc1ccc(O)c(Cl)c1)C(=O)N1[C@H](C(=O)NCCCCN=C(N)N)C[C@H]2CC[C@H](OS(=O)(=O)O)C[C@@H]21
REMARK SMILES IDX 22 1 36 2 46 3 35 4 23 5 45 6 37 7 39 8 38 9 20 10 21 11
REMARK SMILES IDX 5 12 6 13 7 14 8 15 9 17 11 18 12 19 17 20 19 21 15 22 14 23
REMARK SMILES IDX 13 24 18 25 16 26 10 28 3 30 4 31 2 32 1 33 24 34 25 35
REMARK SMILES IDX 26 36 27 38 28 39 29 40 30 41 31 42 32 43 33 44 34 45 40 50
REMARK SMILES IDX 41 51 42 52 43 53 44 54
REMARK H PARENT 6 16 16 27 10 29 26 37 33 46 33 47 34 48 34 49 44 55
ROOT
ATOM      1  N   UNL     1       5.933   8.501   5.897  1.00  0.00    -0.326 N 
ATOM      2  C   UNL     1       5.211   7.721   3.796  1.00  0.00     0.014 C 
ATOM      3  C   UNL     1       5.918   8.892   4.484  1.00  0.00     0.091 C 
ATOM      4  C   UNL     1       4.192   7.286   4.838  1.00  0.00     0.041 C 
ATOM      5  C   UNL     1       5.069   7.313   6.104  1.00  0.00     0.175 C 
ATOM      6  C   UNL     1       7.255   9.128   3.784  1.00  0.00     0.059 C 
ATOM      7  C   UNL     1       4.736   8.113   2.411  1.00  0.00     0.008 C 
ATOM      8  C   UNL     1       7.235   8.792   2.277  1.00  0.00     0.143 C 
ATOM      9  C   UNL     1       5.822   8.924   1.673  1.00  0.00     0.034 C 
ENDROOT
BRANCH   1  10
ATOM     10  C   UNL     1       6.428   9.176   7.000  1.00  0.00     0.246 C 
ATOM     11  O   UNL     1       7.651   9.268   7.150  1.00  0.00    -0.272 OA
BRANCH  10  12
ATOM     12  C   UNL     1       5.438   9.839   8.001  1.00  0.00     0.174 C 
BRANCH  12  13
ATOM     13  N   UNL     1       4.676   8.809   8.705  1.00  0.00    -0.342 N 
ATOM     14  C   UNL     1       5.079   8.180   9.861  1.00  0.00     0.249 C 
ATOM     15  O   UNL     1       6.122   8.438  10.450  1.00  0.00    -0.272 OA
ATOM     16  H   UNL     1       3.870   8.382   8.255  1.00  0.00     0.164 HD
BRANCH  14  17
ATOM     17  C   UNL     1       4.064   7.126  10.351  1.00  0.00     0.207 C 
BRANCH  17  18
ATOM     18  C   UNL     1       4.157   5.856   9.499  1.00  0.00     0.077 C 
BRANCH  18  19
ATOM     19  C   UNL     1       4.669   4.679  10.299  1.00  0.00    -0.043 A 
ATOM     20  C   UNL     1       6.200   3.759  11.941  1.00  0.00     0.083 A 
ATOM     21  C   UNL     1       5.696   4.855  11.240  1.00  0.00     0.028 A 
ATOM     22  C   UNL     1       5.685   2.483  11.706  1.00  0.00     0.134 A 
ATOM     23  C   UNL     1       4.668   2.295  10.777  1.00  0.00     0.048 A 
ATOM     24  C   UNL     1       4.163   3.390  10.073  1.00  0.00     0.008 A 
ATOM     25  Cl  UNL     1       7.462   3.995  13.092  1.00  0.00    -0.080 Cl
BRANCH  22  26
ATOM     26  O   UNL     1       6.155   1.377  12.361  1.00  0.00    -0.506 OA
ATOM     27  H   UNL     1       5.397   0.992  12.840  1.00  0.00     0.293 HD
ENDBRANCH  22  26
ENDBRANCH  18  19
ENDBRANCH  17  18
BRANCH  17  28
ATOM     28  O   UNL     1       2.722   7.637  10.299  1.00  0.00    -0.383 OA
ATOM     29  H   UNL     1       2.133   6.876  10.508  1.00  0.00     0.211 HD
ENDBRANCH  17  28
ENDBRANCH  14  17
ENDBRANCH  12  13
BRANCH  12  30
ATOM     30  C   UNL     1       4.522  10.897   7.327  1.00  0.00     0.018 C 
ATOM     31  C   UNL     1       5.359  12.015   6.685  1.00  0.00     0.010 C 
BRANCH  30  32
ATOM     32  C   UNL     1       3.467  11.504   8.283  1.00  0.00     0.002 C 
ATOM     33  C   UNL     1       3.638  12.987   8.584  1.00  0.00     0.004 C 
ENDBRANCH  30  32
ENDBRANCH  12  30
ENDBRANCH  10  12
ENDBRANCH   1  10
BRANCH   5  34
ATOM     34  C   UNL     1       5.925   6.025   6.234  1.00  0.00     0.242 C 
ATOM     35  O   UNL     1       5.603   4.964   5.700  1.00  0.00    -0.273 OA
ATOM     36  N   UNL     1       7.040   6.142   7.034  1.00  0.00    -0.354 N 
ATOM     37  H   UNL     1       7.189   7.012   7.546  1.00  0.00     0.163 HD
BRANCH  36  38
ATOM     38  C   UNL     1       8.059   5.114   7.094  1.00  0.00     0.116 C 
BRANCH  38  39
ATOM     39  C   UNL     1       7.987   4.390   8.436  1.00  0.00     0.023 C 
BRANCH  39  40
ATOM     40  C   UNL     1       7.367   3.002   8.316  1.00  0.00     0.026 C 
BRANCH  40  41
ATOM     41  C   UNL     1       8.432   1.917   8.473  1.00  0.00     0.146 C 
BRANCH  41  42
ATOM     42  N   UNL     1       8.317   1.299   9.787  1.00  0.00    -0.254 NA
ATOM     43  C   UNL     1       9.159   1.599  10.704  1.00  0.00     0.185 C 
ATOM     44  N   UNL     1      10.206   2.442  10.674  1.00  0.00    -0.370 N 
ATOM     45  N   UNL     1       9.037   1.015  11.907  1.00  0.00    -0.370 N 
ATOM     46  H   UNL     1      10.922   2.397  11.380  1.00  0.00     0.159 HD
ATOM     47  H   UNL     1      10.435   2.979   9.843  1.00  0.00     0.159 HD
ATOM     48  H   UNL     1       8.266   0.370  12.017  1.00  0.00     0.159 HD
ATOM     49  H   UNL     1       9.496   1.364  12.730  1.00  0.00     0.159 HD
ENDBRANCH  41  42
ENDBRANCH  40  41
ENDBRANCH  39  40
ENDBRANCH  38  39
ENDBRANCH  36  38
ENDBRANCH   5  34
BRANCH   8  50
ATOM     50  O   UNL     1       7.694   7.456   2.067  1.00  0.00    -0.245 OA
BRANCH  50  51
ATOM     51  S   UNL     1       9.051   6.948   2.807  1.00  0.00     0.397 S 
ATOM     52  O   UNL     1       8.677   5.961   3.795  1.00  0.00    -0.169 OA
ATOM     53  O   UNL     1       9.875   8.089   3.147  1.00  0.00    -0.169 OA
BRANCH  51  54
ATOM     54  O   UNL     1       9.789   6.135   1.632  1.00  0.00    -0.264 OA
ATOM     55  H   UNL     1      10.629   6.596   1.433  1.00  0.00     0.236 HD
ENDBRANCH  51  54
ENDBRANCH  50  51
ENDBRANCH   8  50
TORSDOF 19
ENDMDL
MODEL 39
REMARK VINA RESULT:    -5.041     16.296     18.702
REMARK INTER + INTRA:         -15.393
REMARK INTER:                 -11.852
REMARK INTRA:                  -3.541
REMARK UNBOUND:                -5.195
REMARK SMILES CC[C@@H](C)[C@@H](NC(=O)[C@@H](O)Cc1ccc(O)c(Cl)c1)C(=O)N1[C@H](C(=O)NCCCCN=C(N)N)C[C@H]2CC[C@H](OS(=O)(=O)O)C[C@@H]21
REMARK SMILES IDX 22 1 36 2 46 3 35 4 23 5 45 6 37 7 39 8 38 9 20 10 21 11
REMARK SMILES IDX 5 12 6 13 7 14 8 15 9 17 11 18 12 19 17 20 19 21 15 22 14 23
REMARK SMILES IDX 13 24 18 25 16 26 10 28 3 30 4 31 2 32 1 33 24 34 25 35
REMARK SMILES IDX 26 36 27 38 28 39 29 40 30 41 31 42 32 43 33 44 34 45 40 50
REMARK SMILES IDX 41 51 42 52 43 53 44 54
REMARK H PARENT 6 16 16 27 10 29 26 37 33 46 33 47 34 48 34 49 44 55
ROOT
ATOM      1  N   UNL     1     -12.195   1.552   3.038  1.00  0.00    -0.326 N 
ATOM      2  C   UNL     1     -10.177   1.867   1.866  1.00  0.00     0.014 C 
ATOM      3  C   UNL     1     -11.588   1.287   1.730  1.00  0.00     0.091 C 
ATOM      4  C   UNL     1      -9.840   1.588   3.323  1.00  0.00     0.041 C 
ATOM      5  C   UNL     1     -11.159   2.014   3.994  1.00  0.00     0.175 C 
ATOM      6  C   UNL     1     -12.242   1.896   0.491  1.00  0.00     0.059 C 
ATOM      7  C   UNL     1      -9.265   1.336   0.778  1.00  0.00     0.008 C 
ATOM      8  C   UNL     1     -11.244   2.227  -0.640  1.00  0.00     0.143 C 
ATOM      9  C   UNL     1      -9.989   1.333  -0.585  1.00  0.00     0.034 C 
ENDROOT
BRANCH   1  10
ATOM     10  C   UNL     1     -13.457   1.236   3.510  1.00  0.00     0.246 C 
ATOM     11  O   UNL     1     -14.391   2.016   3.296  1.00  0.00    -0.272 OA
BRANCH  10  12
ATOM     12  C   UNL     1     -13.681  -0.109   4.261  1.00  0.00     0.174 C 
BRANCH  12  13
ATOM     13  N   UNL     1     -12.584  -0.344   5.200  1.00  0.00    -0.342 N 
ATOM     14  C   UNL     1     -12.709  -0.363   6.571  1.00  0.00     0.249 C 
ATOM     15  O   UNL     1     -13.771  -0.210   7.162  1.00  0.00    -0.272 OA
ATOM     16  H   UNL     1     -11.624  -0.331   4.866  1.00  0.00     0.164 HD
BRANCH  14  17
ATOM     17  C   UNL     1     -11.366  -0.619   7.287  1.00  0.00     0.207 C 
BRANCH  17  18
ATOM     18  C   UNL     1     -10.436   0.589   7.131  1.00  0.00     0.077 C 
BRANCH  18  19
ATOM     19  C   UNL     1     -10.226   1.310   8.444  1.00  0.00    -0.043 A 
ATOM     20  C   UNL     1     -10.500   1.416  10.851  1.00  0.00     0.083 A 
ATOM     21  C   UNL     1     -10.650   0.727   9.648  1.00  0.00     0.028 A 
ATOM     22  C   UNL     1      -9.929   2.689  10.860  1.00  0.00     0.134 A 
ATOM     23  C   UNL     1      -9.504   3.278   9.675  1.00  0.00     0.048 A 
ATOM     24  C   UNL     1      -9.655   2.591   8.468  1.00  0.00     0.008 A 
ATOM     25  Cl  UNL     1     -11.028   0.684  12.321  1.00  0.00    -0.080 Cl
BRANCH  22  26
ATOM     26  O   UNL     1      -9.770   3.408  12.014  1.00  0.00    -0.506 OA
ATOM     27  H   UNL     1      -9.870   4.348  11.774  1.00  0.00     0.293 HD
ENDBRANCH  22  26
ENDBRANCH  18  19
ENDBRANCH  17  18
BRANCH  17  28
ATOM     28  O   UNL     1     -10.717  -1.790   6.767  1.00  0.00    -0.383 OA
ATOM     29  H   UNL     1      -9.886  -1.475   6.343  1.00  0.00     0.211 HD
ENDBRANCH  17  28
ENDBRANCH  14  17
ENDBRANCH  12  13
BRANCH  12  30
ATOM     30  C   UNL     1     -13.901  -1.305   3.296  1.00  0.00     0.018 C 
ATOM     31  C   UNL     1     -12.587  -2.066   3.061  1.00  0.00     0.010 C 
BRANCH  30  32
ATOM     32  C   UNL     1     -14.532  -0.902   1.941  1.00  0.00     0.002 C 
ATOM     33  C   UNL     1     -13.778  -1.374   0.705  1.00  0.00     0.004 C 
ENDBRANCH  30  32
ENDBRANCH  12  30
ENDBRANCH  10  12
ENDBRANCH   1  10
BRANCH   5  34
ATOM     34  C   UNL     1     -11.233   3.553   4.184  1.00  0.00     0.242 C 
ATOM     35  O   UNL     1     -12.013   4.258   3.545  1.00  0.00    -0.273 OA
ATOM     36  N   UNL     1     -10.326   4.076   5.079  1.00  0.00    -0.354 N 
ATOM     37  H   UNL     1      -9.625   3.457   5.488  1.00  0.00     0.163 HD
BRANCH  36  38
ATOM     38  C   UNL     1     -10.397   5.448   5.537  1.00  0.00     0.116 C 
BRANCH  38  39
ATOM     39  C   UNL     1      -9.010   5.923   5.967  1.00  0.00     0.023 C 
BRANCH  39  40
ATOM     40  C   UNL     1      -8.003   4.781   6.048  1.00  0.00     0.026 C 
BRANCH  40  41
ATOM     41  C   UNL     1      -6.854   5.001   5.063  1.00  0.00     0.146 C 
BRANCH  41  42
ATOM     42  N   UNL     1      -7.292   4.670   3.714  1.00  0.00    -0.254 NA
ATOM     43  C   UNL     1      -6.451   4.196   2.874  1.00  0.00     0.185 C 
ATOM     44  N   UNL     1      -5.141   3.927   3.019  1.00  0.00    -0.370 N 
ATOM     45  N   UNL     1      -6.874   3.902   1.633  1.00  0.00    -0.370 N 
ATOM     46  H   UNL     1      -4.553   3.791   2.214  1.00  0.00     0.159 HD
ATOM     47  H   UNL     1      -4.660   4.078   3.901  1.00  0.00     0.159 HD
ATOM     48  H   UNL     1      -7.852   4.067   1.442  1.00  0.00     0.159 HD
ATOM     49  H   UNL     1      -6.351   3.318   1.004  1.00  0.00     0.159 HD
ENDBRANCH  41  42
ENDBRANCH  40  41
ENDBRANCH  39  40
ENDBRANCH  38  39
ENDBRANCH  36  38
ENDBRANCH   5  34
BRANCH   8  50
ATOM     50  O   UNL     1     -10.833   3.592  -0.547  1.00  0.00    -0.245 OA
BRANCH  50  51
ATOM     51  S   UNL     1      -9.829   4.206  -1.669  1.00  0.00     0.397 S 
ATOM     52  O   UNL     1     -10.111   3.551  -2.927  1.00  0.00    -0.169 OA
ATOM     53  O   UNL     1      -8.485   4.276  -1.134  1.00  0.00    -0.169 OA
BRANCH  51  54
ATOM     54  O   UNL     1     -10.379   5.709  -1.825  1.00  0.00    -0.264 OA
ATOM     55  H   UNL     1     -10.679   6.010  -0.943  1.00  0.00     0.236 HD
ENDBRANCH  51  54
ENDBRANCH  50  51
ENDBRANCH   8  50
TORSDOF 19
ENDMDL
MODEL 40
REMARK VINA RESULT:    -4.997      4.902     10.484
REMARK INTER + INTRA:         -15.305
REMARK INTER:                 -11.926
REMARK INTRA:                  -3.378
REMARK UNBOUND:                -5.195
REMARK SMILES CC[C@@H](C)[C@@H](NC(=O)[C@@H](O)Cc1ccc(O)c(Cl)c1)C(=O)N1[C@H](C(=O)NCCCCN=C(N)N)C[C@H]2CC[C@H](OS(=O)(=O)O)C[C@@H]21
REMARK SMILES IDX 22 1 36 2 46 3 35 4 23 5 45 6 37 7 39 8 38 9 20 10 21 11
REMARK SMILES IDX 5 12 6 13 7 14 8 15 9 17 11 18 12 19 17 20 19 21 15 22 14 23
REMARK SMILES IDX 13 24 18 25 16 26 10 28 3 30 4 31 2 32 1 33 24 34 25 35
REMARK SMILES IDX 26 36 27 38 28 39 29 40 30 41 31 42 32 43 33 44 34 45 40 50
REMARK SMILES IDX 41 51 42 52 43 53 44 54
REMARK H PARENT 6 16 16 27 10 29 26 37 33 46 33 47 34 48 34 49 44 55
ROOT
ATOM      1  N   UNL     1       5.561   7.368   6.622  1.00  0.00    -0.326 N 
ATOM      2  C   UNL     1       6.299   7.787   8.818  1.00  0.00     0.014 C 
ATOM      3  C   UNL     1       5.039   7.559   7.979  1.00  0.00     0.091 C 
ATOM      4  C   UNL     1       7.207   8.544   7.861  1.00  0.00     0.041 C 
ATOM      5  C   UNL     1       7.002   7.717   6.579  1.00  0.00     0.175 C 
ATOM      6  C   UNL     1       4.235   6.425   8.612  1.00  0.00     0.059 C 
ATOM      7  C   UNL     1       5.954   8.403  10.159  1.00  0.00     0.008 C 
ATOM      8  C   UNL     1       4.373   6.348  10.148  1.00  0.00     0.143 C 
ATOM      9  C   UNL     1       4.712   7.718  10.768  1.00  0.00     0.034 C 
ENDROOT
BRANCH   1  10
ATOM     10  C   UNL     1       4.885   7.142   5.435  1.00  0.00     0.246 C 
ATOM     11  O   UNL     1       4.689   5.978   5.067  1.00  0.00    -0.272 OA
BRANCH  10  12
ATOM     12  C   UNL     1       4.351   8.351   4.614  1.00  0.00     0.174 C 
BRANCH  12  13
ATOM     13  N   UNL     1       4.805   8.251   3.227  1.00  0.00    -0.342 N 
ATOM     14  C   UNL     1       4.058   8.597   2.124  1.00  0.00     0.249 C 
ATOM     15  O   UNL     1       2.925   9.059   2.185  1.00  0.00    -0.272 OA
ATOM     16  H   UNL     1       5.659   7.742   3.012  1.00  0.00     0.164 HD
BRANCH  14  17
ATOM     17  C   UNL     1       4.809   8.361   0.797  1.00  0.00     0.207 C 
BRANCH  17  18
ATOM     18  C   UNL     1       6.323   8.455   1.015  1.00  0.00     0.077 C 
BRANCH  18  19
ATOM     19  C   UNL     1       7.024   7.165   0.652  1.00  0.00    -0.043 A 
ATOM     20  C   UNL     1       7.336   5.294  -0.860  1.00  0.00     0.083 A 
ATOM     21  C   UNL     1       6.724   6.510  -0.552  1.00  0.00     0.028 A 
ATOM     22  C   UNL     1       8.248   4.726   0.030  1.00  0.00     0.134 A 
ATOM     23  C   UNL     1       8.554   5.364   1.227  1.00  0.00     0.048 A 
ATOM     24  C   UNL     1       7.942   6.580   1.539  1.00  0.00     0.008 A 
ATOM     25  Cl  UNL     1       6.955   4.504  -2.345  1.00  0.00    -0.080 Cl
BRANCH  22  26
ATOM     26  O   UNL     1       8.865   3.531  -0.223  1.00  0.00    -0.506 OA
ATOM     27  H   UNL     1       9.133   3.165   0.640  1.00  0.00     0.293 HD
ENDBRANCH  22  26
ENDBRANCH  18  19
ENDBRANCH  17  18
BRANCH  17  28
ATOM     28  O   UNL     1       4.411   9.315  -0.201  1.00  0.00    -0.383 OA
ATOM     29  H   UNL     1       5.096  10.022  -0.189  1.00  0.00     0.211 HD
ENDBRANCH  17  28
ENDBRANCH  14  17
ENDBRANCH  12  13
BRANCH  12  30
ATOM     30  C   UNL     1       4.708   9.718   5.257  1.00  0.00     0.018 C 
ATOM     31  C   UNL     1       3.462  10.608   5.376  1.00  0.00     0.010 C 
BRANCH  30  32
ATOM     32  C   UNL     1       5.836  10.477   4.517  1.00  0.00     0.002 C 
ATOM     33  C   UNL     1       6.615  11.474   5.365  1.00  0.00     0.004 C 
ENDBRANCH  30  32
ENDBRANCH  12  30
ENDBRANCH  10  12
ENDBRANCH   1  10
BRANCH   5  34
ATOM     34  C   UNL     1       7.878   6.435   6.579  1.00  0.00     0.242 C 
ATOM     35  O   UNL     1       8.768   6.247   7.409  1.00  0.00    -0.273 OA
ATOM     36  N   UNL     1       7.625   5.552   5.554  1.00  0.00    -0.354 N 
ATOM     37  H   UNL     1       6.958   5.820   4.828  1.00  0.00     0.163 HD
BRANCH  36  38
ATOM     38  C   UNL     1       8.191   4.220   5.523  1.00  0.00     0.116 C 
BRANCH  38  39
ATOM     39  C   UNL     1       7.174   3.212   6.051  1.00  0.00     0.023 C 
BRANCH  39  40
ATOM     40  C   UNL     1       7.696   2.432   7.254  1.00  0.00     0.026 C 
BRANCH  40  41
ATOM     41  C   UNL     1       7.486   3.223   8.545  1.00  0.00     0.146 C 
BRANCH  41  42
ATOM     42  N   UNL     1       8.768   3.443   9.201  1.00  0.00    -0.254 NA
ATOM     43  C   UNL     1       9.012   2.874  10.322  1.00  0.00     0.185 C 
ATOM     44  N   UNL     1       8.245   2.049  11.058  1.00  0.00    -0.370 N 
ATOM     45  N   UNL     1      10.198   3.093  10.913  1.00  0.00    -0.370 N 
ATOM     46  H   UNL     1       8.461   1.874  12.025  1.00  0.00     0.159 HD
ATOM     47  H   UNL     1       7.319   1.766  10.751  1.00  0.00     0.159 HD
ATOM     48  H   UNL     1      10.840   3.698  10.419  1.00  0.00     0.159 HD
ATOM     49  H   UNL     1      10.553   2.513  11.652  1.00  0.00     0.159 HD
ENDBRANCH  41  42
ENDBRANCH  40  41
ENDBRANCH  39  40
ENDBRANCH  38  39
ENDBRANCH  36  38
ENDBRANCH   5  34
BRANCH   8  50
ATOM     50  O   UNL     1       5.402   5.423  10.502  1.00  0.00    -0.245 OA
BRANCH  50  51
ATOM     51  S   UNL     1       5.128   4.326  11.671  1.00  0.00     0.397 S 
ATOM     52  O   UNL     1       5.374   3.013  11.118  1.00  0.00    -0.169 OA
ATOM     53  O   UNL     1       3.892   4.644  12.356  1.00  0.00    -0.169 OA
BRANCH  51  54
ATOM     54  O   UNL     1       6.343   4.608  12.686  1.00  0.00    -0.264 OA
ATOM     55  H   UNL     1       5.966   4.990  13.505  1.00  0.00     0.236 HD
ENDBRANCH  51  54
ENDBRANCH  50  51
ENDBRANCH   8  50
TORSDOF 19
ENDMDL
MODEL 41
REMARK VINA RESULT:    -4.994     15.213     18.192
REMARK INTER + INTRA:         -15.298
REMARK INTER:                 -10.932
REMARK INTRA:                  -4.366
REMARK UNBOUND:                -5.195
REMARK SMILES CC[C@@H](C)[C@@H](NC(=O)[C@@H](O)Cc1ccc(O)c(Cl)c1)C(=O)N1[C@H](C(=O)NCCCCN=C(N)N)C[C@H]2CC[C@H](OS(=O)(=O)O)C[C@@H]21
REMARK SMILES IDX 22 1 36 2 46 3 35 4 23 5 45 6 37 7 39 8 38 9 20 10 21 11
REMARK SMILES IDX 5 12 6 13 7 14 8 15 9 17 11 18 12 19 17 20 19 21 15 22 14 23
REMARK SMILES IDX 13 24 18 25 16 26 10 28 3 30 4 31 2 32 1 33 24 34 25 35
REMARK SMILES IDX 26 36 27 38 28 39 29 40 30 41 31 42 32 43 33 44 34 45 40 50
REMARK SMILES IDX 41 51 42 52 43 53 44 54
REMARK H PARENT 6 16 16 27 10 29 26 37 33 46 33 47 34 48 34 49 44 55
ROOT
ATOM      1  N   UNL     1     -10.646   2.896   3.707  1.00  0.00    -0.326 N 
ATOM      2  C   UNL     1     -11.196   4.576   5.261  1.00  0.00     0.014 C 
ATOM      3  C   UNL     1     -10.876   3.083   5.142  1.00  0.00     0.091 C 
ATOM      4  C   UNL     1     -11.947   4.862   3.970  1.00  0.00     0.041 C 
ATOM      5  C   UNL     1     -11.054   4.114   2.964  1.00  0.00     0.175 C 
ATOM      6  C   UNL     1      -9.739   2.754   6.107  1.00  0.00     0.059 C 
ATOM      7  C   UNL     1     -11.857   4.884   6.590  1.00  0.00     0.008 C 
ATOM      8  C   UNL     1      -9.738   3.620   7.385  1.00  0.00     0.143 C 
ATOM      9  C   UNL     1     -11.148   4.134   7.738  1.00  0.00     0.034 C 
ENDROOT
BRANCH   1  10
ATOM     10  C   UNL     1     -10.337   1.746   3.000  1.00  0.00     0.246 C 
ATOM     11  O   UNL     1      -9.223   1.644   2.476  1.00  0.00    -0.272 OA
BRANCH  10  12
ATOM     12  C   UNL     1     -11.379   0.593   2.917  1.00  0.00     0.174 C 
BRANCH  12  13
ATOM     13  N   UNL     1     -11.378  -0.171   4.163  1.00  0.00    -0.342 N 
ATOM     14  C   UNL     1     -12.457  -0.308   5.008  1.00  0.00     0.249 C 
ATOM     15  O   UNL     1     -13.559   0.179   4.790  1.00  0.00    -0.272 OA
ATOM     16  H   UNL     1     -10.497  -0.499   4.552  1.00  0.00     0.164 HD
BRANCH  14  17
ATOM     17  C   UNL     1     -12.135  -1.162   6.252  1.00  0.00     0.207 C 
BRANCH  17  18
ATOM     18  C   UNL     1     -10.932  -0.581   7.003  1.00  0.00     0.077 C 
BRANCH  18  19
ATOM     19  C   UNL     1     -11.361   0.305   8.151  1.00  0.00    -0.043 A 
ATOM     20  C   UNL     1     -10.942   1.258  10.342  1.00  0.00     0.083 A 
ATOM     21  C   UNL     1     -10.522   0.480   9.263  1.00  0.00     0.028 A 
ATOM     22  C   UNL     1     -12.198   1.864  10.319  1.00  0.00     0.134 A 
ATOM     23  C   UNL     1     -13.039   1.700   9.224  1.00  0.00     0.048 A 
ATOM     24  C   UNL     1     -12.623   0.920   8.143  1.00  0.00     0.008 A 
ATOM     25  Cl  UNL     1      -9.897   1.461  11.699  1.00  0.00    -0.080 Cl
BRANCH  22  26
ATOM     26  O   UNL     1     -12.657   2.628  11.358  1.00  0.00    -0.506 OA
ATOM     27  H   UNL     1     -12.358   2.194  12.178  1.00  0.00     0.293 HD
ENDBRANCH  22  26
ENDBRANCH  18  19
ENDBRANCH  17  18
BRANCH  17  28
ATOM     28  O   UNL     1     -11.857  -2.524   5.888  1.00  0.00    -0.383 OA
ATOM     29  H   UNL     1     -11.575  -2.975   6.716  1.00  0.00     0.211 HD
ENDBRANCH  17  28
ENDBRANCH  14  17
ENDBRANCH  12  13
BRANCH  12  30
ATOM     30  C   UNL     1     -11.178  -0.308   1.669  1.00  0.00     0.018 C 
ATOM     31  C   UNL     1     -11.991   0.220   0.476  1.00  0.00     0.010 C 
BRANCH  30  32
ATOM     32  C   UNL     1     -11.511  -1.799   1.920  1.00  0.00     0.002 C 
ATOM     33  C   UNL     1     -12.989  -2.159   1.845  1.00  0.00     0.004 C 
ENDBRANCH  30  32
ENDBRANCH  12  30
ENDBRANCH  10  12
ENDBRANCH   1  10
BRANCH   5  34
ATOM     34  C   UNL     1      -9.813   4.956   2.564  1.00  0.00     0.242 C 
ATOM     35  O   UNL     1      -9.672   6.127   2.917  1.00  0.00    -0.273 OA
ATOM     36  N   UNL     1      -8.910   4.316   1.745  1.00  0.00    -0.354 N 
ATOM     37  H   UNL     1      -9.142   3.388   1.389  1.00  0.00     0.163 HD
BRANCH  36  38
ATOM     38  C   UNL     1      -7.604   4.869   1.453  1.00  0.00     0.116 C 
BRANCH  38  39
ATOM     39  C   UNL     1      -6.547   4.184   2.314  1.00  0.00     0.023 C 
BRANCH  39  40
ATOM     40  C   UNL     1      -6.050   5.076   3.447  1.00  0.00     0.026 C 
BRANCH  40  41
ATOM     41  C   UNL     1      -6.292   6.550   3.123  1.00  0.00     0.146 C 
BRANCH  41  42
ATOM     42  N   UNL     1      -6.008   7.365   4.296  1.00  0.00    -0.254 NA
ATOM     43  C   UNL     1      -6.913   7.531   5.186  1.00  0.00     0.185 C 
ATOM     44  N   UNL     1      -8.171   7.055   5.241  1.00  0.00    -0.370 N 
ATOM     45  N   UNL     1      -6.633   8.291   6.258  1.00  0.00    -0.370 N 
ATOM     46  H   UNL     1      -8.846   7.460   5.866  1.00  0.00     0.159 HD
ATOM     47  H   UNL     1      -8.543   6.450   4.515  1.00  0.00     0.159 HD
ATOM     48  H   UNL     1      -5.702   8.682   6.299  1.00  0.00     0.159 HD
ATOM     49  H   UNL     1      -7.188   8.276   7.095  1.00  0.00     0.159 HD
ENDBRANCH  41  42
ENDBRANCH  40  41
ENDBRANCH  39  40
ENDBRANCH  38  39
ENDBRANCH  36  38
ENDBRANCH   5  34
BRANCH   8  50
ATOM     50  O   UNL     1      -8.875   4.745   7.214  1.00  0.00    -0.245 OA
BRANCH  50  51
ATOM     51  S   UNL     1      -8.096   5.363   8.502  1.00  0.00     0.397 S 
ATOM     52  O   UNL     1      -7.832   4.282   9.424  1.00  0.00    -0.169 OA
ATOM     53  O   UNL     1      -8.752   6.582   8.928  1.00  0.00    -0.169 OA
BRANCH  51  54
ATOM     54  O   UNL     1      -6.671   5.760   7.872  1.00  0.00    -0.264 OA
ATOM     55  H   UNL     1      -6.534   6.718   8.025  1.00  0.00     0.236 HD
ENDBRANCH  51  54
ENDBRANCH  50  51
ENDBRANCH   8  50
TORSDOF 19
ENDMDL
MODEL 42
REMARK VINA RESULT:    -4.980      4.098      8.358
REMARK INTER + INTRA:         -15.269
REMARK INTER:                 -10.884
REMARK INTRA:                  -4.385
REMARK UNBOUND:                -5.195
REMARK SMILES CC[C@@H](C)[C@@H](NC(=O)[C@@H](O)Cc1ccc(O)c(Cl)c1)C(=O)N1[C@H](C(=O)NCCCCN=C(N)N)C[C@H]2CC[C@H](OS(=O)(=O)O)C[C@@H]21
REMARK SMILES IDX 22 1 36 2 46 3 35 4 23 5 45 6 37 7 39 8 38 9 20 10 21 11
REMARK SMILES IDX 5 12 6 13 7 14 8 15 9 17 11 18 12 19 17 20 19 21 15 22 14 23
REMARK SMILES IDX 13 24 18 25 16 26 10 28 3 30 4 31 2 32 1 33 24 34 25 35
REMARK SMILES IDX 26 36 27 38 28 39 29 40 30 41 31 42 32 43 33 44 34 45 40 50
REMARK SMILES IDX 41 51 42 52 43 53 44 54
REMARK H PARENT 6 16 16 27 10 29 26 37 33 46 33 47 34 48 34 49 44 55
ROOT
ATOM      1  N   UNL     1       8.023   2.400  13.816  1.00  0.00    -0.326 N 
ATOM      2  C   UNL     1       5.820   1.784  14.371  1.00  0.00     0.014 C 
ATOM      3  C   UNL     1       6.642   2.870  13.671  1.00  0.00     0.091 C 
ATOM      4  C   UNL     1       6.732   1.354  15.510  1.00  0.00     0.041 C 
ATOM      5  C   UNL     1       8.074   1.257  14.762  1.00  0.00     0.175 C 
ATOM      6  C   UNL     1       6.087   3.062  12.261  1.00  0.00     0.059 C 
ATOM      7  C   UNL     1       4.422   2.280  14.685  1.00  0.00     0.008 C 
ATOM      8  C   UNL     1       4.567   2.812  12.152  1.00  0.00     0.143 C 
ATOM      9  C   UNL     1       3.841   3.063  13.489  1.00  0.00     0.034 C 
ENDROOT
BRANCH   1  10
ATOM     10  C   UNL     1       9.207   2.982  13.396  1.00  0.00     0.246 C 
ATOM     11  O   UNL     1       9.650   3.957  14.011  1.00  0.00    -0.272 OA
BRANCH  10  12
ATOM     12  C   UNL     1       9.975   2.370  12.188  1.00  0.00     0.174 C 
BRANCH  12  13
ATOM     13  N   UNL     1       9.026   1.897  11.181  1.00  0.00    -0.342 N 
ATOM     14  C   UNL     1       8.828   2.475   9.948  1.00  0.00     0.249 C 
ATOM     15  O   UNL     1       9.454   3.447   9.542  1.00  0.00    -0.272 OA
ATOM     16  H   UNL     1       8.329   1.201  11.434  1.00  0.00     0.164 HD
BRANCH  14  17
ATOM     17  C   UNL     1       7.744   1.754   9.118  1.00  0.00     0.207 C 
BRANCH  17  18
ATOM     18  C   UNL     1       8.326   1.262   7.789  1.00  0.00     0.077 C 
BRANCH  18  19
ATOM     19  C   UNL     1       9.259   0.088   7.985  1.00  0.00    -0.043 A 
ATOM     20  C   UNL     1      11.499  -0.843   7.969  1.00  0.00     0.083 A 
ATOM     21  C   UNL     1      10.645   0.253   7.837  1.00  0.00     0.028 A 
ATOM     22  C   UNL     1      10.976  -2.106   8.247  1.00  0.00     0.134 A 
ATOM     23  C   UNL     1       9.605  -2.283   8.396  1.00  0.00     0.048 A 
ATOM     24  C   UNL     1       8.748  -1.189   8.262  1.00  0.00     0.008 A 
ATOM     25  Cl  UNL     1      13.199  -0.620   7.784  1.00  0.00    -0.080 Cl
BRANCH  22  26
ATOM     26  O   UNL     1      11.772  -3.212   8.375  1.00  0.00    -0.506 OA
ATOM     27  H   UNL     1      12.430  -3.167   7.657  1.00  0.00     0.293 HD
ENDBRANCH  22  26
ENDBRANCH  18  19
ENDBRANCH  17  18
BRANCH  17  28
ATOM     28  O   UNL     1       6.629   2.622   8.858  1.00  0.00    -0.383 OA
ATOM     29  H   UNL     1       6.135   2.692   9.707  1.00  0.00     0.211 HD
ENDBRANCH  17  28
ENDBRANCH  14  17
ENDBRANCH  12  13
BRANCH  12  30
ATOM     30  C   UNL     1      10.985   1.271  12.613  1.00  0.00     0.018 C 
ATOM     31  C   UNL     1      12.136   1.874  13.434  1.00  0.00     0.010 C 
BRANCH  30  32
ATOM     32  C   UNL     1      11.550   0.453  11.426  1.00  0.00     0.002 C 
ATOM     33  C   UNL     1      12.886  -0.231  11.684  1.00  0.00     0.004 C 
ENDBRANCH  30  32
ENDBRANCH  12  30
ENDBRANCH  10  12
ENDBRANCH   1  10
BRANCH   5  34
ATOM     34  C   UNL     1       8.206  -0.085  13.995  1.00  0.00     0.242 C 
ATOM     35  O   UNL     1       7.916  -0.194  12.803  1.00  0.00    -0.273 OA
ATOM     36  N   UNL     1       8.618  -1.157  14.756  1.00  0.00    -0.354 N 
ATOM     37  H   UNL     1       8.727  -1.031  15.763  1.00  0.00     0.163 HD
BRANCH  36  38
ATOM     38  C   UNL     1       8.999  -2.423  14.166  1.00  0.00     0.116 C 
BRANCH  38  39
ATOM     39  C   UNL     1      10.389  -2.308  13.544  1.00  0.00     0.023 C 
BRANCH  39  40
ATOM     40  C   UNL     1      10.475  -2.988  12.181  1.00  0.00     0.026 C 
BRANCH  40  41
ATOM     41  C   UNL     1      10.254  -4.495  12.313  1.00  0.00     0.146 C 
BRANCH  41  42
ATOM     42  N   UNL     1       9.107  -4.895  11.508  1.00  0.00    -0.254 NA
ATOM     43  C   UNL     1       9.293  -5.393  10.344  1.00  0.00     0.185 C 
ATOM     44  N   UNL     1      10.437  -5.632   9.677  1.00  0.00    -0.370 N 
ATOM     45  N   UNL     1       8.222  -5.752   9.616  1.00  0.00    -0.370 N 
ATOM     46  H   UNL     1      10.429  -5.794   8.685  1.00  0.00     0.159 HD
ATOM     47  H   UNL     1      11.344  -5.431  10.087  1.00  0.00     0.159 HD
ATOM     48  H   UNL     1       7.319  -5.613  10.049  1.00  0.00     0.159 HD
ATOM     49  H   UNL     1       8.286  -6.354   8.815  1.00  0.00     0.159 HD
ENDBRANCH  41  42
ENDBRANCH  40  41
ENDBRANCH  39  40
ENDBRANCH  38  39
ENDBRANCH  36  38
ENDBRANCH   5  34
BRANCH   8  50
ATOM     50  O   UNL     1       4.321   1.464  11.749  1.00  0.00    -0.245 OA
BRANCH  50  51
ATOM     51  S   UNL     1       3.061   1.136  10.774  1.00  0.00     0.397 S 
ATOM     52  O   UNL     1       1.900   0.909  11.606  1.00  0.00    -0.169 OA
ATOM     53  O   UNL     1       3.466   0.185   9.759  1.00  0.00    -0.169 OA
BRANCH  51  54
ATOM     54  O   UNL     1       2.814   2.553  10.055  1.00  0.00    -0.264 OA
ATOM     55  H   UNL     1       2.179   2.411   9.324  1.00  0.00     0.236 HD
ENDBRANCH  51  54
ENDBRANCH  50  51
ENDBRANCH   8  50
TORSDOF 19
ENDMDL
MODEL 43
REMARK VINA RESULT:    -4.959      3.485      8.218
REMARK INTER + INTRA:         -15.226
REMARK INTER:                 -12.172
REMARK INTRA:                  -3.055
REMARK UNBOUND:                -5.195
REMARK SMILES CC[C@@H](C)[C@@H](NC(=O)[C@@H](O)Cc1ccc(O)c(Cl)c1)C(=O)N1[C@H](C(=O)NCCCCN=C(N)N)C[C@H]2CC[C@H](OS(=O)(=O)O)C[C@@H]21
REMARK SMILES IDX 22 1 36 2 46 3 35 4 23 5 45 6 37 7 39 8 38 9 20 10 21 11
REMARK SMILES IDX 5 12 6 13 7 14 8 15 9 17 11 18 12 19 17 20 19 21 15 22 14 23
REMARK SMILES IDX 13 24 18 25 16 26 10 28 3 30 4 31 2 32 1 33 24 34 25 35
REMARK SMILES IDX 26 36 27 38 28 39 29 40 30 41 31 42 32 43 33 44 34 45 40 50
REMARK SMILES IDX 41 51 42 52 43 53 44 54
REMARK H PARENT 6 16 16 27 10 29 26 37 33 46 33 47 34 48 34 49 44 55
ROOT
ATOM      1  N   UNL     1       6.209   3.471  12.200  1.00  0.00    -0.326 N 
ATOM      2  C   UNL     1       7.805   2.200  13.374  1.00  0.00     0.014 C 
ATOM      3  C   UNL     1       7.561   3.580  12.756  1.00  0.00     0.091 C 
ATOM      4  C   UNL     1       7.069   1.271  12.421  1.00  0.00     0.041 C 
ATOM      5  C   UNL     1       5.759   2.058  12.232  1.00  0.00     0.175 C 
ATOM      6  C   UNL     1       7.821   4.640  13.825  1.00  0.00     0.059 C 
ATOM      7  C   UNL     1       9.282   1.977  13.637  1.00  0.00     0.008 C 
ATOM      8  C   UNL     1       8.910   4.242  14.844  1.00  0.00     0.143 C 
ATOM      9  C   UNL     1       9.922   3.241  14.248  1.00  0.00     0.034 C 
ENDROOT
BRANCH   1  10
ATOM     10  C   UNL     1       5.459   4.403  11.502  1.00  0.00     0.246 C 
ATOM     11  O   UNL     1       4.806   5.242  12.132  1.00  0.00    -0.272 OA
BRANCH  10  12
ATOM     12  C   UNL     1       5.488   4.401   9.946  1.00  0.00     0.174 C 
BRANCH  12  13
ATOM     13  N   UNL     1       6.823   4.040   9.473  1.00  0.00    -0.342 N 
ATOM     14  C   UNL     1       7.138   2.876   8.808  1.00  0.00     0.249 C 
ATOM     15  O   UNL     1       6.318   2.016   8.513  1.00  0.00    -0.272 OA
ATOM     16  H   UNL     1       7.629   4.579   9.780  1.00  0.00     0.164 HD
BRANCH  14  17
ATOM     17  C   UNL     1       8.638   2.779   8.455  1.00  0.00     0.207 C 
BRANCH  17  18
ATOM     18  C   UNL     1       9.384   1.954   9.509  1.00  0.00     0.077 C 
BRANCH  18  19
ATOM     19  C   UNL     1       9.455   0.492   9.130  1.00  0.00    -0.043 A 
ATOM     20  C   UNL     1       9.173  -1.271   7.488  1.00  0.00     0.083 A 
ATOM     21  C   UNL     1       9.155   0.084   7.821  1.00  0.00     0.028 A 
ATOM     22  C   UNL     1       9.490  -2.224   8.457  1.00  0.00     0.134 A 
ATOM     23  C   UNL     1       9.790  -1.834   9.757  1.00  0.00     0.048 A 
ATOM     24  C   UNL     1       9.771  -0.479  10.094  1.00  0.00     0.008 A 
ATOM     25  Cl  UNL     1       8.800  -1.753   5.875  1.00  0.00    -0.080 Cl
BRANCH  22  26
ATOM     26  O   UNL     1       9.511  -3.565   8.180  1.00  0.00    -0.506 OA
ATOM     27  H   UNL     1      10.442  -3.801   8.009  1.00  0.00     0.293 HD
ENDBRANCH  22  26
ENDBRANCH  18  19
ENDBRANCH  17  18
BRANCH  17  28
ATOM     28  O   UNL     1       9.233   4.083   8.362  1.00  0.00    -0.383 OA
ATOM     29  H   UNL     1       8.525   4.682   8.032  1.00  0.00     0.211 HD
ENDBRANCH  17  28
ENDBRANCH  14  17
ENDBRANCH  12  13
BRANCH  12  30
ATOM     30  C   UNL     1       4.983   5.737   9.336  1.00  0.00     0.018 C 
ATOM     31  C   UNL     1       4.304   5.495   7.979  1.00  0.00     0.010 C 
BRANCH  30  32
ATOM     32  C   UNL     1       6.088   6.812   9.194  1.00  0.00     0.002 C 
ATOM     33  C   UNL     1       5.783   8.150   9.855  1.00  0.00     0.004 C 
ENDBRANCH  30  32
ENDBRANCH  12  30
ENDBRANCH  10  12
ENDBRANCH   1  10
BRANCH   5  34
ATOM     34  C   UNL     1       4.774   1.821  13.408  1.00  0.00     0.242 C 
ATOM     35  O   UNL     1       4.401   2.731  14.147  1.00  0.00    -0.273 OA
ATOM     36  N   UNL     1       4.393   0.511  13.597  1.00  0.00    -0.354 N 
ATOM     37  H   UNL     1       4.829  -0.215  13.028  1.00  0.00     0.163 HD
BRANCH  36  38
ATOM     38  C   UNL     1       3.323   0.141  14.501  1.00  0.00     0.116 C 
BRANCH  38  39
ATOM     39  C   UNL     1       2.015   0.003  13.726  1.00  0.00     0.023 C 
BRANCH  39  40
ATOM     40  C   UNL     1       2.172  -0.832  12.460  1.00  0.00     0.026 C 
BRANCH  40  41
ATOM     41  C   UNL     1       2.290  -2.318  12.801  1.00  0.00     0.146 C 
BRANCH  41  42
ATOM     42  N   UNL     1       1.175  -2.718  13.649  1.00  0.00    -0.254 NA
ATOM     43  C   UNL     1       0.994  -3.958  13.913  1.00  0.00     0.185 C 
ATOM     44  N   UNL     1       1.697  -5.037  13.524  1.00  0.00    -0.370 N 
ATOM     45  N   UNL     1      -0.043  -4.307  14.692  1.00  0.00    -0.370 N 
ATOM     46  H   UNL     1       1.304  -5.960  13.601  1.00  0.00     0.159 HD
ATOM     47  H   UNL     1       2.523  -4.953  12.940  1.00  0.00     0.159 HD
ATOM     48  H   UNL     1      -0.620  -3.551  15.036  1.00  0.00     0.159 HD
ATOM     49  H   UNL     1      -0.114  -5.207  15.132  1.00  0.00     0.159 HD
ENDBRANCH  41  42
ENDBRANCH  40  41
ENDBRANCH  39  40
ENDBRANCH  38  39
ENDBRANCH  36  38
ENDBRANCH   5  34
BRANCH   8  50
ATOM     50  O   UNL     1       8.311   3.648  15.996  1.00  0.00    -0.245 OA
BRANCH  50  51
ATOM     51  S   UNL     1       8.212   4.500  17.378  1.00  0.00     0.397 S 
ATOM     52  O   UNL     1       7.371   5.650  17.134  1.00  0.00    -0.169 OA
ATOM     53  O   UNL     1       9.530   4.633  17.962  1.00  0.00    -0.169 OA
BRANCH  51  54
ATOM     54  O   UNL     1       7.350   3.519  18.316  1.00  0.00    -0.264 OA
ATOM     55  H   UNL     1       7.734   2.621  18.241  1.00  0.00     0.236 HD
ENDBRANCH  51  54
ENDBRANCH  50  51
ENDBRANCH   8  50
TORSDOF 19
ENDMDL
MODEL 44
REMARK VINA RESULT:    -4.927      2.876      6.413
REMARK INTER + INTRA:         -15.162
REMARK INTER:                 -12.061
REMARK INTRA:                  -3.100
REMARK UNBOUND:                -5.195
REMARK SMILES CC[C@@H](C)[C@@H](NC(=O)[C@@H](O)Cc1ccc(O)c(Cl)c1)C(=O)N1[C@H](C(=O)NCCCCN=C(N)N)C[C@H]2CC[C@H](OS(=O)(=O)O)C[C@@H]21
REMARK SMILES IDX 22 1 36 2 46 3 35 4 23 5 45 6 37 7 39 8 38 9 20 10 21 11
REMARK SMILES IDX 5 12 6 13 7 14 8 15 9 17 11 18 12 19 17 20 19 21 15 22 14 23
REMARK SMILES IDX 13 24 18 25 16 26 10 28 3 30 4 31 2 32 1 33 24 34 25 35
REMARK SMILES IDX 26 36 27 38 28 39 29 40 30 41 31 42 32 43 33 44 34 45 40 50
REMARK SMILES IDX 41 51 42 52 43 53 44 54
REMARK H PARENT 6 16 16 27 10 29 26 37 33 46 33 47 34 48 34 49 44 55
ROOT
ATOM      1  N   UNL     1       5.971   4.280  10.261  1.00  0.00    -0.326 N 
ATOM      2  C   UNL     1       5.290   4.659   8.040  1.00  0.00     0.014 C 
ATOM      3  C   UNL     1       6.490   4.777   8.984  1.00  0.00     0.091 C 
ATOM      4  C   UNL     1       4.114   4.964   8.954  1.00  0.00     0.041 C 
ATOM      5  C   UNL     1       4.498   4.120  10.184  1.00  0.00     0.175 C 
ATOM      6  C   UNL     1       7.676   4.050   8.351  1.00  0.00     0.059 C 
ATOM      7  C   UNL     1       5.498   5.494   6.792  1.00  0.00     0.008 C 
ATOM      8  C   UNL     1       7.680   4.096   6.808  1.00  0.00     0.143 C 
ATOM      9  C   UNL     1       6.938   5.333   6.262  1.00  0.00     0.034 C 
ENDROOT
BRANCH   1  10
ATOM     10  C   UNL     1       6.599   4.167  11.490  1.00  0.00     0.246 C 
ATOM     11  O   UNL     1       6.451   5.066  12.325  1.00  0.00    -0.272 OA
BRANCH  10  12
ATOM     12  C   UNL     1       7.437   2.895  11.810  1.00  0.00     0.174 C 
BRANCH  12  13
ATOM     13  N   UNL     1       7.095   2.393  13.140  1.00  0.00    -0.342 N 
ATOM     14  C   UNL     1       6.120   1.456  13.404  1.00  0.00     0.249 C 
ATOM     15  O   UNL     1       5.444   0.913  12.539  1.00  0.00    -0.272 OA
ATOM     16  H   UNL     1       7.460   2.861  13.965  1.00  0.00     0.164 HD
BRANCH  14  17
ATOM     17  C   UNL     1       5.985   1.146  14.910  1.00  0.00     0.207 C 
BRANCH  17  18
ATOM     18  C   UNL     1       7.319   0.646  15.475  1.00  0.00     0.077 C 
BRANCH  18  19
ATOM     19  C   UNL     1       7.824  -0.570  14.731  1.00  0.00    -0.043 A 
ATOM     20  C   UNL     1       7.887  -2.976  14.432  1.00  0.00     0.083 A 
ATOM     21  C   UNL     1       7.381  -1.853  15.087  1.00  0.00     0.028 A 
ATOM     22  C   UNL     1       8.836  -2.826  13.421  1.00  0.00     0.134 A 
ATOM     23  C   UNL     1       9.284  -1.561  13.058  1.00  0.00     0.048 A 
ATOM     24  C   UNL     1       8.781  -0.435  13.713  1.00  0.00     0.008 A 
ATOM     25  Cl  UNL     1       7.330  -4.545  14.883  1.00  0.00    -0.080 Cl
BRANCH  22  26
ATOM     26  O   UNL     1       9.369  -3.898  12.757  1.00  0.00    -0.506 OA
ATOM     27  H   UNL     1       8.756  -4.644  12.892  1.00  0.00     0.293 HD
ENDBRANCH  22  26
ENDBRANCH  18  19
ENDBRANCH  17  18
BRANCH  17  28
ATOM     28  O   UNL     1       4.968   0.159  15.145  1.00  0.00    -0.383 OA
ATOM     29  H   UNL     1       5.427  -0.615  15.545  1.00  0.00     0.211 HD
ENDBRANCH  17  28
ENDBRANCH  14  17
ENDBRANCH  12  13
BRANCH  12  30
ATOM     30  C   UNL     1       8.963   3.124  11.638  1.00  0.00     0.018 C 
ATOM     31  C   UNL     1       9.603   1.972  10.848  1.00  0.00     0.010 C 
BRANCH  30  32
ATOM     32  C   UNL     1       9.714   3.334  12.975  1.00  0.00     0.002 C 
ATOM     33  C   UNL     1      11.094   2.694  13.054  1.00  0.00     0.004 C 
ENDBRANCH  30  32
ENDBRANCH  12  30
ENDBRANCH  10  12
ENDBRANCH   1  10
BRANCH   5  34
ATOM     34  C   UNL     1       4.115   2.628   9.996  1.00  0.00     0.242 C 
ATOM     35  O   UNL     1       4.791   1.856   9.315  1.00  0.00    -0.273 OA
ATOM     36  N   UNL     1       2.939   2.245  10.600  1.00  0.00    -0.354 N 
ATOM     37  H   UNL     1       2.362   2.957  11.050  1.00  0.00     0.163 HD
BRANCH  36  38
ATOM     38  C   UNL     1       2.543   0.856  10.710  1.00  0.00     0.116 C 
BRANCH  38  39
ATOM     39  C   UNL     1       1.980   0.586  12.103  1.00  0.00     0.023 C 
BRANCH  39  40
ATOM     40  C   UNL     1       2.139  -0.871  12.524  1.00  0.00     0.026 C 
BRANCH  40  41
ATOM     41  C   UNL     1       1.360  -1.152  13.809  1.00  0.00     0.146 C 
BRANCH  41  42
ATOM     42  N   UNL     1       2.245  -1.020  14.960  1.00  0.00    -0.254 NA
ATOM     43  C   UNL     1       2.226  -1.912  15.878  1.00  0.00     0.185 C 
ATOM     44  N   UNL     1       1.486  -3.031  15.982  1.00  0.00    -0.370 N 
ATOM     45  N   UNL     1       3.046  -1.770  16.932  1.00  0.00    -0.370 N 
ATOM     46  H   UNL     1       1.397  -3.507  16.864  1.00  0.00     0.159 HD
ATOM     47  H   UNL     1       0.822  -3.300  15.263  1.00  0.00     0.159 HD
ATOM     48  H   UNL     1       3.645  -0.956  16.928  1.00  0.00     0.159 HD
ATOM     49  H   UNL     1       3.261  -2.525  17.559  1.00  0.00     0.159 HD
ENDBRANCH  41  42
ENDBRANCH  40  41
ENDBRANCH  39  40
ENDBRANCH  38  39
ENDBRANCH  36  38
ENDBRANCH   5  34
BRANCH   8  50
ATOM     50  O   UNL     1       7.057   2.924   6.281  1.00  0.00    -0.245 OA
BRANCH  50  51
ATOM     51  S   UNL     1       7.566   2.313   4.862  1.00  0.00     0.397 S 
ATOM     52  O   UNL     1       8.224   3.372   4.130  1.00  0.00    -0.169 OA
ATOM     53  O   UNL     1       6.510   1.520   4.267  1.00  0.00    -0.169 OA
BRANCH  51  54
ATOM     54  O   UNL     1       8.735   1.311   5.328  1.00  0.00    -0.264 OA
ATOM     55  H   UNL     1       8.876   1.444   6.288  1.00  0.00     0.236 HD
ENDBRANCH  51  54
ENDBRANCH  50  51
ENDBRANCH   8  50
TORSDOF 19
ENDMDL
MODEL 45
REMARK VINA RESULT:    -4.926      3.635      7.644
REMARK INTER + INTRA:         -15.160
REMARK INTER:                 -12.695
REMARK INTRA:                  -2.465
REMARK UNBOUND:                -5.195
REMARK SMILES CC[C@@H](C)[C@@H](NC(=O)[C@@H](O)Cc1ccc(O)c(Cl)c1)C(=O)N1[C@H](C(=O)NCCCCN=C(N)N)C[C@H]2CC[C@H](OS(=O)(=O)O)C[C@@H]21
REMARK SMILES IDX 22 1 36 2 46 3 35 4 23 5 45 6 37 7 39 8 38 9 20 10 21 11
REMARK SMILES IDX 5 12 6 13 7 14 8 15 9 17 11 18 12 19 17 20 19 21 15 22 14 23
REMARK SMILES IDX 13 24 18 25 16 26 10 28 3 30 4 31 2 32 1 33 24 34 25 35
REMARK SMILES IDX 26 36 27 38 28 39 29 40 30 41 31 42 32 43 33 44 34 45 40 50
REMARK SMILES IDX 41 51 42 52 43 53 44 54
REMARK H PARENT 6 16 16 27 10 29 26 37 33 46 33 47 34 48 34 49 44 55
ROOT
ATOM      1  N   UNL     1       7.046   2.946  12.816  1.00  0.00    -0.326 N 
ATOM      2  C   UNL     1       8.455   1.308  13.752  1.00  0.00     0.014 C 
ATOM      3  C   UNL     1       8.375   2.354  12.637  1.00  0.00     0.091 C 
ATOM      4  C   UNL     1       7.021   0.809  13.846  1.00  0.00     0.041 C 
ATOM      5  C   UNL     1       6.262   2.148  13.791  1.00  0.00     0.175 C 
ATOM      6  C   UNL     1       9.595   3.268  12.743  1.00  0.00     0.059 C 
ATOM      7  C   UNL     1       9.571   0.317  13.488  1.00  0.00     0.008 C 
ATOM      8  C   UNL     1      10.856   2.560  13.285  1.00  0.00     0.143 C 
ATOM      9  C   UNL     1      10.839   1.046  12.996  1.00  0.00     0.034 C 
ENDROOT
BRANCH   1  10
ATOM     10  C   UNL     1       6.409   3.935  12.086  1.00  0.00     0.246 C 
ATOM     11  O   UNL     1       6.475   5.106  12.474  1.00  0.00    -0.272 OA
BRANCH  10  12
ATOM     12  C   UNL     1       5.661   3.558  10.774  1.00  0.00     0.174 C 
BRANCH  12  13
ATOM     13  N   UNL     1       4.801   2.398  11.005  1.00  0.00    -0.342 N 
ATOM     14  C   UNL     1       3.490   2.293  10.599  1.00  0.00     0.249 C 
ATOM     15  O   UNL     1       2.900   3.160   9.966  1.00  0.00    -0.272 OA
ATOM     16  H   UNL     1       5.100   1.670  11.649  1.00  0.00     0.164 HD
BRANCH  14  17
ATOM     17  C   UNL     1       2.845   0.951  11.009  1.00  0.00     0.207 C 
BRANCH  17  18
ATOM     18  C   UNL     1       2.882   0.783  12.531  1.00  0.00     0.077 C 
BRANCH  18  19
ATOM     19  C   UNL     1       2.764  -0.669  12.938  1.00  0.00    -0.043 A 
ATOM     20  C   UNL     1       3.787  -2.719  13.734  1.00  0.00     0.083 A 
ATOM     21  C   UNL     1       3.889  -1.367  13.406  1.00  0.00     0.028 A 
ATOM     22  C   UNL     1       2.567  -3.382  13.596  1.00  0.00     0.134 A 
ATOM     23  C   UNL     1       1.446  -2.703  13.134  1.00  0.00     0.048 A 
ATOM     24  C   UNL     1       1.544  -1.350  12.803  1.00  0.00     0.008 A 
ATOM     25  Cl  UNL     1       5.180  -3.560  14.308  1.00  0.00    -0.080 Cl
BRANCH  22  26
ATOM     26  O   UNL     1       2.422  -4.710  13.895  1.00  0.00    -0.506 OA
ATOM     27  H   UNL     1       1.527  -4.966  13.606  1.00  0.00     0.293 HD
ENDBRANCH  22  26
ENDBRANCH  18  19
ENDBRANCH  17  18
BRANCH  17  28
ATOM     28  O   UNL     1       3.518  -0.157  10.390  1.00  0.00    -0.383 OA
ATOM     29  H   UNL     1       2.829  -0.841  10.234  1.00  0.00     0.211 HD
ENDBRANCH  17  28
ENDBRANCH  14  17
ENDBRANCH  12  13
BRANCH  12  30
ATOM     30  C   UNL     1       6.623   3.352   9.573  1.00  0.00     0.018 C 
ATOM     31  C   UNL     1       6.049   3.987   8.297  1.00  0.00     0.010 C 
BRANCH  30  32
ATOM     32  C   UNL     1       6.984   1.869   9.314  1.00  0.00     0.002 C 
ATOM     33  C   UNL     1       7.871   1.617   8.101  1.00  0.00     0.004 C 
ENDBRANCH  30  32
ENDBRANCH  12  30
ENDBRANCH  10  12
ENDBRANCH   1  10
BRANCH   5  34
ATOM     34  C   UNL     1       6.233   2.846  15.177  1.00  0.00     0.242 C 
ATOM     35  O   UNL     1       7.031   3.731  15.485  1.00  0.00    -0.273 OA
ATOM     36  N   UNL     1       5.285   2.368  16.054  1.00  0.00    -0.354 N 
ATOM     37  H   UNL     1       4.733   1.553  15.784  1.00  0.00     0.163 HD
BRANCH  36  38
ATOM     38  C   UNL     1       4.975   3.040  17.299  1.00  0.00     0.116 C 
BRANCH  38  39
ATOM     39  C   UNL     1       3.887   4.086  17.067  1.00  0.00     0.023 C 
BRANCH  39  40
ATOM     40  C   UNL     1       3.592   4.907  18.317  1.00  0.00     0.026 C 
BRANCH  40  41
ATOM     41  C   UNL     1       2.460   5.901  18.058  1.00  0.00     0.146 C 
BRANCH  41  42
ATOM     42  N   UNL     1       2.164   5.949  16.632  1.00  0.00    -0.254 NA
ATOM     43  C   UNL     1       1.124   6.573  16.222  1.00  0.00     0.185 C 
ATOM     44  N   UNL     1       0.186   7.242  16.917  1.00  0.00    -0.370 N 
ATOM     45  N   UNL     1       0.866   6.602  14.904  1.00  0.00    -0.370 N 
ATOM     46  H   UNL     1      -0.698   7.472  16.496  1.00  0.00     0.159 HD
ATOM     47  H   UNL     1       0.234   7.331  17.928  1.00  0.00     0.159 HD
ATOM     48  H   UNL     1       1.530   6.128  14.307  1.00  0.00     0.159 HD
ATOM     49  H   UNL     1       0.223   7.253  14.490  1.00  0.00     0.159 HD
ENDBRANCH  41  42
ENDBRANCH  40  41
ENDBRANCH  39  40
ENDBRANCH  38  39
ENDBRANCH  36  38
ENDBRANCH   5  34
BRANCH   8  50
ATOM     50  O   UNL     1      10.956   2.751  14.697  1.00  0.00    -0.245 OA
BRANCH  50  51
ATOM     51  S   UNL     1      12.420   2.927  15.381  1.00  0.00     0.397 S 
ATOM     52  O   UNL     1      13.197   1.744  15.085  1.00  0.00    -0.169 OA
ATOM     53  O   UNL     1      12.268   3.417  16.736  1.00  0.00    -0.169 OA
BRANCH  51  54
ATOM     54  O   UNL     1      13.064   4.106  14.497  1.00  0.00    -0.264 OA
ATOM     55  H   UNL     1      12.354   4.481  13.937  1.00  0.00     0.236 HD
ENDBRANCH  51  54
ENDBRANCH  50  51
ENDBRANCH   8  50
TORSDOF 19
ENDMDL
MODEL 46
REMARK VINA RESULT:    -4.912     13.479     16.217
REMARK INTER + INTRA:         -15.132
REMARK INTER:                 -10.231
REMARK INTRA:                  -4.901
REMARK UNBOUND:                -5.195
REMARK SMILES CC[C@@H](C)[C@@H](NC(=O)[C@@H](O)Cc1ccc(O)c(Cl)c1)C(=O)N1[C@H](C(=O)NCCCCN=C(N)N)C[C@H]2CC[C@H](OS(=O)(=O)O)C[C@@H]21
REMARK SMILES IDX 22 1 36 2 46 3 35 4 23 5 45 6 37 7 39 8 38 9 20 10 21 11
REMARK SMILES IDX 5 12 6 13 7 14 8 15 9 17 11 18 12 19 17 20 19 21 15 22 14 23
REMARK SMILES IDX 13 24 18 25 16 26 10 28 3 30 4 31 2 32 1 33 24 34 25 35
REMARK SMILES IDX 26 36 27 38 28 39 29 40 30 41 31 42 32 43 33 44 34 45 40 50
REMARK SMILES IDX 41 51 42 52 43 53 44 54
REMARK H PARENT 6 16 16 27 10 29 26 37 33 46 33 47 34 48 34 49 44 55
ROOT
ATOM      1  N   UNL     1       9.433   5.761  -2.272  1.00  0.00    -0.326 N 
ATOM      2  C   UNL     1      11.004   7.054  -3.456  1.00  0.00     0.014 C 
ATOM      3  C   UNL     1      10.608   5.610  -3.135  1.00  0.00     0.091 C 
ATOM      4  C   UNL     1      10.659   7.790  -2.170  1.00  0.00     0.041 C 
ATOM      5  C   UNL     1       9.276   7.181  -1.872  1.00  0.00     0.175 C 
ATOM      6  C   UNL     1      10.448   4.850  -4.450  1.00  0.00     0.059 C 
ATOM      7  C   UNL     1      12.421   7.122  -3.993  1.00  0.00     0.008 C 
ATOM      8  C   UNL     1      11.387   5.344  -5.572  1.00  0.00     0.143 C 
ATOM      9  C   UNL     1      12.671   5.989  -5.011  1.00  0.00     0.034 C 
ENDROOT
BRANCH   1  10
ATOM     10  C   UNL     1       8.655   4.796  -1.656  1.00  0.00     0.246 C 
ATOM     11  O   UNL     1       8.506   4.836  -0.430  1.00  0.00    -0.272 OA
BRANCH  10  12
ATOM     12  C   UNL     1       7.951   3.711  -2.521  1.00  0.00     0.174 C 
BRANCH  12  13
ATOM     13  N   UNL     1       6.756   4.273  -3.150  1.00  0.00    -0.342 N 
ATOM     14  C   UNL     1       6.533   4.336  -4.507  1.00  0.00     0.249 C 
ATOM     15  O   UNL     1       7.309   3.899  -5.347  1.00  0.00    -0.272 OA
ATOM     16  H   UNL     1       6.099   4.812  -2.592  1.00  0.00     0.164 HD
BRANCH  14  17
ATOM     17  C   UNL     1       5.185   5.002  -4.859  1.00  0.00     0.207 C 
BRANCH  17  18
ATOM     18  C   UNL     1       4.029   4.262  -4.179  1.00  0.00     0.077 C 
BRANCH  18  19
ATOM     19  C   UNL     1       3.213   5.183  -3.299  1.00  0.00    -0.043 A 
ATOM     20  C   UNL     1       3.087   6.812  -1.506  1.00  0.00     0.083 A 
ATOM     21  C   UNL     1       3.846   6.000  -2.349  1.00  0.00     0.028 A 
ATOM     22  C   UNL     1       1.695   6.812  -1.603  1.00  0.00     0.134 A 
ATOM     23  C   UNL     1       1.055   6.008  -2.539  1.00  0.00     0.048 A 
ATOM     24  C   UNL     1       1.812   5.193  -3.384  1.00  0.00     0.008 A 
ATOM     25  Cl  UNL     1       3.883   7.809  -0.345  1.00  0.00    -0.080 Cl
BRANCH  22  26
ATOM     26  O   UNL     1       0.908   7.583  -0.791  1.00  0.00    -0.506 OA
ATOM     27  H   UNL     1       0.580   6.998  -0.083  1.00  0.00     0.293 HD
ENDBRANCH  22  26
ENDBRANCH  18  19
ENDBRANCH  17  18
BRANCH  17  28
ATOM     28  O   UNL     1       4.971   5.017  -6.280  1.00  0.00    -0.383 OA
ATOM     29  H   UNL     1       4.450   4.207  -6.485  1.00  0.00     0.211 HD
ENDBRANCH  17  28
ENDBRANCH  14  17
ENDBRANCH  12  13
BRANCH  12  30
ATOM     30  C   UNL     1       7.647   2.413  -1.725  1.00  0.00     0.018 C 
ATOM     31  C   UNL     1       8.840   1.447  -1.780  1.00  0.00     0.010 C 
BRANCH  30  32
ATOM     32  C   UNL     1       6.356   1.691  -2.183  1.00  0.00     0.002 C 
ATOM     33  C   UNL     1       6.170   0.281  -1.638  1.00  0.00     0.004 C 
ENDBRANCH  30  32
ENDBRANCH  12  30
ENDBRANCH  10  12
ENDBRANCH   1  10
BRANCH   5  34
ATOM     34  C   UNL     1       8.158   7.867  -2.702  1.00  0.00     0.242 C 
ATOM     35  O   UNL     1       7.366   7.227  -3.393  1.00  0.00    -0.273 OA
ATOM     36  N   UNL     1       8.151   9.243  -2.651  1.00  0.00    -0.354 N 
ATOM     37  H   UNL     1       8.906   9.720  -2.158  1.00  0.00     0.163 HD
BRANCH  36  38
ATOM     38  C   UNL     1       7.059  10.030  -3.185  1.00  0.00     0.116 C 
BRANCH  38  39
ATOM     39  C   UNL     1       7.587  11.005  -4.234  1.00  0.00     0.023 C 
BRANCH  39  40
ATOM     40  C   UNL     1       7.398  10.489  -5.657  1.00  0.00     0.026 C 
BRANCH  40  41
ATOM     41  C   UNL     1       6.298   9.428  -5.706  1.00  0.00     0.146 C 
BRANCH  41  42
ATOM     42  N   UNL     1       6.260   8.820  -7.030  1.00  0.00    -0.254 NA
ATOM     43  C   UNL     1       6.908   7.737  -7.247  1.00  0.00     0.185 C 
ATOM     44  N   UNL     1       7.672   7.004  -6.417  1.00  0.00    -0.370 N 
ATOM     45  N   UNL     1       6.863   7.195  -8.475  1.00  0.00    -0.370 N 
ATOM     46  H   UNL     1       8.313   6.319  -6.781  1.00  0.00     0.159 HD
ATOM     47  H   UNL     1       7.803   7.264  -5.445  1.00  0.00     0.159 HD
ATOM     48  H   UNL     1       6.301   7.681  -9.160  1.00  0.00     0.159 HD
ATOM     49  H   UNL     1       7.138   6.246  -8.661  1.00  0.00     0.159 HD
ENDBRANCH  41  42
ENDBRANCH  40  41
ENDBRANCH  39  40
ENDBRANCH  38  39
ENDBRANCH  36  38
ENDBRANCH   5  34
BRANCH   8  50
ATOM     50  O   UNL     1      10.715   6.306  -6.385  1.00  0.00    -0.245 OA
BRANCH  50  51
ATOM     51  S   UNL     1      11.237   6.581  -7.901  1.00  0.00     0.397 S 
ATOM     52  O   UNL     1      11.780   5.344  -8.417  1.00  0.00    -0.169 OA
ATOM     53  O   UNL     1      11.991   7.816  -7.939  1.00  0.00    -0.169 OA
BRANCH  51  54
ATOM     54  O   UNL     1       9.857   6.817  -8.693  1.00  0.00    -0.264 OA
ATOM     55  H   UNL     1       9.573   7.739  -8.528  1.00  0.00     0.236 HD
ENDBRANCH  51  54
ENDBRANCH  50  51
ENDBRANCH   8  50
TORSDOF 19
ENDMDL
MODEL 47
REMARK VINA RESULT:    -4.901      7.887     11.912
REMARK INTER + INTRA:         -15.110
REMARK INTER:                 -12.307
REMARK INTRA:                  -2.803
REMARK UNBOUND:                -5.195
REMARK SMILES CC[C@@H](C)[C@@H](NC(=O)[C@@H](O)Cc1ccc(O)c(Cl)c1)C(=O)N1[C@H](C(=O)NCCCCN=C(N)N)C[C@H]2CC[C@H](OS(=O)(=O)O)C[C@@H]21
REMARK SMILES IDX 22 1 36 2 46 3 35 4 23 5 45 6 37 7 39 8 38 9 20 10 21 11
REMARK SMILES IDX 5 12 6 13 7 14 8 15 9 17 11 18 12 19 17 20 19 21 15 22 14 23
REMARK SMILES IDX 13 24 18 25 16 26 10 28 3 30 4 31 2 32 1 33 24 34 25 35
REMARK SMILES IDX 26 36 27 38 28 39 29 40 30 41 31 42 32 43 33 44 34 45 40 50
REMARK SMILES IDX 41 51 42 52 43 53 44 54
REMARK H PARENT 6 16 16 27 10 29 26 37 33 46 33 47 34 48 34 49 44 55
ROOT
ATOM      1  N   UNL     1       8.195   6.419  -0.431  1.00  0.00    -0.326 N 
ATOM      2  C   UNL     1       8.637   5.710  -2.632  1.00  0.00     0.014 C 
ATOM      3  C   UNL     1       8.450   5.198  -1.201  1.00  0.00     0.091 C 
ATOM      4  C   UNL     1       9.320   7.053  -2.420  1.00  0.00     0.041 C 
ATOM      5  C   UNL     1       8.468   7.614  -1.267  1.00  0.00     0.175 C 
ATOM      6  C   UNL     1       7.377   4.111  -1.213  1.00  0.00     0.059 C 
ATOM      7  C   UNL     1       9.308   4.663  -3.499  1.00  0.00     0.008 C 
ATOM      8  C   UNL     1       7.336   3.293  -2.522  1.00  0.00     0.143 C 
ATOM      9  C   UNL     1       8.705   3.268  -3.232  1.00  0.00     0.034 C 
ENDROOT
BRANCH   1  10
ATOM     10  C   UNL     1       7.969   6.582   0.925  1.00  0.00     0.246 C 
ATOM     11  O   UNL     1       6.816   6.776   1.324  1.00  0.00    -0.272 OA
BRANCH  10  12
ATOM     12  C   UNL     1       9.162   6.476   1.919  1.00  0.00     0.174 C 
BRANCH  12  13
ATOM     13  N   UNL     1       8.712   6.795   3.274  1.00  0.00    -0.342 N 
ATOM     14  C   UNL     1       8.305   5.870   4.209  1.00  0.00     0.249 C 
ATOM     15  O   UNL     1       8.301   4.661   4.016  1.00  0.00    -0.272 OA
ATOM     16  H   UNL     1       8.514   7.760   3.525  1.00  0.00     0.164 HD
BRANCH  14  17
ATOM     17  C   UNL     1       7.872   6.521   5.540  1.00  0.00     0.207 C 
BRANCH  17  18
ATOM     18  C   UNL     1       6.372   6.833   5.521  1.00  0.00     0.077 C 
BRANCH  18  19
ATOM     19  C   UNL     1       5.714   6.510   6.844  1.00  0.00    -0.043 A 
ATOM     20  C   UNL     1       5.367   6.998   9.194  1.00  0.00     0.083 A 
ATOM     21  C   UNL     1       5.936   7.327   7.964  1.00  0.00     0.028 A 
ATOM     22  C   UNL     1       4.576   5.855   9.315  1.00  0.00     0.134 A 
ATOM     23  C   UNL     1       4.347   5.038   8.214  1.00  0.00     0.048 A 
ATOM     24  C   UNL     1       4.917   5.363   6.981  1.00  0.00     0.008 A 
ATOM     25  Cl  UNL     1       5.652   8.013  10.559  1.00  0.00    -0.080 Cl
BRANCH  22  26
ATOM     26  O   UNL     1       4.005   5.486  10.503  1.00  0.00    -0.506 OA
ATOM     27  H   UNL     1       3.565   4.630  10.349  1.00  0.00     0.293 HD
ENDBRANCH  22  26
ENDBRANCH  18  19
ENDBRANCH  17  18
BRANCH  17  28
ATOM     28  O   UNL     1       8.608   7.730   5.789  1.00  0.00    -0.383 OA
ATOM     29  H   UNL     1       8.218   8.412   5.196  1.00  0.00     0.211 HD
ENDBRANCH  17  28
ENDBRANCH  14  17
ENDBRANCH  12  13
BRANCH  12  30
ATOM     30  C   UNL     1      10.383   7.331   1.484  1.00  0.00     0.018 C 
ATOM     31  C   UNL     1      11.671   6.492   1.502  1.00  0.00     0.010 C 
BRANCH  30  32
ATOM     32  C   UNL     1      10.574   8.616   2.326  1.00  0.00     0.002 C 
ATOM     33  C   UNL     1      11.921   8.743   3.025  1.00  0.00     0.004 C 
ENDBRANCH  30  32
ENDBRANCH  12  30
ENDBRANCH  10  12
ENDBRANCH   1  10
BRANCH   5  34
ATOM     34  C   UNL     1       7.145   8.237  -1.785  1.00  0.00     0.242 C 
ATOM     35  O   UNL     1       6.927   8.418  -2.983  1.00  0.00    -0.273 OA
ATOM     36  N   UNL     1       6.256   8.622  -0.806  1.00  0.00    -0.354 N 
ATOM     37  H   UNL     1       6.543   8.557   0.171  1.00  0.00     0.163 HD
BRANCH  36  38
ATOM     38  C   UNL     1       4.896   9.019  -1.109  1.00  0.00     0.116 C 
BRANCH  38  39
ATOM     39  C   UNL     1       3.934   7.892  -0.742  1.00  0.00     0.023 C 
BRANCH  39  40
ATOM     40  C   UNL     1       2.474   8.323  -0.821  1.00  0.00     0.026 C 
BRANCH  40  41
ATOM     41  C   UNL     1       1.979   8.301  -2.267  1.00  0.00     0.146 C 
BRANCH  41  42
ATOM     42  N   UNL     1       1.403   6.997  -2.570  1.00  0.00    -0.254 NA
ATOM     43  C   UNL     1       2.028   6.195  -3.347  1.00  0.00     0.185 C 
ATOM     44  N   UNL     1       3.205   6.344  -3.981  1.00  0.00    -0.370 N 
ATOM     45  N   UNL     1       1.478   4.999  -3.618  1.00  0.00    -0.370 N 
ATOM     46  H   UNL     1       3.456   5.741  -4.746  1.00  0.00     0.159 HD
ATOM     47  H   UNL     1       3.764   7.186  -3.876  1.00  0.00     0.159 HD
ATOM     48  H   UNL     1       0.592   4.802  -3.173  1.00  0.00     0.159 HD
ATOM     49  H   UNL     1       2.000   4.237  -4.013  1.00  0.00     0.159 HD
ENDBRANCH  41  42
ENDBRANCH  40  41
ENDBRANCH  39  40
ENDBRANCH  38  39
ENDBRANCH  36  38
ENDBRANCH   5  34
BRANCH   8  50
ATOM     50  O   UNL     1       6.371   3.846  -3.416  1.00  0.00    -0.245 OA
BRANCH  50  51
ATOM     51  S   UNL     1       5.362   2.856  -4.221  1.00  0.00     0.397 S 
ATOM     52  O   UNL     1       5.964   2.549  -5.500  1.00  0.00    -0.169 OA
ATOM     53  O   UNL     1       4.007   3.356  -4.120  1.00  0.00    -0.169 OA
BRANCH  51  54
ATOM     54  O   UNL     1       5.458   1.504  -3.356  1.00  0.00    -0.264 OA
ATOM     55  H   UNL     1       5.195   0.760  -3.936  1.00  0.00     0.236 HD
ENDBRANCH  51  54
ENDBRANCH  50  51
ENDBRANCH   8  50
TORSDOF 19
ENDMDL
MODEL 48
REMARK VINA RESULT:    -4.811      5.051     10.299
REMARK INTER + INTRA:         -14.928
REMARK INTER:                 -12.099
REMARK INTRA:                  -2.829
REMARK UNBOUND:                -5.195
REMARK SMILES CC[C@@H](C)[C@@H](NC(=O)[C@@H](O)Cc1ccc(O)c(Cl)c1)C(=O)N1[C@H](C(=O)NCCCCN=C(N)N)C[C@H]2CC[C@H](OS(=O)(=O)O)C[C@@H]21
REMARK SMILES IDX 22 1 36 2 46 3 35 4 23 5 45 6 37 7 39 8 38 9 20 10 21 11
REMARK SMILES IDX 5 12 6 13 7 14 8 15 9 17 11 18 12 19 17 20 19 21 15 22 14 23
REMARK SMILES IDX 13 24 18 25 16 26 10 28 3 30 4 31 2 32 1 33 24 34 25 35
REMARK SMILES IDX 26 36 27 38 28 39 29 40 30 41 31 42 32 43 33 44 34 45 40 50
REMARK SMILES IDX 41 51 42 52 43 53 44 54
REMARK H PARENT 6 16 16 27 10 29 26 37 33 46 33 47 34 48 34 49 44 55
ROOT
ATOM      1  N   UNL     1       5.533   7.173   6.775  1.00  0.00    -0.326 N 
ATOM      2  C   UNL     1       6.269   7.739   8.939  1.00  0.00     0.014 C 
ATOM      3  C   UNL     1       5.007   7.527   8.097  1.00  0.00     0.091 C 
ATOM      4  C   UNL     1       7.244   8.335   7.936  1.00  0.00     0.041 C 
ATOM      5  C   UNL     1       6.997   7.409   6.731  1.00  0.00     0.175 C 
ATOM      6  C   UNL     1       4.112   6.519   8.815  1.00  0.00     0.059 C 
ATOM      7  C   UNL     1       5.951   8.500  10.210  1.00  0.00     0.008 C 
ATOM      8  C   UNL     1       4.221   6.575  10.354  1.00  0.00     0.143 C 
ATOM      9  C   UNL     1       4.653   7.968  10.853  1.00  0.00     0.034 C 
ENDROOT
BRANCH   1  10
ATOM     10  C   UNL     1       4.859   6.888   5.600  1.00  0.00     0.246 C 
ATOM     11  O   UNL     1       4.637   5.708   5.305  1.00  0.00    -0.272 OA
BRANCH  10  12
ATOM     12  C   UNL     1       4.360   8.054   4.699  1.00  0.00     0.174 C 
BRANCH  12  13
ATOM     13  N   UNL     1       5.013   7.990   3.392  1.00  0.00    -0.342 N 
ATOM     14  C   UNL     1       4.387   8.207   2.185  1.00  0.00     0.249 C 
ATOM     15  O   UNL     1       3.205   8.507   2.073  1.00  0.00    -0.272 OA
ATOM     16  H   UNL     1       5.949   7.601   3.316  1.00  0.00     0.164 HD
BRANCH  14  17
ATOM     17  C   UNL     1       5.343   8.050   0.983  1.00  0.00     0.207 C 
BRANCH  17  18
ATOM     18  C   UNL     1       6.600   8.902   1.183  1.00  0.00     0.077 C 
BRANCH  18  19
ATOM     19  C   UNL     1       7.848   8.052   1.262  1.00  0.00    -0.043 A 
ATOM     20  C   UNL     1      10.157   7.766   1.949  1.00  0.00     0.083 A 
ATOM     21  C   UNL     1       8.991   8.532   1.921  1.00  0.00     0.028 A 
ATOM     22  C   UNL     1      10.190   6.521   1.320  1.00  0.00     0.134 A 
ATOM     23  C   UNL     1       9.066   6.034   0.664  1.00  0.00     0.048 A 
ATOM     24  C   UNL     1       7.897   6.799   0.632  1.00  0.00     0.008 A 
ATOM     25  Cl  UNL     1      11.551   8.372   2.764  1.00  0.00    -0.080 Cl
BRANCH  22  26
ATOM     26  O   UNL     1      11.313   5.739   1.312  1.00  0.00    -0.506 OA
ATOM     27  H   UNL     1      12.064   6.329   1.112  1.00  0.00     0.293 HD
ENDBRANCH  22  26
ENDBRANCH  18  19
ENDBRANCH  17  18
BRANCH  17  28
ATOM     28  O   UNL     1       4.698   8.431  -0.243  1.00  0.00    -0.383 OA
ATOM     29  H   UNL     1       4.764   7.651  -0.839  1.00  0.00     0.211 HD
ENDBRANCH  17  28
ENDBRANCH  14  17
ENDBRANCH  12  13
BRANCH  12  30
ATOM     30  C   UNL     1       4.519   9.443   5.374  1.00  0.00     0.018 C 
ATOM     31  C   UNL     1       3.198  10.227   5.329  1.00  0.00     0.010 C 
BRANCH  30  32
ATOM     32  C   UNL     1       5.664  10.297   4.777  1.00  0.00     0.002 C 
ATOM     33  C   UNL     1       5.220  11.505   3.963  1.00  0.00     0.004 C 
ENDBRANCH  30  32
ENDBRANCH  12  30
ENDBRANCH  10  12
ENDBRANCH   1  10
BRANCH   5  34
ATOM     34  C   UNL     1       7.774   6.073   6.867  1.00  0.00     0.242 C 
ATOM     35  O   UNL     1       8.635   5.898   7.729  1.00  0.00    -0.273 OA
ATOM     36  N   UNL     1       7.469   5.119   5.923  1.00  0.00    -0.354 N 
ATOM     37  H   UNL     1       6.835   5.366   5.162  1.00  0.00     0.163 HD
BRANCH  36  38
ATOM     38  C   UNL     1       7.935   3.751   6.026  1.00  0.00     0.116 C 
BRANCH  38  39
ATOM     39  C   UNL     1       6.990   2.949   6.918  1.00  0.00     0.023 C 
BRANCH  39  40
ATOM     40  C   UNL     1       7.735   1.988   7.840  1.00  0.00     0.026 C 
BRANCH  40  41
ATOM     41  C   UNL     1       8.743   1.153   7.051  1.00  0.00     0.146 C 
BRANCH  41  42
ATOM     42  N   UNL     1       9.072  -0.055   7.797  1.00  0.00    -0.254 NA
ATOM     43  C   UNL     1      10.249  -0.200   8.279  1.00  0.00     0.185 C 
ATOM     44  N   UNL     1      11.316   0.618   8.220  1.00  0.00    -0.370 N 
ATOM     45  N   UNL     1      10.534  -1.323   8.959  1.00  0.00    -0.370 N 
ATOM     46  H   UNL     1      12.238   0.274   8.427  1.00  0.00     0.159 HD
ATOM     47  H   UNL     1      11.271   1.518   7.753  1.00  0.00     0.159 HD
ATOM     48  H   UNL     1       9.781  -1.990   9.058  1.00  0.00     0.159 HD
ATOM     49  H   UNL     1      11.335  -1.407   9.559  1.00  0.00     0.159 HD
ENDBRANCH  41  42
ENDBRANCH  40  41
ENDBRANCH  39  40
ENDBRANCH  38  39
ENDBRANCH  36  38
ENDBRANCH   5  34
BRANCH   8  50
ATOM     50  O   UNL     1       5.173   5.614  10.813  1.00  0.00    -0.245 OA
BRANCH  50  51
ATOM     51  S   UNL     1       4.667   4.334  11.679  1.00  0.00     0.397 S 
ATOM     52  O   UNL     1       5.739   3.944  12.567  1.00  0.00    -0.169 OA
ATOM     53  O   UNL     1       4.020   3.379  10.804  1.00  0.00    -0.169 OA
BRANCH  51  54
ATOM     54  O   UNL     1       3.538   4.989  12.618  1.00  0.00    -0.264 OA
ATOM     55  H   UNL     1       2.790   5.254  12.045  1.00  0.00     0.236 HD
ENDBRANCH  51  54
ENDBRANCH  50  51
ENDBRANCH   8  50
TORSDOF 19
ENDMDL
MODEL 49
REMARK VINA RESULT:    -4.782      3.823      8.572
REMARK INTER + INTRA:         -14.870
REMARK INTER:                 -11.402
REMARK INTRA:                  -3.468
REMARK UNBOUND:                -5.195
REMARK SMILES CC[C@@H](C)[C@@H](NC(=O)[C@@H](O)Cc1ccc(O)c(Cl)c1)C(=O)N1[C@H](C(=O)NCCCCN=C(N)N)C[C@H]2CC[C@H](OS(=O)(=O)O)C[C@@H]21
REMARK SMILES IDX 22 1 36 2 46 3 35 4 23 5 45 6 37 7 39 8 38 9 20 10 21 11
REMARK SMILES IDX 5 12 6 13 7 14 8 15 9 17 11 18 12 19 17 20 19 21 15 22 14 23
REMARK SMILES IDX 13 24 18 25 16 26 10 28 3 30 4 31 2 32 1 33 24 34 25 35
REMARK SMILES IDX 26 36 27 38 28 39 29 40 30 41 31 42 32 43 33 44 34 45 40 50
REMARK SMILES IDX 41 51 42 52 43 53 44 54
REMARK H PARENT 6 16 16 27 10 29 26 37 33 46 33 47 34 48 34 49 44 55
ROOT
ATOM      1  N   UNL     1       7.787   2.853  13.802  1.00  0.00    -0.326 N 
ATOM      2  C   UNL     1       5.590   2.186  14.321  1.00  0.00     0.014 C 
ATOM      3  C   UNL     1       6.395   3.242  13.558  1.00  0.00     0.091 C 
ATOM      4  C   UNL     1       6.468   1.904  15.530  1.00  0.00     0.041 C 
ATOM      5  C   UNL     1       7.845   1.804  14.849  1.00  0.00     0.175 C 
ATOM      6  C   UNL     1       5.895   3.281  12.115  1.00  0.00     0.059 C 
ATOM      7  C   UNL     1       4.159   2.642  14.532  1.00  0.00     0.008 C 
ATOM      8  C   UNL     1       4.394   2.951  11.968  1.00  0.00     0.143 C 
ATOM      9  C   UNL     1       3.599   3.287  13.246  1.00  0.00     0.034 C 
ENDROOT
BRANCH   1  10
ATOM     10  C   UNL     1       8.962   3.450  13.378  1.00  0.00     0.246 C 
ATOM     11  O   UNL     1       9.331   4.500  13.915  1.00  0.00    -0.272 OA
BRANCH  10  12
ATOM     12  C   UNL     1       9.812   2.767  12.267  1.00  0.00     0.174 C 
BRANCH  12  13
ATOM     13  N   UNL     1       8.933   2.182  11.255  1.00  0.00    -0.342 N 
ATOM     14  C   UNL     1       8.831   2.614   9.952  1.00  0.00     0.249 C 
ATOM     15  O   UNL     1       9.496   3.530   9.484  1.00  0.00    -0.272 OA
ATOM     16  H   UNL     1       8.213   1.521  11.535  1.00  0.00     0.164 HD
BRANCH  14  17
ATOM     17  C   UNL     1       7.803   1.804   9.135  1.00  0.00     0.207 C 
BRANCH  17  18
ATOM     18  C   UNL     1       8.400   1.384   7.788  1.00  0.00     0.077 C 
BRANCH  18  19
ATOM     19  C   UNL     1       9.369   0.232   7.937  1.00  0.00    -0.043 A 
ATOM     20  C   UNL     1       9.796  -2.109   8.408  1.00  0.00     0.083 A 
ATOM     21  C   UNL     1       8.897  -1.059   8.222  1.00  0.00     0.028 A 
ATOM     22  C   UNL     1      11.169  -1.877   8.314  1.00  0.00     0.134 A 
ATOM     23  C   UNL     1      11.650  -0.604   8.032  1.00  0.00     0.048 A 
ATOM     24  C   UNL     1      10.753   0.450   7.847  1.00  0.00     0.008 A 
ATOM     25  Cl  UNL     1       9.197  -3.688   8.757  1.00  0.00    -0.080 Cl
BRANCH  22  26
ATOM     26  O   UNL     1      12.089  -2.873   8.499  1.00  0.00    -0.506 OA
ATOM     27  H   UNL     1      11.592  -3.667   8.771  1.00  0.00     0.293 HD
ENDBRANCH  22  26
ENDBRANCH  18  19
ENDBRANCH  17  18
BRANCH  17  28
ATOM     28  O   UNL     1       6.606   2.566   8.908  1.00  0.00    -0.383 OA
ATOM     29  H   UNL     1       6.902   3.452   8.598  1.00  0.00     0.211 HD
ENDBRANCH  17  28
ENDBRANCH  14  17
ENDBRANCH  12  13
BRANCH  12  30
ATOM     30  C   UNL     1      10.827   1.739  12.836  1.00  0.00     0.018 C 
ATOM     31  C   UNL     1      11.922   2.445  13.650  1.00  0.00     0.010 C 
BRANCH  30  32
ATOM     32  C   UNL     1      11.467   0.834  11.755  1.00  0.00     0.002 C 
ATOM     33  C   UNL     1      11.071  -0.636  11.818  1.00  0.00     0.004 C 
ENDBRANCH  30  32
ENDBRANCH  12  30
ENDBRANCH  10  12
ENDBRANCH   1  10
BRANCH   5  34
ATOM     34  C   UNL     1       8.069   0.405  14.214  1.00  0.00     0.242 C 
ATOM     35  O   UNL     1       7.809   0.169  13.035  1.00  0.00    -0.273 OA
ATOM     36  N   UNL     1       8.527  -0.564  15.079  1.00  0.00    -0.354 N 
ATOM     37  H   UNL     1       8.609  -0.338  16.071  1.00  0.00     0.163 HD
BRANCH  36  38
ATOM     38  C   UNL     1       8.992  -1.855  14.617  1.00  0.00     0.116 C 
BRANCH  38  39
ATOM     39  C   UNL     1       8.077  -2.956  15.148  1.00  0.00     0.023 C 
BRANCH  39  40
ATOM     40  C   UNL     1       7.199  -3.561  14.057  1.00  0.00     0.026 C 
BRANCH  40  41
ATOM     41  C   UNL     1       6.624  -4.904  14.508  1.00  0.00     0.146 C 
BRANCH  41  42
ATOM     42  N   UNL     1       5.242  -5.021  14.062  1.00  0.00    -0.254 NA
ATOM     43  C   UNL     1       4.585  -6.092  14.310  1.00  0.00     0.185 C 
ATOM     44  N   UNL     1       4.965  -7.210  14.956  1.00  0.00    -0.370 N 
ATOM     45  N   UNL     1       3.314  -6.182  13.886  1.00  0.00    -0.370 N 
ATOM     46  H   UNL     1       4.435  -8.060  14.865  1.00  0.00     0.159 HD
ATOM     47  H   UNL     1       5.894  -7.306  15.354  1.00  0.00     0.159 HD
ATOM     48  H   UNL     1       2.946  -5.378  13.397  1.00  0.00     0.159 HD
ATOM     49  H   UNL     1       2.671  -6.869  14.238  1.00  0.00     0.159 HD
ENDBRANCH  41  42
ENDBRANCH  40  41
ENDBRANCH  39  40
ENDBRANCH  38  39
ENDBRANCH  36  38
ENDBRANCH   5  34
BRANCH   8  50
ATOM     50  O   UNL     1       4.224   1.562  11.681  1.00  0.00    -0.245 OA
BRANCH  50  51
ATOM     51  S   UNL     1       2.905   1.067  10.868  1.00  0.00     0.397 S 
ATOM     52  O   UNL     1       2.380   2.198  10.136  1.00  0.00    -0.169 OA
ATOM     53  O   UNL     1       2.067   0.271  11.740  1.00  0.00    -0.169 OA
BRANCH  51  54
ATOM     54  O   UNL     1       3.541   0.087   9.762  1.00  0.00    -0.264 OA
ATOM     55  H   UNL     1       4.473  -0.078  10.011  1.00  0.00     0.236 HD
ENDBRANCH  51  54
ENDBRANCH  50  51
ENDBRANCH   8  50
TORSDOF 19
ENDMDL
MODEL 50
REMARK VINA RESULT:    -4.771     14.984     17.211
REMARK INTER + INTRA:         -14.846
REMARK INTER:                 -10.010
REMARK INTRA:                  -4.836
REMARK UNBOUND:                -5.195
REMARK SMILES CC[C@@H](C)[C@@H](NC(=O)[C@@H](O)Cc1ccc(O)c(Cl)c1)C(=O)N1[C@H](C(=O)NCCCCN=C(N)N)C[C@H]2CC[C@H](OS(=O)(=O)O)C[C@@H]21
REMARK SMILES IDX 22 1 36 2 46 3 35 4 23 5 45 6 37 7 39 8 38 9 20 10 21 11
REMARK SMILES IDX 5 12 6 13 7 14 8 15 9 17 11 18 12 19 17 20 19 21 15 22 14 23
REMARK SMILES IDX 13 24 18 25 16 26 10 28 3 30 4 31 2 32 1 33 24 34 25 35
REMARK SMILES IDX 26 36 27 38 28 39 29 40 30 41 31 42 32 43 33 44 34 45 40 50
REMARK SMILES IDX 41 51 42 52 43 53 44 54
REMARK H PARENT 6 16 16 27 10 29 26 37 33 46 33 47 34 48 34 49 44 55
ROOT
ATOM      1  N   UNL     1     -10.437   3.792   5.312  1.00  0.00    -0.326 N 
ATOM      2  C   UNL     1      -8.118   4.186   5.414  1.00  0.00     0.014 C 
ATOM      3  C   UNL     1      -9.253   3.836   4.448  1.00  0.00     0.091 C 
ATOM      4  C   UNL     1      -8.533   3.474   6.692  1.00  0.00     0.041 C 
ATOM      5  C   UNL     1     -10.027   3.845   6.737  1.00  0.00     0.175 C 
ATOM      6  C   UNL     1      -9.234   4.838   3.296  1.00  0.00     0.059 C 
ATOM      7  C   UNL     1      -6.767   3.880   4.797  1.00  0.00     0.008 C 
ATOM      8  C   UNL     1      -7.822   5.355   2.945  1.00  0.00     0.143 C 
ATOM      9  C   UNL     1      -6.724   4.342   3.325  1.00  0.00     0.034 C 
ENDROOT
BRANCH   1  10
ATOM     10  C   UNL     1     -11.754   3.505   4.999  1.00  0.00     0.246 C 
ATOM     11  O   UNL     1     -12.589   4.416   5.017  1.00  0.00    -0.272 OA
BRANCH  10  12
ATOM     12  C   UNL     1     -12.147   2.055   4.590  1.00  0.00     0.174 C 
BRANCH  12  13
ATOM     13  N   UNL     1     -11.564   1.097   5.529  1.00  0.00    -0.342 N 
ATOM     14  C   UNL     1     -12.283   0.270   6.363  1.00  0.00     0.249 C 
ATOM     15  O   UNL     1     -13.506   0.226   6.390  1.00  0.00    -0.272 OA
ATOM     16  H   UNL     1     -10.568   1.131   5.730  1.00  0.00     0.164 HD
BRANCH  14  17
ATOM     17  C   UNL     1     -11.379  -0.614   7.248  1.00  0.00     0.207 C 
BRANCH  17  18
ATOM     18  C   UNL     1     -10.179   0.189   7.759  1.00  0.00     0.077 C 
BRANCH  18  19
ATOM     19  C   UNL     1     -10.251   0.419   9.252  1.00  0.00    -0.043 A 
ATOM     20  C   UNL     1     -10.511   1.922  11.138  1.00  0.00     0.083 A 
ATOM     21  C   UNL     1     -10.495   1.704   9.760  1.00  0.00     0.028 A 
ATOM     22  C   UNL     1     -10.283   0.861  12.015  1.00  0.00     0.134 A 
ATOM     23  C   UNL     1     -10.041  -0.417  11.526  1.00  0.00     0.048 A 
ATOM     24  C   UNL     1     -10.022  -0.638  10.147  1.00  0.00     0.008 A 
ATOM     25  Cl  UNL     1     -10.812   3.508  11.743  1.00  0.00    -0.080 Cl
BRANCH  22  26
ATOM     26  O   UNL     1     -10.280   1.027  13.374  1.00  0.00    -0.506 OA
ATOM     27  H   UNL     1     -11.178   0.810  13.685  1.00  0.00     0.293 HD
ENDBRANCH  22  26
ENDBRANCH  18  19
ENDBRANCH  17  18
BRANCH  17  28
ATOM     28  O   UNL     1     -10.910  -1.763   6.524  1.00  0.00    -0.383 OA
ATOM     29  H   UNL     1      -9.978  -1.901   6.807  1.00  0.00     0.211 HD
ENDBRANCH  17  28
ENDBRANCH  14  17
ENDBRANCH  12  13
BRANCH  12  30
ATOM     30  C   UNL     1     -11.791   1.731   3.114  1.00  0.00     0.018 C 
ATOM     31  C   UNL     1     -12.964   1.031   2.410  1.00  0.00     0.010 C 
BRANCH  30  32
ATOM     32  C   UNL     1     -10.499   0.892   2.957  1.00  0.00     0.002 C 
ATOM     33  C   UNL     1      -9.597   1.296   1.799  1.00  0.00     0.004 C 
ENDBRANCH  30  32
ENDBRANCH  12  30
ENDBRANCH  10  12
ENDBRANCH   1  10
BRANCH   5  34
ATOM     34  C   UNL     1     -10.246   5.267   7.320  1.00  0.00     0.242 C 
ATOM     35  O   UNL     1     -10.314   6.267   6.606  1.00  0.00    -0.273 OA
ATOM     36  N   UNL     1     -10.305   5.333   8.694  1.00  0.00    -0.354 N 
ATOM     37  H   UNL     1     -10.122   4.488   9.236  1.00  0.00     0.163 HD
BRANCH  36  38
ATOM     38  C   UNL     1     -10.716   6.533   9.393  1.00  0.00     0.116 C 
BRANCH  38  39
ATOM     39  C   UNL     1      -9.714   6.859  10.498  1.00  0.00     0.023 C 
BRANCH  39  40
ATOM     40  C   UNL     1      -8.399   7.404   9.951  1.00  0.00     0.026 C 
BRANCH  40  41
ATOM     41  C   UNL     1      -8.656   8.508   8.925  1.00  0.00     0.146 C 
BRANCH  41  42
ATOM     42  N   UNL     1      -7.414   8.842   8.239  1.00  0.00    -0.254 NA
ATOM     43  C   UNL     1      -7.303   8.615   6.984  1.00  0.00     0.185 C 
ATOM     44  N   UNL     1      -8.188   8.087   6.118  1.00  0.00    -0.370 N 
ATOM     45  N   UNL     1      -6.148   8.926   6.372  1.00  0.00    -0.370 N 
ATOM     46  H   UNL     1      -7.886   7.742   5.223  1.00  0.00     0.159 HD
ATOM     47  H   UNL     1      -9.119   7.808   6.412  1.00  0.00     0.159 HD
ATOM     48  H   UNL     1      -5.430   9.337   6.952  1.00  0.00     0.159 HD
ATOM     49  H   UNL     1      -6.065   9.001   5.374  1.00  0.00     0.159 HD
ENDBRANCH  41  42
ENDBRANCH  40  41
ENDBRANCH  39  40
ENDBRANCH  38  39
ENDBRANCH  36  38
ENDBRANCH   5  34
BRANCH   8  50
ATOM     50  O   UNL     1      -7.565   6.581   3.629  1.00  0.00    -0.245 OA
BRANCH  50  51
ATOM     51  S   UNL     1      -6.539   7.664   2.979  1.00  0.00     0.397 S 
ATOM     52  O   UNL     1      -7.000   8.986   3.336  1.00  0.00    -0.169 OA
ATOM     53  O   UNL     1      -6.259   7.303   1.605  1.00  0.00    -0.169 OA
BRANCH  51  54
ATOM     54  O   UNL     1      -5.203   7.418   3.839  1.00  0.00    -0.264 OA
ATOM     55  H   UNL     1      -4.544   8.088   3.564  1.00  0.00     0.236 HD
ENDBRANCH  51  54
ENDBRANCH  50  51
ENDBRANCH   8  50
TORSDOF 19
ENDMDL
