MODEL 1
REMARK VINA RESULT:    -6.264      0.000      0.000
REMARK INTER + INTRA:         -27.343
REMARK INTER:                 -18.714
REMARK INTRA:                  -8.629
REMARK UNBOUND:                -8.629
REMARK SMILES C=C1C(=O)N[C@H](C)C(=O)N[C@@H](CC(C)C)C(=O)N[C@@H](C(=O)O)[C@H](C)C(=O)N[C@@H](CCCN=C(N)N)C(=O)N[C@@H](/C=C/C(C)=C/[C@H](C)[C@H](Cc2ccccc2)OC)[C@H](C)C(=O)N[C@@H](C(=O)O)CCC(=O)N1C
REMARK SMILES IDX 39 1 38 2 37 3 36 4 28 6 27 7 25 8 26 9 23 11 24 12 19 13
REMARK SMILES IDX 18 14 16 15 17 16 11 18 10 19 8 20 9 21 12 24 13 25 14 26
REMARK SMILES IDX 15 27 20 28 21 29 22 30 29 32 30 33 31 34 32 35 33 36 34 37
REMARK SMILES IDX 35 38 57 43 58 44 59 45 60 46 61 47 62 49 66 50 67 51 68 52
REMARK SMILES IDX 69 53 70 54 71 55 2 56 1 57 3 58 4 59 5 60 6 62 7 63 63 65
REMARK SMILES IDX 64 66 65 67 40 69 41 70 42 71 44 72 43 73 45 74 46 75 47 76
REMARK SMILES IDX 55 77 56 78 48 79 49 80 50 81 54 82 51 83 53 84 52 85
REMARK H PARENT 38 5 27 10 18 17 10 22 22 31 34 39 34 40 35 41 35 42 61 48
REMARK H PARENT 5 61 65 68
REMARK Flexibility Score:  369.900
ROOT
ATOM      1  C   UNL     1       6.559  -3.197 -10.845  1.00  0.00     0.117 C 
ENDROOT
BRANCH   1   2
ATOM      2  N   UNL     1       6.188  -3.142 -12.259  1.00  0.00    -0.347 N 
ATOM      3  O   UNL     1       6.278  -5.394 -12.695  1.00  0.00    -0.273 OA
ATOM      4  C   UNL     1       5.987  -4.257 -13.050  1.00  0.00     0.243 C 
ATOM      5  H   UNL     1       6.015  -2.246 -12.691  1.00  0.00     0.164 HD
BRANCH   4   6
ATOM      6  C   UNL     1       5.516  -3.924 -14.489  1.00  0.00     0.171 C 
BRANCH   6   7
ATOM      7  N   UNL     1       5.795  -2.515 -14.808  1.00  0.00    -0.344 N 
ATOM      8  C   UNL     1       4.772  -1.594 -14.879  1.00  0.00     0.226 C 
ATOM      9  O   UNL     1       3.598  -1.898 -14.706  1.00  0.00    -0.275 OA
ATOM     10  H   UNL     1       6.745  -2.239 -15.024  1.00  0.00     0.164 HD
BRANCH   8  11
ATOM     11  C   UNL     1       5.227  -0.174 -15.164  1.00  0.00     0.109 C 
ATOM     12  C   UNL     1       6.177   0.304 -14.066  1.00  0.00     0.021 C 
BRANCH  11  13
ATOM     13  C   UNL     1       5.794  -0.085 -16.595  1.00  0.00     0.204 C 
BRANCH  13  14
ATOM     14  N   UNL     1       7.148  -0.638 -16.688  1.00  0.00    -0.340 N 
ATOM     15  C   UNL     1       8.262   0.144 -16.905  1.00  0.00     0.243 C 
ATOM     16  O   UNL     1       8.205   1.370 -16.976  1.00  0.00    -0.273 OA
ATOM     17  H   UNL     1       7.247  -1.652 -16.789  1.00  0.00     0.164 HD
BRANCH  15  18
ATOM     18  C   UNL     1       9.549  -0.675 -17.174  1.00  0.00     0.171 C 
BRANCH  18  19
ATOM     19  N   UNL     1      10.028  -0.280 -18.497  1.00  0.00    -0.343 N 
ATOM     20  C   UNL     1      10.403  -1.213 -19.445  1.00  0.00     0.242 CG0
ATOM     21  O   UNL     1      10.478  -2.409 -19.175  1.00  0.00    -0.273 OA
ATOM     22  H   UNL     1      10.094   0.705 -18.728  1.00  0.00     0.164 HD
ATOM     23  G   UNL     1      10.805  -0.610 -20.807  1.00  0.00     0.000 G0
ENDBRANCH  18  19
BRANCH  18  24
ATOM     24  C   UNL     1      10.600  -0.401 -16.091  1.00  0.00     0.038 C 
BRANCH  24  25
ATOM     25  C   UNL     1      10.749  -1.521 -15.039  1.00  0.00    -0.015 C 
ATOM     26  C   UNL     1       9.468  -1.742 -14.234  1.00  0.00     0.007 C 
ATOM     27  C   UNL     1      11.903  -1.187 -14.091  1.00  0.00     0.007 C 
ENDBRANCH  24  25
ENDBRANCH  18  24
ENDBRANCH  15  18
ENDBRANCH  13  14
BRANCH  13  28
ATOM     28  C   UNL     1       4.933  -0.815 -17.631  1.00  0.00     0.327 C 
ATOM     29  O   UNL     1       5.151  -1.922 -18.101  1.00  0.00    -0.250 OA
BRANCH  28  30
ATOM     30  O   UNL     1       3.918  -0.062 -18.101  1.00  0.00    -0.480 OA
ATOM     31  H   UNL     1       4.278   0.347 -18.915  1.00  0.00     0.296 HD
ENDBRANCH  28  30
ENDBRANCH  13  28
ENDBRANCH  11  13
ENDBRANCH   8  11
ENDBRANCH   6   7
BRANCH   6  32
ATOM     32  C   UNL     1       6.220  -4.859 -15.478  1.00  0.00     0.037 C 
BRANCH  32  33
ATOM     33  C   UNL     1       7.627  -4.365 -15.842  1.00  0.00     0.026 C 
BRANCH  33  34
ATOM     34  C   UNL     1       7.761  -4.025 -17.327  1.00  0.00     0.146 C 
BRANCH  34  35
ATOM     35  N   UNL     1       7.171  -5.102 -18.111  1.00  0.00    -0.254 NA
ATOM     36  C   UNL     1       7.936  -5.814 -18.851  1.00  0.00     0.185 C 
ATOM     37  N   UNL     1       7.403  -6.812 -19.573  1.00  0.00    -0.370 N 
ATOM     38  N   UNL     1       9.265  -5.718 -19.031  1.00  0.00    -0.370 N 
ATOM     39  H   UNL     1       6.405  -6.955 -19.483  1.00  0.00     0.159 HD
ATOM     40  H   UNL     1       7.950  -7.517 -20.036  1.00  0.00     0.159 HD
ATOM     41  H   UNL     1       9.733  -6.248 -19.748  1.00  0.00     0.159 HD
ATOM     42  H   UNL     1       9.796  -5.001 -18.562  1.00  0.00     0.159 HD
ENDBRANCH  34  35
ENDBRANCH  33  34
ENDBRANCH  32  33
ENDBRANCH   6  32
ENDBRANCH   4   6
ENDBRANCH   1   2
BRANCH   1  43
ATOM     43  C   UNL     1       5.287  -2.936  -9.989  1.00  0.00     0.102 C 
ATOM     44  C   UNL     1       4.778  -4.187  -9.252  1.00  0.00     0.020 C 
BRANCH  43  45
ATOM     45  C   UNL     1       4.211  -2.216 -10.807  1.00  0.00     0.225 C 
ATOM     46  O   UNL     1       4.411  -1.156 -11.393  1.00  0.00    -0.275 OA
ATOM     47  N   UNL     1       2.959  -2.787 -10.772  1.00  0.00    -0.342 N 
ATOM     48  H   UNL     1       2.848  -3.727 -10.418  1.00  0.00     0.164 HD
BRANCH  47  49
ATOM     49  C   UNL     1       1.840  -2.227 -11.536  1.00  0.00     0.192 C 
BRANCH  49  50
ATOM     50  C   UNL     1       0.830  -1.591 -10.578  1.00  0.00     0.047 C 
BRANCH  50  51
ATOM     51  C   UNL     1       1.506  -0.959  -9.354  1.00  0.00     0.103 C 
BRANCH  51  52
ATOM     52  C   UNL     1       1.379  -1.838  -8.111  1.00  0.00     0.226 C 
ATOM     53  O   UNL     1       1.470  -3.063  -8.218  1.00  0.00    -0.275 OA
BRANCH  52  54
ATOM     54  N   UNL     1       1.237  -1.168  -6.882  1.00  0.00    -0.311 N 
ATOM     55  C   UNL     1       0.913   0.264  -6.834  1.00  0.00     0.153 C 
BRANCH  54  56
ATOM     56  C   UNL     1       1.394  -1.841  -5.658  1.00  0.00     0.102 C 
ATOM     57  C   UNL     1       2.547  -1.937  -4.976  1.00  0.00     0.043 C 
BRANCH  56  58
ATOM     58  C   UNL     1       0.214  -2.493  -4.976  1.00  0.00     0.268 C 
ATOM     59  O   UNL     1      -0.063  -3.678  -5.104  1.00  0.00    -0.268 OA
ATOM     60  N   UNL     1      -0.472  -1.636  -4.149  1.00  0.00    -0.339 N 
ATOM     61  H   UNL     1      -0.185  -0.666  -4.106  1.00  0.00     0.164 HD
BRANCH  60  62
ATOM     62  C   UNL     1      -1.611  -2.076  -3.343  1.00  0.00     0.168 CG0
ATOM     63  C   UNL     1      -2.825  -1.187  -3.581  1.00  0.00     0.041 C 
ATOM     64  G   UNL     1      -1.218  -2.078  -1.852  1.00  0.00     0.000 G0
ENDBRANCH  60  62
ENDBRANCH  56  58
ENDBRANCH  54  56
ENDBRANCH  52  54
ENDBRANCH  51  52
ENDBRANCH  50  51
ENDBRANCH  49  50
BRANCH  49  65
ATOM     65  C   UNL     1       1.136  -3.302 -12.379  1.00  0.00     0.326 C 
ATOM     66  O   UNL     1       1.677  -4.271 -12.892  1.00  0.00    -0.250 OA
BRANCH  65  67
ATOM     67  O   UNL     1      -0.181  -3.082 -12.587  1.00  0.00    -0.480 OA
ATOM     68  H   UNL     1      -0.368  -3.569 -13.419  1.00  0.00     0.296 HD
ENDBRANCH  65  67
ENDBRANCH  49  65
ENDBRANCH  47  49
ENDBRANCH  43  45
ENDBRANCH   1  43
BRANCH   1  69
ATOM     69  C   UNL     1       7.754  -2.274 -10.684  1.00  0.00    -0.001 C 
ATOM     70  C   UNL     1       9.055  -2.613 -10.689  1.00  0.00     0.001 C 
BRANCH  70  71
ATOM     71  C   UNL     1      10.200  -1.711 -10.554  1.00  0.00    -0.055 C 
ATOM     72  C   UNL     1       9.991  -0.395 -10.772  1.00  0.00    -0.018 C 
ATOM     73  C   UNL     1      11.527  -2.312 -10.173  1.00  0.00     0.044 C 
BRANCH  72  74
ATOM     74  C   UNL     1      10.978   0.761 -10.702  1.00  0.00     0.038 C 
ATOM     75  C   UNL     1      11.177   1.097  -9.219  1.00  0.00     0.015 C 
BRANCH  74  76
ATOM     76  C   UNL     1      10.436   1.935 -11.570  1.00  0.00     0.128 C 
BRANCH  76  77
ATOM     77  O   UNL     1       9.811   1.420 -12.758  1.00  0.00    -0.381 OA
ATOM     78  C   UNL     1       9.974   2.254 -13.897  1.00  0.00     0.195 C 
ENDBRANCH  76  77
BRANCH  76  79
ATOM     79  C   UNL     1       9.529   2.924 -10.796  1.00  0.00     0.068 C 
BRANCH  79  80
ATOM     80  C   UNL     1       8.041   2.667 -10.796  1.00  0.00    -0.045 A 
ATOM     81  C   UNL     1       7.188   3.365 -11.660  1.00  0.00     0.004 A 
ATOM     82  C   UNL     1       7.485   1.738  -9.904  1.00  0.00     0.004 A 
ATOM     83  C   UNL     1       5.811   3.132 -11.643  1.00  0.00     0.000 A 
ATOM     84  C   UNL     1       6.108   1.505  -9.888  1.00  0.00     0.000 A 
ATOM     85  C   UNL     1       5.272   2.200 -10.758  1.00  0.00     0.000 A 
ENDBRANCH  79  80
ENDBRANCH  76  79
ENDBRANCH  74  76
ENDBRANCH  72  74
ENDBRANCH  70  71
ENDBRANCH   1  69
TORSDOF 17
ENDMDL
MODEL 2
REMARK VINA RESULT:    -6.222      4.086      6.934
REMARK INTER + INTRA:         -27.218
REMARK INTER:                 -20.037
REMARK INTRA:                  -7.180
REMARK UNBOUND:                -8.629
REMARK SMILES C=C1C(=O)N[C@H](C)C(=O)N[C@@H](CC(C)C)C(=O)N[C@@H](C(=O)O)[C@H](C)C(=O)N[C@@H](CCCN=C(N)N)C(=O)N[C@@H](/C=C/C(C)=C/[C@H](C)[C@H](Cc2ccccc2)OC)[C@H](C)C(=O)N[C@@H](C(=O)O)CCC(=O)N1C
REMARK SMILES IDX 39 1 38 2 37 3 36 4 28 6 27 7 25 8 26 9 23 11 24 12 19 13
REMARK SMILES IDX 18 14 16 15 17 16 11 18 10 19 8 20 9 21 12 24 13 25 14 26
REMARK SMILES IDX 15 27 20 28 21 29 22 30 29 32 30 33 31 34 32 35 33 36 34 37
REMARK SMILES IDX 35 38 57 43 58 44 59 45 60 46 61 47 62 49 66 50 67 51 68 52
REMARK SMILES IDX 69 53 70 54 71 55 2 56 1 57 3 58 4 59 5 60 6 62 7 63 63 65
REMARK SMILES IDX 64 66 65 67 40 69 41 70 42 71 44 72 43 73 45 74 46 75 47 76
REMARK SMILES IDX 55 77 56 78 48 79 49 80 50 81 54 82 51 83 53 84 52 85
REMARK H PARENT 38 5 27 10 18 17 10 22 22 31 34 39 34 40 35 41 35 42 61 48
REMARK H PARENT 5 61 65 68
REMARK Flexibility Score:  369.900
ROOT
ATOM      1  C   UNL     1       6.464  -1.971  -8.607  1.00  0.00     0.117 C 
ENDROOT
BRANCH   1   2
ATOM      2  N   UNL     1       5.609  -1.967  -9.794  1.00  0.00    -0.347 N 
ATOM      3  O   UNL     1       4.878  -4.140  -9.660  1.00  0.00    -0.273 OA
ATOM      4  C   UNL     1       4.810  -3.028 -10.174  1.00  0.00     0.243 C 
ATOM      5  H   UNL     1       5.545  -1.132 -10.355  1.00  0.00     0.164 HD
BRANCH   4   6
ATOM      6  C   UNL     1       3.936  -2.735 -11.421  1.00  0.00     0.171 C 
BRANCH   6   7
ATOM      7  N   UNL     1       4.414  -3.509 -12.577  1.00  0.00    -0.344 N 
ATOM      8  C   UNL     1       5.591  -3.173 -13.211  1.00  0.00     0.226 C 
ATOM      9  O   UNL     1       6.276  -2.218 -12.866  1.00  0.00    -0.275 OA
ATOM     10  H   UNL     1       3.840  -4.264 -12.933  1.00  0.00     0.164 HD
BRANCH   8  11
ATOM     11  C   UNL     1       5.974  -4.100 -14.351  1.00  0.00     0.109 C 
ATOM     12  C   UNL     1       4.768  -4.937 -14.777  1.00  0.00     0.021 C 
BRANCH  11  13
ATOM     13  C   UNL     1       6.633  -3.288 -15.484  1.00  0.00     0.204 C 
BRANCH  13  14
ATOM     14  N   UNL     1       7.306  -4.149 -16.461  1.00  0.00    -0.340 N 
ATOM     15  C   UNL     1       8.509  -4.771 -16.207  1.00  0.00     0.243 C 
ATOM     16  O   UNL     1       9.073  -4.696 -15.117  1.00  0.00    -0.273 OA
ATOM     17  H   UNL     1       6.971  -4.131 -17.428  1.00  0.00     0.164 HD
BRANCH  15  18
ATOM     18  C   UNL     1       9.127  -5.455 -17.451  1.00  0.00     0.171 C 
BRANCH  18  19
ATOM     19  N   UNL     1       8.411  -4.934 -18.614  1.00  0.00    -0.343 N 
ATOM     20  C   UNL     1       7.423  -5.662 -19.248  1.00  0.00     0.242 CG0
ATOM     21  O   UNL     1       7.192  -6.831 -18.947  1.00  0.00    -0.273 OA
ATOM     22  H   UNL     1       8.647  -4.016 -18.973  1.00  0.00     0.164 HD
ATOM     23  G   UNL     1       6.727  -4.918 -20.405  1.00  0.00     0.000 G0
ENDBRANCH  18  19
BRANCH  18  24
ATOM     24  C   UNL     1      10.630  -5.163 -17.539  1.00  0.00     0.038 C 
BRANCH  24  25
ATOM     25  C   UNL     1      11.531  -6.416 -17.524  1.00  0.00    -0.015 C 
ATOM     26  C   UNL     1      10.854  -7.632 -18.156  1.00  0.00     0.007 C 
ATOM     27  C   UNL     1      11.937  -6.742 -16.085  1.00  0.00     0.007 C 
ENDBRANCH  24  25
ENDBRANCH  18  24
ENDBRANCH  15  18
ENDBRANCH  13  14
BRANCH  13  28
ATOM     28  C   UNL     1       5.639  -2.415 -16.257  1.00  0.00     0.327 C 
ATOM     29  O   UNL     1       5.152  -2.668 -17.348  1.00  0.00    -0.250 OA
BRANCH  28  30
ATOM     30  O   UNL     1       5.409  -1.225 -15.666  1.00  0.00    -0.480 OA
ATOM     31  H   UNL     1       6.180  -0.677 -15.921  1.00  0.00     0.296 HD
ENDBRANCH  28  30
ENDBRANCH  13  28
ENDBRANCH  11  13
ENDBRANCH   8  11
ENDBRANCH   6   7
BRANCH   6  32
ATOM     32  C   UNL     1       2.475  -3.072 -11.102  1.00  0.00     0.037 C 
BRANCH  32  33
ATOM     33  C   UNL     1       1.622  -1.813 -10.894  1.00  0.00     0.026 C 
BRANCH  33  34
ATOM     34  C   UNL     1       1.315  -1.552  -9.419  1.00  0.00     0.146 C 
BRANCH  34  35
ATOM     35  N   UNL     1       1.543  -2.778  -8.667  1.00  0.00    -0.254 NA
ATOM     36  C   UNL     1       1.945  -2.689  -7.454  1.00  0.00     0.185 C 
ATOM     37  N   UNL     1       2.153  -3.813  -6.750  1.00  0.00    -0.370 N 
ATOM     38  N   UNL     1       2.207  -1.587  -6.729  1.00  0.00    -0.370 N 
ATOM     39  H   UNL     1       1.967  -4.687  -7.225  1.00  0.00     0.159 HD
ATOM     40  H   UNL     1       2.298  -3.827  -5.755  1.00  0.00     0.159 HD
ATOM     41  H   UNL     1       2.652  -1.649  -5.828  1.00  0.00     0.159 HD
ATOM     42  H   UNL     1       2.109  -0.670  -7.137  1.00  0.00     0.159 HD
ENDBRANCH  34  35
ENDBRANCH  33  34
ENDBRANCH  32  33
ENDBRANCH   6  32
ENDBRANCH   4   6
ENDBRANCH   1   2
BRANCH   1  43
ATOM     43  C   UNL     1       5.790  -1.100  -7.508  1.00  0.00     0.102 C 
ATOM     44  C   UNL     1       6.406   0.304  -7.376  1.00  0.00     0.020 C 
BRANCH  43  45
ATOM     45  C   UNL     1       5.694  -1.863  -6.183  1.00  0.00     0.225 C 
ATOM     46  O   UNL     1       5.011  -2.873  -6.039  1.00  0.00    -0.275 OA
ATOM     47  N   UNL     1       6.353  -1.290  -5.120  1.00  0.00    -0.342 N 
ATOM     48  H   UNL     1       7.026  -0.555  -5.286  1.00  0.00     0.164 HD
BRANCH  47  49
ATOM     49  C   UNL     1       6.378  -1.927  -3.800  1.00  0.00     0.192 C 
BRANCH  49  50
ATOM     50  C   UNL     1       6.017  -0.899  -2.725  1.00  0.00     0.047 C 
BRANCH  50  51
ATOM     51  C   UNL     1       4.738  -1.276  -1.965  1.00  0.00     0.103 C 
BRANCH  51  52
ATOM     52  C   UNL     1       4.361  -2.742  -2.168  1.00  0.00     0.226 C 
ATOM     53  O   UNL     1       3.653  -3.063  -3.124  1.00  0.00    -0.275 OA
BRANCH  52  54
ATOM     54  N   UNL     1       4.926  -3.665  -1.268  1.00  0.00    -0.311 N 
ATOM     55  C   UNL     1       5.538  -4.911  -1.747  1.00  0.00     0.153 C 
BRANCH  54  56
ATOM     56  C   UNL     1       4.930  -3.428   0.117  1.00  0.00     0.102 C 
ATOM     57  C   UNL     1       3.833  -3.365   0.889  1.00  0.00     0.043 C 
BRANCH  56  58
ATOM     58  C   UNL     1       6.229  -3.266   0.871  1.00  0.00     0.268 C 
ATOM     59  O   UNL     1       6.413  -3.720   1.993  1.00  0.00    -0.268 OA
ATOM     60  N   UNL     1       7.199  -2.618   0.144  1.00  0.00    -0.339 N 
ATOM     61  H   UNL     1       6.963  -2.263  -0.775  1.00  0.00     0.164 HD
BRANCH  60  62
ATOM     62  C   UNL     1       8.551  -2.409   0.660  1.00  0.00     0.168 CG0
ATOM     63  C   UNL     1       9.469  -3.562   0.271  1.00  0.00     0.041 C 
ATOM     64  G   UNL     1       8.499  -2.247   2.194  1.00  0.00     0.000 G0
ENDBRANCH  60  62
ENDBRANCH  56  58
ENDBRANCH  54  56
ENDBRANCH  52  54
ENDBRANCH  51  52
ENDBRANCH  50  51
ENDBRANCH  49  50
BRANCH  49  65
ATOM     65  C   UNL     1       7.757  -2.528  -3.487  1.00  0.00     0.326 C 
ATOM     66  O   UNL     1       8.153  -3.626  -3.851  1.00  0.00    -0.250 OA
BRANCH  65  67
ATOM     67  O   UNL     1       8.538  -1.763  -2.693  1.00  0.00    -0.480 OA
ATOM     68  H   UNL     1       8.856  -1.055  -3.294  1.00  0.00     0.296 HD
ENDBRANCH  65  67
ENDBRANCH  49  65
ENDBRANCH  47  49
ENDBRANCH  43  45
ENDBRANCH   1  43
BRANCH   1  69
ATOM     69  C   UNL     1       7.856  -1.599  -9.086  1.00  0.00    -0.001 C 
ATOM     70  C   UNL     1       8.687  -2.343  -9.837  1.00  0.00     0.001 C 
BRANCH  70  71
ATOM     71  C   UNL     1      10.020  -1.965 -10.312  1.00  0.00    -0.055 C 
ATOM     72  C   UNL     1      10.102  -1.288 -11.476  1.00  0.00    -0.018 C 
ATOM     73  C   UNL     1      11.203  -2.352  -9.464  1.00  0.00     0.044 C 
BRANCH  72  74
ATOM     74  C   UNL     1      11.335  -0.769 -12.203  1.00  0.00     0.038 C 
ATOM     75  C   UNL     1      11.375   0.750 -11.997  1.00  0.00     0.015 C 
BRANCH  74  76
ATOM     76  C   UNL     1      11.268  -1.225 -13.690  1.00  0.00     0.128 C 
BRANCH  76  77
ATOM     77  O   UNL     1      12.203  -2.293 -13.919  1.00  0.00    -0.381 OA
ATOM     78  C   UNL     1      12.340  -2.648 -15.288  1.00  0.00     0.195 C 
ENDBRANCH  76  77
BRANCH  76  79
ATOM     79  C   UNL     1       9.838  -1.565 -14.181  1.00  0.00     0.068 C 
BRANCH  79  80
ATOM     80  C   UNL     1       9.117  -0.539 -15.022  1.00  0.00    -0.045 A 
ATOM     81  C   UNL     1       8.396   0.505 -14.427  1.00  0.00     0.004 A 
ATOM     82  C   UNL     1       9.135  -0.634 -16.422  1.00  0.00     0.004 A 
ATOM     83  C   UNL     1       7.720   1.441 -15.212  1.00  0.00     0.000 A 
ATOM     84  C   UNL     1       8.458   0.303 -17.206  1.00  0.00     0.000 A 
ATOM     85  C   UNL     1       7.752   1.341 -16.601  1.00  0.00     0.000 A 
ENDBRANCH  79  80
ENDBRANCH  76  79
ENDBRANCH  74  76
ENDBRANCH  72  74
ENDBRANCH  70  71
ENDBRANCH   1  69
TORSDOF 17
ENDMDL
MODEL 3
REMARK VINA RESULT:    -6.105      3.848      6.862
REMARK INTER + INTRA:         -26.870
REMARK INTER:                 -19.058
REMARK INTRA:                  -7.813
REMARK UNBOUND:                -8.629
REMARK SMILES C=C1C(=O)N[C@H](C)C(=O)N[C@@H](CC(C)C)C(=O)N[C@@H](C(=O)O)[C@H](C)C(=O)N[C@@H](CCCN=C(N)N)C(=O)N[C@@H](/C=C/C(C)=C/[C@H](C)[C@H](Cc2ccccc2)OC)[C@H](C)C(=O)N[C@@H](C(=O)O)CCC(=O)N1C
REMARK SMILES IDX 39 1 38 2 37 3 36 4 28 6 27 7 25 8 26 9 23 11 24 12 19 13
REMARK SMILES IDX 18 14 16 15 17 16 11 18 10 19 8 20 9 21 12 24 13 25 14 26
REMARK SMILES IDX 15 27 20 28 21 29 22 30 29 32 30 33 31 34 32 35 33 36 34 37
REMARK SMILES IDX 35 38 57 43 58 44 59 45 60 46 61 47 62 49 66 50 67 51 68 52
REMARK SMILES IDX 69 53 70 54 71 55 2 56 1 57 3 58 4 59 5 60 6 62 7 63 63 65
REMARK SMILES IDX 64 66 65 67 40 69 41 70 42 71 44 72 43 73 45 74 46 75 47 76
REMARK SMILES IDX 55 77 56 78 48 79 49 80 50 81 54 82 51 83 53 84 52 85
REMARK H PARENT 38 5 27 10 18 17 10 22 22 31 34 39 34 40 35 41 35 42 61 48
REMARK H PARENT 5 61 65 68
REMARK Flexibility Score:  369.900
ROOT
ATOM      1  C   UNL     1       6.716  -1.611  -8.401  1.00  0.00     0.117 C 
ENDROOT
BRANCH   1   2
ATOM      2  N   UNL     1       5.606  -1.682  -9.352  1.00  0.00    -0.347 N 
ATOM      3  O   UNL     1       5.947  -3.835 -10.072  1.00  0.00    -0.273 OA
ATOM      4  C   UNL     1       5.254  -2.823 -10.046  1.00  0.00     0.243 C 
ATOM      5  H   UNL     1       5.018  -0.873  -9.487  1.00  0.00     0.164 HD
BRANCH   4   6
ATOM      6  C   UNL     1       3.987  -2.653 -10.923  1.00  0.00     0.171 C 
BRANCH   6   7
ATOM      7  N   UNL     1       3.928  -3.704 -11.951  1.00  0.00    -0.344 N 
ATOM      8  C   UNL     1       3.768  -3.379 -13.280  1.00  0.00     0.226 C 
ATOM      9  O   UNL     1       3.644  -2.223 -13.667  1.00  0.00    -0.275 OA
ATOM     10  H   UNL     1       3.959  -4.674 -11.663  1.00  0.00     0.164 HD
BRANCH   8  11
ATOM     11  C   UNL     1       3.781  -4.570 -14.222  1.00  0.00     0.109 C 
ATOM     12  C   UNL     1       2.529  -4.562 -15.099  1.00  0.00     0.021 C 
BRANCH  11  13
ATOM     13  C   UNL     1       5.114  -4.608 -14.996  1.00  0.00     0.204 C 
BRANCH  13  14
ATOM     14  N   UNL     1       5.511  -3.281 -15.476  1.00  0.00    -0.340 N 
ATOM     15  C   UNL     1       6.100  -3.075 -16.705  1.00  0.00     0.243 C 
ATOM     16  O   UNL     1       6.278  -3.985 -17.513  1.00  0.00    -0.273 OA
ATOM     17  H   UNL     1       5.531  -2.512 -14.801  1.00  0.00     0.164 HD
BRANCH  15  18
ATOM     18  C   UNL     1       6.620  -1.631 -16.908  1.00  0.00     0.171 C 
BRANCH  18  19
ATOM     19  N   UNL     1       7.598  -1.686 -17.993  1.00  0.00    -0.343 N 
ATOM     20  C   UNL     1       8.693  -0.846 -18.030  1.00  0.00     0.242 CG0
ATOM     21  O   UNL     1       8.826   0.074 -17.226  1.00  0.00    -0.273 OA
ATOM     22  H   UNL     1       7.469  -2.355 -18.744  1.00  0.00     0.164 HD
ATOM     23  G   UNL     1       9.655  -1.105 -19.208  1.00  0.00     0.000 G0
ENDBRANCH  18  19
BRANCH  18  24
ATOM     24  C   UNL     1       5.463  -0.681 -17.242  1.00  0.00     0.038 C 
BRANCH  24  25
ATOM     25  C   UNL     1       5.139   0.352 -16.142  1.00  0.00    -0.015 C 
ATOM     26  C   UNL     1       3.655   0.367 -15.773  1.00  0.00     0.007 C 
ATOM     27  C   UNL     1       5.570   1.747 -16.602  1.00  0.00     0.007 C 
ENDBRANCH  24  25
ENDBRANCH  18  24
ENDBRANCH  15  18
ENDBRANCH  13  14
BRANCH  13  28
ATOM     28  C   UNL     1       6.278  -5.157 -14.165  1.00  0.00     0.327 C 
ATOM     29  O   UNL     1       7.466  -4.938 -14.351  1.00  0.00    -0.250 OA
BRANCH  28  30
ATOM     30  O   UNL     1       5.887  -6.043 -13.226  1.00  0.00    -0.480 OA
ATOM     31  H   UNL     1       5.569  -5.485 -12.487  1.00  0.00     0.296 HD
ENDBRANCH  28  30
ENDBRANCH  13  28
ENDBRANCH  11  13
ENDBRANCH   8  11
ENDBRANCH   6   7
BRANCH   6  32
ATOM     32  C   UNL     1       2.745  -2.695 -10.026  1.00  0.00     0.037 C 
BRANCH  32  33
ATOM     33  C   UNL     1       2.764  -3.892  -9.066  1.00  0.00     0.026 C 
BRANCH  33  34
ATOM     34  C   UNL     1       2.873  -3.466  -7.601  1.00  0.00     0.146 C 
BRANCH  34  35
ATOM     35  N   UNL     1       1.778  -4.069  -6.854  1.00  0.00    -0.254 NA
ATOM     36  C   UNL     1       1.531  -3.640  -5.672  1.00  0.00     0.185 C 
ATOM     37  N   UNL     1       0.521  -4.185  -4.976  1.00  0.00    -0.370 N 
ATOM     38  N   UNL     1       2.156  -2.674  -4.976  1.00  0.00    -0.370 N 
ATOM     39  H   UNL     1      -0.007  -4.915  -5.438  1.00  0.00     0.159 HD
ATOM     40  H   UNL     1       0.156  -3.793  -4.126  1.00  0.00     0.159 HD
ATOM     41  H   UNL     1       1.957  -2.523  -4.001  1.00  0.00     0.159 HD
ATOM     42  H   UNL     1       2.946  -2.188  -5.371  1.00  0.00     0.159 HD
ENDBRANCH  34  35
ENDBRANCH  33  34
ENDBRANCH  32  33
ENDBRANCH   6  32
ENDBRANCH   4   6
ENDBRANCH   1   2
BRANCH   1  43
ATOM     43  C   UNL     1       6.349  -0.590  -7.286  1.00  0.00     0.102 C 
ATOM     44  C   UNL     1       5.762   0.724  -7.828  1.00  0.00     0.020 C 
BRANCH  43  45
ATOM     45  C   UNL     1       7.516  -0.394  -6.313  1.00  0.00     0.225 C 
ATOM     46  O   UNL     1       8.643  -0.067  -6.675  1.00  0.00    -0.275 OA
ATOM     47  N   UNL     1       7.249  -0.701  -4.999  1.00  0.00    -0.342 N 
ATOM     48  H   UNL     1       6.293  -0.819  -4.697  1.00  0.00     0.164 HD
BRANCH  47  49
ATOM     49  C   UNL     1       8.260  -0.528  -3.951  1.00  0.00     0.192 C 
BRANCH  49  50
ATOM     50  C   UNL     1       7.972  -1.488  -2.794  1.00  0.00     0.047 C 
BRANCH  50  51
ATOM     51  C   UNL     1       6.492  -1.886  -2.723  1.00  0.00     0.103 C 
BRANCH  51  52
ATOM     52  C   UNL     1       6.248  -3.290  -3.271  1.00  0.00     0.226 C 
ATOM     53  O   UNL     1       5.672  -3.432  -4.352  1.00  0.00    -0.275 OA
BRANCH  52  54
ATOM     54  N   UNL     1       6.778  -4.357  -2.522  1.00  0.00    -0.311 N 
ATOM     55  C   UNL     1       7.778  -5.264  -3.100  1.00  0.00     0.153 C 
BRANCH  54  56
ATOM     56  C   UNL     1       6.378  -4.590  -1.196  1.00  0.00     0.102 C 
ATOM     57  C   UNL     1       7.211  -4.857  -0.177  1.00  0.00     0.043 C 
BRANCH  56  58
ATOM     58  C   UNL     1       4.922  -4.508  -0.800  1.00  0.00     0.268 C 
ATOM     59  O   UNL     1       4.017  -4.983  -1.473  1.00  0.00    -0.268 OA
ATOM     60  N   UNL     1       4.727  -3.906   0.420  1.00  0.00    -0.339 N 
ATOM     61  H   UNL     1       5.529  -3.528   0.911  1.00  0.00     0.164 HD
BRANCH  60  62
ATOM     62  C   UNL     1       3.401  -3.778   1.023  1.00  0.00     0.168 CG0
ATOM     63  C   UNL     1       3.030  -2.314   1.223  1.00  0.00     0.041 C 
ATOM     64  G   UNL     1       3.367  -4.538   2.365  1.00  0.00     0.000 G0
ENDBRANCH  60  62
ENDBRANCH  56  58
ENDBRANCH  54  56
ENDBRANCH  52  54
ENDBRANCH  51  52
ENDBRANCH  50  51
ENDBRANCH  49  50
BRANCH  49  65
ATOM     65  C   UNL     1       8.286   0.914  -3.421  1.00  0.00     0.326 C 
ATOM     66  O   UNL     1       9.290   1.591  -3.250  1.00  0.00    -0.250 OA
BRANCH  65  67
ATOM     67  O   UNL     1       7.077   1.411  -3.079  1.00  0.00    -0.480 OA
ATOM     68  H   UNL     1       6.542   0.609  -2.891  1.00  0.00     0.296 HD
ENDBRANCH  65  67
ENDBRANCH  49  65
ENDBRANCH  47  49
ENDBRANCH  43  45
ENDBRANCH   1  43
BRANCH   1  69
ATOM     69  C   UNL     1       7.968  -1.376  -9.227  1.00  0.00    -0.001 C 
ATOM     70  C   UNL     1       8.994  -2.224  -9.414  1.00  0.00     0.001 C 
BRANCH  70  71
ATOM     71  C   UNL     1      10.187  -1.995 -10.231  1.00  0.00    -0.055 C 
ATOM     72  C   UNL     1      10.010  -1.505 -11.477  1.00  0.00    -0.018 C 
ATOM     73  C   UNL     1      11.528  -2.313  -9.622  1.00  0.00     0.044 C 
BRANCH  72  74
ATOM     74  C   UNL     1      11.050  -1.169 -12.536  1.00  0.00     0.038 C 
ATOM     75  C   UNL     1      11.529   0.262 -12.262  1.00  0.00     0.015 C 
BRANCH  74  76
ATOM     76  C   UNL     1      10.420  -1.388 -13.943  1.00  0.00     0.128 C 
BRANCH  76  77
ATOM     77  O   UNL     1      11.172  -2.375 -14.669  1.00  0.00    -0.381 OA
ATOM     78  C   UNL     1      11.495  -1.984 -15.997  1.00  0.00     0.195 C 
ENDBRANCH  76  77
BRANCH  76  79
ATOM     79  C   UNL     1       8.901  -1.695 -13.913  1.00  0.00     0.068 C 
BRANCH  79  80
ATOM     80  C   UNL     1       7.961  -0.573 -13.543  1.00  0.00    -0.045 A 
ATOM     81  C   UNL     1       8.266   0.758 -13.857  1.00  0.00     0.004 A 
ATOM     82  C   UNL     1       6.772  -0.847 -12.849  1.00  0.00     0.004 A 
ATOM     83  C   UNL     1       7.398   1.791 -13.499  1.00  0.00     0.000 A 
ATOM     84  C   UNL     1       5.905   0.188 -12.491  1.00  0.00     0.000 A 
ATOM     85  C   UNL     1       6.217   1.505 -12.817  1.00  0.00     0.000 A 
ENDBRANCH  79  80
ENDBRANCH  76  79
ENDBRANCH  74  76
ENDBRANCH  72  74
ENDBRANCH  70  71
ENDBRANCH   1  69
TORSDOF 17
ENDMDL
MODEL 4
REMARK VINA RESULT:    -6.048      2.786     11.061
REMARK INTER + INTRA:         -26.700
REMARK INTER:                 -18.407
REMARK INTRA:                  -8.293
REMARK UNBOUND:                -8.629
REMARK SMILES C=C1C(=O)N[C@H](C)C(=O)N[C@@H](CC(C)C)C(=O)N[C@@H](C(=O)O)[C@H](C)C(=O)N[C@@H](CCCN=C(N)N)C(=O)N[C@@H](/C=C/C(C)=C/[C@H](C)[C@H](Cc2ccccc2)OC)[C@H](C)C(=O)N[C@@H](C(=O)O)CCC(=O)N1C
REMARK SMILES IDX 39 1 38 2 37 3 36 4 28 6 27 7 25 8 26 9 23 11 24 12 19 13
REMARK SMILES IDX 18 14 16 15 17 16 11 18 10 19 8 20 9 21 12 24 13 25 14 26
REMARK SMILES IDX 15 27 20 28 21 29 22 30 29 32 30 33 31 34 32 35 33 36 34 37
REMARK SMILES IDX 35 38 57 43 58 44 59 45 60 46 61 47 62 49 66 50 67 51 68 52
REMARK SMILES IDX 69 53 70 54 71 55 2 56 1 57 3 58 4 59 5 60 6 62 7 63 63 65
REMARK SMILES IDX 64 66 65 67 40 69 41 70 42 71 44 72 43 73 45 74 46 75 47 76
REMARK SMILES IDX 55 77 56 78 48 79 49 80 50 81 54 82 51 83 53 84 52 85
REMARK H PARENT 38 5 27 10 18 17 10 22 22 31 34 39 34 40 35 41 35 42 61 48
REMARK H PARENT 5 61 65 68
REMARK Flexibility Score:  369.900
ROOT
ATOM      1  C   UNL     1       5.875  -2.318 -12.132  1.00  0.00     0.117 C 
ENDROOT
BRANCH   1   2
ATOM      2  N   UNL     1       4.630  -2.153 -11.381  1.00  0.00    -0.347 N 
ATOM      3  O   UNL     1       3.644  -0.595 -12.748  1.00  0.00    -0.273 OA
ATOM      4  C   UNL     1       3.572  -1.370 -11.800  1.00  0.00     0.243 C 
ATOM      5  H   UNL     1       4.495  -2.672 -10.526  1.00  0.00     0.164 HD
BRANCH   4   6
ATOM      6  C   UNL     1       2.338  -1.436 -10.865  1.00  0.00     0.171 C 
BRANCH   6   7
ATOM      7  N   UNL     1       2.713  -1.063  -9.491  1.00  0.00    -0.344 N 
ATOM      8  C   UNL     1       2.200  -1.748  -8.412  1.00  0.00     0.226 C 
ATOM      9  O   UNL     1       1.403  -2.671  -8.533  1.00  0.00    -0.275 OA
ATOM     10  H   UNL     1       3.316  -0.262  -9.348  1.00  0.00     0.164 HD
BRANCH   8  11
ATOM     11  C   UNL     1       2.725  -1.279  -7.066  1.00  0.00     0.109 C 
ATOM     12  C   UNL     1       3.877  -0.294  -7.265  1.00  0.00     0.021 C 
BRANCH  11  13
ATOM     13  C   UNL     1       1.559  -0.747  -6.208  1.00  0.00     0.204 C 
BRANCH  13  14
ATOM     14  N   UNL     1       0.354  -0.501  -7.007  1.00  0.00    -0.340 N 
ATOM     15  C   UNL     1      -0.104   0.766  -7.299  1.00  0.00     0.243 C 
ATOM     16  O   UNL     1       0.501   1.781  -6.960  1.00  0.00    -0.273 OA
ATOM     17  H   UNL     1      -0.272  -1.290  -7.187  1.00  0.00     0.164 HD
BRANCH  15  18
ATOM     18  C   UNL     1      -1.498   0.779  -7.972  1.00  0.00     0.171 C 
BRANCH  18  19
ATOM     19  N   UNL     1      -2.359   1.613  -7.135  1.00  0.00    -0.343 N 
ATOM     20  C   UNL     1      -3.259   1.065  -6.241  1.00  0.00     0.242 CG0
ATOM     21  O   UNL     1      -3.472  -0.145  -6.203  1.00  0.00    -0.273 OA
ATOM     22  H   UNL     1      -2.302   2.622  -7.213  1.00  0.00     0.164 HD
ATOM     23  G   UNL     1      -4.022   2.100  -5.390  1.00  0.00     0.000 G0
ENDBRANCH  18  19
BRANCH  18  24
ATOM     24  C   UNL     1      -1.404   1.326  -9.401  1.00  0.00     0.038 C 
BRANCH  24  25
ATOM     25  C   UNL     1      -2.500   0.815 -10.361  1.00  0.00    -0.015 C 
ATOM     26  C   UNL     1      -3.646   1.812 -10.525  1.00  0.00     0.007 C 
ATOM     27  C   UNL     1      -3.047  -0.521  -9.851  1.00  0.00     0.007 C 
ENDBRANCH  24  25
ENDBRANCH  18  24
ENDBRANCH  15  18
ENDBRANCH  13  14
BRANCH  13  28
ATOM     28  C   UNL     1       1.164  -1.696  -5.072  1.00  0.00     0.327 C 
ATOM     29  O   UNL     1       1.440  -1.562  -3.890  1.00  0.00    -0.250 OA
BRANCH  28  30
ATOM     30  O   UNL     1       0.550  -2.815  -5.507  1.00  0.00    -0.480 OA
ATOM     31  H   UNL     1       0.786  -2.866  -6.456  1.00  0.00     0.296 HD
ENDBRANCH  28  30
ENDBRANCH  13  28
ENDBRANCH  11  13
ENDBRANCH   8  11
ENDBRANCH   6   7
BRANCH   6  32
ATOM     32  C   UNL     1       1.246  -0.507 -11.406  1.00  0.00     0.037 C 
BRANCH  32  33
ATOM     33  C   UNL     1       0.009  -1.282 -11.881  1.00  0.00     0.026 C 
BRANCH  33  34
ATOM     34  C   UNL     1       0.157  -1.801 -13.311  1.00  0.00     0.146 C 
BRANCH  34  35
ATOM     35  N   UNL     1       0.466  -3.224 -13.265  1.00  0.00    -0.254 NA
ATOM     36  C   UNL     1       1.574  -3.629 -13.764  1.00  0.00     0.185 C 
ATOM     37  N   UNL     1       1.871  -4.937 -13.723  1.00  0.00    -0.370 N 
ATOM     38  N   UNL     1       2.546  -2.912 -14.357  1.00  0.00    -0.370 N 
ATOM     39  H   UNL     1       1.191  -5.543 -13.281  1.00  0.00     0.159 HD
ATOM     40  H   UNL     1       2.782  -5.308 -13.931  1.00  0.00     0.159 HD
ATOM     41  H   UNL     1       3.309  -3.364 -14.834  1.00  0.00     0.159 HD
ATOM     42  H   UNL     1       2.450  -1.915 -14.472  1.00  0.00     0.159 HD
ENDBRANCH  34  35
ENDBRANCH  33  34
ENDBRANCH  32  33
ENDBRANCH   6  32
ENDBRANCH   4   6
ENDBRANCH   1   2
BRANCH   1  43
ATOM     43  C   UNL     1       6.003  -3.810 -12.556  1.00  0.00     0.102 C 
ATOM     44  C   UNL     1       7.339  -4.451 -12.142  1.00  0.00     0.020 C 
BRANCH  43  45
ATOM     45  C   UNL     1       5.659  -3.992 -14.037  1.00  0.00     0.225 C 
ATOM     46  O   UNL     1       4.954  -4.907 -14.454  1.00  0.00    -0.275 OA
ATOM     47  N   UNL     1       6.271  -3.112 -14.900  1.00  0.00    -0.342 N 
ATOM     48  H   UNL     1       6.719  -2.283 -14.535  1.00  0.00     0.164 HD
BRANCH  47  49
ATOM     49  C   UNL     1       6.007  -3.145 -16.342  1.00  0.00     0.192 C 
BRANCH  49  50
ATOM     50  C   UNL     1       7.326  -3.015 -17.109  1.00  0.00     0.047 C 
BRANCH  50  51
ATOM     51  C   UNL     1       8.380  -4.022 -16.627  1.00  0.00     0.103 C 
BRANCH  51  52
ATOM     52  C   UNL     1       9.555  -3.334 -15.934  1.00  0.00     0.226 C 
ATOM     53  O   UNL     1       9.494  -3.092 -14.727  1.00  0.00    -0.275 OA
BRANCH  52  54
ATOM     54  N   UNL     1      10.691  -3.083 -16.726  1.00  0.00    -0.311 N 
ATOM     55  C   UNL     1      10.821  -1.833 -17.487  1.00  0.00     0.153 C 
BRANCH  54  56
ATOM     56  C   UNL     1      11.741  -4.011 -16.815  1.00  0.00     0.102 C 
ATOM     57  C   UNL     1      12.647  -4.242 -15.851  1.00  0.00     0.043 C 
BRANCH  56  58
ATOM     58  C   UNL     1      11.903  -4.884 -18.038  1.00  0.00     0.268 C 
ATOM     59  O   UNL     1      12.543  -4.543 -19.023  1.00  0.00    -0.268 OA
ATOM     60  N   UNL     1      11.315  -6.119 -17.902  1.00  0.00    -0.339 N 
ATOM     61  H   UNL     1      10.793  -6.320 -17.057  1.00  0.00     0.164 HD
BRANCH  60  62
ATOM     62  C   UNL     1      11.405  -7.143 -18.942  1.00  0.00     0.168 CG0
ATOM     63  C   UNL     1      10.778  -8.452 -18.476  1.00  0.00     0.041 C 
ATOM     64  G   UNL     1      12.881  -7.354 -19.334  1.00  0.00     0.000 G0
ENDBRANCH  60  62
ENDBRANCH  56  58
ENDBRANCH  54  56
ENDBRANCH  52  54
ENDBRANCH  51  52
ENDBRANCH  50  51
ENDBRANCH  49  50
BRANCH  49  65
ATOM     65  C   UNL     1       5.057  -2.016 -16.770  1.00  0.00     0.326 C 
ATOM     66  O   UNL     1       4.473  -1.253 -16.014  1.00  0.00    -0.250 OA
BRANCH  65  67
ATOM     67  O   UNL     1       4.838  -1.937 -18.101  1.00  0.00    -0.480 OA
ATOM     68  H   UNL     1       3.939  -2.314 -18.211  1.00  0.00     0.296 HD
ENDBRANCH  65  67
ENDBRANCH  49  65
ENDBRANCH  47  49
ENDBRANCH  43  45
ENDBRANCH   1  43
BRANCH   1  69
ATOM     69  C   UNL     1       6.969  -1.701 -11.279  1.00  0.00    -0.001 C 
ATOM     70  C   UNL     1       6.854  -1.207 -10.034  1.00  0.00     0.001 C 
BRANCH  70  71
ATOM     71  C   UNL     1       7.922  -0.633  -9.213  1.00  0.00    -0.055 C 
ATOM     72  C   UNL     1       8.661   0.361  -9.750  1.00  0.00    -0.018 C 
ATOM     73  C   UNL     1       8.115  -1.187  -7.825  1.00  0.00     0.044 C 
BRANCH  72  74
ATOM     74  C   UNL     1       9.818   1.138  -9.139  1.00  0.00     0.038 C 
ATOM     75  C   UNL     1       9.689   2.590  -9.614  1.00  0.00     0.015 C 
BRANCH  74  76
ATOM     76  C   UNL     1      11.153   0.439  -9.531  1.00  0.00     0.128 C 
BRANCH  76  77
ATOM     77  O   UNL     1      11.797  -0.085  -8.357  1.00  0.00    -0.381 OA
ATOM     78  C   UNL     1      11.564   0.687  -7.186  1.00  0.00     0.195 C 
ENDBRANCH  76  77
BRANCH  76  79
ATOM     79  C   UNL     1      11.004  -0.618 -10.654  1.00  0.00     0.068 C 
BRANCH  79  80
ATOM     80  C   UNL     1      11.461  -0.243 -12.043  1.00  0.00    -0.045 A 
ATOM     81  C   UNL     1      11.489   1.095 -12.457  1.00  0.00     0.004 A 
ATOM     82  C   UNL     1      11.839  -1.239 -12.956  1.00  0.00     0.004 A 
ATOM     83  C   UNL     1      11.900   1.432 -13.749  1.00  0.00     0.000 A 
ATOM     84  C   UNL     1      12.249  -0.901 -14.248  1.00  0.00     0.000 A 
ATOM     85  C   UNL     1      12.281   0.434 -14.643  1.00  0.00     0.000 A 
ENDBRANCH  79  80
ENDBRANCH  76  79
ENDBRANCH  74  76
ENDBRANCH  72  74
ENDBRANCH  70  71
ENDBRANCH   1  69
TORSDOF 17
ENDMDL
MODEL 5
REMARK VINA RESULT:    -5.995      1.887      2.616
REMARK INTER + INTRA:         -26.541
REMARK INTER:                 -17.383
REMARK INTRA:                  -9.157
REMARK UNBOUND:                -8.629
REMARK SMILES C=C1C(=O)N[C@H](C)C(=O)N[C@@H](CC(C)C)C(=O)N[C@@H](C(=O)O)[C@H](C)C(=O)N[C@@H](CCCN=C(N)N)C(=O)N[C@@H](/C=C/C(C)=C/[C@H](C)[C@H](Cc2ccccc2)OC)[C@H](C)C(=O)N[C@@H](C(=O)O)CCC(=O)N1C
REMARK SMILES IDX 39 1 38 2 37 3 36 4 28 6 27 7 25 8 26 9 23 11 24 12 19 13
REMARK SMILES IDX 18 14 16 15 17 16 11 18 10 19 8 20 9 21 12 24 13 25 14 26
REMARK SMILES IDX 15 27 20 28 21 29 22 30 29 32 30 33 31 34 32 35 33 36 34 37
REMARK SMILES IDX 35 38 57 43 58 44 59 45 60 46 61 47 62 49 66 50 67 51 68 52
REMARK SMILES IDX 69 53 70 54 71 55 2 56 1 57 3 58 4 59 5 60 6 62 7 63 63 65
REMARK SMILES IDX 64 66 65 67 40 69 41 70 42 71 44 72 43 73 45 74 46 75 47 76
REMARK SMILES IDX 55 77 56 78 48 79 49 80 50 81 54 82 51 83 53 84 52 85
REMARK H PARENT 38 5 27 10 18 17 10 22 22 31 34 39 34 40 35 41 35 42 61 48
REMARK H PARENT 5 61 65 68
REMARK Flexibility Score:  369.900
ROOT
ATOM      1  C   UNL     1       6.346  -2.725 -10.230  1.00  0.00     0.117 C 
ENDROOT
BRANCH   1   2
ATOM      2  N   UNL     1       6.185  -2.948 -11.667  1.00  0.00    -0.347 N 
ATOM      3  O   UNL     1       6.279  -5.241 -11.641  1.00  0.00    -0.273 OA
ATOM      4  C   UNL     1       6.072  -4.196 -12.248  1.00  0.00     0.243 C 
ATOM      5  H   UNL     1       6.099  -2.154 -12.284  1.00  0.00     0.164 HD
BRANCH   4   6
ATOM      6  C   UNL     1       5.822  -4.151 -13.777  1.00  0.00     0.171 C 
BRANCH   6   7
ATOM      7  N   UNL     1       6.124  -2.813 -14.309  1.00  0.00    -0.344 N 
ATOM      8  C   UNL     1       5.128  -2.034 -14.858  1.00  0.00     0.226 C 
ATOM      9  O   UNL     1       3.968  -2.415 -14.952  1.00  0.00    -0.275 OA
ATOM     10  H   UNL     1       7.083  -2.490 -14.311  1.00  0.00     0.164 HD
BRANCH   8  11
ATOM     11  C   UNL     1       5.588  -0.659 -15.312  1.00  0.00     0.109 C 
ATOM     12  C   UNL     1       6.340   0.043 -14.181  1.00  0.00     0.021 C 
BRANCH  11  13
ATOM     13  C   UNL     1       6.371  -0.782 -16.634  1.00  0.00     0.204 C 
BRANCH  13  14
ATOM     14  N   UNL     1       7.685  -1.403 -16.441  1.00  0.00    -0.340 N 
ATOM     15  C   UNL     1       8.859  -0.818 -16.866  1.00  0.00     0.243 C 
ATOM     16  O   UNL     1       8.892   0.297 -17.384  1.00  0.00    -0.273 OA
ATOM     17  H   UNL     1       7.715  -2.386 -16.159  1.00  0.00     0.164 HD
BRANCH  15  18
ATOM     18  C   UNL     1      10.092  -1.747 -16.744  1.00  0.00     0.171 C 
BRANCH  18  19
ATOM     19  N   UNL     1      11.243  -0.979 -17.214  1.00  0.00    -0.343 N 
ATOM     20  C   UNL     1      12.263  -1.564 -17.939  1.00  0.00     0.242 CG0
ATOM     21  O   UNL     1      12.317  -2.780 -18.106  1.00  0.00    -0.273 OA
ATOM     22  H   UNL     1      11.301   0.011 -17.000  1.00  0.00     0.164 HD
ATOM     23  G   UNL     1      13.351  -0.581 -18.416  1.00  0.00     0.000 G0
ENDBRANCH  18  19
BRANCH  18  24
ATOM     24  C   UNL     1      10.280  -2.209 -15.293  1.00  0.00     0.038 C 
BRANCH  24  25
ATOM     25  C   UNL     1      10.537  -1.072 -14.283  1.00  0.00    -0.015 C 
ATOM     26  C   UNL     1      11.900  -1.191 -13.601  1.00  0.00     0.007 C 
ATOM     27  C   UNL     1       9.431  -1.064 -13.224  1.00  0.00     0.007 C 
ENDBRANCH  24  25
ENDBRANCH  18  24
ENDBRANCH  15  18
ENDBRANCH  13  14
BRANCH  13  28
ATOM     28  C   UNL     1       5.634  -1.600 -17.699  1.00  0.00     0.327 C 
ATOM     29  O   UNL     1       4.792  -1.180 -18.478  1.00  0.00    -0.250 OA
BRANCH  28  30
ATOM     30  O   UNL     1       5.913  -2.918 -17.640  1.00  0.00    -0.480 OA
ATOM     31  H   UNL     1       6.650  -2.980 -16.997  1.00  0.00     0.296 HD
ENDBRANCH  28  30
ENDBRANCH  13  28
ENDBRANCH  11  13
ENDBRANCH   8  11
ENDBRANCH   6   7
BRANCH   6  32
ATOM     32  C   UNL     1       6.685  -5.219 -14.460  1.00  0.00     0.037 C 
BRANCH  32  33
ATOM     33  C   UNL     1       8.063  -4.677 -14.865  1.00  0.00     0.026 C 
BRANCH  33  34
ATOM     34  C   UNL     1       8.632  -5.388 -16.094  1.00  0.00     0.146 C 
BRANCH  34  35
ATOM     35  N   UNL     1       8.070  -4.779 -17.291  1.00  0.00    -0.254 NA
ATOM     36  C   UNL     1       8.296  -5.331 -18.425  1.00  0.00     0.185 C 
ATOM     37  N   UNL     1       7.778  -4.781 -19.535  1.00  0.00    -0.370 N 
ATOM     38  N   UNL     1       9.008  -6.438 -18.699  1.00  0.00    -0.370 N 
ATOM     39  H   UNL     1       7.218  -3.947 -19.410  1.00  0.00     0.159 HD
ATOM     40  H   UNL     1       7.762  -5.242 -20.428  1.00  0.00     0.159 HD
ATOM     41  H   UNL     1       9.229  -6.695 -19.647  1.00  0.00     0.159 HD
ATOM     42  H   UNL     1       9.468  -6.947 -17.960  1.00  0.00     0.159 HD
ENDBRANCH  34  35
ENDBRANCH  33  34
ENDBRANCH  32  33
ENDBRANCH   6  32
ENDBRANCH   4   6
ENDBRANCH   1   2
BRANCH   1  43
ATOM     43  C   UNL     1       5.030  -2.109  -9.674  1.00  0.00     0.102 C 
ATOM     44  C   UNL     1       4.366  -2.967  -8.584  1.00  0.00     0.020 C 
BRANCH  43  45
ATOM     45  C   UNL     1       4.086  -1.708 -10.811  1.00  0.00     0.225 C 
ATOM     46  O   UNL     1       4.300  -0.756 -11.556  1.00  0.00    -0.275 OA
ATOM     47  N   UNL     1       2.918  -2.431 -10.894  1.00  0.00    -0.342 N 
ATOM     48  H   UNL     1       2.828  -3.296 -10.380  1.00  0.00     0.164 HD
BRANCH  47  49
ATOM     49  C   UNL     1       1.937  -2.183 -11.955  1.00  0.00     0.192 C 
BRANCH  49  50
ATOM     50  C   UNL     1       0.661  -1.596 -11.347  1.00  0.00     0.047 C 
BRANCH  50  51
ATOM     51  C   UNL     1       0.951  -0.415 -10.411  1.00  0.00     0.103 C 
BRANCH  51  52
ATOM     52  C   UNL     1       0.264  -0.573  -9.056  1.00  0.00     0.226 C 
ATOM     53  O   UNL     1       0.642  -1.453  -8.280  1.00  0.00    -0.275 OA
BRANCH  52  54
ATOM     54  N   UNL     1      -0.732   0.370  -8.744  1.00  0.00    -0.311 N 
ATOM     55  C   UNL     1      -0.428   1.806  -8.703  1.00  0.00     0.153 C 
BRANCH  54  56
ATOM     56  C   UNL     1      -2.052  -0.024  -8.467  1.00  0.00     0.102 C 
ATOM     57  C   UNL     1      -2.942  -0.432  -9.387  1.00  0.00     0.043 C 
BRANCH  56  58
ATOM     58  C   UNL     1      -2.568  -0.060  -7.048  1.00  0.00     0.268 C 
ATOM     59  O   UNL     1      -3.480   0.653  -6.649  1.00  0.00    -0.268 OA
ATOM     60  N   UNL     1      -1.956  -1.016  -6.274  1.00  0.00    -0.339 N 
ATOM     61  H   UNL     1      -1.201  -1.559  -6.677  1.00  0.00     0.164 HD
BRANCH  60  62
ATOM     62  C   UNL     1      -2.347  -1.264  -4.887  1.00  0.00     0.168 CG0
ATOM     63  C   UNL     1      -1.243  -1.992  -4.129  1.00  0.00     0.041 C 
ATOM     64  G   UNL     1      -3.658  -2.076  -4.856  1.00  0.00     0.000 G0
ENDBRANCH  60  62
ENDBRANCH  56  58
ENDBRANCH  54  56
ENDBRANCH  52  54
ENDBRANCH  51  52
ENDBRANCH  50  51
ENDBRANCH  49  50
BRANCH  49  65
ATOM     65  C   UNL     1       1.592  -3.470 -12.720  1.00  0.00     0.326 C 
ATOM     66  O   UNL     1       1.665  -4.605 -12.271  1.00  0.00    -0.250 OA
BRANCH  65  67
ATOM     67  O   UNL     1       1.235  -3.281 -14.009  1.00  0.00    -0.480 OA
ATOM     68  H   UNL     1       0.543  -2.587 -13.959  1.00  0.00     0.296 HD
ENDBRANCH  65  67
ENDBRANCH  49  65
ENDBRANCH  47  49
ENDBRANCH  43  45
ENDBRANCH   1  43
BRANCH   1  69
ATOM     69  C   UNL     1       7.644  -1.955 -10.064  1.00  0.00    -0.001 C 
ATOM     70  C   UNL     1       8.877  -2.462  -9.889  1.00  0.00     0.001 C 
BRANCH  70  71
ATOM     71  C   UNL     1      10.126  -1.709  -9.751  1.00  0.00    -0.055 C 
ATOM     72  C   UNL     1      10.037  -0.376  -9.560  1.00  0.00    -0.018 C 
ATOM     73  C   UNL     1      11.420  -2.477  -9.823  1.00  0.00     0.044 C 
BRANCH  72  74
ATOM     74  C   UNL     1      11.150   0.647  -9.383  1.00  0.00     0.038 C 
ATOM     75  C   UNL     1      11.536   0.643  -7.899  1.00  0.00     0.015 C 
BRANCH  74  76
ATOM     76  C   UNL     1      10.657   2.021  -9.926  1.00  0.00     0.128 C 
BRANCH  76  77
ATOM     77  O   UNL     1      10.451   2.935  -8.835  1.00  0.00    -0.381 OA
ATOM     78  C   UNL     1      11.037   4.213  -9.042  1.00  0.00     0.195 C 
ENDBRANCH  76  77
BRANCH  76  79
ATOM     79  C   UNL     1      11.552   2.614 -11.043  1.00  0.00     0.068 C 
BRANCH  79  80
ATOM     80  C   UNL     1      11.040   2.558 -12.462  1.00  0.00    -0.045 A 
ATOM     81  C   UNL     1      11.925   2.542 -13.549  1.00  0.00     0.004 A 
ATOM     82  C   UNL     1       9.660   2.551 -12.717  1.00  0.00     0.004 A 
ATOM     83  C   UNL     1      11.444   2.505 -14.859  1.00  0.00     0.000 A 
ATOM     84  C   UNL     1       9.180   2.514 -14.028  1.00  0.00     0.000 A 
ATOM     85  C   UNL     1      10.071   2.490 -15.098  1.00  0.00     0.000 A 
ENDBRANCH  79  80
ENDBRANCH  76  79
ENDBRANCH  74  76
ENDBRANCH  72  74
ENDBRANCH  70  71
ENDBRANCH   1  69
TORSDOF 17
ENDMDL
MODEL 6
REMARK VINA RESULT:    -5.940      2.591      5.651
REMARK INTER + INTRA:         -26.377
REMARK INTER:                 -19.607
REMARK INTRA:                  -6.769
REMARK UNBOUND:                -8.629
REMARK SMILES C=C1C(=O)N[C@H](C)C(=O)N[C@@H](CC(C)C)C(=O)N[C@@H](C(=O)O)[C@H](C)C(=O)N[C@@H](CCCN=C(N)N)C(=O)N[C@@H](/C=C/C(C)=C/[C@H](C)[C@H](Cc2ccccc2)OC)[C@H](C)C(=O)N[C@@H](C(=O)O)CCC(=O)N1C
REMARK SMILES IDX 39 1 38 2 37 3 36 4 28 6 27 7 25 8 26 9 23 11 24 12 19 13
REMARK SMILES IDX 18 14 16 15 17 16 11 18 10 19 8 20 9 21 12 24 13 25 14 26
REMARK SMILES IDX 15 27 20 28 21 29 22 30 29 32 30 33 31 34 32 35 33 36 34 37
REMARK SMILES IDX 35 38 57 43 58 44 59 45 60 46 61 47 62 49 66 50 67 51 68 52
REMARK SMILES IDX 69 53 70 54 71 55 2 56 1 57 3 58 4 59 5 60 6 62 7 63 63 65
REMARK SMILES IDX 64 66 65 67 40 69 41 70 42 71 44 72 43 73 45 74 46 75 47 76
REMARK SMILES IDX 55 77 56 78 48 79 49 80 50 81 54 82 51 83 53 84 52 85
REMARK H PARENT 38 5 27 10 18 17 10 22 22 31 34 39 34 40 35 41 35 42 61 48
REMARK H PARENT 5 61 65 68
REMARK Flexibility Score:  369.900
ROOT
ATOM      1  C   UNL     1       6.413  -1.949  -8.733  1.00  0.00     0.117 C 
ENDROOT
BRANCH   1   2
ATOM      2  N   UNL     1       5.499  -1.981  -9.875  1.00  0.00    -0.347 N 
ATOM      3  O   UNL     1       5.030  -4.228  -9.837  1.00  0.00    -0.273 OA
ATOM      4  C   UNL     1       4.807  -3.106 -10.280  1.00  0.00     0.243 C 
ATOM      5  H   UNL     1       5.310  -1.129 -10.381  1.00  0.00     0.164 HD
BRANCH   4   6
ATOM      6  C   UNL     1       3.839  -2.850 -11.463  1.00  0.00     0.171 C 
BRANCH   6   7
ATOM      7  N   UNL     1       4.292  -3.570 -12.664  1.00  0.00    -0.344 N 
ATOM      8  C   UNL     1       5.513  -3.284 -13.236  1.00  0.00     0.226 C 
ATOM      9  O   UNL     1       6.261  -2.418 -12.798  1.00  0.00    -0.275 OA
ATOM     10  H   UNL     1       3.672  -4.245 -13.094  1.00  0.00     0.164 HD
BRANCH   8  11
ATOM     11  C   UNL     1       5.860  -4.149 -14.435  1.00  0.00     0.109 C 
ATOM     12  C   UNL     1       4.640  -4.963 -14.867  1.00  0.00     0.021 C 
BRANCH  11  13
ATOM     13  C   UNL     1       6.484  -3.278 -15.543  1.00  0.00     0.204 C 
BRANCH  13  14
ATOM     14  N   UNL     1       7.254  -4.075 -16.503  1.00  0.00    -0.340 N 
ATOM     15  C   UNL     1       8.455  -4.673 -16.186  1.00  0.00     0.243 C 
ATOM     16  O   UNL     1       8.936  -4.629 -15.055  1.00  0.00    -0.273 OA
ATOM     17  H   UNL     1       6.991  -4.024 -17.491  1.00  0.00     0.164 HD
BRANCH  15  18
ATOM     18  C   UNL     1       9.184  -5.282 -17.409  1.00  0.00     0.171 C 
BRANCH  18  19
ATOM     19  N   UNL     1       8.436  -4.865 -18.593  1.00  0.00    -0.343 N 
ATOM     20  C   UNL     1       7.772  -5.775 -19.393  1.00  0.00     0.242 CG0
ATOM     21  O   UNL     1       7.890  -6.986 -19.224  1.00  0.00    -0.273 OA
ATOM     22  H   UNL     1       8.406  -3.883 -18.842  1.00  0.00     0.164 HD
ATOM     23  G   UNL     1       6.974  -5.141 -20.551  1.00  0.00     0.000 G0
ENDBRANCH  18  19
BRANCH  18  24
ATOM     24  C   UNL     1      10.640  -4.802 -17.466  1.00  0.00     0.038 C 
BRANCH  24  25
ATOM     25  C   UNL     1      11.693  -5.921 -17.322  1.00  0.00    -0.015 C 
ATOM     26  C   UNL     1      11.210  -7.256 -17.888  1.00  0.00     0.007 C 
ATOM     27  C   UNL     1      12.065  -6.091 -15.847  1.00  0.00     0.007 C 
ENDBRANCH  24  25
ENDBRANCH  18  24
ENDBRANCH  15  18
ENDBRANCH  13  14
BRANCH  13  28
ATOM     28  C   UNL     1       5.447  -2.483 -16.342  1.00  0.00     0.327 C 
ATOM     29  O   UNL     1       4.768  -1.558 -15.926  1.00  0.00    -0.250 OA
BRANCH  28  30
ATOM     30  O   UNL     1       5.241  -2.977 -17.580  1.00  0.00    -0.480 OA
ATOM     31  H   UNL     1       4.296  -3.234 -17.584  1.00  0.00     0.296 HD
ENDBRANCH  28  30
ENDBRANCH  13  28
ENDBRANCH  11  13
ENDBRANCH   8  11
ENDBRANCH   6   7
BRANCH   6  32
ATOM     32  C   UNL     1       2.427  -3.289 -11.062  1.00  0.00     0.037 C 
BRANCH  32  33
ATOM     33  C   UNL     1       1.355  -2.297 -11.533  1.00  0.00     0.026 C 
BRANCH  33  34
ATOM     34  C   UNL     1       1.087  -1.194 -10.508  1.00  0.00     0.146 C 
BRANCH  34  35
ATOM     35  N   UNL     1       0.137  -0.246 -11.075  1.00  0.00    -0.254 NA
ATOM     36  C   UNL     1      -0.973  -0.050 -10.466  1.00  0.00     0.185 C 
ATOM     37  N   UNL     1      -1.853   0.825 -10.977  1.00  0.00    -0.370 N 
ATOM     38  N   UNL     1      -1.424  -0.612  -9.331  1.00  0.00    -0.370 N 
ATOM     39  H   UNL     1      -1.580   1.298 -11.829  1.00  0.00     0.159 HD
ATOM     40  H   UNL     1      -2.658   1.161 -10.476  1.00  0.00     0.159 HD
ATOM     41  H   UNL     1      -2.375  -0.480  -9.026  1.00  0.00     0.159 HD
ATOM     42  H   UNL     1      -0.872  -1.302  -8.845  1.00  0.00     0.159 HD
ENDBRANCH  34  35
ENDBRANCH  33  34
ENDBRANCH  32  33
ENDBRANCH   6  32
ENDBRANCH   4   6
ENDBRANCH   1   2
BRANCH   1  43
ATOM     43  C   UNL     1       5.776  -1.076  -7.613  1.00  0.00     0.102 C 
ATOM     44  C   UNL     1       6.788  -0.166  -6.896  1.00  0.00     0.020 C 
BRANCH  43  45
ATOM     45  C   UNL     1       4.928  -1.930  -6.665  1.00  0.00     0.225 C 
ATOM     46  O   UNL     1       4.754  -3.135  -6.823  1.00  0.00    -0.275 OA
ATOM     47  N   UNL     1       4.285  -1.241  -5.663  1.00  0.00    -0.342 N 
ATOM     48  H   UNL     1       4.556  -0.289  -5.456  1.00  0.00     0.164 HD
BRANCH  47  49
ATOM     49  C   UNL     1       3.468  -1.931  -4.660  1.00  0.00     0.192 C 
BRANCH  49  50
ATOM     50  C   UNL     1       2.194  -1.127  -4.392  1.00  0.00     0.047 C 
BRANCH  50  51
ATOM     51  C   UNL     1       1.801  -0.245  -5.585  1.00  0.00     0.103 C 
BRANCH  51  52
ATOM     52  C   UNL     1       0.504  -0.712  -6.242  1.00  0.00     0.226 C 
ATOM     53  O   UNL     1       0.543  -1.559  -7.136  1.00  0.00    -0.275 OA
BRANCH  52  54
ATOM     54  N   UNL     1      -0.691  -0.186  -5.715  1.00  0.00    -0.311 N 
ATOM     55  C   UNL     1      -0.873   1.263  -5.559  1.00  0.00     0.153 C 
BRANCH  54  56
ATOM     56  C   UNL     1      -1.751  -1.021  -5.327  1.00  0.00     0.102 C 
ATOM     57  C   UNL     1      -2.902  -1.168  -6.004  1.00  0.00     0.043 C 
BRANCH  56  58
ATOM     58  C   UNL     1      -1.646  -1.883  -4.091  1.00  0.00     0.268 C 
ATOM     59  O   UNL     1      -0.951  -2.889  -4.033  1.00  0.00    -0.268 OA
ATOM     60  N   UNL     1      -2.354  -1.386  -3.023  1.00  0.00    -0.339 N 
ATOM     61  H   UNL     1      -2.913  -0.552  -3.156  1.00  0.00     0.164 HD
BRANCH  60  62
ATOM     62  C   UNL     1      -2.340  -2.030  -1.711  1.00  0.00     0.168 CG0
ATOM     63  C   UNL     1      -3.467  -3.048  -1.589  1.00  0.00     0.041 C 
ATOM     64  G   UNL     1      -2.452  -0.958  -0.607  1.00  0.00     0.000 G0
ENDBRANCH  60  62
ENDBRANCH  56  58
ENDBRANCH  54  56
ENDBRANCH  52  54
ENDBRANCH  51  52
ENDBRANCH  50  51
ENDBRANCH  49  50
BRANCH  49  65
ATOM     65  C   UNL     1       4.234  -2.126  -3.342  1.00  0.00     0.326 C 
ATOM     66  O   UNL     1       5.020  -1.329  -2.852  1.00  0.00    -0.250 OA
BRANCH  65  67
ATOM     67  O   UNL     1       4.027  -3.319  -2.741  1.00  0.00    -0.480 OA
ATOM     68  H   UNL     1       3.051  -3.365  -2.648  1.00  0.00     0.296 HD
ENDBRANCH  65  67
ENDBRANCH  49  65
ENDBRANCH  47  49
ENDBRANCH  43  45
ENDBRANCH   1  43
BRANCH   1  69
ATOM     69  C   UNL     1       7.770  -1.555  -9.287  1.00  0.00    -0.001 C 
ATOM     70  C   UNL     1       8.771  -2.374  -9.655  1.00  0.00     0.001 C 
BRANCH  70  71
ATOM     71  C   UNL     1      10.069  -1.984 -10.209  1.00  0.00    -0.055 C 
ATOM     72  C   UNL     1      10.075  -1.306 -11.376  1.00  0.00    -0.018 C 
ATOM     73  C   UNL     1      11.305  -2.358  -9.433  1.00  0.00     0.044 C 
BRANCH  72  74
ATOM     74  C   UNL     1      11.256  -0.775 -12.176  1.00  0.00     0.038 C 
ATOM     75  C   UNL     1      11.372   0.723 -11.871  1.00  0.00     0.015 C 
BRANCH  74  76
ATOM     76  C   UNL     1      11.040  -1.121 -13.678  1.00  0.00     0.128 C 
BRANCH  76  77
ATOM     77  O   UNL     1      11.775  -2.308 -14.020  1.00  0.00    -0.381 OA
ATOM     78  C   UNL     1      12.182  -2.357 -15.381  1.00  0.00     0.195 C 
ENDBRANCH  76  77
BRANCH  76  79
ATOM     79  C   UNL     1       9.551  -1.197 -14.099  1.00  0.00     0.068 C 
BRANCH  79  80
ATOM     80  C   UNL     1       8.896   0.063 -14.611  1.00  0.00    -0.045 A 
ATOM     81  C   UNL     1       9.664   1.148 -15.054  1.00  0.00     0.004 A 
ATOM     82  C   UNL     1       7.497   0.178 -14.624  1.00  0.00     0.004 A 
ATOM     83  C   UNL     1       9.051   2.315 -15.513  1.00  0.00     0.000 A 
ATOM     84  C   UNL     1       6.885   1.347 -15.082  1.00  0.00     0.000 A 
ATOM     85  C   UNL     1       7.661   2.414 -15.528  1.00  0.00     0.000 A 
ENDBRANCH  79  80
ENDBRANCH  76  79
ENDBRANCH  74  76
ENDBRANCH  72  74
ENDBRANCH  70  71
ENDBRANCH   1  69
TORSDOF 17
ENDMDL
MODEL 7
REMARK VINA RESULT:    -5.922      3.417     11.574
REMARK INTER + INTRA:         -26.323
REMARK INTER:                 -19.310
REMARK INTRA:                  -7.013
REMARK UNBOUND:                -8.629
REMARK SMILES C=C1C(=O)N[C@H](C)C(=O)N[C@@H](CC(C)C)C(=O)N[C@@H](C(=O)O)[C@H](C)C(=O)N[C@@H](CCCN=C(N)N)C(=O)N[C@@H](/C=C/C(C)=C/[C@H](C)[C@H](Cc2ccccc2)OC)[C@H](C)C(=O)N[C@@H](C(=O)O)CCC(=O)N1C
REMARK SMILES IDX 39 1 38 2 37 3 36 4 28 6 27 7 25 8 26 9 23 11 24 12 19 13
REMARK SMILES IDX 18 14 16 15 17 16 11 18 10 19 8 20 9 21 12 24 13 25 14 26
REMARK SMILES IDX 15 27 20 28 21 29 22 30 29 32 30 33 31 34 32 35 33 36 34 37
REMARK SMILES IDX 35 38 57 43 58 44 59 45 60 46 61 47 62 49 66 50 67 51 68 52
REMARK SMILES IDX 69 53 70 54 71 55 2 56 1 57 3 58 4 59 5 60 6 62 7 63 63 65
REMARK SMILES IDX 64 66 65 67 40 69 41 70 42 71 44 72 43 73 45 74 46 75 47 76
REMARK SMILES IDX 55 77 56 78 48 79 49 80 50 81 54 82 51 83 53 84 52 85
REMARK H PARENT 38 5 27 10 18 17 10 22 22 31 34 39 34 40 35 41 35 42 61 48
REMARK H PARENT 5 61 65 68
REMARK Flexibility Score:  369.900
ROOT
ATOM      1  C   UNL     1       6.067  -2.125 -11.385  1.00  0.00     0.117 C 
ENDROOT
BRANCH   1   2
ATOM      2  N   UNL     1       5.156  -1.909 -10.260  1.00  0.00    -0.347 N 
ATOM      3  O   UNL     1       6.742  -1.562  -8.637  1.00  0.00    -0.273 OA
ATOM      4  C   UNL     1       5.567  -1.553  -8.990  1.00  0.00     0.243 C 
ATOM      5  H   UNL     1       4.161  -1.970 -10.411  1.00  0.00     0.164 HD
BRANCH   4   6
ATOM      6  C   UNL     1       4.398  -1.300  -8.004  1.00  0.00     0.171 C 
BRANCH   6   7
ATOM      7  N   UNL     1       4.902  -1.195  -6.626  1.00  0.00    -0.344 N 
ATOM      8  C   UNL     1       4.998  -2.313  -5.825  1.00  0.00     0.226 C 
ATOM      9  O   UNL     1       4.656  -3.427  -6.203  1.00  0.00    -0.275 OA
ATOM     10  H   UNL     1       5.131  -0.281  -6.255  1.00  0.00     0.164 HD
BRANCH   8  11
ATOM     11  C   UNL     1       5.586  -2.049  -4.450  1.00  0.00     0.109 C 
ATOM     12  C   UNL     1       6.062  -0.599  -4.351  1.00  0.00     0.021 C 
BRANCH  11  13
ATOM     13  C   UNL     1       4.581  -2.477  -3.362  1.00  0.00     0.204 C 
BRANCH  13  14
ATOM     14  N   UNL     1       5.251  -2.916  -2.135  1.00  0.00    -0.340 N 
ATOM     15  C   UNL     1       4.964  -4.111  -1.511  1.00  0.00     0.243 C 
ATOM     16  O   UNL     1       4.166  -4.923  -1.976  1.00  0.00    -0.273 OA
ATOM     17  H   UNL     1       5.807  -2.229  -1.619  1.00  0.00     0.164 HD
BRANCH  15  18
ATOM     18  C   UNL     1       5.639  -4.265  -0.126  1.00  0.00     0.171 C 
BRANCH  18  19
ATOM     19  N   UNL     1       4.569  -4.518   0.836  1.00  0.00    -0.343 N 
ATOM     20  C   UNL     1       3.653  -3.543   1.181  1.00  0.00     0.242 CG0
ATOM     21  O   UNL     1       3.775  -2.382   0.798  1.00  0.00    -0.273 OA
ATOM     22  H   UNL     1       4.496  -5.432   1.269  1.00  0.00     0.164 HD
ATOM     23  G   UNL     1       2.551  -4.019   2.150  1.00  0.00     0.000 G0
ENDBRANCH  18  19
BRANCH  18  24
ATOM     24  C   UNL     1       6.660  -5.409  -0.146  1.00  0.00     0.038 C 
BRANCH  24  25
ATOM     25  C   UNL     1       8.121  -4.966  -0.374  1.00  0.00    -0.015 C 
ATOM     26  C   UNL     1       8.337  -3.484  -0.066  1.00  0.00     0.007 C 
ATOM     27  C   UNL     1       8.528  -5.257  -1.820  1.00  0.00     0.007 C 
ENDBRANCH  24  25
ENDBRANCH  18  24
ENDBRANCH  15  18
ENDBRANCH  13  14
BRANCH  13  28
ATOM     28  C   UNL     1       3.603  -1.365  -2.973  1.00  0.00     0.327 C 
ATOM     29  O   UNL     1       2.750  -0.867  -3.692  1.00  0.00    -0.250 OA
BRANCH  28  30
ATOM     30  O   UNL     1       3.834  -0.864  -1.742  1.00  0.00    -0.480 OA
ATOM     31  H   UNL     1       4.810  -0.787  -1.693  1.00  0.00     0.296 HD
ENDBRANCH  28  30
ENDBRANCH  13  28
ENDBRANCH  11  13
ENDBRANCH   8  11
ENDBRANCH   6   7
BRANCH   6  32
ATOM     32  C   UNL     1       3.660  -0.022  -8.417  1.00  0.00     0.037 C 
BRANCH  32  33
ATOM     33  C   UNL     1       2.144  -0.238  -8.525  1.00  0.00     0.026 C 
BRANCH  33  34
ATOM     34  C   UNL     1       1.723  -0.758  -9.900  1.00  0.00     0.146 C 
BRANCH  34  35
ATOM     35  N   UNL     1       1.752  -2.214  -9.880  1.00  0.00    -0.254 NA
ATOM     36  C   UNL     1       1.640  -2.846 -10.989  1.00  0.00     0.185 C 
ATOM     37  N   UNL     1       1.670  -4.187 -10.983  1.00  0.00    -0.370 N 
ATOM     38  N   UNL     1       1.489  -2.352 -12.231  1.00  0.00    -0.370 N 
ATOM     39  H   UNL     1       1.792  -4.635 -10.084  1.00  0.00     0.159 HD
ATOM     40  H   UNL     1       1.764  -4.745 -11.815  1.00  0.00     0.159 HD
ATOM     41  H   UNL     1       1.272  -2.954 -13.008  1.00  0.00     0.159 HD
ATOM     42  H   UNL     1       1.434  -1.357 -12.384  1.00  0.00     0.159 HD
ENDBRANCH  34  35
ENDBRANCH  33  34
ENDBRANCH  32  33
ENDBRANCH   6  32
ENDBRANCH   4   6
ENDBRANCH   1   2
BRANCH   1  43
ATOM     43  C   UNL     1       6.765  -3.503 -11.199  1.00  0.00     0.102 C 
ATOM     44  C   UNL     1       8.285  -3.395 -10.987  1.00  0.00     0.020 C 
BRANCH  43  45
ATOM     45  C   UNL     1       6.360  -4.479 -12.308  1.00  0.00     0.225 C 
ATOM     46  O   UNL     1       6.565  -5.688 -12.246  1.00  0.00    -0.275 OA
ATOM     47  N   UNL     1       5.827  -3.903 -13.439  1.00  0.00    -0.342 N 
ATOM     48  H   UNL     1       5.527  -2.938 -13.415  1.00  0.00     0.164 HD
BRANCH  47  49
ATOM     49  C   UNL     1       5.361  -4.716 -14.566  1.00  0.00     0.192 C 
BRANCH  49  50
ATOM     50  C   UNL     1       6.084  -4.284 -15.845  1.00  0.00     0.047 C 
BRANCH  50  51
ATOM     51  C   UNL     1       7.132  -5.311 -16.296  1.00  0.00     0.103 C 
BRANCH  51  52
ATOM     52  C   UNL     1       8.542  -4.922 -15.859  1.00  0.00     0.226 C 
ATOM     53  O   UNL     1       8.742  -4.553 -14.700  1.00  0.00    -0.275 OA
BRANCH  52  54
ATOM     54  N   UNL     1       9.562  -5.086 -16.815  1.00  0.00    -0.311 N 
ATOM     55  C   UNL     1      10.642  -6.060 -16.610  1.00  0.00     0.153 C 
BRANCH  54  56
ATOM     56  C   UNL     1       9.583  -4.331 -18.000  1.00  0.00     0.102 C 
ATOM     57  C   UNL     1       9.160  -4.768 -19.197  1.00  0.00     0.043 C 
BRANCH  56  58
ATOM     58  C   UNL     1      10.063  -2.899 -17.998  1.00  0.00     0.268 C 
ATOM     59  O   UNL     1      11.238  -2.586 -18.138  1.00  0.00    -0.268 OA
ATOM     60  N   UNL     1       9.041  -1.986 -17.889  1.00  0.00    -0.339 N 
ATOM     61  H   UNL     1       8.095  -2.327 -17.766  1.00  0.00     0.164 HD
BRANCH  60  62
ATOM     62  C   UNL     1       9.277  -0.544 -17.930  1.00  0.00     0.168 CG0
ATOM     63  C   UNL     1       9.330   0.041 -16.524  1.00  0.00     0.041 C 
ATOM     64  G   UNL     1       8.172   0.138 -18.763  1.00  0.00     0.000 G0
ENDBRANCH  60  62
ENDBRANCH  56  58
ENDBRANCH  54  56
ENDBRANCH  52  54
ENDBRANCH  51  52
ENDBRANCH  50  51
ENDBRANCH  49  50
BRANCH  49  65
ATOM     65  C   UNL     1       3.844  -4.585 -14.771  1.00  0.00     0.326 C 
ATOM     66  O   UNL     1       3.272  -4.563 -15.851  1.00  0.00    -0.250 OA
BRANCH  65  67
ATOM     67  O   UNL     1       3.133  -4.430 -13.632  1.00  0.00    -0.480 OA
ATOM     68  H   UNL     1       3.456  -3.576 -13.272  1.00  0.00     0.296 HD
ENDBRANCH  65  67
ENDBRANCH  49  65
ENDBRANCH  47  49
ENDBRANCH  43  45
ENDBRANCH   1  43
BRANCH   1  69
ATOM     69  C   UNL     1       6.923  -0.876 -11.483  1.00  0.00    -0.001 C 
ATOM     70  C   UNL     1       6.650   0.251 -12.164  1.00  0.00     0.001 C 
BRANCH  70  71
ATOM     71  C   UNL     1       7.475   1.459 -12.234  1.00  0.00    -0.055 C 
ATOM     72  C   UNL     1       8.130   1.705 -13.388  1.00  0.00    -0.018 C 
ATOM     73  C   UNL     1       7.528   2.345 -11.016  1.00  0.00     0.044 C 
BRANCH  72  74
ATOM     74  C   UNL     1       9.045   2.867 -13.746  1.00  0.00     0.038 C 
ATOM     75  C   UNL     1       8.558   3.430 -15.087  1.00  0.00     0.015 C 
BRANCH  74  76
ATOM     76  C   UNL     1      10.519   2.363 -13.747  1.00  0.00     0.128 C 
BRANCH  76  77
ATOM     77  O   UNL     1      11.318   3.185 -14.614  1.00  0.00    -0.381 OA
ATOM     78  C   UNL     1      12.553   3.589 -14.039  1.00  0.00     0.195 C 
ENDBRANCH  76  77
BRANCH  76  79
ATOM     79  C   UNL     1      11.132   2.210 -12.332  1.00  0.00     0.068 C 
BRANCH  79  80
ATOM     80  C   UNL     1      11.153   0.832 -11.716  1.00  0.00    -0.045 A 
ATOM     81  C   UNL     1      11.523  -0.290 -12.470  1.00  0.00     0.004 A 
ATOM     82  C   UNL     1      10.773   0.650 -10.378  1.00  0.00     0.004 A 
ATOM     83  C   UNL     1      11.526  -1.563 -11.896  1.00  0.00     0.000 A 
ATOM     84  C   UNL     1      10.776  -0.624  -9.806  1.00  0.00     0.000 A 
ATOM     85  C   UNL     1      11.154  -1.730 -10.564  1.00  0.00     0.000 A 
ENDBRANCH  79  80
ENDBRANCH  76  79
ENDBRANCH  74  76
ENDBRANCH  72  74
ENDBRANCH  70  71
ENDBRANCH   1  69
TORSDOF 17
ENDMDL
MODEL 8
REMARK VINA RESULT:    -5.916      4.484     11.781
REMARK INTER + INTRA:         -26.306
REMARK INTER:                 -18.488
REMARK INTRA:                  -7.818
REMARK UNBOUND:                -8.629
REMARK SMILES C=C1C(=O)N[C@H](C)C(=O)N[C@@H](CC(C)C)C(=O)N[C@@H](C(=O)O)[C@H](C)C(=O)N[C@@H](CCCN=C(N)N)C(=O)N[C@@H](/C=C/C(C)=C/[C@H](C)[C@H](Cc2ccccc2)OC)[C@H](C)C(=O)N[C@@H](C(=O)O)CCC(=O)N1C
REMARK SMILES IDX 39 1 38 2 37 3 36 4 28 6 27 7 25 8 26 9 23 11 24 12 19 13
REMARK SMILES IDX 18 14 16 15 17 16 11 18 10 19 8 20 9 21 12 24 13 25 14 26
REMARK SMILES IDX 15 27 20 28 21 29 22 30 29 32 30 33 31 34 32 35 33 36 34 37
REMARK SMILES IDX 35 38 57 43 58 44 59 45 60 46 61 47 62 49 66 50 67 51 68 52
REMARK SMILES IDX 69 53 70 54 71 55 2 56 1 57 3 58 4 59 5 60 6 62 7 63 63 65
REMARK SMILES IDX 64 66 65 67 40 69 41 70 42 71 44 72 43 73 45 74 46 75 47 76
REMARK SMILES IDX 55 77 56 78 48 79 49 80 50 81 54 82 51 83 53 84 52 85
REMARK H PARENT 38 5 27 10 18 17 10 22 22 31 34 39 34 40 35 41 35 42 61 48
REMARK H PARENT 5 61 65 68
REMARK Flexibility Score:  369.900
ROOT
ATOM      1  C   UNL     1       8.242  -1.673  -8.991  1.00  0.00     0.117 C 
ENDROOT
BRANCH   1   2
ATOM      2  N   UNL     1       6.932  -2.326  -8.976  1.00  0.00    -0.347 N 
ATOM      3  O   UNL     1       5.863  -0.914 -10.437  1.00  0.00    -0.273 OA
ATOM      4  C   UNL     1       5.870  -1.946  -9.774  1.00  0.00     0.243 C 
ATOM      5  H   UNL     1       6.789  -3.135  -8.391  1.00  0.00     0.164 HD
BRANCH   4   6
ATOM      6  C   UNL     1       4.624  -2.856  -9.628  1.00  0.00     0.171 C 
BRANCH   6   7
ATOM      7  N   UNL     1       3.669  -2.272  -8.673  1.00  0.00    -0.344 N 
ATOM      8  C   UNL     1       3.813  -2.481  -7.318  1.00  0.00     0.226 C 
ATOM      9  O   UNL     1       4.711  -3.170  -6.848  1.00  0.00    -0.275 OA
ATOM     10  H   UNL     1       2.876  -1.753  -9.027  1.00  0.00     0.164 HD
BRANCH   8  11
ATOM     11  C   UNL     1       2.781  -1.768  -6.462  1.00  0.00     0.109 C 
ATOM     12  C   UNL     1       1.549  -1.424  -7.299  1.00  0.00     0.021 C 
BRANCH  11  13
ATOM     13  C   UNL     1       2.493  -2.596  -5.194  1.00  0.00     0.204 C 
BRANCH  13  14
ATOM     14  N   UNL     1       2.930  -1.908  -3.975  1.00  0.00    -0.340 N 
ATOM     15  C   UNL     1       4.098  -2.226  -3.315  1.00  0.00     0.243 C 
ATOM     16  O   UNL     1       4.887  -3.069  -3.737  1.00  0.00    -0.273 OA
ATOM     17  H   UNL     1       2.255  -1.310  -3.492  1.00  0.00     0.164 HD
BRANCH  15  18
ATOM     18  C   UNL     1       4.247  -1.517  -1.946  1.00  0.00     0.171 C 
BRANCH  18  19
ATOM     19  N   UNL     1       2.896  -1.183  -1.498  1.00  0.00    -0.343 N 
ATOM     20  C   UNL     1       2.354   0.073  -1.689  1.00  0.00     0.242 CG0
ATOM     21  O   UNL     1       3.028   1.005  -2.124  1.00  0.00    -0.273 OA
ATOM     22  H   UNL     1       2.340  -1.888  -1.028  1.00  0.00     0.164 HD
ATOM     23  G   UNL     1       0.891   0.214  -1.222  1.00  0.00     0.000 G0
ENDBRANCH  18  19
BRANCH  18  24
ATOM     24  C   UNL     1       4.964  -2.426  -0.941  1.00  0.00     0.038 C 
BRANCH  24  25
ATOM     25  C   UNL     1       5.751  -1.678   0.157  1.00  0.00    -0.015 C 
ATOM     26  C   UNL     1       4.998  -1.629   1.486  1.00  0.00     0.007 C 
ATOM     27  C   UNL     1       6.062  -0.255  -0.313  1.00  0.00     0.007 C 
ENDBRANCH  24  25
ENDBRANCH  18  24
ENDBRANCH  15  18
ENDBRANCH  13  14
BRANCH  13  28
ATOM     28  C   UNL     1       1.009  -2.933  -5.017  1.00  0.00     0.327 C 
ATOM     29  O   UNL     1       0.163  -2.221  -4.498  1.00  0.00    -0.250 OA
BRANCH  28  30
ATOM     30  O   UNL     1       0.704  -4.191  -5.396  1.00  0.00    -0.480 OA
ATOM     31  H   UNL     1       0.189  -4.550  -4.643  1.00  0.00     0.296 HD
ENDBRANCH  28  30
ENDBRANCH  13  28
ENDBRANCH  11  13
ENDBRANCH   8  11
ENDBRANCH   6   7
BRANCH   6  32
ATOM     32  C   UNL     1       3.975  -3.046 -11.003  1.00  0.00     0.037 C 
BRANCH  32  33
ATOM     33  C   UNL     1       2.597  -2.376 -11.091  1.00  0.00     0.026 C 
BRANCH  33  34
ATOM     34  C   UNL     1       1.777  -2.878 -12.280  1.00  0.00     0.146 C 
BRANCH  34  35
ATOM     35  N   UNL     1       2.462  -4.016 -12.876  1.00  0.00    -0.254 NA
ATOM     36  C   UNL     1       3.104  -3.843 -13.971  1.00  0.00     0.185 C 
ATOM     37  N   UNL     1       3.743  -4.884 -14.527  1.00  0.00    -0.370 N 
ATOM     38  N   UNL     1       3.250  -2.719 -14.696  1.00  0.00    -0.370 N 
ATOM     39  H   UNL     1       3.689  -5.766 -14.033  1.00  0.00     0.159 HD
ATOM     40  H   UNL     1       4.404  -4.794 -15.279  1.00  0.00     0.159 HD
ATOM     41  H   UNL     1       3.662  -2.742 -15.614  1.00  0.00     0.159 HD
ATOM     42  H   UNL     1       2.808  -1.861 -14.406  1.00  0.00     0.159 HD
ENDBRANCH  34  35
ENDBRANCH  33  34
ENDBRANCH  32  33
ENDBRANCH   6  32
ENDBRANCH   4   6
ENDBRANCH   1   2
BRANCH   1  43
ATOM     43  C   UNL     1       9.253  -2.609  -9.713  1.00  0.00     0.102 C 
ATOM     44  C   UNL     1      10.723  -2.257  -9.429  1.00  0.00     0.020 C 
BRANCH  43  45
ATOM     45  C   UNL     1       8.920  -2.734 -11.203  1.00  0.00     0.225 C 
ATOM     46  O   UNL     1       9.433  -2.027 -12.066  1.00  0.00    -0.275 OA
ATOM     47  N   UNL     1       7.928  -3.635 -11.515  1.00  0.00    -0.342 N 
ATOM     48  H   UNL     1       7.628  -4.308 -10.824  1.00  0.00     0.164 HD
BRANCH  47  49
ATOM     49  C   UNL     1       7.530  -3.885 -12.904  1.00  0.00     0.192 C 
BRANCH  49  50
ATOM     50  C   UNL     1       6.520  -2.823 -13.348  1.00  0.00     0.047 C 
BRANCH  50  51
ATOM     51  C   UNL     1       7.035  -1.990 -14.531  1.00  0.00     0.103 C 
BRANCH  51  52
ATOM     52  C   UNL     1       6.978  -2.765 -15.846  1.00  0.00     0.226 C 
ATOM     53  O   UNL     1       5.932  -3.326 -16.179  1.00  0.00    -0.275 OA
BRANCH  52  54
ATOM     54  N   UNL     1       8.133  -2.724 -16.648  1.00  0.00    -0.311 N 
ATOM     55  C   UNL     1       8.089  -2.172 -18.009  1.00  0.00     0.153 C 
BRANCH  54  56
ATOM     56  C   UNL     1       9.368  -3.201 -16.179  1.00  0.00     0.102 C 
ATOM     57  C   UNL     1      10.324  -2.441 -15.621  1.00  0.00     0.043 C 
BRANCH  56  58
ATOM     58  C   UNL     1       9.701  -4.674 -16.232  1.00  0.00     0.268 C 
ATOM     59  O   UNL     1       8.934  -5.548 -15.852  1.00  0.00    -0.268 OA
ATOM     60  N   UNL     1      10.921  -4.931 -16.811  1.00  0.00    -0.339 N 
ATOM     61  H   UNL     1      11.502  -4.150 -17.091  1.00  0.00     0.164 HD
BRANCH  60  62
ATOM     62  C   UNL     1      11.412  -6.293 -17.019  1.00  0.00     0.168 CG0
ATOM     63  C   UNL     1      12.279  -6.746 -15.851  1.00  0.00     0.041 C 
ATOM     64  G   UNL     1      12.201  -6.361 -18.343  1.00  0.00     0.000 G0
ENDBRANCH  60  62
ENDBRANCH  56  58
ENDBRANCH  54  56
ENDBRANCH  52  54
ENDBRANCH  51  52
ENDBRANCH  50  51
ENDBRANCH  49  50
BRANCH  49  65
ATOM     65  C   UNL     1       6.908  -5.280 -13.072  1.00  0.00     0.326 C 
ATOM     66  O   UNL     1       6.653  -6.059 -12.165  1.00  0.00    -0.250 OA
BRANCH  65  67
ATOM     67  O   UNL     1       6.696  -5.652 -14.354  1.00  0.00    -0.480 OA
ATOM     68  H   UNL     1       7.368  -5.144 -14.857  1.00  0.00     0.296 HD
ENDBRANCH  65  67
ENDBRANCH  49  65
ENDBRANCH  47  49
ENDBRANCH  43  45
ENDBRANCH   1  43
BRANCH   1  69
ATOM     69  C   UNL     1       8.523  -1.255  -7.559  1.00  0.00    -0.001 C 
ATOM     70  C   UNL     1       7.625  -0.936  -6.610  1.00  0.00     0.001 C 
BRANCH  70  71
ATOM     71  C   UNL     1       7.908  -0.554  -5.225  1.00  0.00    -0.055 C 
ATOM     72  C   UNL     1       8.148  -1.543  -4.338  1.00  0.00    -0.018 C 
ATOM     73  C   UNL     1       7.920   0.914  -4.890  1.00  0.00     0.044 C 
BRANCH  72  74
ATOM     74  C   UNL     1       8.469  -1.448  -2.853  1.00  0.00     0.038 C 
ATOM     75  C   UNL     1       9.877  -0.853  -2.732  1.00  0.00     0.015 C 
BRANCH  74  76
ATOM     76  C   UNL     1       8.298  -2.857  -2.212  1.00  0.00     0.128 C 
BRANCH  76  77
ATOM     77  O   UNL     1       8.162  -3.851  -3.242  1.00  0.00    -0.381 OA
ATOM     78  C   UNL     1       7.781  -5.130  -2.754  1.00  0.00     0.195 C 
ENDBRANCH  76  77
BRANCH  76  79
ATOM     79  C   UNL     1       9.392  -3.213  -1.175  1.00  0.00     0.068 C 
BRANCH  79  80
ATOM     80  C   UNL     1       9.023  -3.164   0.288  1.00  0.00    -0.045 A 
ATOM     81  C   UNL     1       8.418  -4.259   0.917  1.00  0.00     0.004 A 
ATOM     82  C   UNL     1       9.256  -2.000   1.037  1.00  0.00     0.004 A 
ATOM     83  C   UNL     1       8.066  -4.200   2.267  1.00  0.00     0.000 A 
ATOM     84  C   UNL     1       8.904  -1.942   2.387  1.00  0.00     0.000 A 
ATOM     85  C   UNL     1       8.310  -3.042   3.002  1.00  0.00     0.000 A 
ENDBRANCH  79  80
ENDBRANCH  76  79
ENDBRANCH  74  76
ENDBRANCH  72  74
ENDBRANCH  70  71
ENDBRANCH   1  69
TORSDOF 17
ENDMDL
MODEL 9
REMARK VINA RESULT:    -5.804      3.501     11.477
REMARK INTER + INTRA:         -25.968
REMARK INTER:                 -19.497
REMARK INTRA:                  -6.471
REMARK UNBOUND:                -8.629
REMARK SMILES C=C1C(=O)N[C@H](C)C(=O)N[C@@H](CC(C)C)C(=O)N[C@@H](C(=O)O)[C@H](C)C(=O)N[C@@H](CCCN=C(N)N)C(=O)N[C@@H](/C=C/C(C)=C/[C@H](C)[C@H](Cc2ccccc2)OC)[C@H](C)C(=O)N[C@@H](C(=O)O)CCC(=O)N1C
REMARK SMILES IDX 39 1 38 2 37 3 36 4 28 6 27 7 25 8 26 9 23 11 24 12 19 13
REMARK SMILES IDX 18 14 16 15 17 16 11 18 10 19 8 20 9 21 12 24 13 25 14 26
REMARK SMILES IDX 15 27 20 28 21 29 22 30 29 32 30 33 31 34 32 35 33 36 34 37
REMARK SMILES IDX 35 38 57 43 58 44 59 45 60 46 61 47 62 49 66 50 67 51 68 52
REMARK SMILES IDX 69 53 70 54 71 55 2 56 1 57 3 58 4 59 5 60 6 62 7 63 63 65
REMARK SMILES IDX 64 66 65 67 40 69 41 70 42 71 44 72 43 73 45 74 46 75 47 76
REMARK SMILES IDX 55 77 56 78 48 79 49 80 50 81 54 82 51 83 53 84 52 85
REMARK H PARENT 38 5 27 10 18 17 10 22 22 31 34 39 34 40 35 41 35 42 61 48
REMARK H PARENT 5 61 65 68
REMARK Flexibility Score:  369.900
ROOT
ATOM      1  C   UNL     1       6.713  -2.361 -11.097  1.00  0.00     0.117 C 
ENDROOT
BRANCH   1   2
ATOM      2  N   UNL     1       6.167  -2.800  -9.812  1.00  0.00    -0.347 N 
ATOM      3  O   UNL     1       4.985  -0.898  -9.307  1.00  0.00    -0.273 OA
ATOM      4  C   UNL     1       5.270  -2.065  -9.061  1.00  0.00     0.243 C 
ATOM      5  H   UNL     1       6.409  -3.714  -9.459  1.00  0.00     0.164 HD
BRANCH   4   6
ATOM      6  C   UNL     1       4.781  -2.795  -7.785  1.00  0.00     0.171 C 
BRANCH   6   7
ATOM      7  N   UNL     1       4.316  -1.823  -6.783  1.00  0.00    -0.344 N 
ATOM      8  C   UNL     1       4.756  -1.893  -5.479  1.00  0.00     0.226 C 
ATOM      9  O   UNL     1       5.525  -2.763  -5.087  1.00  0.00    -0.275 OA
ATOM     10  H   UNL     1       3.628  -1.131  -7.053  1.00  0.00     0.164 HD
BRANCH   8  11
ATOM     11  C   UNL     1       4.229  -0.788  -4.580  1.00  0.00     0.109 C 
ATOM     12  C   UNL     1       3.295   0.130  -5.369  1.00  0.00     0.021 C 
BRANCH  11  13
ATOM     13  C   UNL     1       3.612  -1.400  -3.307  1.00  0.00     0.204 C 
BRANCH  13  14
ATOM     14  N   UNL     1       4.637  -1.836  -2.353  1.00  0.00    -0.340 N 
ATOM     15  C   UNL     1       4.736  -3.135  -1.903  1.00  0.00     0.243 C 
ATOM     16  O   UNL     1       4.008  -4.035  -2.317  1.00  0.00    -0.273 OA
ATOM     17  H   UNL     1       5.170  -1.116  -1.858  1.00  0.00     0.164 HD
BRANCH  15  18
ATOM     18  C   UNL     1       5.754  -3.314  -0.749  1.00  0.00     0.171 C 
BRANCH  18  19
ATOM     19  N   UNL     1       5.331  -4.493   0.003  1.00  0.00    -0.343 N 
ATOM     20  C   UNL     1       4.555  -4.392   1.142  1.00  0.00     0.242 CG0
ATOM     21  O   UNL     1       4.296  -3.303   1.650  1.00  0.00    -0.273 OA
ATOM     22  H   UNL     1       5.617  -5.413  -0.312  1.00  0.00     0.164 HD
ATOM     23  G   UNL     1       4.142  -5.747   1.753  1.00  0.00     0.000 G0
ENDBRANCH  18  19
BRANCH  18  24
ATOM     24  C   UNL     1       7.175  -3.479  -1.301  1.00  0.00     0.038 C 
BRANCH  24  25
ATOM     25  C   UNL     1       7.588  -4.937  -1.592  1.00  0.00    -0.015 C 
ATOM     26  C   UNL     1       8.954  -5.287  -1.003  1.00  0.00     0.007 C 
ATOM     27  C   UNL     1       7.602  -5.177  -3.104  1.00  0.00     0.007 C 
ENDBRANCH  24  25
ENDBRANCH  18  24
ENDBRANCH  15  18
ENDBRANCH  13  14
BRANCH  13  28
ATOM     28  C   UNL     1       2.680  -0.438  -2.564  1.00  0.00     0.327 C 
ATOM     29  O   UNL     1       1.474  -0.565  -2.424  1.00  0.00    -0.250 OA
BRANCH  28  30
ATOM     30  O   UNL     1       3.302   0.683  -2.146  1.00  0.00    -0.480 OA
ATOM     31  H   UNL     1       3.233   1.295  -2.908  1.00  0.00     0.296 HD
ENDBRANCH  28  30
ENDBRANCH  13  28
ENDBRANCH  11  13
ENDBRANCH   8  11
ENDBRANCH   6   7
BRANCH   6  32
ATOM     32  C   UNL     1       3.661  -3.772  -8.161  1.00  0.00     0.037 C 
BRANCH  32  33
ATOM     33  C   UNL     1       2.270  -3.133  -8.039  1.00  0.00     0.026 C 
BRANCH  33  34
ATOM     34  C   UNL     1       1.786  -2.530  -9.359  1.00  0.00     0.146 C 
BRANCH  34  35
ATOM     35  N   UNL     1       2.117  -3.444 -10.443  1.00  0.00    -0.254 NA
ATOM     36  C   UNL     1       2.713  -2.980 -11.477  1.00  0.00     0.185 C 
ATOM     37  N   UNL     1       3.027  -3.815 -12.480  1.00  0.00    -0.370 N 
ATOM     38  N   UNL     1       3.098  -1.718 -11.735  1.00  0.00    -0.370 N 
ATOM     39  H   UNL     1       2.779  -4.788 -12.356  1.00  0.00     0.159 HD
ATOM     40  H   UNL     1       3.641  -3.568 -13.237  1.00  0.00     0.159 HD
ATOM     41  H   UNL     1       3.434  -1.452 -12.647  1.00  0.00     0.159 HD
ATOM     42  H   UNL     1       2.912  -0.980 -11.075  1.00  0.00     0.159 HD
ENDBRANCH  34  35
ENDBRANCH  33  34
ENDBRANCH  32  33
ENDBRANCH   6  32
ENDBRANCH   4   6
ENDBRANCH   1   2
BRANCH   1  43
ATOM     43  C   UNL     1       6.617  -3.542 -12.105  1.00  0.00     0.102 C 
ATOM     44  C   UNL     1       7.778  -4.544 -11.986  1.00  0.00     0.020 C 
BRANCH  43  45
ATOM     45  C   UNL     1       6.381  -3.031 -13.530  1.00  0.00     0.225 C 
ATOM     46  O   UNL     1       5.500  -2.225 -13.816  1.00  0.00    -0.275 OA
ATOM     47  N   UNL     1       7.166  -3.606 -14.503  1.00  0.00    -0.342 N 
ATOM     48  H   UNL     1       7.978  -4.146 -14.237  1.00  0.00     0.164 HD
BRANCH  47  49
ATOM     49  C   UNL     1       7.075  -3.190 -15.906  1.00  0.00     0.192 C 
BRANCH  49  50
ATOM     50  C   UNL     1       7.419  -1.703 -16.024  1.00  0.00     0.047 C 
BRANCH  50  51
ATOM     51  C   UNL     1       8.832  -1.475 -16.578  1.00  0.00     0.103 C 
BRANCH  51  52
ATOM     52  C   UNL     1       9.910  -2.026 -15.646  1.00  0.00     0.226 C 
ATOM     53  O   UNL     1       9.682  -2.119 -14.438  1.00  0.00    -0.275 OA
BRANCH  52  54
ATOM     54  N   UNL     1      11.096  -2.475 -16.255  1.00  0.00    -0.311 N 
ATOM     55  C   UNL     1      12.005  -1.534 -16.924  1.00  0.00     0.153 C 
BRANCH  54  56
ATOM     56  C   UNL     1      11.459  -3.832 -16.242  1.00  0.00     0.102 C 
ATOM     57  C   UNL     1      12.653  -4.304 -15.849  1.00  0.00     0.043 C 
BRANCH  56  58
ATOM     58  C   UNL     1      10.472  -4.902 -16.645  1.00  0.00     0.268 C 
ATOM     59  O   UNL     1       9.999  -5.708 -15.856  1.00  0.00    -0.268 OA
ATOM     60  N   UNL     1      10.111  -4.833 -17.970  1.00  0.00    -0.339 N 
ATOM     61  H   UNL     1      10.557  -4.141 -18.561  1.00  0.00     0.164 HD
BRANCH  60  62
ATOM     62  C   UNL     1       9.120  -5.735 -18.555  1.00  0.00     0.168 CG0
ATOM     63  C   UNL     1       9.793  -6.929 -19.220  1.00  0.00     0.041 C 
ATOM     64  G   UNL     1       8.253  -4.961 -19.570  1.00  0.00     0.000 G0
ENDBRANCH  60  62
ENDBRANCH  56  58
ENDBRANCH  54  56
ENDBRANCH  52  54
ENDBRANCH  51  52
ENDBRANCH  50  51
ENDBRANCH  49  50
BRANCH  49  65
ATOM     65  C   UNL     1       5.670  -3.434 -16.480  1.00  0.00     0.326 C 
ATOM     66  O   UNL     1       5.152  -2.797 -17.385  1.00  0.00    -0.250 OA
BRANCH  65  67
ATOM     67  O   UNL     1       4.970  -4.410 -15.861  1.00  0.00    -0.480 OA
ATOM     68  H   UNL     1       5.078  -4.204 -14.907  1.00  0.00     0.296 HD
ENDBRANCH  65  67
ENDBRANCH  49  65
ENDBRANCH  47  49
ENDBRANCH  43  45
ENDBRANCH   1  43
BRANCH   1  69
ATOM     69  C   UNL     1       8.074  -1.762 -10.796  1.00  0.00    -0.001 C 
ATOM     70  C   UNL     1       8.846  -1.986  -9.718  1.00  0.00     0.001 C 
BRANCH  70  71
ATOM     71  C   UNL     1      10.168  -1.418  -9.448  1.00  0.00    -0.055 C 
ATOM     72  C   UNL     1      10.235  -0.111  -9.120  1.00  0.00    -0.018 C 
ATOM     73  C   UNL     1      11.360  -2.335  -9.549  1.00  0.00     0.044 C 
BRANCH  72  74
ATOM     74  C   UNL     1      11.454   0.738  -8.789  1.00  0.00     0.038 C 
ATOM     75  C   UNL     1      11.644   0.683  -7.268  1.00  0.00     0.015 C 
BRANCH  74  76
ATOM     76  C   UNL     1      11.242   2.167  -9.369  1.00  0.00     0.128 C 
BRANCH  76  77
ATOM     77  O   UNL     1      12.507   2.839  -9.495  1.00  0.00    -0.381 OA
ATOM     78  C   UNL     1      12.430   4.243  -9.293  1.00  0.00     0.195 C 
ENDBRANCH  76  77
BRANCH  76  79
ATOM     79  C   UNL     1      10.413   2.198 -10.678  1.00  0.00     0.068 C 
BRANCH  79  80
ATOM     80  C   UNL     1      11.132   1.924 -11.977  1.00  0.00    -0.045 A 
ATOM     81  C   UNL     1      11.224   0.623 -12.490  1.00  0.00     0.004 A 
ATOM     82  C   UNL     1      11.748   2.970 -12.679  1.00  0.00     0.004 A 
ATOM     83  C   UNL     1      11.903   0.375 -13.685  1.00  0.00     0.000 A 
ATOM     84  C   UNL     1      12.427   2.721 -13.874  1.00  0.00     0.000 A 
ATOM     85  C   UNL     1      12.503   1.425 -14.377  1.00  0.00     0.000 A 
ENDBRANCH  79  80
ENDBRANCH  76  79
ENDBRANCH  74  76
ENDBRANCH  72  74
ENDBRANCH  70  71
ENDBRANCH   1  69
TORSDOF 17
ENDMDL
MODEL 10
REMARK VINA RESULT:    -5.754      1.911      3.071
REMARK INTER + INTRA:         -25.819
REMARK INTER:                 -18.028
REMARK INTRA:                  -7.791
REMARK UNBOUND:                -8.629
REMARK SMILES C=C1C(=O)N[C@H](C)C(=O)N[C@@H](CC(C)C)C(=O)N[C@@H](C(=O)O)[C@H](C)C(=O)N[C@@H](CCCN=C(N)N)C(=O)N[C@@H](/C=C/C(C)=C/[C@H](C)[C@H](Cc2ccccc2)OC)[C@H](C)C(=O)N[C@@H](C(=O)O)CCC(=O)N1C
REMARK SMILES IDX 39 1 38 2 37 3 36 4 28 6 27 7 25 8 26 9 23 11 24 12 19 13
REMARK SMILES IDX 18 14 16 15 17 16 11 18 10 19 8 20 9 21 12 24 13 25 14 26
REMARK SMILES IDX 15 27 20 28 21 29 22 30 29 32 30 33 31 34 32 35 33 36 34 37
REMARK SMILES IDX 35 38 57 43 58 44 59 45 60 46 61 47 62 49 66 50 67 51 68 52
REMARK SMILES IDX 69 53 70 54 71 55 2 56 1 57 3 58 4 59 5 60 6 62 7 63 63 65
REMARK SMILES IDX 64 66 65 67 40 69 41 70 42 71 44 72 43 73 45 74 46 75 47 76
REMARK SMILES IDX 55 77 56 78 48 79 49 80 50 81 54 82 51 83 53 84 52 85
REMARK H PARENT 38 5 27 10 18 17 10 22 22 31 34 39 34 40 35 41 35 42 61 48
REMARK H PARENT 5 61 65 68
REMARK Flexibility Score:  369.900
ROOT
ATOM      1  C   UNL     1       5.162  -3.434 -11.799  1.00  0.00     0.117 C 
ENDROOT
BRANCH   1   2
ATOM      2  N   UNL     1       5.650  -3.322 -13.173  1.00  0.00    -0.347 N 
ATOM      3  O   UNL     1       4.781  -5.290 -13.975  1.00  0.00    -0.273 OA
ATOM      4  C   UNL     1       5.342  -4.218 -14.179  1.00  0.00     0.243 C 
ATOM      5  H   UNL     1       6.207  -2.523 -13.437  1.00  0.00     0.164 HD
BRANCH   4   6
ATOM      6  C   UNL     1       5.915  -3.822 -15.563  1.00  0.00     0.171 C 
BRANCH   6   7
ATOM      7  N   UNL     1       5.939  -2.358 -15.711  1.00  0.00    -0.344 N 
ATOM      8  C   UNL     1       5.477  -1.761 -16.864  1.00  0.00     0.226 C 
ATOM      9  O   UNL     1       5.053  -2.404 -17.817  1.00  0.00    -0.275 OA
ATOM     10  H   UNL     1       6.344  -1.797 -14.973  1.00  0.00     0.164 HD
BRANCH   8  11
ATOM     11  C   UNL     1       5.517  -0.243 -16.841  1.00  0.00     0.109 C 
ATOM     12  C   UNL     1       4.135   0.314 -16.497  1.00  0.00     0.021 C 
BRANCH  11  13
ATOM     13  C   UNL     1       6.656   0.235 -15.919  1.00  0.00     0.204 C 
BRANCH  13  14
ATOM     14  N   UNL     1       7.978  -0.107 -16.454  1.00  0.00    -0.340 N 
ATOM     15  C   UNL     1       8.922  -0.802 -15.729  1.00  0.00     0.243 C 
ATOM     16  O   UNL     1       8.698  -1.239 -14.601  1.00  0.00    -0.273 OA
ATOM     17  H   UNL     1       8.281   0.353 -17.317  1.00  0.00     0.164 HD
BRANCH  15  18
ATOM     18  C   UNL     1      10.308  -0.864 -16.416  1.00  0.00     0.171 C 
BRANCH  18  19
ATOM     19  N   UNL     1      10.081  -0.618 -17.839  1.00  0.00    -0.343 N 
ATOM     20  C   UNL     1      10.855  -1.217 -18.815  1.00  0.00     0.242 CG0
ATOM     21  O   UNL     1      11.851  -1.877 -18.530  1.00  0.00    -0.273 OA
ATOM     22  H   UNL     1       9.341   0.014 -18.123  1.00  0.00     0.164 HD
ATOM     23  G   UNL     1      10.416  -0.899 -20.259  1.00  0.00     0.000 G0
ENDBRANCH  18  19
BRANCH  18  24
ATOM     24  C   UNL     1      11.259   0.175 -15.811  1.00  0.00     0.038 C 
BRANCH  24  25
ATOM     25  C   UNL     1      12.255  -0.389 -14.775  1.00  0.00    -0.015 C 
ATOM     26  C   UNL     1      12.278  -1.917 -14.758  1.00  0.00     0.007 C 
ATOM     27  C   UNL     1      11.902   0.138 -13.382  1.00  0.00     0.007 C 
ENDBRANCH  24  25
ENDBRANCH  18  24
ENDBRANCH  15  18
ENDBRANCH  13  14
BRANCH  13  28
ATOM     28  C   UNL     1       6.642   1.747 -15.677  1.00  0.00     0.327 C 
ATOM     29  O   UNL     1       6.342   2.309 -14.634  1.00  0.00    -0.250 OA
BRANCH  28  30
ATOM     30  O   UNL     1       6.890   2.464 -16.791  1.00  0.00    -0.480 OA
ATOM     31  H   UNL     1       6.901   1.798 -17.509  1.00  0.00     0.296 HD
ENDBRANCH  28  30
ENDBRANCH  13  28
ENDBRANCH  11  13
ENDBRANCH   8  11
ENDBRANCH   6   7
BRANCH   6  32
ATOM     32  C   UNL     1       7.323  -4.410 -15.712  1.00  0.00     0.037 C 
BRANCH  32  33
ATOM     33  C   UNL     1       7.945  -4.084 -17.077  1.00  0.00     0.026 C 
BRANCH  33  34
ATOM     34  C   UNL     1       8.770  -5.245 -17.636  1.00  0.00     0.146 C 
BRANCH  34  35
ATOM     35  N   UNL     1      10.134  -4.787 -17.860  1.00  0.00    -0.254 NA
ATOM     36  C   UNL     1      11.020  -5.036 -16.969  1.00  0.00     0.185 C 
ATOM     37  N   UNL     1      12.281  -4.624 -17.167  1.00  0.00    -0.370 N 
ATOM     38  N   UNL     1      10.882  -5.685 -15.798  1.00  0.00    -0.370 N 
ATOM     39  H   UNL     1      12.468  -4.135 -18.033  1.00  0.00     0.159 HD
ATOM     40  H   UNL     1      13.060  -4.927 -16.608  1.00  0.00     0.159 HD
ATOM     41  H   UNL     1      11.624  -5.695 -15.118  1.00  0.00     0.159 HD
ATOM     42  H   UNL     1       9.982  -6.037 -15.511  1.00  0.00     0.159 HD
ENDBRANCH  34  35
ENDBRANCH  33  34
ENDBRANCH  32  33
ENDBRANCH   6  32
ENDBRANCH   4   6
ENDBRANCH   1   2
BRANCH   1  43
ATOM     43  C   UNL     1       3.762  -2.761 -11.714  1.00  0.00     0.102 C 
ATOM     44  C   UNL     1       3.767  -1.282 -12.134  1.00  0.00     0.020 C 
BRANCH  43  45
ATOM     45  C   UNL     1       3.109  -3.019 -10.352  1.00  0.00     0.225 C 
ATOM     46  O   UNL     1       2.369  -3.974 -10.133  1.00  0.00    -0.275 OA
ATOM     47  N   UNL     1       3.328  -2.051  -9.398  1.00  0.00    -0.342 N 
ATOM     48  H   UNL     1       4.052  -1.361  -9.543  1.00  0.00     0.164 HD
BRANCH  47  49
ATOM     49  C   UNL     1       2.795  -2.182  -8.039  1.00  0.00     0.192 C 
BRANCH  49  50
ATOM     50  C   UNL     1       2.166  -0.856  -7.603  1.00  0.00     0.047 C 
BRANCH  50  51
ATOM     51  C   UNL     1       0.665  -0.991  -7.313  1.00  0.00     0.103 C 
BRANCH  51  52
ATOM     52  C   UNL     1       0.389  -1.251  -5.833  1.00  0.00     0.226 C 
ATOM     53  O   UNL     1       1.311  -1.180  -5.019  1.00  0.00    -0.275 OA
BRANCH  52  54
ATOM     54  N   UNL     1      -0.952  -1.487  -5.478  1.00  0.00    -0.311 N 
ATOM     55  C   UNL     1      -2.048  -0.768  -6.142  1.00  0.00     0.153 C 
BRANCH  54  56
ATOM     56  C   UNL     1      -1.293  -2.420  -4.485  1.00  0.00     0.102 C 
ATOM     57  C   UNL     1      -1.157  -3.751  -4.601  1.00  0.00     0.043 C 
BRANCH  56  58
ATOM     58  C   UNL     1      -1.817  -1.966  -3.143  1.00  0.00     0.268 C 
ATOM     59  O   UNL     1      -2.904  -2.309  -2.698  1.00  0.00    -0.268 OA
ATOM     60  N   UNL     1      -0.923  -1.187  -2.449  1.00  0.00    -0.339 N 
ATOM     61  H   UNL     1      -0.046  -0.939  -2.893  1.00  0.00     0.164 HD
BRANCH  60  62
ATOM     62  C   UNL     1      -1.202  -0.691  -1.102  1.00  0.00     0.168 CG0
ATOM     63  C   UNL     1      -0.239   0.426  -0.720  1.00  0.00     0.041 C 
ATOM     64  G   UNL     1      -1.114  -1.856  -0.094  1.00  0.00     0.000 G0
ENDBRANCH  60  62
ENDBRANCH  56  58
ENDBRANCH  54  56
ENDBRANCH  52  54
ENDBRANCH  51  52
ENDBRANCH  50  51
ENDBRANCH  49  50
BRANCH  49  65
ATOM     65  C   UNL     1       3.890  -2.579  -7.037  1.00  0.00     0.326 C 
ATOM     66  O   UNL     1       4.338  -1.864  -6.152  1.00  0.00    -0.250 OA
BRANCH  65  67
ATOM     67  O   UNL     1       4.408  -3.813  -7.227  1.00  0.00    -0.480 OA
ATOM     68  H   UNL     1       5.373  -3.679  -7.113  1.00  0.00     0.296 HD
ENDBRANCH  65  67
ENDBRANCH  49  65
ENDBRANCH  47  49
ENDBRANCH  43  45
ENDBRANCH   1  43
BRANCH   1  69
ATOM     69  C   UNL     1       6.278  -2.918 -10.909  1.00  0.00    -0.001 C 
ATOM     70  C   UNL     1       7.594  -2.882 -11.186  1.00  0.00     0.001 C 
BRANCH  70  71
ATOM     71  C   UNL     1       8.660  -2.362 -10.328  1.00  0.00    -0.055 C 
ATOM     72  C   UNL     1       9.803  -1.958 -10.922  1.00  0.00    -0.018 C 
ATOM     73  C   UNL     1       8.403  -2.306  -8.845  1.00  0.00     0.044 C 
BRANCH  72  74
ATOM     74  C   UNL     1      11.062  -1.379 -10.293  1.00  0.00     0.038 C 
ATOM     75  C   UNL     1      11.718  -2.501  -9.479  1.00  0.00     0.015 C 
BRANCH  74  76
ATOM     76  C   UNL     1      10.676  -0.115  -9.470  1.00  0.00     0.128 C 
BRANCH  76  77
ATOM     77  O   UNL     1      11.816   0.359  -8.733  1.00  0.00    -0.381 OA
ATOM     78  C   UNL     1      11.526   0.689  -7.382  1.00  0.00     0.195 C 
ENDBRANCH  76  77
BRANCH  76  79
ATOM     79  C   UNL     1       9.998   0.999 -10.307  1.00  0.00     0.068 C 
BRANCH  79  80
ATOM     80  C   UNL     1       8.494   1.116 -10.241  1.00  0.00    -0.045 A 
ATOM     81  C   UNL     1       7.717   1.101 -11.407  1.00  0.00     0.004 A 
ATOM     82  C   UNL     1       7.850   1.272  -9.004  1.00  0.00     0.004 A 
ATOM     83  C   UNL     1       6.328   1.225 -11.338  1.00  0.00     0.000 A 
ATOM     84  C   UNL     1       6.461   1.397  -8.937  1.00  0.00     0.000 A 
ATOM     85  C   UNL     1       5.700   1.371 -10.103  1.00  0.00     0.000 A 
ENDBRANCH  79  80
ENDBRANCH  76  79
ENDBRANCH  74  76
ENDBRANCH  72  74
ENDBRANCH  70  71
ENDBRANCH   1  69
TORSDOF 17
ENDMDL
MODEL 11
REMARK VINA RESULT:    -5.748      4.703      8.723
REMARK INTER + INTRA:         -25.803
REMARK INTER:                 -18.026
REMARK INTRA:                  -7.778
REMARK UNBOUND:                -8.629
REMARK SMILES C=C1C(=O)N[C@H](C)C(=O)N[C@@H](CC(C)C)C(=O)N[C@@H](C(=O)O)[C@H](C)C(=O)N[C@@H](CCCN=C(N)N)C(=O)N[C@@H](/C=C/C(C)=C/[C@H](C)[C@H](Cc2ccccc2)OC)[C@H](C)C(=O)N[C@@H](C(=O)O)CCC(=O)N1C
REMARK SMILES IDX 39 1 38 2 37 3 36 4 28 6 27 7 25 8 26 9 23 11 24 12 19 13
REMARK SMILES IDX 18 14 16 15 17 16 11 18 10 19 8 20 9 21 12 24 13 25 14 26
REMARK SMILES IDX 15 27 20 28 21 29 22 30 29 32 30 33 31 34 32 35 33 36 34 37
REMARK SMILES IDX 35 38 57 43 58 44 59 45 60 46 61 47 62 49 66 50 67 51 68 52
REMARK SMILES IDX 69 53 70 54 71 55 2 56 1 57 3 58 4 59 5 60 6 62 7 63 63 65
REMARK SMILES IDX 64 66 65 67 40 69 41 70 42 71 44 72 43 73 45 74 46 75 47 76
REMARK SMILES IDX 55 77 56 78 48 79 49 80 50 81 54 82 51 83 53 84 52 85
REMARK H PARENT 38 5 27 10 18 17 10 22 22 31 34 39 34 40 35 41 35 42 61 48
REMARK H PARENT 5 61 65 68
REMARK Flexibility Score:  369.900
ROOT
ATOM      1  C   UNL     1       7.118  -2.538  -9.824  1.00  0.00     0.117 C 
ENDROOT
BRANCH   1   2
ATOM      2  N   UNL     1       5.705  -2.453  -9.452  1.00  0.00    -0.347 N 
ATOM      3  O   UNL     1       5.005  -1.123 -11.187  1.00  0.00    -0.273 OA
ATOM      4  C   UNL     1       4.741  -1.825 -10.217  1.00  0.00     0.243 C 
ATOM      5  H   UNL     1       5.386  -2.915  -8.615  1.00  0.00     0.164 HD
BRANCH   4   6
ATOM      6  C   UNL     1       3.308  -1.952  -9.640  1.00  0.00     0.171 C 
BRANCH   6   7
ATOM      7  N   UNL     1       2.552  -0.710  -9.862  1.00  0.00    -0.344 N 
ATOM      8  C   UNL     1       1.725  -0.206  -8.882  1.00  0.00     0.226 C 
ATOM      9  O   UNL     1       1.560  -0.766  -7.804  1.00  0.00    -0.275 OA
ATOM     10  H   UNL     1       2.609  -0.255 -10.765  1.00  0.00     0.164 HD
BRANCH   8  11
ATOM     11  C   UNL     1       1.057   1.110  -9.242  1.00  0.00     0.109 C 
ATOM     12  C   UNL     1       2.113   2.151  -9.614  1.00  0.00     0.021 C 
BRANCH  11  13
ATOM     13  C   UNL     1      -0.023   0.870 -10.315  1.00  0.00     0.204 C 
BRANCH  13  14
ATOM     14  N   UNL     1       0.525   0.932 -11.673  1.00  0.00    -0.340 N 
ATOM     15  C   UNL     1       0.047   1.797 -12.634  1.00  0.00     0.243 C 
ATOM     16  O   UNL     1      -0.834   2.622 -12.401  1.00  0.00    -0.273 OA
ATOM     17  H   UNL     1       1.147   0.178 -11.975  1.00  0.00     0.164 HD
BRANCH  15  18
ATOM     18  C   UNL     1       0.633   1.539 -14.044  1.00  0.00     0.171 C 
BRANCH  18  19
ATOM     19  N   UNL     1      -0.122   2.380 -14.971  1.00  0.00    -0.343 N 
ATOM     20  C   UNL     1      -0.688   1.868 -16.123  1.00  0.00     0.242 CG0
ATOM     21  O   UNL     1      -0.471   0.715 -16.489  1.00  0.00    -0.273 OA
ATOM     22  H   UNL     1      -0.231   3.368 -14.771  1.00  0.00     0.164 HD
ATOM     23  G   UNL     1      -1.513   2.888 -16.935  1.00  0.00     0.000 G0
ENDBRANCH  18  19
BRANCH  18  24
ATOM     24  C   UNL     1       2.130   1.871 -14.077  1.00  0.00     0.038 C 
BRANCH  24  25
ATOM     25  C   UNL     1       3.011   0.808 -14.768  1.00  0.00    -0.015 C 
ATOM     26  C   UNL     1       4.425   0.754 -14.189  1.00  0.00     0.007 C 
ATOM     27  C   UNL     1       3.080   1.094 -16.270  1.00  0.00     0.007 C 
ENDBRANCH  24  25
ENDBRANCH  18  24
ENDBRANCH  15  18
ENDBRANCH  13  14
BRANCH  13  28
ATOM     28  C   UNL     1      -0.728  -0.482 -10.170  1.00  0.00     0.327 C 
ATOM     29  O   UNL     1      -1.483  -0.811  -9.269  1.00  0.00    -0.250 OA
BRANCH  28  30
ATOM     30  O   UNL     1      -0.347  -1.379 -11.103  1.00  0.00    -0.480 OA
ATOM     31  H   UNL     1      -0.115  -0.832 -11.882  1.00  0.00     0.296 HD
ENDBRANCH  28  30
ENDBRANCH  13  28
ENDBRANCH  11  13
ENDBRANCH   8  11
ENDBRANCH   6   7
BRANCH   6  32
ATOM     32  C   UNL     1       2.606  -3.146 -10.298  1.00  0.00     0.037 C 
BRANCH  32  33
ATOM     33  C   UNL     1       1.778  -3.957  -9.291  1.00  0.00     0.026 C 
BRANCH  33  34
ATOM     34  C   UNL     1       2.511  -4.168  -7.966  1.00  0.00     0.146 C 
BRANCH  34  35
ATOM     35  N   UNL     1       1.544  -4.562  -6.951  1.00  0.00    -0.254 NA
ATOM     36  C   UNL     1       1.404  -3.821  -5.915  1.00  0.00     0.185 C 
ATOM     37  N   UNL     1       0.512  -4.172  -4.976  1.00  0.00    -0.370 N 
ATOM     38  N   UNL     1       2.044  -2.681  -5.599  1.00  0.00    -0.370 N 
ATOM     39  H   UNL     1      -0.020  -5.016  -5.147  1.00  0.00     0.159 HD
ATOM     40  H   UNL     1       0.220  -3.563  -4.231  1.00  0.00     0.159 HD
ATOM     41  H   UNL     1       1.946  -2.264  -4.688  1.00  0.00     0.159 HD
ATOM     42  H   UNL     1       2.755  -2.307  -6.208  1.00  0.00     0.159 HD
ENDBRANCH  34  35
ENDBRANCH  33  34
ENDBRANCH  32  33
ENDBRANCH   6  32
ENDBRANCH   4   6
ENDBRANCH   1   2
BRANCH   1  43
ATOM     43  C   UNL     1       7.871  -1.333  -9.191  1.00  0.00     0.102 C 
ATOM     44  C   UNL     1       9.364  -1.608  -8.940  1.00  0.00     0.020 C 
BRANCH  43  45
ATOM     45  C   UNL     1       7.123  -0.799  -7.966  1.00  0.00     0.225 C 
ATOM     46  O   UNL     1       6.415   0.203  -7.997  1.00  0.00    -0.275 OA
ATOM     47  N   UNL     1       7.367  -1.464  -6.786  1.00  0.00    -0.342 N 
ATOM     48  H   UNL     1       7.824  -2.365  -6.805  1.00  0.00     0.164 HD
BRANCH  47  49
ATOM     49  C   UNL     1       6.694  -1.087  -5.540  1.00  0.00     0.192 C 
BRANCH  49  50
ATOM     50  C   UNL     1       7.482  -1.629  -4.345  1.00  0.00     0.047 C 
BRANCH  50  51
ATOM     51  C   UNL     1       6.907  -1.152  -3.004  1.00  0.00     0.103 C 
BRANCH  51  52
ATOM     52  C   UNL     1       7.213  -2.127  -1.869  1.00  0.00     0.226 C 
ATOM     53  O   UNL     1       7.983  -1.791  -0.967  1.00  0.00    -0.275 OA
BRANCH  52  54
ATOM     54  N   UNL     1       6.519  -3.351  -1.890  1.00  0.00    -0.311 N 
ATOM     55  C   UNL     1       5.064  -3.392  -2.090  1.00  0.00     0.153 C 
BRANCH  54  56
ATOM     56  C   UNL     1       7.188  -4.576  -1.727  1.00  0.00     0.102 C 
ATOM     57  C   UNL     1       7.778  -5.266  -2.717  1.00  0.00     0.043 C 
BRANCH  56  58
ATOM     58  C   UNL     1       7.334  -5.203  -0.361  1.00  0.00     0.268 C 
ATOM     59  O   UNL     1       6.949  -6.335  -0.100  1.00  0.00    -0.268 OA
ATOM     60  N   UNL     1       7.999  -4.400   0.534  1.00  0.00    -0.339 N 
ATOM     61  H   UNL     1       8.277  -3.471   0.242  1.00  0.00     0.164 HD
BRANCH  60  62
ATOM     62  C   UNL     1       8.304  -4.838   1.896  1.00  0.00     0.168 CG0
ATOM     63  C   UNL     1       7.747  -3.859   2.922  1.00  0.00     0.041 C 
ATOM     64  G   UNL     1       9.831  -4.991   2.060  1.00  0.00     0.000 G0
ENDBRANCH  60  62
ENDBRANCH  56  58
ENDBRANCH  54  56
ENDBRANCH  52  54
ENDBRANCH  51  52
ENDBRANCH  50  51
ENDBRANCH  49  50
BRANCH  49  65
ATOM     65  C   UNL     1       5.255  -1.625  -5.488  1.00  0.00     0.326 C 
ATOM     66  O   UNL     1       4.250  -0.951  -5.313  1.00  0.00    -0.250 OA
BRANCH  65  67
ATOM     67  O   UNL     1       5.152  -2.968  -5.594  1.00  0.00    -0.480 OA
ATOM     68  H   UNL     1       6.084  -3.274  -5.583  1.00  0.00     0.296 HD
ENDBRANCH  65  67
ENDBRANCH  49  65
ENDBRANCH  47  49
ENDBRANCH  43  45
ENDBRANCH   1  43
BRANCH   1  69
ATOM     69  C   UNL     1       7.149  -2.713 -11.332  1.00  0.00    -0.001 C 
ATOM     70  C   UNL     1       7.990  -2.130 -12.204  1.00  0.00     0.001 C 
BRANCH  70  71
ATOM     71  C   UNL     1       8.024  -2.322 -13.655  1.00  0.00    -0.055 C 
ATOM     72  C   UNL     1       6.867  -2.639 -14.274  1.00  0.00    -0.018 C 
ATOM     73  C   UNL     1       9.346  -2.146 -14.356  1.00  0.00     0.044 C 
BRANCH  72  74
ATOM     74  C   UNL     1       6.603  -2.892 -15.752  1.00  0.00     0.038 C 
ATOM     75  C   UNL     1       6.094  -1.576 -16.352  1.00  0.00     0.015 C 
BRANCH  74  76
ATOM     76  C   UNL     1       5.622  -4.094 -15.886  1.00  0.00     0.128 C 
BRANCH  76  77
ATOM     77  O   UNL     1       6.278  -5.190 -16.546  1.00  0.00    -0.381 OA
ATOM     78  C   UNL     1       7.638  -4.933 -16.867  1.00  0.00     0.195 C 
ENDBRANCH  76  77
BRANCH  76  79
ATOM     79  C   UNL     1       4.951  -4.511 -14.554  1.00  0.00     0.068 C 
BRANCH  79  80
ATOM     80  C   UNL     1       3.526  -4.073 -14.312  1.00  0.00    -0.045 A 
ATOM     81  C   UNL     1       2.453  -4.936 -14.569  1.00  0.00     0.004 A 
ATOM     82  C   UNL     1       3.253  -2.776 -13.851  1.00  0.00     0.004 A 
ATOM     83  C   UNL     1       1.137  -4.519 -14.357  1.00  0.00     0.000 A 
ATOM     84  C   UNL     1       1.937  -2.360 -13.640  1.00  0.00     0.000 A 
ATOM     85  C   UNL     1       0.880  -3.231 -13.891  1.00  0.00     0.000 A 
ENDBRANCH  79  80
ENDBRANCH  76  79
ENDBRANCH  74  76
ENDBRANCH  72  74
ENDBRANCH  70  71
ENDBRANCH   1  69
TORSDOF 17
ENDMDL
MODEL 12
REMARK VINA RESULT:    -5.736      3.630      4.748
REMARK INTER + INTRA:         -25.767
REMARK INTER:                 -17.904
REMARK INTRA:                  -7.862
REMARK UNBOUND:                -8.629
REMARK SMILES C=C1C(=O)N[C@H](C)C(=O)N[C@@H](CC(C)C)C(=O)N[C@@H](C(=O)O)[C@H](C)C(=O)N[C@@H](CCCN=C(N)N)C(=O)N[C@@H](/C=C/C(C)=C/[C@H](C)[C@H](Cc2ccccc2)OC)[C@H](C)C(=O)N[C@@H](C(=O)O)CCC(=O)N1C
REMARK SMILES IDX 39 1 38 2 37 3 36 4 28 6 27 7 25 8 26 9 23 11 24 12 19 13
REMARK SMILES IDX 18 14 16 15 17 16 11 18 10 19 8 20 9 21 12 24 13 25 14 26
REMARK SMILES IDX 15 27 20 28 21 29 22 30 29 32 30 33 31 34 32 35 33 36 34 37
REMARK SMILES IDX 35 38 57 43 58 44 59 45 60 46 61 47 62 49 66 50 67 51 68 52
REMARK SMILES IDX 69 53 70 54 71 55 2 56 1 57 3 58 4 59 5 60 6 62 7 63 63 65
REMARK SMILES IDX 64 66 65 67 40 69 41 70 42 71 44 72 43 73 45 74 46 75 47 76
REMARK SMILES IDX 55 77 56 78 48 79 49 80 50 81 54 82 51 83 53 84 52 85
REMARK H PARENT 38 5 27 10 18 17 10 22 22 31 34 39 34 40 35 41 35 42 61 48
REMARK H PARENT 5 61 65 68
REMARK Flexibility Score:  369.900
ROOT
ATOM      1  C   UNL     1       6.391  -2.261  -9.354  1.00  0.00     0.117 C 
ENDROOT
BRANCH   1   2
ATOM      2  N   UNL     1       6.249  -2.476 -10.795  1.00  0.00    -0.347 N 
ATOM      3  O   UNL     1       5.527  -4.654 -10.718  1.00  0.00    -0.273 OA
ATOM      4  C   UNL     1       5.740  -3.630 -11.358  1.00  0.00     0.243 C 
ATOM      5  H   UNL     1       6.486  -1.730 -11.432  1.00  0.00     0.164 HD
BRANCH   4   6
ATOM      6  C   UNL     1       5.615  -3.567 -12.902  1.00  0.00     0.171 C 
BRANCH   6   7
ATOM      7  N   UNL     1       5.419  -2.178 -13.346  1.00  0.00    -0.344 N 
ATOM      8  C   UNL     1       4.625  -1.894 -14.436  1.00  0.00     0.226 C 
ATOM      9  O   UNL     1       4.069  -2.766 -15.093  1.00  0.00    -0.275 OA
ATOM     10  H   UNL     1       5.916  -1.436 -12.870  1.00  0.00     0.164 HD
BRANCH   8  11
ATOM     11  C   UNL     1       4.479  -0.412 -14.734  1.00  0.00     0.109 C 
ATOM     12  C   UNL     1       4.788   0.409 -13.483  1.00  0.00     0.021 C 
BRANCH  11  13
ATOM     13  C   UNL     1       5.317  -0.045 -15.975  1.00  0.00     0.204 C 
BRANCH  13  14
ATOM     14  N   UNL     1       6.713  -0.473 -15.843  1.00  0.00    -0.340 N 
ATOM     15  C   UNL     1       7.776   0.306 -16.245  1.00  0.00     0.243 C 
ATOM     16  O   UNL     1       7.631   1.445 -16.687  1.00  0.00    -0.273 OA
ATOM     17  H   UNL     1       6.896  -1.457 -15.628  1.00  0.00     0.164 HD
BRANCH  15  18
ATOM     18  C   UNL     1       9.136  -0.433 -16.203  1.00  0.00     0.171 C 
BRANCH  18  19
ATOM     19  N   UNL     1       9.849  -0.069 -17.426  1.00  0.00    -0.343 N 
ATOM     20  C   UNL     1       9.661  -0.755 -18.610  1.00  0.00     0.242 CG0
ATOM     21  O   UNL     1       8.990  -1.783 -18.659  1.00  0.00    -0.273 OA
ATOM     22  H   UNL     1      10.504   0.704 -17.408  1.00  0.00     0.164 HD
ATOM     23  G   UNL     1      10.438  -0.177 -19.811  1.00  0.00     0.000 G0
ENDBRANCH  18  19
BRANCH  18  24
ATOM     24  C   UNL     1       9.930  -0.037 -14.951  1.00  0.00     0.038 C 
BRANCH  24  25
ATOM     25  C   UNL     1      10.261  -1.207 -14.002  1.00  0.00    -0.015 C 
ATOM     26  C   UNL     1       9.155  -1.461 -12.977  1.00  0.00     0.007 C 
ATOM     27  C   UNL     1      11.580  -0.924 -13.277  1.00  0.00     0.007 C 
ENDBRANCH  24  25
ENDBRANCH  18  24
ENDBRANCH  15  18
ENDBRANCH  13  14
BRANCH  13  28
ATOM     28  C   UNL     1       4.776  -0.654 -17.272  1.00  0.00     0.327 C 
ATOM     29  O   UNL     1       5.285  -1.561 -17.912  1.00  0.00    -0.250 OA
BRANCH  28  30
ATOM     30  O   UNL     1       3.692  -0.007 -17.747  1.00  0.00    -0.480 OA
ATOM     31  H   UNL     1       3.139  -0.717 -18.135  1.00  0.00     0.296 HD
ENDBRANCH  28  30
ENDBRANCH  13  28
ENDBRANCH  11  13
ENDBRANCH   8  11
ENDBRANCH   6   7
BRANCH   6  32
ATOM     32  C   UNL     1       6.874  -4.171 -13.533  1.00  0.00     0.037 C 
BRANCH  32  33
ATOM     33  C   UNL     1       6.541  -5.143 -14.674  1.00  0.00     0.026 C 
BRANCH  33  34
ATOM     34  C   UNL     1       7.467  -4.970 -15.879  1.00  0.00     0.146 C 
BRANCH  34  35
ATOM     35  N   UNL     1       8.826  -5.312 -15.480  1.00  0.00    -0.254 NA
ATOM     36  C   UNL     1       9.798  -4.936 -16.225  1.00  0.00     0.185 C 
ATOM     37  N   UNL     1      11.054  -5.241 -15.864  1.00  0.00    -0.370 N 
ATOM     38  N   UNL     1       9.760  -4.243 -17.377  1.00  0.00    -0.370 N 
ATOM     39  H   UNL     1      11.166  -5.754 -14.999  1.00  0.00     0.159 HD
ATOM     40  H   UNL     1      11.869  -4.838 -16.294  1.00  0.00     0.159 HD
ATOM     41  H   UNL     1      10.585  -4.129 -17.943  1.00  0.00     0.159 HD
ATOM     42  H   UNL     1       8.879  -3.961 -17.777  1.00  0.00     0.159 HD
ENDBRANCH  34  35
ENDBRANCH  33  34
ENDBRANCH  32  33
ENDBRANCH   6  32
ENDBRANCH   4   6
ENDBRANCH   1   2
BRANCH   1  43
ATOM     43  C   UNL     1       5.139  -1.492  -8.843  1.00  0.00     0.102 C 
ATOM     44  C   UNL     1       4.582  -0.484  -9.862  1.00  0.00     0.020 C 
BRANCH  43  45
ATOM     45  C   UNL     1       5.388  -0.898  -7.453  1.00  0.00     0.225 C 
ATOM     46  O   UNL     1       5.629   0.291  -7.265  1.00  0.00    -0.275 OA
ATOM     47  N   UNL     1       5.419  -1.805  -6.418  1.00  0.00    -0.342 N 
ATOM     48  H   UNL     1       5.073  -2.742  -6.564  1.00  0.00     0.164 HD
BRANCH  47  49
ATOM     49  C   UNL     1       5.612  -1.376  -5.030  1.00  0.00     0.192 C 
BRANCH  49  50
ATOM     50  C   UNL     1       6.810  -2.113  -4.426  1.00  0.00     0.047 C 
BRANCH  50  51
ATOM     51  C   UNL     1       6.510  -2.661  -3.024  1.00  0.00     0.103 C 
BRANCH  51  52
ATOM     52  C   UNL     1       7.325  -3.914  -2.711  1.00  0.00     0.226 C 
ATOM     53  O   UNL     1       7.217  -4.907  -3.433  1.00  0.00    -0.275 OA
BRANCH  52  54
ATOM     54  N   UNL     1       8.225  -3.824  -1.634  1.00  0.00    -0.311 N 
ATOM     55  C   UNL     1       9.574  -3.272  -1.819  1.00  0.00     0.153 C 
BRANCH  54  56
ATOM     56  C   UNL     1       7.869  -4.251  -0.344  1.00  0.00     0.102 C 
ATOM     57  C   UNL     1       8.647  -4.139   0.745  1.00  0.00     0.043 C 
BRANCH  56  58
ATOM     58  C   UNL     1       6.509  -4.851  -0.074  1.00  0.00     0.268 C 
ATOM     59  O   UNL     1       6.279  -6.050  -0.150  1.00  0.00    -0.268 OA
ATOM     60  N   UNL     1       5.579  -3.922   0.328  1.00  0.00    -0.339 N 
ATOM     61  H   UNL     1       5.846  -2.945   0.356  1.00  0.00     0.164 HD
BRANCH  60  62
ATOM     62  C   UNL     1       4.215  -4.296   0.700  1.00  0.00     0.168 CG0
ATOM     63  C   UNL     1       3.378  -3.063   1.022  1.00  0.00     0.041 C 
ATOM     64  G   UNL     1       4.254  -5.258   1.905  1.00  0.00     0.000 G0
ENDBRANCH  60  62
ENDBRANCH  56  58
ENDBRANCH  54  56
ENDBRANCH  52  54
ENDBRANCH  51  52
ENDBRANCH  50  51
ENDBRANCH  49  50
BRANCH  49  65
ATOM     65  C   UNL     1       4.364  -1.646  -4.175  1.00  0.00     0.326 C 
ATOM     66  O   UNL     1       3.725  -2.688  -4.160  1.00  0.00    -0.250 OA
BRANCH  65  67
ATOM     67  O   UNL     1       3.948  -0.593  -3.436  1.00  0.00    -0.480 OA
ATOM     68  H   UNL     1       4.653  -0.491  -2.762  1.00  0.00     0.296 HD
ENDBRANCH  65  67
ENDBRANCH  49  65
ENDBRANCH  47  49
ENDBRANCH  43  45
ENDBRANCH   1  43
BRANCH   1  69
ATOM     69  C   UNL     1       7.764  -1.647  -9.150  1.00  0.00    -0.001 C 
ATOM     70  C   UNL     1       8.955  -2.186  -9.463  1.00  0.00     0.001 C 
BRANCH  70  71
ATOM     71  C   UNL     1      10.273  -1.574  -9.281  1.00  0.00    -0.055 C 
ATOM     72  C   UNL     1      10.317  -0.263  -8.963  1.00  0.00    -0.018 C 
ATOM     73  C   UNL     1      11.485  -2.452  -9.452  1.00  0.00     0.044 C 
BRANCH  72  74
ATOM     74  C   UNL     1      11.526   0.627  -8.713  1.00  0.00     0.038 C 
ATOM     75  C   UNL     1      11.717   0.717  -7.195  1.00  0.00     0.015 C 
BRANCH  74  76
ATOM     76  C   UNL     1      11.298   1.994  -9.424  1.00  0.00     0.128 C 
BRANCH  76  77
ATOM     77  O   UNL     1      12.138   3.000  -8.835  1.00  0.00    -0.381 OA
ATOM     78  C   UNL     1      11.656   4.325  -9.016  1.00  0.00     0.195 C 
ENDBRANCH  76  77
BRANCH  76  79
ATOM     79  C   UNL     1      11.429   1.930 -10.967  1.00  0.00     0.068 C 
BRANCH  79  80
ATOM     80  C   UNL     1      10.196   2.203 -11.793  1.00  0.00    -0.045 A 
ATOM     81  C   UNL     1      10.268   2.961 -12.970  1.00  0.00     0.004 A 
ATOM     82  C   UNL     1       8.945   1.722 -11.378  1.00  0.00     0.004 A 
ATOM     83  C   UNL     1       9.120   3.221 -13.721  1.00  0.00     0.000 A 
ATOM     84  C   UNL     1       7.797   1.983 -12.129  1.00  0.00     0.000 A 
ATOM     85  C   UNL     1       7.885   2.731 -13.301  1.00  0.00     0.000 A 
ENDBRANCH  79  80
ENDBRANCH  76  79
ENDBRANCH  74  76
ENDBRANCH  72  74
ENDBRANCH  70  71
ENDBRANCH   1  69
TORSDOF 17
ENDMDL
MODEL 13
REMARK VINA RESULT:    -5.584      4.159      6.271
REMARK INTER + INTRA:         -25.311
REMARK INTER:                 -17.620
REMARK INTRA:                  -7.691
REMARK UNBOUND:                -8.629
REMARK SMILES C=C1C(=O)N[C@H](C)C(=O)N[C@@H](CC(C)C)C(=O)N[C@@H](C(=O)O)[C@H](C)C(=O)N[C@@H](CCCN=C(N)N)C(=O)N[C@@H](/C=C/C(C)=C/[C@H](C)[C@H](Cc2ccccc2)OC)[C@H](C)C(=O)N[C@@H](C(=O)O)CCC(=O)N1C
REMARK SMILES IDX 39 1 38 2 37 3 36 4 28 6 27 7 25 8 26 9 23 11 24 12 19 13
REMARK SMILES IDX 18 14 16 15 17 16 11 18 10 19 8 20 9 21 12 24 13 25 14 26
REMARK SMILES IDX 15 27 20 28 21 29 22 30 29 32 30 33 31 34 32 35 33 36 34 37
REMARK SMILES IDX 35 38 57 43 58 44 59 45 60 46 61 47 62 49 66 50 67 51 68 52
REMARK SMILES IDX 69 53 70 54 71 55 2 56 1 57 3 58 4 59 5 60 6 62 7 63 63 65
REMARK SMILES IDX 64 66 65 67 40 69 41 70 42 71 44 72 43 73 45 74 46 75 47 76
REMARK SMILES IDX 55 77 56 78 48 79 49 80 50 81 54 82 51 83 53 84 52 85
REMARK H PARENT 38 5 27 10 18 17 10 22 22 31 34 39 34 40 35 41 35 42 61 48
REMARK H PARENT 5 61 65 68
REMARK Flexibility Score:  369.900
ROOT
ATOM      1  C   UNL     1       5.511  -1.648 -10.299  1.00  0.00     0.117 C 
ENDROOT
BRANCH   1   2
ATOM      2  N   UNL     1       4.711  -1.795 -11.516  1.00  0.00    -0.347 N 
ATOM      3  O   UNL     1       3.738  -3.811 -11.009  1.00  0.00    -0.273 OA
ATOM      4  C   UNL     1       3.816  -2.825 -11.733  1.00  0.00     0.243 C 
ATOM      5  H   UNL     1       4.766  -1.087 -12.232  1.00  0.00     0.164 HD
BRANCH   4   6
ATOM      6  C   UNL     1       3.034  -2.700 -13.065  1.00  0.00     0.171 C 
BRANCH   6   7
ATOM      7  N   UNL     1       3.047  -1.307 -13.541  1.00  0.00    -0.344 N 
ATOM      8  C   UNL     1       1.871  -0.658 -13.848  1.00  0.00     0.226 C 
ATOM      9  O   UNL     1       0.776  -1.201 -13.766  1.00  0.00    -0.275 OA
ATOM     10  H   UNL     1       3.937  -0.847 -13.686  1.00  0.00     0.164 HD
BRANCH   8  11
ATOM     11  C   UNL     1       2.048   0.789 -14.272  1.00  0.00     0.109 C 
ATOM     12  C   UNL     1       3.394   1.321 -13.781  1.00  0.00     0.021 C 
BRANCH  11  13
ATOM     13  C   UNL     1       1.815   0.920 -15.791  1.00  0.00     0.204 C 
BRANCH  13  14
ATOM     14  N   UNL     1       1.070   2.136 -16.132  1.00  0.00    -0.340 N 
ATOM     15  C   UNL     1      -0.190   2.110 -16.689  1.00  0.00     0.243 C 
ATOM     16  O   UNL     1      -0.805   1.063 -16.884  1.00  0.00    -0.273 OA
ATOM     17  H   UNL     1       1.578   3.025 -16.138  1.00  0.00     0.164 HD
BRANCH  15  18
ATOM     18  C   UNL     1      -0.690   3.500 -17.154  1.00  0.00     0.171 C 
BRANCH  18  19
ATOM     19  N   UNL     1      -0.244   3.664 -18.536  1.00  0.00    -0.343 N 
ATOM     20  C   UNL     1       1.026   4.114 -18.844  1.00  0.00     0.242 CG0
ATOM     21  O   UNL     1       1.792   4.522 -17.974  1.00  0.00    -0.273 OA
ATOM     22  H   UNL     1      -0.883   3.449 -19.294  1.00  0.00     0.164 HD
ATOM     23  G   UNL     1       1.341   4.147 -20.354  1.00  0.00     0.000 G0
ENDBRANCH  18  19
BRANCH  18  24
ATOM     24  C   UNL     1      -2.217   3.592 -17.041  1.00  0.00     0.038 C 
BRANCH  24  25
ATOM     25  C   UNL     1      -2.728   4.735 -16.139  1.00  0.00    -0.015 C 
ATOM     26  C   UNL     1      -1.619   5.711 -15.745  1.00  0.00     0.007 C 
ATOM     27  C   UNL     1      -3.370   4.148 -14.879  1.00  0.00     0.007 C 
ENDBRANCH  24  25
ENDBRANCH  18  24
ENDBRANCH  15  18
ENDBRANCH  13  14
BRANCH  13  28
ATOM     28  C   UNL     1       3.115   0.942 -16.601  1.00  0.00     0.327 C 
ATOM     29  O   UNL     1       3.841  -0.014 -16.828  1.00  0.00    -0.250 OA
BRANCH  28  30
ATOM     30  O   UNL     1       3.483   2.184 -16.976  1.00  0.00    -0.480 OA
ATOM     31  H   UNL     1       3.977   2.532 -16.206  1.00  0.00     0.296 HD
ENDBRANCH  28  30
ENDBRANCH  13  28
ENDBRANCH  11  13
ENDBRANCH   8  11
ENDBRANCH   6   7
BRANCH   6  32
ATOM     32  C   UNL     1       3.656  -3.639 -14.104  1.00  0.00     0.037 C 
BRANCH  32  33
ATOM     33  C   UNL     1       4.714  -2.933 -14.964  1.00  0.00     0.026 C 
BRANCH  33  34
ATOM     34  C   UNL     1       6.096  -3.575 -14.835  1.00  0.00     0.146 C 
BRANCH  34  35
ATOM     35  N   UNL     1       5.949  -4.886 -14.217  1.00  0.00    -0.254 NA
ATOM     36  C   UNL     1       6.782  -5.233 -13.307  1.00  0.00     0.185 C 
ATOM     37  N   UNL     1       6.653  -6.436 -12.728  1.00  0.00    -0.370 N 
ATOM     38  N   UNL     1       7.824  -4.545 -12.810  1.00  0.00    -0.370 N 
ATOM     39  H   UNL     1       5.882  -7.012 -13.043  1.00  0.00     0.159 HD
ATOM     40  H   UNL     1       7.150  -6.710 -11.897  1.00  0.00     0.159 HD
ATOM     41  H   UNL     1       8.490  -4.982 -12.194  1.00  0.00     0.159 HD
ATOM     42  H   UNL     1       8.050  -3.629 -13.164  1.00  0.00     0.159 HD
ENDBRANCH  34  35
ENDBRANCH  33  34
ENDBRANCH  32  33
ENDBRANCH   6  32
ENDBRANCH   4   6
ENDBRANCH   1   2
BRANCH   1  43
ATOM     43  C   UNL     1       4.898  -0.505  -9.439  1.00  0.00     0.102 C 
ATOM     44  C   UNL     1       5.841   0.006  -8.337  1.00  0.00     0.020 C 
BRANCH  43  45
ATOM     45  C   UNL     1       3.502  -0.883  -8.936  1.00  0.00     0.225 C 
ATOM     46  O   UNL     1       2.467  -0.459  -9.444  1.00  0.00    -0.275 OA
ATOM     47  N   UNL     1       3.472  -1.665  -7.804  1.00  0.00    -0.342 N 
ATOM     48  H   UNL     1       4.315  -2.126  -7.492  1.00  0.00     0.164 HD
BRANCH  47  49
ATOM     49  C   UNL     1       2.207  -2.134  -7.230  1.00  0.00     0.192 C 
BRANCH  49  50
ATOM     50  C   UNL     1       2.348  -2.260  -5.710  1.00  0.00     0.047 C 
BRANCH  50  51
ATOM     51  C   UNL     1       3.529  -1.445  -5.166  1.00  0.00     0.103 C 
BRANCH  51  52
ATOM     52  C   UNL     1       4.770  -2.309  -4.950  1.00  0.00     0.226 C 
ATOM     53  O   UNL     1       5.153  -3.062  -5.848  1.00  0.00    -0.275 OA
BRANCH  52  54
ATOM     54  N   UNL     1       5.457  -2.127  -3.736  1.00  0.00    -0.311 N 
ATOM     55  C   UNL     1       6.170  -0.875  -3.450  1.00  0.00     0.153 C 
BRANCH  54  56
ATOM     56  C   UNL     1       5.483  -3.130  -2.752  1.00  0.00     0.102 C 
ATOM     57  C   UNL     1       6.302  -4.194  -2.760  1.00  0.00     0.043 C 
BRANCH  56  58
ATOM     58  C   UNL     1       4.582  -3.052  -1.542  1.00  0.00     0.268 C 
ATOM     59  O   UNL     1       3.685  -2.227  -1.427  1.00  0.00    -0.268 OA
ATOM     60  N   UNL     1       4.830  -4.039  -0.619  1.00  0.00    -0.339 N 
ATOM     61  H   UNL     1       5.599  -4.678  -0.783  1.00  0.00     0.164 HD
BRANCH  60  62
ATOM     62  C   UNL     1       4.033  -4.186   0.598  1.00  0.00     0.168 CG0
ATOM     63  C   UNL     1       4.731  -3.545   1.791  1.00  0.00     0.041 C 
ATOM     64  G   UNL     1       3.764  -5.682   0.862  1.00  0.00     0.000 G0
ENDBRANCH  60  62
ENDBRANCH  56  58
ENDBRANCH  54  56
ENDBRANCH  52  54
ENDBRANCH  51  52
ENDBRANCH  50  51
ENDBRANCH  49  50
BRANCH  49  65
ATOM     65  C   UNL     1       1.786  -3.490  -7.816  1.00  0.00     0.326 C 
ATOM     66  O   UNL     1       1.820  -4.560  -7.226  1.00  0.00    -0.250 OA
BRANCH  65  67
ATOM     67  O   UNL     1       1.408  -3.451  -9.113  1.00  0.00    -0.480 OA
ATOM     68  H   UNL     1       0.609  -4.020  -9.138  1.00  0.00     0.296 HD
ENDBRANCH  65  67
ENDBRANCH  49  65
ENDBRANCH  47  49
ENDBRANCH  43  45
ENDBRANCH   1  43
BRANCH   1  69
ATOM     69  C   UNL     1       6.955  -1.532 -10.752  1.00  0.00    -0.001 C 
ATOM     70  C   UNL     1       8.038  -2.083 -10.176  1.00  0.00     0.001 C 
BRANCH  70  71
ATOM     71  C   UNL     1       9.425  -1.981 -10.635  1.00  0.00    -0.055 C 
ATOM     72  C   UNL     1       9.640  -1.524 -11.886  1.00  0.00    -0.018 C 
ATOM     73  C   UNL     1      10.513  -2.386  -9.675  1.00  0.00     0.044 C 
BRANCH  72  74
ATOM     74  C   UNL     1      10.956  -1.312 -12.621  1.00  0.00     0.038 C 
ATOM     75  C   UNL     1      11.498   0.058 -12.194  1.00  0.00     0.015 C 
BRANCH  74  76
ATOM     76  C   UNL     1      10.707  -1.468 -14.150  1.00  0.00     0.128 C 
BRANCH  76  77
ATOM     77  O   UNL     1       9.564  -2.310 -14.378  1.00  0.00    -0.381 OA
ATOM     78  C   UNL     1       9.691  -3.149 -15.518  1.00  0.00     0.195 C 
ENDBRANCH  76  77
BRANCH  76  79
ATOM     79  C   UNL     1      10.622  -0.123 -14.915  1.00  0.00     0.068 C 
BRANCH  79  80
ATOM     80  C   UNL     1       9.255   0.478 -15.139  1.00  0.00    -0.045 A 
ATOM     81  C   UNL     1       8.583   1.148 -14.108  1.00  0.00     0.004 A 
ATOM     82  C   UNL     1       8.621   0.348 -16.384  1.00  0.00     0.004 A 
ATOM     83  C   UNL     1       7.313   1.689 -14.320  1.00  0.00     0.000 A 
ATOM     84  C   UNL     1       7.350   0.888 -16.594  1.00  0.00     0.000 A 
ATOM     85  C   UNL     1       6.697   1.559 -15.563  1.00  0.00     0.000 A 
ENDBRANCH  79  80
ENDBRANCH  76  79
ENDBRANCH  74  76
ENDBRANCH  72  74
ENDBRANCH  70  71
ENDBRANCH   1  69
TORSDOF 17
ENDMDL
MODEL 14
REMARK VINA RESULT:    -5.563      2.864      5.242
REMARK INTER + INTRA:         -25.249
REMARK INTER:                 -16.839
REMARK INTRA:                  -8.410
REMARK UNBOUND:                -8.629
REMARK SMILES C=C1C(=O)N[C@H](C)C(=O)N[C@@H](CC(C)C)C(=O)N[C@@H](C(=O)O)[C@H](C)C(=O)N[C@@H](CCCN=C(N)N)C(=O)N[C@@H](/C=C/C(C)=C/[C@H](C)[C@H](Cc2ccccc2)OC)[C@H](C)C(=O)N[C@@H](C(=O)O)CCC(=O)N1C
REMARK SMILES IDX 39 1 38 2 37 3 36 4 28 6 27 7 25 8 26 9 23 11 24 12 19 13
REMARK SMILES IDX 18 14 16 15 17 16 11 18 10 19 8 20 9 21 12 24 13 25 14 26
REMARK SMILES IDX 15 27 20 28 21 29 22 30 29 32 30 33 31 34 32 35 33 36 34 37
REMARK SMILES IDX 35 38 57 43 58 44 59 45 60 46 61 47 62 49 66 50 67 51 68 52
REMARK SMILES IDX 69 53 70 54 71 55 2 56 1 57 3 58 4 59 5 60 6 62 7 63 63 65
REMARK SMILES IDX 64 66 65 67 40 69 41 70 42 71 44 72 43 73 45 74 46 75 47 76
REMARK SMILES IDX 55 77 56 78 48 79 49 80 50 81 54 82 51 83 53 84 52 85
REMARK H PARENT 38 5 27 10 18 17 10 22 22 31 34 39 34 40 35 41 35 42 61 48
REMARK H PARENT 5 61 65 68
REMARK Flexibility Score:  369.900
ROOT
ATOM      1  C   UNL     1       1.434  -2.371 -12.396  1.00  0.00     0.117 C 
ENDROOT
BRANCH   1   2
ATOM      2  N   UNL     1       2.500  -2.699 -13.344  1.00  0.00    -0.347 N 
ATOM      3  O   UNL     1       2.040  -4.937 -13.568  1.00  0.00    -0.273 OA
ATOM      4  C   UNL     1       2.661  -3.942 -13.926  1.00  0.00     0.243 C 
ATOM      5  H   UNL     1       3.137  -1.976 -13.641  1.00  0.00     0.164 HD
BRANCH   4   6
ATOM      6  C   UNL     1       3.814  -4.001 -14.960  1.00  0.00     0.171 C 
BRANCH   6   7
ATOM      7  N   UNL     1       4.555  -2.730 -14.977  1.00  0.00    -0.344 N 
ATOM      8  C   UNL     1       5.171  -2.291 -16.129  1.00  0.00     0.226 C 
ATOM      9  O   UNL     1       5.154  -2.934 -17.173  1.00  0.00    -0.275 OA
ATOM     10  H   UNL     1       4.648  -2.204 -14.117  1.00  0.00     0.164 HD
BRANCH   8  11
ATOM     11  C   UNL     1       5.847  -0.937 -16.001  1.00  0.00     0.109 C 
ATOM     12  C   UNL     1       5.039  -0.032 -15.071  1.00  0.00     0.021 C 
BRANCH  11  13
ATOM     13  C   UNL     1       7.323  -1.128 -15.599  1.00  0.00     0.204 C 
BRANCH  13  14
ATOM     14  N   UNL     1       8.017  -2.071 -16.481  1.00  0.00    -0.340 N 
ATOM     15  C   UNL     1       9.012  -2.916 -16.038  1.00  0.00     0.243 C 
ATOM     16  O   UNL     1       9.346  -2.980 -14.856  1.00  0.00    -0.273 OA
ATOM     17  H   UNL     1       7.896  -1.963 -17.491  1.00  0.00     0.164 HD
BRANCH  15  18
ATOM     18  C   UNL     1       9.740  -3.667 -17.180  1.00  0.00     0.171 C 
BRANCH  18  19
ATOM     19  N   UNL     1       9.329  -5.067 -17.088  1.00  0.00    -0.343 N 
ATOM     20  C   UNL     1      10.236  -6.102 -17.208  1.00  0.00     0.242 CG0
ATOM     21  O   UNL     1      11.405  -5.899 -17.530  1.00  0.00    -0.273 OA
ATOM     22  H   UNL     1       8.351  -5.290 -16.938  1.00  0.00     0.164 HD
ATOM     23  G   UNL     1       9.630  -7.506 -17.005  1.00  0.00     0.000 G0
ENDBRANCH  18  19
BRANCH  18  24
ATOM     24  C   UNL     1       9.377  -3.063 -18.542  1.00  0.00     0.038 C 
BRANCH  24  25
ATOM     25  C   UNL     1      10.534  -2.322 -19.246  1.00  0.00    -0.015 C 
ATOM     26  C   UNL     1      11.895  -2.638 -18.627  1.00  0.00     0.007 C 
ATOM     27  C   UNL     1      10.283  -0.812 -19.196  1.00  0.00     0.007 C 
ENDBRANCH  24  25
ENDBRANCH  18  24
ENDBRANCH  15  18
ENDBRANCH  13  14
BRANCH  13  28
ATOM     28  C   UNL     1       8.125   0.177 -15.610  1.00  0.00     0.327 C 
ATOM     29  O   UNL     1       8.410   0.842 -16.594  1.00  0.00    -0.250 OA
BRANCH  28  30
ATOM     30  O   UNL     1       8.619   0.504 -14.399  1.00  0.00    -0.480 OA
ATOM     31  H   UNL     1       8.882  -0.354 -14.006  1.00  0.00     0.296 HD
ENDBRANCH  28  30
ENDBRANCH  13  28
ENDBRANCH  11  13
ENDBRANCH   8  11
ENDBRANCH   6   7
BRANCH   6  32
ATOM     32  C   UNL     1       4.742  -5.171 -14.612  1.00  0.00     0.037 C 
BRANCH  32  33
ATOM     33  C   UNL     1       6.167  -4.702 -14.286  1.00  0.00     0.026 C 
BRANCH  33  34
ATOM     34  C   UNL     1       6.369  -4.439 -12.793  1.00  0.00     0.146 C 
BRANCH  34  35
ATOM     35  N   UNL     1       6.406  -3.000 -12.571  1.00  0.00    -0.254 NA
ATOM     36  C   UNL     1       7.496  -2.470 -12.157  1.00  0.00     0.185 C 
ATOM     37  N   UNL     1       7.543  -1.144 -11.954  1.00  0.00    -0.370 N 
ATOM     38  N   UNL     1       8.671  -3.062 -11.879  1.00  0.00    -0.370 N 
ATOM     39  H   UNL     1       6.698  -0.624 -12.153  1.00  0.00     0.159 HD
ATOM     40  H   UNL     1       8.396  -0.635 -11.801  1.00  0.00     0.159 HD
ATOM     41  H   UNL     1       9.415  -2.557 -11.426  1.00  0.00     0.159 HD
ATOM     42  H   UNL     1       8.776  -4.061 -11.971  1.00  0.00     0.159 HD
ENDBRANCH  34  35
ENDBRANCH  33  34
ENDBRANCH  32  33
ENDBRANCH   6  32
ENDBRANCH   4   6
ENDBRANCH   1   2
BRANCH   1  43
ATOM     43  C   UNL     1       0.678  -1.115 -12.917  1.00  0.00     0.102 C 
ATOM     44  C   UNL     1       1.465  -0.321 -13.974  1.00  0.00     0.020 C 
BRANCH  43  45
ATOM     45  C   UNL     1       0.164  -0.260 -11.754  1.00  0.00     0.225 C 
ATOM     46  O   UNL     1       0.634   0.838 -11.470  1.00  0.00    -0.275 OA
ATOM     47  N   UNL     1      -0.808  -0.844 -10.975  1.00  0.00    -0.342 N 
ATOM     48  H   UNL     1      -1.285  -1.671 -11.306  1.00  0.00     0.164 HD
BRANCH  47  49
ATOM     49  C   UNL     1      -1.418  -0.130  -9.849  1.00  0.00     0.192 C 
BRANCH  49  50
ATOM     50  C   UNL     1      -0.949  -0.750  -8.531  1.00  0.00     0.047 C 
BRANCH  50  51
ATOM     51  C   UNL     1      -1.420   0.051  -7.310  1.00  0.00     0.103 C 
BRANCH  51  52
ATOM     52  C   UNL     1      -2.185  -0.819  -6.314  1.00  0.00     0.226 C 
ATOM     53  O   UNL     1      -3.101  -1.540  -6.711  1.00  0.00    -0.275 OA
BRANCH  52  54
ATOM     54  N   UNL     1      -1.730  -0.793  -4.982  1.00  0.00    -0.311 N 
ATOM     55  C   UNL     1      -1.143   0.424  -4.406  1.00  0.00     0.153 C 
BRANCH  54  56
ATOM     56  C   UNL     1      -1.825  -1.924  -4.154  1.00  0.00     0.102 C 
ATOM     57  C   UNL     1      -1.223  -3.102  -4.390  1.00  0.00     0.043 C 
BRANCH  56  58
ATOM     58  C   UNL     1      -2.609  -1.877  -2.864  1.00  0.00     0.268 C 
ATOM     59  O   UNL     1      -3.832  -1.912  -2.821  1.00  0.00    -0.268 OA
ATOM     60  N   UNL     1      -1.809  -1.856  -1.746  1.00  0.00    -0.339 N 
ATOM     61  H   UNL     1      -0.804  -1.817  -1.867  1.00  0.00     0.164 HD
BRANCH  60  62
ATOM     62  C   UNL     1      -2.362  -1.872  -0.392  1.00  0.00     0.168 CG0
ATOM     63  C   UNL     1      -1.420  -1.186   0.590  1.00  0.00     0.041 C 
ATOM     64  G   UNL     1      -2.634  -3.328   0.038  1.00  0.00     0.000 G0
ENDBRANCH  60  62
ENDBRANCH  56  58
ENDBRANCH  54  56
ENDBRANCH  52  54
ENDBRANCH  51  52
ENDBRANCH  50  51
ENDBRANCH  49  50
BRANCH  49  65
ATOM     65  C   UNL     1      -2.953  -0.175  -9.915  1.00  0.00     0.326 C 
ATOM     66  O   UNL     1      -3.637  -1.186  -9.851  1.00  0.00    -0.250 OA
BRANCH  65  67
ATOM     67  O   UNL     1      -3.544   1.023 -10.115  1.00  0.00    -0.480 OA
ATOM     68  H   UNL     1      -4.410   0.790 -10.515  1.00  0.00     0.296 HD
ENDBRANCH  65  67
ENDBRANCH  49  65
ENDBRANCH  47  49
ENDBRANCH  43  45
ENDBRANCH   1  43
BRANCH   1  69
ATOM     69  C   UNL     1       2.086  -2.319 -11.026  1.00  0.00    -0.001 C 
ATOM     70  C   UNL     1       2.154  -3.306 -10.116  1.00  0.00     0.001 C 
BRANCH  70  71
ATOM     71  C   UNL     1       2.805  -3.250  -8.805  1.00  0.00    -0.055 C 
ATOM     72  C   UNL     1       2.487  -2.223  -7.989  1.00  0.00    -0.018 C 
ATOM     73  C   UNL     1       3.777  -4.347  -8.457  1.00  0.00     0.044 C 
BRANCH  72  74
ATOM     74  C   UNL     1       2.995  -1.913  -6.589  1.00  0.00     0.038 C 
ATOM     75  C   UNL     1       1.776  -1.540  -5.737  1.00  0.00     0.015 C 
BRANCH  74  76
ATOM     76  C   UNL     1       4.086  -0.806  -6.686  1.00  0.00     0.128 C 
BRANCH  76  77
ATOM     77  O   UNL     1       4.978  -0.896  -5.562  1.00  0.00    -0.381 OA
ATOM     78  C   UNL     1       6.353  -0.845  -5.918  1.00  0.00     0.195 C 
ENDBRANCH  76  77
BRANCH  76  79
ATOM     79  C   UNL     1       4.834  -0.777  -8.043  1.00  0.00     0.068 C 
BRANCH  79  80
ATOM     80  C   UNL     1       4.410   0.253  -9.062  1.00  0.00    -0.045 A 
ATOM     81  C   UNL     1       3.701   1.399  -8.677  1.00  0.00     0.004 A 
ATOM     82  C   UNL     1       4.697   0.062 -10.422  1.00  0.00     0.004 A 
ATOM     83  C   UNL     1       3.300   2.340  -9.628  1.00  0.00     0.000 A 
ATOM     84  C   UNL     1       4.294   1.004 -11.372  1.00  0.00     0.000 A 
ATOM     85  C   UNL     1       3.598   2.143 -10.974  1.00  0.00     0.000 A 
ENDBRANCH  79  80
ENDBRANCH  76  79
ENDBRANCH  74  76
ENDBRANCH  72  74
ENDBRANCH  70  71
ENDBRANCH   1  69
TORSDOF 17
ENDMDL
MODEL 15
REMARK VINA RESULT:    -5.534      3.225      5.978
REMARK INTER + INTRA:         -25.162
REMARK INTER:                 -18.104
REMARK INTRA:                  -7.058
REMARK UNBOUND:                -8.629
REMARK SMILES C=C1C(=O)N[C@H](C)C(=O)N[C@@H](CC(C)C)C(=O)N[C@@H](C(=O)O)[C@H](C)C(=O)N[C@@H](CCCN=C(N)N)C(=O)N[C@@H](/C=C/C(C)=C/[C@H](C)[C@H](Cc2ccccc2)OC)[C@H](C)C(=O)N[C@@H](C(=O)O)CCC(=O)N1C
REMARK SMILES IDX 39 1 38 2 37 3 36 4 28 6 27 7 25 8 26 9 23 11 24 12 19 13
REMARK SMILES IDX 18 14 16 15 17 16 11 18 10 19 8 20 9 21 12 24 13 25 14 26
REMARK SMILES IDX 15 27 20 28 21 29 22 30 29 32 30 33 31 34 32 35 33 36 34 37
REMARK SMILES IDX 35 38 57 43 58 44 59 45 60 46 61 47 62 49 66 50 67 51 68 52
REMARK SMILES IDX 69 53 70 54 71 55 2 56 1 57 3 58 4 59 5 60 6 62 7 63 63 65
REMARK SMILES IDX 64 66 65 67 40 69 41 70 42 71 44 72 43 73 45 74 46 75 47 76
REMARK SMILES IDX 55 77 56 78 48 79 49 80 50 81 54 82 51 83 53 84 52 85
REMARK H PARENT 38 5 27 10 18 17 10 22 22 31 34 39 34 40 35 41 35 42 61 48
REMARK H PARENT 5 61 65 68
REMARK Flexibility Score:  369.900
ROOT
ATOM      1  C   UNL     1       2.648  -1.197 -12.313  1.00  0.00     0.117 C 
ENDROOT
BRANCH   1   2
ATOM      2  N   UNL     1       3.480  -2.057 -13.156  1.00  0.00    -0.347 N 
ATOM      3  O   UNL     1       1.786  -3.189 -14.215  1.00  0.00    -0.273 OA
ATOM      4  C   UNL     1       2.979  -2.923 -14.109  1.00  0.00     0.243 C 
ATOM      5  H   UNL     1       4.484  -1.994 -13.088  1.00  0.00     0.164 HD
BRANCH   4   6
ATOM      6  C   UNL     1       4.076  -3.654 -14.924  1.00  0.00     0.171 C 
BRANCH   6   7
ATOM      7  N   UNL     1       5.208  -2.752 -15.187  1.00  0.00    -0.344 N 
ATOM      8  C   UNL     1       5.606  -2.481 -16.479  1.00  0.00     0.226 C 
ATOM      9  O   UNL     1       5.063  -2.984 -17.456  1.00  0.00    -0.275 OA
ATOM     10  H   UNL     1       5.724  -2.370 -14.404  1.00  0.00     0.164 HD
BRANCH   8  11
ATOM     11  C   UNL     1       6.752  -1.490 -16.586  1.00  0.00     0.109 C 
ATOM     12  C   UNL     1       6.220  -0.111 -16.976  1.00  0.00     0.021 C 
BRANCH  11  13
ATOM     13  C   UNL     1       7.589  -1.520 -15.292  1.00  0.00     0.204 C 
BRANCH  13  14
ATOM     14  N   UNL     1       9.028  -1.582 -15.568  1.00  0.00    -0.340 N 
ATOM     15  C   UNL     1       9.779  -2.721 -15.372  1.00  0.00     0.243 C 
ATOM     16  O   UNL     1       9.282  -3.786 -15.009  1.00  0.00    -0.273 OA
ATOM     17  H   UNL     1       9.526  -0.702 -15.724  1.00  0.00     0.164 HD
BRANCH  15  18
ATOM     18  C   UNL     1      11.302  -2.492 -15.529  1.00  0.00     0.171 C 
BRANCH  18  19
ATOM     19  N   UNL     1      11.724  -3.264 -16.696  1.00  0.00    -0.343 N 
ATOM     20  C   UNL     1      12.323  -4.503 -16.573  1.00  0.00     0.242 CG0
ATOM     21  O   UNL     1      12.650  -4.953 -15.478  1.00  0.00    -0.273 OA
ATOM     22  H   UNL     1      11.579  -2.882 -17.624  1.00  0.00     0.164 HD
ATOM     23  G   UNL     1      12.625  -5.201 -17.915  1.00  0.00     0.000 G0
ENDBRANCH  18  19
BRANCH  18  24
ATOM     24  C   UNL     1      11.611  -1.000 -15.702  1.00  0.00     0.038 C 
BRANCH  24  25
ATOM     25  C   UNL     1      12.287  -0.336 -14.483  1.00  0.00    -0.015 C 
ATOM     26  C   UNL     1      11.524  -0.587 -13.182  1.00  0.00     0.007 C 
ATOM     27  C   UNL     1      12.416   1.170 -14.723  1.00  0.00     0.007 C 
ENDBRANCH  24  25
ENDBRANCH  18  24
ENDBRANCH  15  18
ENDBRANCH  13  14
BRANCH  13  28
ATOM     28  C   UNL     1       7.352  -0.305 -14.391  1.00  0.00     0.327 C 
ATOM     29  O   UNL     1       8.135   0.612 -14.192  1.00  0.00    -0.250 OA
BRANCH  28  30
ATOM     30  O   UNL     1       6.194  -0.375 -13.703  1.00  0.00    -0.480 OA
ATOM     31  H   UNL     1       6.460  -0.239 -12.770  1.00  0.00     0.296 HD
ENDBRANCH  28  30
ENDBRANCH  13  28
ENDBRANCH  11  13
ENDBRANCH   8  11
ENDBRANCH   6   7
BRANCH   6  32
ATOM     32  C   UNL     1       4.533  -4.896 -14.152  1.00  0.00     0.037 C 
BRANCH  32  33
ATOM     33  C   UNL     1       6.062  -5.033 -14.129  1.00  0.00     0.026 C 
BRANCH  33  34
ATOM     34  C   UNL     1       6.626  -5.058 -12.708  1.00  0.00     0.146 C 
BRANCH  34  35
ATOM     35  N   UNL     1       6.277  -3.811 -12.042  1.00  0.00    -0.254 NA
ATOM     36  C   UNL     1       7.210  -2.971 -11.782  1.00  0.00     0.185 C 
ATOM     37  N   UNL     1       6.899  -1.816 -11.174  1.00  0.00    -0.370 N 
ATOM     38  N   UNL     1       8.527  -3.066 -12.038  1.00  0.00    -0.370 N 
ATOM     39  H   UNL     1       5.922  -1.666 -10.957  1.00  0.00     0.159 HD
ATOM     40  H   UNL     1       7.534  -1.041 -11.094  1.00  0.00     0.159 HD
ATOM     41  H   UNL     1       9.180  -2.399 -11.660  1.00  0.00     0.159 HD
ATOM     42  H   UNL     1       8.905  -3.889 -12.479  1.00  0.00     0.159 HD
ENDBRANCH  34  35
ENDBRANCH  33  34
ENDBRANCH  32  33
ENDBRANCH   6  32
ENDBRANCH   4   6
ENDBRANCH   1   2
BRANCH   1  43
ATOM     43  C   UNL     1       1.523  -2.064 -11.678  1.00  0.00     0.102 C 
ATOM     44  C   UNL     1       0.401  -1.234 -11.032  1.00  0.00     0.020 C 
BRANCH  43  45
ATOM     45  C   UNL     1       2.109  -3.139 -10.758  1.00  0.00     0.225 C 
ATOM     46  O   UNL     1       2.220  -4.316 -11.087  1.00  0.00    -0.275 OA
ATOM     47  N   UNL     1       2.426  -2.720  -9.486  1.00  0.00    -0.342 N 
ATOM     48  H   UNL     1       2.473  -1.732  -9.281  1.00  0.00     0.164 HD
BRANCH  47  49
ATOM     49  C   UNL     1       3.029  -3.631  -8.508  1.00  0.00     0.192 C 
BRANCH  49  50
ATOM     50  C   UNL     1       2.147  -3.701  -7.258  1.00  0.00     0.047 C 
BRANCH  50  51
ATOM     51  C   UNL     1       1.599  -2.325  -6.855  1.00  0.00     0.103 C 
BRANCH  51  52
ATOM     52  C   UNL     1       1.439  -2.193  -5.342  1.00  0.00     0.226 C 
ATOM     53  O   UNL     1       2.155  -2.858  -4.592  1.00  0.00    -0.275 OA
BRANCH  52  54
ATOM     54  N   UNL     1       0.509  -1.237  -4.891  1.00  0.00    -0.311 N 
ATOM     55  C   UNL     1       0.955   0.031  -4.298  1.00  0.00     0.153 C 
BRANCH  54  56
ATOM     56  C   UNL     1      -0.875  -1.456  -4.996  1.00  0.00     0.102 C 
ATOM     57  C   UNL     1      -1.692  -0.811  -5.845  1.00  0.00     0.043 C 
BRANCH  56  58
ATOM     58  C   UNL     1      -1.559  -2.508  -4.156  1.00  0.00     0.268 C 
ATOM     59  O   UNL     1      -1.597  -3.691  -4.465  1.00  0.00    -0.268 OA
ATOM     60  N   UNL     1      -2.074  -2.011  -2.982  1.00  0.00    -0.339 N 
ATOM     61  H   UNL     1      -2.011  -1.016  -2.805  1.00  0.00     0.164 HD
BRANCH  60  62
ATOM     62  C   UNL     1      -2.724  -2.869  -1.992  1.00  0.00     0.168 CG0
ATOM     63  C   UNL     1      -4.089  -2.316  -1.601  1.00  0.00     0.041 C 
ATOM     64  G   UNL     1      -1.815  -3.008  -0.753  1.00  0.00     0.000 G0
ENDBRANCH  60  62
ENDBRANCH  56  58
ENDBRANCH  54  56
ENDBRANCH  52  54
ENDBRANCH  51  52
ENDBRANCH  50  51
ENDBRANCH  49  50
BRANCH  49  65
ATOM     65  C   UNL     1       4.442  -3.179  -8.108  1.00  0.00     0.326 C 
ATOM     66  O   UNL     1       5.261  -2.664  -8.856  1.00  0.00    -0.250 OA
BRANCH  65  67
ATOM     67  O   UNL     1       4.778  -3.444  -6.827  1.00  0.00    -0.480 OA
ATOM     68  H   UNL     1       5.702  -3.768  -6.892  1.00  0.00     0.296 HD
ENDBRANCH  65  67
ENDBRANCH  49  65
ENDBRANCH  47  49
ENDBRANCH  43  45
ENDBRANCH   1  43
BRANCH   1  69
ATOM     69  C   UNL     1       2.261  -0.008 -13.173  1.00  0.00    -0.001 C 
ATOM     70  C   UNL     1       2.807   0.367 -14.343  1.00  0.00     0.001 C 
BRANCH  70  71
ATOM     71  C   UNL     1       2.411   1.505 -15.174  1.00  0.00    -0.055 C 
ATOM     72  C   UNL     1       1.842   2.564 -14.560  1.00  0.00    -0.018 C 
ATOM     73  C   UNL     1       2.672   1.418 -16.655  1.00  0.00     0.044 C 
BRANCH  72  74
ATOM     74  C   UNL     1       1.340   3.870 -15.158  1.00  0.00     0.038 C 
ATOM     75  C   UNL     1       2.092   5.008 -14.459  1.00  0.00     0.015 C 
BRANCH  74  76
ATOM     76  C   UNL     1      -0.210   3.924 -15.012  1.00  0.00     0.128 C 
BRANCH  76  77
ATOM     77  O   UNL     1      -0.773   2.626 -15.267  1.00  0.00    -0.381 OA
ATOM     78  C   UNL     1      -1.243   2.459 -16.598  1.00  0.00     0.195 C 
ENDBRANCH  76  77
BRANCH  76  79
ATOM     79  C   UNL     1      -0.694   4.536 -13.673  1.00  0.00     0.068 C 
BRANCH  79  80
ATOM     80  C   UNL     1      -1.447   3.641 -12.718  1.00  0.00    -0.045 A 
ATOM     81  C   UNL     1      -0.784   2.646 -11.987  1.00  0.00     0.004 A 
ATOM     82  C   UNL     1      -2.836   3.775 -12.569  1.00  0.00     0.004 A 
ATOM     83  C   UNL     1      -1.490   1.813 -11.117  1.00  0.00     0.000 A 
ATOM     84  C   UNL     1      -3.541   2.941 -11.699  1.00  0.00     0.000 A 
ATOM     85  C   UNL     1      -2.868   1.961 -10.972  1.00  0.00     0.000 A 
ENDBRANCH  79  80
ENDBRANCH  76  79
ENDBRANCH  74  76
ENDBRANCH  72  74
ENDBRANCH  70  71
ENDBRANCH   1  69
TORSDOF 17
ENDMDL
MODEL 16
REMARK VINA RESULT:    -5.527      1.897      2.909
REMARK INTER + INTRA:         -25.143
REMARK INTER:                 -16.647
REMARK INTRA:                  -8.496
REMARK UNBOUND:                -8.629
REMARK SMILES C=C1C(=O)N[C@H](C)C(=O)N[C@@H](CC(C)C)C(=O)N[C@@H](C(=O)O)[C@H](C)C(=O)N[C@@H](CCCN=C(N)N)C(=O)N[C@@H](/C=C/C(C)=C/[C@H](C)[C@H](Cc2ccccc2)OC)[C@H](C)C(=O)N[C@@H](C(=O)O)CCC(=O)N1C
REMARK SMILES IDX 39 1 38 2 37 3 36 4 28 6 27 7 25 8 26 9 23 11 24 12 19 13
REMARK SMILES IDX 18 14 16 15 17 16 11 18 10 19 8 20 9 21 12 24 13 25 14 26
REMARK SMILES IDX 15 27 20 28 21 29 22 30 29 32 30 33 31 34 32 35 33 36 34 37
REMARK SMILES IDX 35 38 57 43 58 44 59 45 60 46 61 47 62 49 66 50 67 51 68 52
REMARK SMILES IDX 69 53 70 54 71 55 2 56 1 57 3 58 4 59 5 60 6 62 7 63 63 65
REMARK SMILES IDX 64 66 65 67 40 69 41 70 42 71 44 72 43 73 45 74 46 75 47 76
REMARK SMILES IDX 55 77 56 78 48 79 49 80 50 81 54 82 51 83 53 84 52 85
REMARK H PARENT 38 5 27 10 18 17 10 22 22 31 34 39 34 40 35 41 35 42 61 48
REMARK H PARENT 5 61 65 68
REMARK Flexibility Score:  369.900
ROOT
ATOM      1  C   UNL     1       6.146  -1.691 -10.063  1.00  0.00     0.117 C 
ENDROOT
BRANCH   1   2
ATOM      2  N   UNL     1       6.188  -2.171 -11.445  1.00  0.00    -0.347 N 
ATOM      3  O   UNL     1       5.541  -4.337 -11.043  1.00  0.00    -0.273 OA
ATOM      4  C   UNL     1       5.792  -3.436 -11.836  1.00  0.00     0.243 C 
ATOM      5  H   UNL     1       6.473  -1.541 -12.179  1.00  0.00     0.164 HD
BRANCH   4   6
ATOM      6  C   UNL     1       5.853  -3.661 -13.368  1.00  0.00     0.171 C 
BRANCH   6   7
ATOM      7  N   UNL     1       6.132  -2.395 -14.064  1.00  0.00    -0.344 N 
ATOM      8  C   UNL     1       5.160  -1.783 -14.826  1.00  0.00     0.226 C 
ATOM      9  O   UNL     1       4.043  -2.263 -14.980  1.00  0.00    -0.275 OA
ATOM     10  H   UNL     1       7.064  -2.003 -14.015  1.00  0.00     0.164 HD
BRANCH   8  11
ATOM     11  C   UNL     1       5.584  -0.458 -15.434  1.00  0.00     0.109 C 
ATOM     12  C   UNL     1       6.495   0.297 -14.466  1.00  0.00     0.021 C 
BRANCH  11  13
ATOM     13  C   UNL     1       6.180  -0.694 -16.836  1.00  0.00     0.204 C 
BRANCH  13  14
ATOM     14  N   UNL     1       7.373  -1.545 -16.792  1.00  0.00    -0.340 N 
ATOM     15  C   UNL     1       8.629  -1.090 -17.132  1.00  0.00     0.243 C 
ATOM     16  O   UNL     1       8.847   0.080 -17.438  1.00  0.00    -0.273 OA
ATOM     17  H   UNL     1       7.240  -2.555 -16.694  1.00  0.00     0.164 HD
BRANCH  15  18
ATOM     18  C   UNL     1       9.693  -2.213 -17.210  1.00  0.00     0.171 C 
BRANCH  18  19
ATOM     19  N   UNL     1      10.715  -1.756 -18.149  1.00  0.00    -0.343 N 
ATOM     20  C   UNL     1      11.298  -2.610 -19.065  1.00  0.00     0.242 CG0
ATOM     21  O   UNL     1      11.082  -3.820 -19.045  1.00  0.00    -0.273 OA
ATOM     22  H   UNL     1      11.012  -0.787 -18.128  1.00  0.00     0.164 HD
ATOM     23  G   UNL     1      12.297  -1.930 -20.024  1.00  0.00     0.000 G0
ENDBRANCH  18  19
BRANCH  18  24
ATOM     24  C   UNL     1      10.287  -2.494 -15.825  1.00  0.00     0.038 C 
BRANCH  24  25
ATOM     25  C   UNL     1      10.770  -1.241 -15.065  1.00  0.00    -0.015 C 
ATOM     26  C   UNL     1      12.261  -1.297 -14.732  1.00  0.00     0.007 C 
ATOM     27  C   UNL     1       9.960  -1.076 -13.776  1.00  0.00     0.007 C 
ENDBRANCH  24  25
ENDBRANCH  18  24
ENDBRANCH  15  18
ENDBRANCH  13  14
BRANCH  13  28
ATOM     28  C   UNL     1       5.193  -1.346 -17.809  1.00  0.00     0.327 C 
ATOM     29  O   UNL     1       4.401  -0.763 -18.534  1.00  0.00    -0.250 OA
BRANCH  28  30
ATOM     30  O   UNL     1       5.180  -2.692 -17.726  1.00  0.00    -0.480 OA
ATOM     31  H   UNL     1       4.342  -2.952 -18.163  1.00  0.00     0.296 HD
ENDBRANCH  28  30
ENDBRANCH  13  28
ENDBRANCH  11  13
ENDBRANCH   8  11
ENDBRANCH   6   7
BRANCH   6  32
ATOM     32  C   UNL     1       6.931  -4.706 -13.680  1.00  0.00     0.037 C 
BRANCH  32  33
ATOM     33  C   UNL     1       7.555  -4.497 -15.067  1.00  0.00     0.026 C 
BRANCH  33  34
ATOM     34  C   UNL     1       6.919  -5.389 -16.135  1.00  0.00     0.146 C 
BRANCH  34  35
ATOM     35  N   UNL     1       7.061  -4.742 -17.432  1.00  0.00    -0.254 NA
ATOM     36  C   UNL     1       8.011  -5.117 -18.206  1.00  0.00     0.185 C 
ATOM     37  N   UNL     1       8.147  -4.531 -19.405  1.00  0.00    -0.370 N 
ATOM     38  N   UNL     1       8.947  -6.059 -17.997  1.00  0.00    -0.370 N 
ATOM     39  H   UNL     1       7.471  -3.816 -19.641  1.00  0.00     0.159 HD
ATOM     40  H   UNL     1       8.748  -4.883 -20.131  1.00  0.00     0.159 HD
ATOM     41  H   UNL     1       9.727  -6.166 -18.625  1.00  0.00     0.159 HD
ATOM     42  H   UNL     1       8.976  -6.571 -17.129  1.00  0.00     0.159 HD
ENDBRANCH  34  35
ENDBRANCH  33  34
ENDBRANCH  32  33
ENDBRANCH   6  32
ENDBRANCH   4   6
ENDBRANCH   1   2
BRANCH   1  43
ATOM     43  C   UNL     1       4.982  -0.667  -9.930  1.00  0.00     0.102 C 
ATOM     44  C   UNL     1       5.192   0.355  -8.800  1.00  0.00     0.020 C 
BRANCH  43  45
ATOM     45  C   UNL     1       3.626  -1.378  -9.880  1.00  0.00     0.225 C 
ATOM     46  O   UNL     1       2.963  -1.630 -10.882  1.00  0.00    -0.275 OA
ATOM     47  N   UNL     1       3.142  -1.641  -8.619  1.00  0.00    -0.342 N 
ATOM     48  H   UNL     1       3.757  -1.569  -7.821  1.00  0.00     0.164 HD
BRANCH  47  49
ATOM     49  C   UNL     1       1.873  -2.349  -8.418  1.00  0.00     0.192 C 
BRANCH  49  50
ATOM     50  C   UNL     1       1.247  -1.915  -7.090  1.00  0.00     0.047 C 
BRANCH  50  51
ATOM     51  C   UNL     1       2.251  -1.192  -6.182  1.00  0.00     0.103 C 
BRANCH  51  52
ATOM     52  C   UNL     1       2.468  -1.932  -4.864  1.00  0.00     0.226 C 
ATOM     53  O   UNL     1       1.919  -3.020  -4.677  1.00  0.00    -0.275 OA
BRANCH  52  54
ATOM     54  N   UNL     1       3.366  -1.343  -3.954  1.00  0.00    -0.311 N 
ATOM     55  C   UNL     1       4.750  -1.823  -3.839  1.00  0.00     0.153 C 
BRANCH  54  56
ATOM     56  C   UNL     1       2.978  -0.274  -3.130  1.00  0.00     0.102 C 
ATOM     57  C   UNL     1       3.368   1.001  -3.289  1.00  0.00     0.043 C 
BRANCH  56  58
ATOM     58  C   UNL     1       2.016  -0.489  -1.984  1.00  0.00     0.268 C 
ATOM     59  O   UNL     1       2.380  -0.719  -0.839  1.00  0.00    -0.268 OA
ATOM     60  N   UNL     1       0.700  -0.334  -2.348  1.00  0.00    -0.339 N 
ATOM     61  H   UNL     1       0.481  -0.154  -3.320  1.00  0.00     0.164 HD
BRANCH  60  62
ATOM     62  C   UNL     1      -0.392  -0.436  -1.381  1.00  0.00     0.168 CG0
ATOM     63  C   UNL     1      -1.609  -1.113  -1.999  1.00  0.00     0.041 C 
ATOM     64  G   UNL     1      -0.755   0.970  -0.860  1.00  0.00     0.000 G0
ENDBRANCH  60  62
ENDBRANCH  56  58
ENDBRANCH  54  56
ENDBRANCH  52  54
ENDBRANCH  51  52
ENDBRANCH  50  51
ENDBRANCH  49  50
BRANCH  49  65
ATOM     65  C   UNL     1       2.069  -3.873  -8.413  1.00  0.00     0.326 C 
ATOM     66  O   UNL     1       2.756  -4.499  -7.619  1.00  0.00    -0.250 OA
BRANCH  65  67
ATOM     67  O   UNL     1       1.455  -4.523  -9.426  1.00  0.00    -0.480 OA
ATOM     68  H   UNL     1       0.641  -4.882  -9.010  1.00  0.00     0.296 HD
ENDBRANCH  65  67
ENDBRANCH  49  65
ENDBRANCH  47  49
ENDBRANCH  43  45
ENDBRANCH   1  43
BRANCH   1  69
ATOM     69  C   UNL     1       7.557  -1.246  -9.726  1.00  0.00    -0.001 C 
ATOM     70  C   UNL     1       8.666  -1.416 -10.467  1.00  0.00     0.001 C 
BRANCH  70  71
ATOM     71  C   UNL     1      10.020  -0.962 -10.141  1.00  0.00    -0.055 C 
ATOM     72  C   UNL     1      10.172   0.314  -9.729  1.00  0.00    -0.018 C 
ATOM     73  C   UNL     1      11.145  -1.954 -10.281  1.00  0.00     0.044 C 
BRANCH  72  74
ATOM     74  C   UNL     1      11.441   1.051  -9.324  1.00  0.00     0.038 C 
ATOM     75  C   UNL     1      11.658   0.791  -7.829  1.00  0.00     0.015 C 
BRANCH  74  76
ATOM     76  C   UNL     1      11.293   2.552  -9.712  1.00  0.00     0.128 C 
BRANCH  76  77
ATOM     77  O   UNL     1      11.666   3.384  -8.601  1.00  0.00    -0.381 OA
ATOM     78  C   UNL     1      10.769   4.463  -8.370  1.00  0.00     0.195 C 
ENDBRANCH  76  77
BRANCH  76  79
ATOM     79  C   UNL     1      12.025   2.938 -11.022  1.00  0.00     0.068 C 
BRANCH  79  80
ATOM     80  C   UNL     1      11.276   2.779 -12.323  1.00  0.00    -0.045 A 
ATOM     81  C   UNL     1       9.876   2.826 -12.361  1.00  0.00     0.004 A 
ATOM     82  C   UNL     1      11.975   2.553 -13.518  1.00  0.00     0.004 A 
ATOM     83  C   UNL     1       9.190   2.664 -13.566  1.00  0.00     0.000 A 
ATOM     84  C   UNL     1      11.288   2.391 -14.723  1.00  0.00     0.000 A 
ATOM     85  C   UNL     1       9.896   2.448 -14.747  1.00  0.00     0.000 A 
ENDBRANCH  79  80
ENDBRANCH  76  79
ENDBRANCH  74  76
ENDBRANCH  72  74
ENDBRANCH  70  71
ENDBRANCH   1  69
TORSDOF 17
ENDMDL
MODEL 17
REMARK VINA RESULT:    -5.515      6.147     15.834
REMARK INTER + INTRA:         -25.106
REMARK INTER:                 -18.738
REMARK INTRA:                  -6.368
REMARK UNBOUND:                -8.629
REMARK SMILES C=C1C(=O)N[C@H](C)C(=O)N[C@@H](CC(C)C)C(=O)N[C@@H](C(=O)O)[C@H](C)C(=O)N[C@@H](CCCN=C(N)N)C(=O)N[C@@H](/C=C/C(C)=C/[C@H](C)[C@H](Cc2ccccc2)OC)[C@H](C)C(=O)N[C@@H](C(=O)O)CCC(=O)N1C
REMARK SMILES IDX 39 1 38 2 37 3 36 4 28 6 27 7 25 8 26 9 23 11 24 12 19 13
REMARK SMILES IDX 18 14 16 15 17 16 11 18 10 19 8 20 9 21 12 24 13 25 14 26
REMARK SMILES IDX 15 27 20 28 21 29 22 30 29 32 30 33 31 34 32 35 33 36 34 37
REMARK SMILES IDX 35 38 57 43 58 44 59 45 60 46 61 47 62 49 66 50 67 51 68 52
REMARK SMILES IDX 69 53 70 54 71 55 2 56 1 57 3 58 4 59 5 60 6 62 7 63 63 65
REMARK SMILES IDX 64 66 65 67 40 69 41 70 42 71 44 72 43 73 45 74 46 75 47 76
REMARK SMILES IDX 55 77 56 78 48 79 49 80 50 81 54 82 51 83 53 84 52 85
REMARK H PARENT 38 5 27 10 18 17 10 22 22 31 34 39 34 40 35 41 35 42 61 48
REMARK H PARENT 5 61 65 68
REMARK Flexibility Score:  369.900
ROOT
ATOM      1  C   UNL     1       3.062  -1.671  -5.055  1.00  0.00     0.117 C 
ENDROOT
BRANCH   1   2
ATOM      2  N   UNL     1       3.834  -1.130  -3.936  1.00  0.00    -0.347 N 
ATOM      3  O   UNL     1       4.050  -3.075  -2.735  1.00  0.00    -0.273 OA
ATOM      4  C   UNL     1       4.346  -1.897  -2.907  1.00  0.00     0.243 C 
ATOM      5  H   UNL     1       4.060  -0.147  -3.921  1.00  0.00     0.164 HD
BRANCH   4   6
ATOM      6  C   UNL     1       5.200  -1.092  -1.895  1.00  0.00     0.171 C 
BRANCH   6   7
ATOM      7  N   UNL     1       4.932  -1.545  -0.521  1.00  0.00    -0.344 N 
ATOM      8  C   UNL     1       3.801  -1.128   0.148  1.00  0.00     0.226 C 
ATOM      9  O   UNL     1       2.988  -0.357  -0.346  1.00  0.00    -0.275 OA
ATOM     10  H   UNL     1       5.614  -2.129  -0.055  1.00  0.00     0.164 HD
BRANCH   8  11
ATOM     11  C   UNL     1       3.640  -1.726   1.535  1.00  0.00     0.109 C 
ATOM     12  C   UNL     1       4.084  -3.189   1.533  1.00  0.00     0.021 C 
BRANCH  11  13
ATOM     13  C   UNL     1       4.350  -0.834   2.573  1.00  0.00     0.204 C 
BRANCH  13  14
ATOM     14  N   UNL     1       3.566  -0.688   3.804  1.00  0.00    -0.340 N 
ATOM     15  C   UNL     1       2.868   0.458   4.115  1.00  0.00     0.243 C 
ATOM     16  O   UNL     1       2.803   1.419   3.351  1.00  0.00    -0.273 OA
ATOM     17  H   UNL     1       3.700  -1.383   4.543  1.00  0.00     0.164 HD
BRANCH  15  18
ATOM     18  C   UNL     1       2.291   0.460   5.552  1.00  0.00     0.171 C 
BRANCH  18  19
ATOM     19  N   UNL     1       3.434   0.448   6.462  1.00  0.00    -0.343 N 
ATOM     20  C   UNL     1       3.694  -0.626   7.291  1.00  0.00     0.242 CG0
ATOM     21  O   UNL     1       2.904  -1.561   7.400  1.00  0.00    -0.273 OA
ATOM     22  H   UNL     1       4.054   1.249   6.493  1.00  0.00     0.164 HD
ATOM     23  G   UNL     1       4.987  -0.492   8.122  1.00  0.00     0.000 G0
ENDBRANCH  18  19
BRANCH  18  24
ATOM     24  C   UNL     1       1.406   1.692   5.778  1.00  0.00     0.038 C 
BRANCH  24  25
ATOM     25  C   UNL     1      -0.102   1.388   5.906  1.00  0.00    -0.015 C 
ATOM     26  C   UNL     1      -0.800   2.302   6.913  1.00  0.00     0.007 C 
ATOM     27  C   UNL     1      -0.299  -0.075   6.315  1.00  0.00     0.007 C 
ENDBRANCH  24  25
ENDBRANCH  18  24
ENDBRANCH  15  18
ENDBRANCH  13  14
BRANCH  13  28
ATOM     28  C   UNL     1       5.732  -1.359   2.974  1.00  0.00     0.327 C 
ATOM     29  O   UNL     1       6.040  -1.826   4.060  1.00  0.00    -0.250 OA
BRANCH  28  30
ATOM     30  O   UNL     1       6.670  -1.155   2.028  1.00  0.00    -0.480 OA
ATOM     31  H   UNL     1       7.177  -0.382   2.353  1.00  0.00     0.296 HD
ENDBRANCH  28  30
ENDBRANCH  13  28
ENDBRANCH  11  13
ENDBRANCH   8  11
ENDBRANCH   6   7
BRANCH   6  32
ATOM     32  C   UNL     1       6.683  -1.255  -2.246  1.00  0.00     0.037 C 
BRANCH  32  33
ATOM     33  C   UNL     1       7.392  -2.250  -1.316  1.00  0.00     0.026 C 
BRANCH  33  34
ATOM     34  C   UNL     1       7.551  -3.632  -1.951  1.00  0.00     0.146 C 
BRANCH  34  35
ATOM     35  N   UNL     1       7.628  -4.629  -0.892  1.00  0.00    -0.254 NA
ATOM     36  C   UNL     1       6.593  -5.342  -0.642  1.00  0.00     0.185 C 
ATOM     37  N   UNL     1       6.655  -6.267   0.328  1.00  0.00    -0.370 N 
ATOM     38  N   UNL     1       5.384  -5.310  -1.230  1.00  0.00    -0.370 N 
ATOM     39  H   UNL     1       7.539  -6.359   0.812  1.00  0.00     0.159 HD
ATOM     40  H   UNL     1       5.955  -6.975   0.466  1.00  0.00     0.159 HD
ATOM     41  H   UNL     1       4.607  -5.825  -0.850  1.00  0.00     0.159 HD
ATOM     42  H   UNL     1       5.189  -4.650  -1.967  1.00  0.00     0.159 HD
ENDBRANCH  34  35
ENDBRANCH  33  34
ENDBRANCH  32  33
ENDBRANCH   6  32
ENDBRANCH   4   6
ENDBRANCH   1   2
BRANCH   1  43
ATOM     43  C   UNL     1       3.866  -1.445  -6.368  1.00  0.00     0.102 C 
ATOM     44  C   UNL     1       3.542  -0.110  -7.061  1.00  0.00     0.020 C 
BRANCH  43  45
ATOM     45  C   UNL     1       3.769  -2.664  -7.290  1.00  0.00     0.225 C 
ATOM     46  O   UNL     1       4.561  -3.601  -7.248  1.00  0.00    -0.275 OA
ATOM     47  N   UNL     1       2.783  -2.605  -8.247  1.00  0.00    -0.342 N 
ATOM     48  H   UNL     1       2.054  -1.910  -8.173  1.00  0.00     0.164 HD
BRANCH  47  49
ATOM     49  C   UNL     1       2.550  -3.715  -9.176  1.00  0.00     0.192 C 
BRANCH  49  50
ATOM     50  C   UNL     1       1.946  -3.180 -10.477  1.00  0.00     0.047 C 
BRANCH  50  51
ATOM     51  C   UNL     1       2.990  -2.479 -11.358  1.00  0.00     0.103 C 
BRANCH  51  52
ATOM     52  C   UNL     1       3.343  -3.304 -12.594  1.00  0.00     0.226 C 
ATOM     53  O   UNL     1       2.570  -4.181 -12.984  1.00  0.00    -0.275 OA
BRANCH  52  54
ATOM     54  N   UNL     1       4.526  -2.947 -13.268  1.00  0.00    -0.311 N 
ATOM     55  C   UNL     1       4.848  -1.539 -13.537  1.00  0.00     0.153 C 
BRANCH  54  56
ATOM     56  C   UNL     1       5.442  -3.919 -13.704  1.00  0.00     0.102 C 
ATOM     57  C   UNL     1       6.289  -4.589 -12.905  1.00  0.00     0.043 C 
BRANCH  56  58
ATOM     58  C   UNL     1       5.508  -4.326 -15.157  1.00  0.00     0.268 C 
ATOM     59  O   UNL     1       4.521  -4.634 -15.812  1.00  0.00    -0.268 OA
ATOM     60  N   UNL     1       6.776  -4.252 -15.682  1.00  0.00    -0.339 N 
ATOM     61  H   UNL     1       7.542  -3.998 -15.070  1.00  0.00     0.164 HD
BRANCH  60  62
ATOM     62  C   UNL     1       7.055  -4.542 -17.088  1.00  0.00     0.168 CG0
ATOM     63  C   UNL     1       8.276  -3.770 -17.574  1.00  0.00     0.041 C 
ATOM     64  G   UNL     1       5.817  -4.200 -17.942  1.00  0.00     0.000 G0
ENDBRANCH  60  62
ENDBRANCH  56  58
ENDBRANCH  54  56
ENDBRANCH  52  54
ENDBRANCH  51  52
ENDBRANCH  50  51
ENDBRANCH  49  50
BRANCH  49  65
ATOM     65  C   UNL     1       1.608  -4.770  -8.574  1.00  0.00     0.326 C 
ATOM     66  O   UNL     1       1.398  -4.937  -7.382  1.00  0.00    -0.250 OA
BRANCH  65  67
ATOM     67  O   UNL     1       1.030  -5.591  -9.478  1.00  0.00    -0.480 OA
ATOM     68  H   UNL     1       1.099  -6.478  -9.062  1.00  0.00     0.296 HD
ENDBRANCH  65  67
ENDBRANCH  49  65
ENDBRANCH  47  49
ENDBRANCH  43  45
ENDBRANCH   1  43
BRANCH   1  69
ATOM     69  C   UNL     1       1.670  -1.078  -4.936  1.00  0.00    -0.001 C 
ATOM     70  C   UNL     1       0.497  -1.734  -4.965  1.00  0.00     0.001 C 
BRANCH  70  71
ATOM     71  C   UNL     1      -0.840  -1.153  -4.827  1.00  0.00    -0.055 C 
ATOM     72  C   UNL     1      -1.385  -1.116  -3.593  1.00  0.00    -0.018 C 
ATOM     73  C   UNL     1      -1.510  -0.629  -6.071  1.00  0.00     0.044 C 
BRANCH  72  74
ATOM     74  C   UNL     1      -2.738  -0.576  -3.152  1.00  0.00     0.038 C 
ATOM     75  C   UNL     1      -2.594   0.944  -3.012  1.00  0.00     0.015 C 
BRANCH  74  76
ATOM     76  C   UNL     1      -3.173  -1.314  -1.852  1.00  0.00     0.128 C 
BRANCH  76  77
ATOM     77  O   UNL     1      -4.155  -2.317  -2.162  1.00  0.00    -0.381 OA
ATOM     78  C   UNL     1      -5.495  -1.881  -1.976  1.00  0.00     0.195 C 
ENDBRANCH  76  77
BRANCH  76  79
ATOM     79  C   UNL     1      -1.991  -1.869  -1.018  1.00  0.00     0.068 C 
BRANCH  79  80
ATOM     80  C   UNL     1      -1.567  -1.097   0.208  1.00  0.00    -0.045 A 
ATOM     81  C   UNL     1      -0.387  -1.420   0.892  1.00  0.00     0.004 A 
ATOM     82  C   UNL     1      -2.368  -0.056   0.701  1.00  0.00     0.004 A 
ATOM     83  C   UNL     1      -0.009  -0.710   2.034  1.00  0.00     0.000 A 
ATOM     84  C   UNL     1      -1.990   0.652   1.844  1.00  0.00     0.000 A 
ATOM     85  C   UNL     1      -0.810   0.326   2.509  1.00  0.00     0.000 A 
ENDBRANCH  79  80
ENDBRANCH  76  79
ENDBRANCH  74  76
ENDBRANCH  72  74
ENDBRANCH  70  71
ENDBRANCH   1  69
TORSDOF 17
ENDMDL
MODEL 18
REMARK VINA RESULT:    -5.512     10.725     17.391
REMARK INTER + INTRA:         -25.096
REMARK INTER:                 -16.788
REMARK INTRA:                  -8.308
REMARK UNBOUND:                -8.629
REMARK SMILES C=C1C(=O)N[C@H](C)C(=O)N[C@@H](CC(C)C)C(=O)N[C@@H](C(=O)O)[C@H](C)C(=O)N[C@@H](CCCN=C(N)N)C(=O)N[C@@H](/C=C/C(C)=C/[C@H](C)[C@H](Cc2ccccc2)OC)[C@H](C)C(=O)N[C@@H](C(=O)O)CCC(=O)N1C
REMARK SMILES IDX 39 1 38 2 37 3 36 4 28 6 27 7 25 8 26 9 23 11 24 12 19 13
REMARK SMILES IDX 18 14 16 15 17 16 11 18 10 19 8 20 9 21 12 24 13 25 14 26
REMARK SMILES IDX 15 27 20 28 21 29 22 30 29 32 30 33 31 34 32 35 33 36 34 37
REMARK SMILES IDX 35 38 57 43 58 44 59 45 60 46 61 47 62 49 66 50 67 51 68 52
REMARK SMILES IDX 69 53 70 54 71 55 2 56 1 57 3 58 4 59 5 60 6 62 7 63 63 65
REMARK SMILES IDX 64 66 65 67 40 69 41 70 42 71 44 72 43 73 45 74 46 75 47 76
REMARK SMILES IDX 55 77 56 78 48 79 49 80 50 81 54 82 51 83 53 84 52 85
REMARK H PARENT 38 5 27 10 18 17 10 22 22 31 34 39 34 40 35 41 35 42 61 48
REMARK H PARENT 5 61 65 68
REMARK Flexibility Score:  369.900
ROOT
ATOM      1  C   UNL     1       5.416  -1.734   2.546  1.00  0.00     0.117 C 
ENDROOT
BRANCH   1   2
ATOM      2  N   UNL     1       6.517  -2.656   2.267  1.00  0.00    -0.347 N 
ATOM      3  O   UNL     1       5.317  -4.236   1.113  1.00  0.00    -0.273 OA
ATOM      4  C   UNL     1       6.396  -3.793   1.491  1.00  0.00     0.243 C 
ATOM      5  H   UNL     1       7.441  -2.443   2.612  1.00  0.00     0.164 HD
BRANCH   4   6
ATOM      6  C   UNL     1       7.732  -4.549   1.280  1.00  0.00     0.171 C 
BRANCH   6   7
ATOM      7  N   UNL     1       8.153  -5.208   2.527  1.00  0.00    -0.344 N 
ATOM      8  C   UNL     1       9.003  -4.572   3.406  1.00  0.00     0.226 C 
ATOM      9  O   UNL     1       9.463  -3.457   3.189  1.00  0.00    -0.275 OA
ATOM     10  H   UNL     1       7.848  -6.156   2.709  1.00  0.00     0.164 HD
BRANCH   8  11
ATOM     11  C   UNL     1       9.299  -5.358   4.670  1.00  0.00     0.109 C 
ATOM     12  C   UNL     1       9.168  -6.857   4.400  1.00  0.00     0.021 C 
BRANCH  11  13
ATOM     13  C   UNL     1      10.659  -4.921   5.250  1.00  0.00     0.204 C 
BRANCH  13  14
ATOM     14  N   UNL     1      10.526  -3.794   6.179  1.00  0.00    -0.340 N 
ATOM     15  C   UNL     1      11.413  -2.740   6.208  1.00  0.00     0.243 C 
ATOM     16  O   UNL     1      12.347  -2.640   5.414  1.00  0.00    -0.273 OA
ATOM     17  H   UNL     1       9.869  -3.889   6.958  1.00  0.00     0.164 HD
BRANCH  15  18
ATOM     18  C   UNL     1      11.193  -1.779   7.402  1.00  0.00     0.171 C 
BRANCH  18  19
ATOM     19  N   UNL     1      12.193  -2.127   8.409  1.00  0.00    -0.343 N 
ATOM     20  C   UNL     1      12.034  -3.211   9.251  1.00  0.00     0.242 CG0
ATOM     21  O   UNL     1      10.986  -3.852   9.283  1.00  0.00    -0.273 OA
ATOM     22  H   UNL     1      13.027  -1.557   8.501  1.00  0.00     0.164 HD
ATOM     23  G   UNL     1      13.229  -3.467  10.193  1.00  0.00     0.000 G0
ENDBRANCH  18  19
BRANCH  18  24
ATOM     24  C   UNL     1      11.330  -0.318   6.955  1.00  0.00     0.038 C 
BRANCH  24  25
ATOM     25  C   UNL     1      10.012   0.484   6.961  1.00  0.00    -0.015 C 
ATOM     26  C   UNL     1       9.661   1.044   5.583  1.00  0.00     0.007 C 
ATOM     27  C   UNL     1      10.111   1.629   7.973  1.00  0.00     0.007 C 
ENDBRANCH  24  25
ENDBRANCH  18  24
ENDBRANCH  15  18
ENDBRANCH  13  14
BRANCH  13  28
ATOM     28  C   UNL     1      11.385  -6.043   5.999  1.00  0.00     0.327 C 
ATOM     29  O   UNL     1      12.198  -6.821   5.524  1.00  0.00    -0.250 OA
BRANCH  28  30
ATOM     30  O   UNL     1      10.957  -6.194   7.269  1.00  0.00    -0.480 OA
ATOM     31  H   UNL     1      11.461  -5.524   7.775  1.00  0.00     0.296 HD
ENDBRANCH  28  30
ENDBRANCH  13  28
ENDBRANCH  11  13
ENDBRANCH   8  11
ENDBRANCH   6   7
BRANCH   6  32
ATOM     32  C   UNL     1       7.559  -5.572   0.153  1.00  0.00     0.037 C 
BRANCH  32  33
ATOM     33  C   UNL     1       8.461  -5.267  -1.051  1.00  0.00     0.026 C 
BRANCH  33  34
ATOM     34  C   UNL     1       7.663  -4.974  -2.322  1.00  0.00     0.146 C 
BRANCH  34  35
ATOM     35  N   UNL     1       6.245  -5.148  -2.037  1.00  0.00    -0.254 NA
ATOM     36  C   UNL     1       5.454  -4.159  -2.231  1.00  0.00     0.185 C 
ATOM     37  N   UNL     1       4.145  -4.310  -1.976  1.00  0.00    -0.370 N 
ATOM     38  N   UNL     1       5.740  -2.923  -2.677  1.00  0.00    -0.370 N 
ATOM     39  H   UNL     1       3.848  -5.219  -1.646  1.00  0.00     0.159 HD
ATOM     40  H   UNL     1       3.443  -3.650  -2.264  1.00  0.00     0.159 HD
ATOM     41  H   UNL     1       5.051  -2.189  -2.655  1.00  0.00     0.159 HD
ATOM     42  H   UNL     1       6.690  -2.663  -2.894  1.00  0.00     0.159 HD
ENDBRANCH  34  35
ENDBRANCH  33  34
ENDBRANCH  32  33
ENDBRANCH   6  32
ENDBRANCH   4   6
ENDBRANCH   1   2
BRANCH   1  43
ATOM     43  C   UNL     1       5.328  -0.702   1.385  1.00  0.00     0.102 C 
ATOM     44  C   UNL     1       5.435   0.759   1.854  1.00  0.00     0.020 C 
BRANCH  43  45
ATOM     45  C   UNL     1       4.115  -0.981   0.492  1.00  0.00     0.225 C 
ATOM     46  O   UNL     1       4.210  -1.416  -0.652  1.00  0.00    -0.275 OA
ATOM     47  N   UNL     1       2.896  -0.621   1.021  1.00  0.00    -0.342 N 
ATOM     48  H   UNL     1       2.821  -0.411   2.006  1.00  0.00     0.164 HD
BRANCH  47  49
ATOM     49  C   UNL     1       1.646  -0.862   0.294  1.00  0.00     0.192 C 
BRANCH  49  50
ATOM     50  C   UNL     1       1.139   0.452  -0.306  1.00  0.00     0.047 C 
BRANCH  50  51
ATOM     51  C   UNL     1       1.490   0.586  -1.794  1.00  0.00     0.103 C 
BRANCH  51  52
ATOM     52  C   UNL     1       0.533  -0.205  -2.683  1.00  0.00     0.226 C 
ATOM     53  O   UNL     1      -0.412  -0.812  -2.174  1.00  0.00    -0.275 OA
BRANCH  52  54
ATOM     54  N   UNL     1       0.756  -0.126  -4.070  1.00  0.00    -0.311 N 
ATOM     55  C   UNL     1       1.706   0.845  -4.629  1.00  0.00     0.153 C 
BRANCH  54  56
ATOM     56  C   UNL     1       0.086  -0.973  -4.969  1.00  0.00     0.102 C 
ATOM     57  C   UNL     1      -1.068  -0.677  -5.589  1.00  0.00     0.043 C 
BRANCH  56  58
ATOM     58  C   UNL     1       0.668  -2.314  -5.350  1.00  0.00     0.268 C 
ATOM     59  O   UNL     1       0.358  -3.360  -4.797  1.00  0.00    -0.268 OA
ATOM     60  N   UNL     1       1.526  -2.246  -6.422  1.00  0.00    -0.339 N 
ATOM     61  H   UNL     1       1.740  -1.338  -6.818  1.00  0.00     0.164 HD
BRANCH  60  62
ATOM     62  C   UNL     1       2.153  -3.436  -6.995  1.00  0.00     0.168 CG0
ATOM     63  C   UNL     1       3.462  -3.083  -7.692  1.00  0.00     0.041 C 
ATOM     64  G   UNL     1       1.176  -4.112  -7.978  1.00  0.00     0.000 G0
ENDBRANCH  60  62
ENDBRANCH  56  58
ENDBRANCH  54  56
ENDBRANCH  52  54
ENDBRANCH  51  52
ENDBRANCH  50  51
ENDBRANCH  49  50
BRANCH  49  65
ATOM     65  C   UNL     1       0.563  -1.454   1.210  1.00  0.00     0.326 C 
ATOM     66  O   UNL     1      -0.626  -1.171   1.180  1.00  0.00    -0.250 OA
BRANCH  65  67
ATOM     67  O   UNL     1       1.024  -2.312   2.147  1.00  0.00    -0.480 OA
ATOM     68  H   UNL     1       1.939  -2.507   1.851  1.00  0.00     0.296 HD
ENDBRANCH  65  67
ENDBRANCH  49  65
ENDBRANCH  47  49
ENDBRANCH  43  45
ENDBRANCH   1  43
BRANCH   1  69
ATOM     69  C   UNL     1       5.634  -1.228   3.961  1.00  0.00    -0.001 C 
ATOM     70  C   UNL     1       6.492  -1.711   4.877  1.00  0.00     0.001 C 
BRANCH  70  71
ATOM     71  C   UNL     1       6.709  -1.201   6.233  1.00  0.00    -0.055 C 
ATOM     72  C   UNL     1       6.177  -0.001   6.545  1.00  0.00    -0.018 C 
ATOM     73  C   UNL     1       7.504  -2.056   7.185  1.00  0.00     0.044 C 
BRANCH  72  74
ATOM     74  C   UNL     1       6.236   0.767   7.857  1.00  0.00     0.038 C 
ATOM     75  C   UNL     1       5.528  -0.089   8.915  1.00  0.00     0.015 C 
BRANCH  74  76
ATOM     76  C   UNL     1       5.617   2.180   7.640  1.00  0.00     0.128 C 
BRANCH  76  77
ATOM     77  O   UNL     1       6.180   2.786   6.465  1.00  0.00    -0.381 OA
ATOM     78  C   UNL     1       7.250   3.681   6.741  1.00  0.00     0.195 C 
ENDBRANCH  76  77
BRANCH  76  79
ATOM     79  C   UNL     1       4.068   2.195   7.638  1.00  0.00     0.068 C 
BRANCH  79  80
ATOM     80  C   UNL     1       3.354   1.432   6.548  1.00  0.00    -0.045 A 
ATOM     81  C   UNL     1       3.368   1.885   5.222  1.00  0.00     0.004 A 
ATOM     82  C   UNL     1       2.638   0.265   6.854  1.00  0.00     0.004 A 
ATOM     83  C   UNL     1       2.694   1.182   4.222  1.00  0.00     0.000 A 
ATOM     84  C   UNL     1       1.964  -0.438   5.853  1.00  0.00     0.000 A 
ATOM     85  C   UNL     1       1.993   0.020   4.537  1.00  0.00     0.000 A 
ENDBRANCH  79  80
ENDBRANCH  76  79
ENDBRANCH  74  76
ENDBRANCH  72  74
ENDBRANCH  70  71
ENDBRANCH   1  69
TORSDOF 17
ENDMDL
MODEL 19
REMARK VINA RESULT:    -5.484      3.565     11.603
REMARK INTER + INTRA:         -25.012
REMARK INTER:                 -18.670
REMARK INTRA:                  -6.343
REMARK UNBOUND:                -8.629
REMARK SMILES C=C1C(=O)N[C@H](C)C(=O)N[C@@H](CC(C)C)C(=O)N[C@@H](C(=O)O)[C@H](C)C(=O)N[C@@H](CCCN=C(N)N)C(=O)N[C@@H](/C=C/C(C)=C/[C@H](C)[C@H](Cc2ccccc2)OC)[C@H](C)C(=O)N[C@@H](C(=O)O)CCC(=O)N1C
REMARK SMILES IDX 39 1 38 2 37 3 36 4 28 6 27 7 25 8 26 9 23 11 24 12 19 13
REMARK SMILES IDX 18 14 16 15 17 16 11 18 10 19 8 20 9 21 12 24 13 25 14 26
REMARK SMILES IDX 15 27 20 28 21 29 22 30 29 32 30 33 31 34 32 35 33 36 34 37
REMARK SMILES IDX 35 38 57 43 58 44 59 45 60 46 61 47 62 49 66 50 67 51 68 52
REMARK SMILES IDX 69 53 70 54 71 55 2 56 1 57 3 58 4 59 5 60 6 62 7 63 63 65
REMARK SMILES IDX 64 66 65 67 40 69 41 70 42 71 44 72 43 73 45 74 46 75 47 76
REMARK SMILES IDX 55 77 56 78 48 79 49 80 50 81 54 82 51 83 53 84 52 85
REMARK H PARENT 38 5 27 10 18 17 10 22 22 31 34 39 34 40 35 41 35 42 61 48
REMARK H PARENT 5 61 65 68
REMARK Flexibility Score:  369.900
ROOT
ATOM      1  C   UNL     1       6.067  -1.915 -11.323  1.00  0.00     0.117 C 
ENDROOT
BRANCH   1   2
ATOM      2  N   UNL     1       5.972  -2.350  -9.929  1.00  0.00    -0.347 N 
ATOM      3  O   UNL     1       4.492  -0.753  -9.203  1.00  0.00    -0.273 OA
ATOM      4  C   UNL     1       5.118  -1.787  -9.000  1.00  0.00     0.243 C 
ATOM      5  H   UNL     1       6.518  -3.139  -9.620  1.00  0.00     0.164 HD
BRANCH   4   6
ATOM      6  C   UNL     1       5.150  -2.490  -7.619  1.00  0.00     0.171 C 
BRANCH   6   7
ATOM      7  N   UNL     1       4.547  -1.629  -6.590  1.00  0.00    -0.344 N 
ATOM      8  C   UNL     1       5.199  -1.395  -5.398  1.00  0.00     0.226 C 
ATOM      9  O   UNL     1       6.283  -1.899  -5.129  1.00  0.00    -0.275 OA
ATOM     10  H   UNL     1       3.622  -1.249  -6.748  1.00  0.00     0.164 HD
BRANCH   8  11
ATOM     11  C   UNL     1       4.473  -0.443  -4.464  1.00  0.00     0.109 C 
ATOM     12  C   UNL     1       3.571   0.496  -5.266  1.00  0.00     0.021 C 
BRANCH  11  13
ATOM     13  C   UNL     1       3.756  -1.243  -3.359  1.00  0.00     0.204 C 
BRANCH  13  14
ATOM     14  N   UNL     1       4.689  -1.737  -2.341  1.00  0.00    -0.340 N 
ATOM     15  C   UNL     1       4.731  -3.055  -1.941  1.00  0.00     0.243 C 
ATOM     16  O   UNL     1       4.028  -3.924  -2.455  1.00  0.00    -0.273 OA
ATOM     17  H   UNL     1       5.189  -1.048  -1.773  1.00  0.00     0.164 HD
BRANCH  15  18
ATOM     18  C   UNL     1       5.644  -3.300  -0.715  1.00  0.00     0.171 C 
BRANCH  18  19
ATOM     19  N   UNL     1       5.163  -4.522  -0.073  1.00  0.00    -0.343 N 
ATOM     20  C   UNL     1       4.221  -4.491   0.937  1.00  0.00     0.242 CG0
ATOM     21  O   UNL     1       3.843  -3.432   1.433  1.00  0.00    -0.273 OA
ATOM     22  H   UNL     1       5.532  -5.418  -0.369  1.00  0.00     0.164 HD
ATOM     23  G   UNL     1       3.779  -5.882   1.437  1.00  0.00     0.000 G0
ENDBRANCH  18  19
BRANCH  18  24
ATOM     24  C   UNL     1       7.109  -3.433  -1.149  1.00  0.00     0.038 C 
BRANCH  24  25
ATOM     25  C   UNL     1       7.526  -4.854  -1.585  1.00  0.00    -0.015 C 
ATOM     26  C   UNL     1       8.909  -5.244  -1.062  1.00  0.00     0.007 C 
ATOM     27  C   UNL     1       7.507  -4.950  -3.112  1.00  0.00     0.007 C 
ENDBRANCH  24  25
ENDBRANCH  18  24
ENDBRANCH  15  18
ENDBRANCH  13  14
BRANCH  13  28
ATOM     28  C   UNL     1       2.678  -0.434  -2.631  1.00  0.00     0.327 C 
ATOM     29  O   UNL     1       2.856   0.332  -1.696  1.00  0.00    -0.250 OA
BRANCH  28  30
ATOM     30  O   UNL     1       1.428  -0.728  -3.043  1.00  0.00    -0.480 OA
ATOM     31  H   UNL     1       1.393  -0.395  -3.964  1.00  0.00     0.296 HD
ENDBRANCH  28  30
ENDBRANCH  13  28
ENDBRANCH  11  13
ENDBRANCH   8  11
ENDBRANCH   6   7
BRANCH   6  32
ATOM     32  C   UNL     1       4.408  -3.828  -7.718  1.00  0.00     0.037 C 
BRANCH  32  33
ATOM     33  C   UNL     1       2.887  -3.655  -7.608  1.00  0.00     0.026 C 
BRANCH  33  34
ATOM     34  C   UNL     1       2.133  -4.397  -8.712  1.00  0.00     0.146 C 
BRANCH  34  35
ATOM     35  N   UNL     1       2.590  -3.905 -10.005  1.00  0.00    -0.254 NA
ATOM     36  C   UNL     1       2.014  -2.879 -10.511  1.00  0.00     0.185 C 
ATOM     37  N   UNL     1       2.431  -2.415 -11.699  1.00  0.00    -0.370 N 
ATOM     38  N   UNL     1       1.000  -2.149 -10.014  1.00  0.00    -0.370 N 
ATOM     39  H   UNL     1       3.201  -2.907 -12.134  1.00  0.00     0.159 HD
ATOM     40  H   UNL     1       2.154  -1.525 -12.077  1.00  0.00     0.159 HD
ATOM     41  H   UNL     1       0.541  -1.448 -10.572  1.00  0.00     0.159 HD
ATOM     42  H   UNL     1       0.576  -2.393  -9.133  1.00  0.00     0.159 HD
ENDBRANCH  34  35
ENDBRANCH  33  34
ENDBRANCH  32  33
ENDBRANCH   6  32
ENDBRANCH   4   6
ENDBRANCH   1   2
BRANCH   1  43
ATOM     43  C   UNL     1       5.695  -3.114 -12.243  1.00  0.00     0.102 C 
ATOM     44  C   UNL     1       6.467  -4.402 -11.910  1.00  0.00     0.020 C 
BRANCH  43  45
ATOM     45  C   UNL     1       5.760  -2.715 -13.720  1.00  0.00     0.225 C 
ATOM     46  O   UNL     1       5.013  -1.881 -14.223  1.00  0.00    -0.275 OA
ATOM     47  N   UNL     1       6.657  -3.423 -14.486  1.00  0.00    -0.342 N 
ATOM     48  H   UNL     1       7.362  -3.990 -14.036  1.00  0.00     0.164 HD
BRANCH  47  49
ATOM     49  C   UNL     1       6.853  -3.126 -15.908  1.00  0.00     0.192 C 
BRANCH  49  50
ATOM     50  C   UNL     1       7.496  -1.745 -16.061  1.00  0.00     0.047 C 
BRANCH  50  51
ATOM     51  C   UNL     1       8.838  -1.807 -16.804  1.00  0.00     0.103 C 
BRANCH  51  52
ATOM     52  C   UNL     1       9.918  -2.505 -15.979  1.00  0.00     0.226 C 
ATOM     53  O   UNL     1       9.759  -2.653 -14.766  1.00  0.00    -0.275 OA
BRANCH  52  54
ATOM     54  N   UNL     1      11.020  -3.013 -16.691  1.00  0.00    -0.311 N 
ATOM     55  C   UNL     1      11.727  -2.188 -17.679  1.00  0.00     0.153 C 
BRANCH  54  56
ATOM     56  C   UNL     1      11.488  -4.321 -16.481  1.00  0.00     0.102 C 
ATOM     57  C   UNL     1      12.638  -4.636 -15.864  1.00  0.00     0.043 C 
BRANCH  56  58
ATOM     58  C   UNL     1      10.671  -5.515 -16.915  1.00  0.00     0.268 C 
ATOM     59  O   UNL     1       9.771  -5.993 -16.237  1.00  0.00    -0.268 OA
ATOM     60  N   UNL     1      10.997  -5.965 -18.173  1.00  0.00    -0.339 N 
ATOM     61  H   UNL     1      11.762  -5.521 -18.665  1.00  0.00     0.164 HD
BRANCH  60  62
ATOM     62  C   UNL     1      10.287  -7.071 -18.813  1.00  0.00     0.168 CG0
ATOM     63  C   UNL     1      11.100  -8.358 -18.741  1.00  0.00     0.041 C 
ATOM     64  G   UNL     1       9.973  -6.706 -20.278  1.00  0.00     0.000 G0
ENDBRANCH  60  62
ENDBRANCH  56  58
ENDBRANCH  54  56
ENDBRANCH  52  54
ENDBRANCH  51  52
ENDBRANCH  50  51
ENDBRANCH  49  50
BRANCH  49  65
ATOM     65  C   UNL     1       5.526  -3.157 -16.682  1.00  0.00     0.326 C 
ATOM     66  O   UNL     1       5.233  -2.432 -17.621  1.00  0.00    -0.250 OA
BRANCH  65  67
ATOM     67  O   UNL     1       4.619  -4.041 -16.210  1.00  0.00    -0.480 OA
ATOM     68  H   UNL     1       4.302  -4.501 -17.017  1.00  0.00     0.296 HD
ENDBRANCH  65  67
ENDBRANCH  49  65
ENDBRANCH  47  49
ENDBRANCH  43  45
ENDBRANCH   1  43
BRANCH   1  69
ATOM     69  C   UNL     1       7.432  -1.270 -11.474  1.00  0.00    -0.001 C 
ATOM     70  C   UNL     1       8.623  -1.785 -11.118  1.00  0.00     0.001 C 
BRANCH  70  71
ATOM     71  C   UNL     1       9.937  -1.162 -11.288  1.00  0.00    -0.055 C 
ATOM     72  C   UNL     1       9.991   0.024 -11.929  1.00  0.00    -0.018 C 
ATOM     73  C   UNL     1      11.134  -1.885 -10.729  1.00  0.00     0.044 C 
BRANCH  72  74
ATOM     74  C   UNL     1      11.199   0.895 -12.245  1.00  0.00     0.038 C 
ATOM     75  C   UNL     1      11.272   1.978 -11.162  1.00  0.00     0.015 C 
BRANCH  74  76
ATOM     76  C   UNL     1      11.062   1.433 -13.700  1.00  0.00     0.128 C 
BRANCH  76  77
ATOM     77  O   UNL     1      12.293   1.235 -14.414  1.00  0.00    -0.381 OA
ATOM     78  C   UNL     1      12.518  -0.115 -14.801  1.00  0.00     0.195 C 
ENDBRANCH  76  77
BRANCH  76  79
ATOM     79  C   UNL     1       9.831   0.882 -14.462  1.00  0.00     0.068 C 
BRANCH  79  80
ATOM     80  C   UNL     1       8.664   1.813 -14.688  1.00  0.00    -0.045 A 
ATOM     81  C   UNL     1       8.754   2.876 -15.595  1.00  0.00     0.004 A 
ATOM     82  C   UNL     1       7.473   1.642 -13.966  1.00  0.00     0.004 A 
ATOM     83  C   UNL     1       7.675   3.741 -15.788  1.00  0.00     0.000 A 
ATOM     84  C   UNL     1       6.395   2.508 -14.159  1.00  0.00     0.000 A 
ATOM     85  C   UNL     1       6.495   3.556 -15.071  1.00  0.00     0.000 A 
ENDBRANCH  79  80
ENDBRANCH  76  79
ENDBRANCH  74  76
ENDBRANCH  72  74
ENDBRANCH  70  71
ENDBRANCH   1  69
TORSDOF 17
ENDMDL
MODEL 20
REMARK VINA RESULT:    -5.416      2.595      3.832
REMARK INTER + INTRA:         -24.809
REMARK INTER:                 -17.210
REMARK INTRA:                  -7.599
REMARK UNBOUND:                -8.629
REMARK SMILES C=C1C(=O)N[C@H](C)C(=O)N[C@@H](CC(C)C)C(=O)N[C@@H](C(=O)O)[C@H](C)C(=O)N[C@@H](CCCN=C(N)N)C(=O)N[C@@H](/C=C/C(C)=C/[C@H](C)[C@H](Cc2ccccc2)OC)[C@H](C)C(=O)N[C@@H](C(=O)O)CCC(=O)N1C
REMARK SMILES IDX 39 1 38 2 37 3 36 4 28 6 27 7 25 8 26 9 23 11 24 12 19 13
REMARK SMILES IDX 18 14 16 15 17 16 11 18 10 19 8 20 9 21 12 24 13 25 14 26
REMARK SMILES IDX 15 27 20 28 21 29 22 30 29 32 30 33 31 34 32 35 33 36 34 37
REMARK SMILES IDX 35 38 57 43 58 44 59 45 60 46 61 47 62 49 66 50 67 51 68 52
REMARK SMILES IDX 69 53 70 54 71 55 2 56 1 57 3 58 4 59 5 60 6 62 7 63 63 65
REMARK SMILES IDX 64 66 65 67 40 69 41 70 42 71 44 72 43 73 45 74 46 75 47 76
REMARK SMILES IDX 55 77 56 78 48 79 49 80 50 81 54 82 51 83 53 84 52 85
REMARK H PARENT 38 5 27 10 18 17 10 22 22 31 34 39 34 40 35 41 35 42 61 48
REMARK H PARENT 5 61 65 68
REMARK Flexibility Score:  369.900
ROOT
ATOM      1  C   UNL     1       4.727  -1.902  -9.724  1.00  0.00     0.117 C 
ENDROOT
BRANCH   1   2
ATOM      2  N   UNL     1       5.078  -2.240 -11.104  1.00  0.00    -0.347 N 
ATOM      3  O   UNL     1       5.518  -4.469 -10.779  1.00  0.00    -0.273 OA
ATOM      4  C   UNL     1       5.358  -3.520 -11.540  1.00  0.00     0.243 C 
ATOM      5  H   UNL     1       5.074  -1.516 -11.806  1.00  0.00     0.164 HD
BRANCH   4   6
ATOM      6  C   UNL     1       5.616  -3.618 -13.065  1.00  0.00     0.171 C 
BRANCH   6   7
ATOM      7  N   UNL     1       5.894  -2.286 -13.626  1.00  0.00    -0.344 N 
ATOM      8  C   UNL     1       5.050  -1.727 -14.561  1.00  0.00     0.226 C 
ATOM      9  O   UNL     1       4.057  -2.307 -14.984  1.00  0.00    -0.275 OA
ATOM     10  H   UNL     1       6.741  -1.805 -13.351  1.00  0.00     0.164 HD
BRANCH   8  11
ATOM     11  C   UNL     1       5.443  -0.328 -15.001  1.00  0.00     0.109 C 
ATOM     12  C   UNL     1       6.353   0.316 -13.955  1.00  0.00     0.021 C 
BRANCH  11  13
ATOM     13  C   UNL     1       6.026  -0.374 -16.428  1.00  0.00     0.204 C 
BRANCH  13  14
ATOM     14  N   UNL     1       7.232  -1.204 -16.504  1.00  0.00    -0.340 N 
ATOM     15  C   UNL     1       8.478  -0.688 -16.787  1.00  0.00     0.243 C 
ATOM     16  O   UNL     1       8.677   0.516 -16.935  1.00  0.00    -0.273 OA
ATOM     17  H   UNL     1       7.114  -2.220 -16.542  1.00  0.00     0.164 HD
BRANCH  15  18
ATOM     18  C   UNL     1       9.558  -1.773 -17.021  1.00  0.00     0.171 C 
BRANCH  18  19
ATOM     19  N   UNL     1      10.676  -1.113 -17.692  1.00  0.00    -0.343 N 
ATOM     20  C   UNL     1      11.219  -1.608 -18.861  1.00  0.00     0.242 CG0
ATOM     21  O   UNL     1      10.877  -2.696 -19.320  1.00  0.00    -0.273 OA
ATOM     22  H   UNL     1      11.072  -0.272 -17.288  1.00  0.00     0.164 HD
ATOM     23  G   UNL     1      12.339  -0.734 -19.464  1.00  0.00     0.000 G0
ENDBRANCH  18  19
BRANCH  18  24
ATOM     24  C   UNL     1       9.992  -2.401 -15.690  1.00  0.00     0.038 C 
BRANCH  24  25
ATOM     25  C   UNL     1      10.429  -1.387 -14.612  1.00  0.00    -0.015 C 
ATOM     26  C   UNL     1      11.905  -1.528 -14.240  1.00  0.00     0.007 C 
ATOM     27  C   UNL     1       9.564  -1.562 -13.361  1.00  0.00     0.007 C 
ENDBRANCH  24  25
ENDBRANCH  18  24
ENDBRANCH  15  18
ENDBRANCH  13  14
BRANCH  13  28
ATOM     28  C   UNL     1       5.037  -0.913 -17.466  1.00  0.00     0.327 C 
ATOM     29  O   UNL     1       5.150  -1.950 -18.101  1.00  0.00    -0.250 OA
BRANCH  28  30
ATOM     30  O   UNL     1       4.029  -0.057 -17.730  1.00  0.00    -0.480 OA
ATOM     31  H   UNL     1       4.478   0.764 -18.018  1.00  0.00     0.296 HD
ENDBRANCH  28  30
ENDBRANCH  13  28
ENDBRANCH  11  13
ENDBRANCH   8  11
ENDBRANCH   6   7
BRANCH   6  32
ATOM     32  C   UNL     1       6.787  -4.573 -13.318  1.00  0.00     0.037 C 
BRANCH  32  33
ATOM     33  C   UNL     1       7.453  -4.326 -14.678  1.00  0.00     0.026 C 
BRANCH  33  34
ATOM     34  C   UNL     1       6.846  -5.181 -15.791  1.00  0.00     0.146 C 
BRANCH  34  35
ATOM     35  N   UNL     1       7.025  -4.494 -17.063  1.00  0.00    -0.254 NA
ATOM     36  C   UNL     1       7.979  -4.865 -17.833  1.00  0.00     0.185 C 
ATOM     37  N   UNL     1       8.150  -4.241 -19.009  1.00  0.00    -0.370 N 
ATOM     38  N   UNL     1       8.890  -5.835 -17.642  1.00  0.00    -0.370 N 
ATOM     39  H   UNL     1       7.494  -3.503 -19.231  1.00  0.00     0.159 HD
ATOM     40  H   UNL     1       8.755  -4.582 -19.736  1.00  0.00     0.159 HD
ATOM     41  H   UNL     1       9.678  -5.939 -18.260  1.00  0.00     0.159 HD
ATOM     42  H   UNL     1       8.892  -6.377 -16.792  1.00  0.00     0.159 HD
ENDBRANCH  34  35
ENDBRANCH  33  34
ENDBRANCH  32  33
ENDBRANCH   6  32
ENDBRANCH   4   6
ENDBRANCH   1   2
BRANCH   1  43
ATOM     43  C   UNL     1       3.629  -0.800  -9.749  1.00  0.00     0.102 C 
ATOM     44  C   UNL     1       4.188   0.624  -9.582  1.00  0.00     0.020 C 
BRANCH  43  45
ATOM     45  C   UNL     1       2.489  -1.137  -8.783  1.00  0.00     0.225 C 
ATOM     46  O   UNL     1       1.399  -0.573  -8.809  1.00  0.00    -0.275 OA
ATOM     47  N   UNL     1       2.792  -2.059  -7.807  1.00  0.00    -0.342 N 
ATOM     48  H   UNL     1       3.629  -2.619  -7.891  1.00  0.00     0.164 HD
BRANCH  47  49
ATOM     49  C   UNL     1       1.789  -2.505  -6.836  1.00  0.00     0.192 C 
BRANCH  49  50
ATOM     50  C   UNL     1       2.227  -2.106  -5.424  1.00  0.00     0.047 C 
BRANCH  50  51
ATOM     51  C   UNL     1       3.552  -1.331  -5.423  1.00  0.00     0.103 C 
BRANCH  51  52
ATOM     52  C   UNL     1       4.732  -2.214  -5.025  1.00  0.00     0.226 C 
ATOM     53  O   UNL     1       5.153  -3.062  -5.815  1.00  0.00    -0.275 OA
BRANCH  52  54
ATOM     54  N   UNL     1       5.326  -1.943  -3.779  1.00  0.00    -0.311 N 
ATOM     55  C   UNL     1       6.455  -1.010  -3.666  1.00  0.00     0.153 C 
BRANCH  54  56
ATOM     56  C   UNL     1       4.861  -2.548  -2.599  1.00  0.00     0.102 C 
ATOM     57  C   UNL     1       5.127  -3.810  -2.226  1.00  0.00     0.043 C 
BRANCH  56  58
ATOM     58  C   UNL     1       4.031  -1.770  -1.605  1.00  0.00     0.268 C 
ATOM     59  O   UNL     1       2.998  -1.187  -1.906  1.00  0.00    -0.268 OA
ATOM     60  N   UNL     1       4.519  -1.840  -0.322  1.00  0.00    -0.339 N 
ATOM     61  H   UNL     1       5.387  -2.335  -0.157  1.00  0.00     0.164 HD
BRANCH  60  62
ATOM     62  C   UNL     1       3.835  -1.211   0.807  1.00  0.00     0.168 CG0
ATOM     63  C   UNL     1       4.427   0.160   1.110  1.00  0.00     0.041 C 
ATOM     64  G   UNL     1       3.924  -2.130   2.043  1.00  0.00     0.000 G0
ENDBRANCH  60  62
ENDBRANCH  56  58
ENDBRANCH  54  56
ENDBRANCH  52  54
ENDBRANCH  51  52
ENDBRANCH  50  51
ENDBRANCH  49  50
BRANCH  49  65
ATOM     65  C   UNL     1       1.581  -4.026  -6.894  1.00  0.00     0.326 C 
ATOM     66  O   UNL     1       1.825  -4.741  -7.855  1.00  0.00    -0.250 OA
BRANCH  65  67
ATOM     67  O   UNL     1       1.028  -4.562  -5.783  1.00  0.00    -0.480 OA
ATOM     68  H   UNL     1       0.115  -4.202  -5.782  1.00  0.00     0.296 HD
ENDBRANCH  65  67
ENDBRANCH  49  65
ENDBRANCH  47  49
ENDBRANCH  43  45
ENDBRANCH   1  43
BRANCH   1  69
ATOM     69  C   UNL     1       6.035  -1.619  -9.010  1.00  0.00    -0.001 C 
ATOM     70  C   UNL     1       7.251  -1.465  -9.563  1.00  0.00     0.001 C 
BRANCH  70  71
ATOM     71  C   UNL     1       8.504  -1.170  -8.866  1.00  0.00    -0.055 C 
ATOM     72  C   UNL     1       8.502  -0.160  -7.970  1.00  0.00    -0.018 C 
ATOM     73  C   UNL     1       9.706  -2.020  -9.190  1.00  0.00     0.044 C 
BRANCH  72  74
ATOM     74  C   UNL     1       9.639   0.364  -7.106  1.00  0.00     0.038 C 
ATOM     75  C   UNL     1       9.072   0.588  -5.699  1.00  0.00     0.015 C 
BRANCH  74  76
ATOM     76  C   UNL     1      10.237   1.634  -7.779  1.00  0.00     0.128 C 
BRANCH  76  77
ATOM     77  O   UNL     1      10.459   2.655  -6.792  1.00  0.00    -0.381 OA
ATOM     78  C   UNL     1       9.953   3.930  -7.164  1.00  0.00     0.195 C 
ENDBRANCH  76  77
BRANCH  76  79
ATOM     79  C   UNL     1      11.490   1.357  -8.647  1.00  0.00     0.068 C 
BRANCH  79  80
ATOM     80  C   UNL     1      11.505   1.892 -10.059  1.00  0.00    -0.045 A 
ATOM     81  C   UNL     1      11.152   1.078 -11.143  1.00  0.00     0.004 A 
ATOM     82  C   UNL     1      11.903   3.214 -10.309  1.00  0.00     0.004 A 
ATOM     83  C   UNL     1      11.183   1.576 -12.447  1.00  0.00     0.000 A 
ATOM     84  C   UNL     1      11.934   3.711 -11.614  1.00  0.00     0.000 A 
ATOM     85  C   UNL     1      11.572   2.893 -12.682  1.00  0.00     0.000 A 
ENDBRANCH  79  80
ENDBRANCH  76  79
ENDBRANCH  74  76
ENDBRANCH  72  74
ENDBRANCH  70  71
ENDBRANCH   1  69
TORSDOF 17
ENDMDL
MODEL 21
REMARK VINA RESULT:    -5.406      5.648     13.836
REMARK INTER + INTRA:         -24.781
REMARK INTER:                 -18.303
REMARK INTRA:                  -6.479
REMARK UNBOUND:                -8.629
REMARK SMILES C=C1C(=O)N[C@H](C)C(=O)N[C@@H](CC(C)C)C(=O)N[C@@H](C(=O)O)[C@H](C)C(=O)N[C@@H](CCCN=C(N)N)C(=O)N[C@@H](/C=C/C(C)=C/[C@H](C)[C@H](Cc2ccccc2)OC)[C@H](C)C(=O)N[C@@H](C(=O)O)CCC(=O)N1C
REMARK SMILES IDX 39 1 38 2 37 3 36 4 28 6 27 7 25 8 26 9 23 11 24 12 19 13
REMARK SMILES IDX 18 14 16 15 17 16 11 18 10 19 8 20 9 21 12 24 13 25 14 26
REMARK SMILES IDX 15 27 20 28 21 29 22 30 29 32 30 33 31 34 32 35 33 36 34 37
REMARK SMILES IDX 35 38 57 43 58 44 59 45 60 46 61 47 62 49 66 50 67 51 68 52
REMARK SMILES IDX 69 53 70 54 71 55 2 56 1 57 3 58 4 59 5 60 6 62 7 63 63 65
REMARK SMILES IDX 64 66 65 67 40 69 41 70 42 71 44 72 43 73 45 74 46 75 47 76
REMARK SMILES IDX 55 77 56 78 48 79 49 80 50 81 54 82 51 83 53 84 52 85
REMARK H PARENT 38 5 27 10 18 17 10 22 22 31 34 39 34 40 35 41 35 42 61 48
REMARK H PARENT 5 61 65 68
REMARK Flexibility Score:  369.900
ROOT
ATOM      1  C   UNL     1       0.474  -0.631  -4.771  1.00  0.00     0.117 C 
ENDROOT
BRANCH   1   2
ATOM      2  N   UNL     1       1.880  -0.653  -4.369  1.00  0.00    -0.347 N 
ATOM      3  O   UNL     1       2.237  -2.909  -4.601  1.00  0.00    -0.273 OA
ATOM      4  C   UNL     1       2.677  -1.781  -4.404  1.00  0.00     0.243 C 
ATOM      5  H   UNL     1       2.329   0.207  -4.092  1.00  0.00     0.164 HD
BRANCH   4   6
ATOM      6  C   UNL     1       4.152  -1.515  -4.009  1.00  0.00     0.171 C 
BRANCH   6   7
ATOM      7  N   UNL     1       4.860  -2.785  -3.779  1.00  0.00    -0.344 N 
ATOM      8  C   UNL     1       5.712  -2.930  -2.705  1.00  0.00     0.226 C 
ATOM      9  O   UNL     1       5.938  -2.021  -1.915  1.00  0.00    -0.275 OA
ATOM     10  H   UNL     1       4.751  -3.536  -4.449  1.00  0.00     0.164 HD
BRANCH   8  11
ATOM     11  C   UNL     1       6.323  -4.314  -2.574  1.00  0.00     0.109 C 
ATOM     12  C   UNL     1       7.821  -4.258  -2.875  1.00  0.00     0.021 C 
BRANCH  11  13
ATOM     13  C   UNL     1       5.960  -4.916  -1.202  1.00  0.00     0.204 C 
BRANCH  13  14
ATOM     14  N   UNL     1       6.677  -4.261  -0.104  1.00  0.00    -0.340 N 
ATOM     15  C   UNL     1       7.373  -4.961   0.857  1.00  0.00     0.243 C 
ATOM     16  O   UNL     1       7.493  -6.184   0.827  1.00  0.00    -0.273 OA
ATOM     17  H   UNL     1       6.494  -3.268   0.064  1.00  0.00     0.164 HD
BRANCH  15  18
ATOM     18  C   UNL     1       7.871  -4.076   2.027  1.00  0.00     0.171 C 
BRANCH  18  19
ATOM     19  N   UNL     1       8.675  -4.938   2.891  1.00  0.00    -0.343 N 
ATOM     20  C   UNL     1       8.355  -5.140   4.220  1.00  0.00     0.242 CG0
ATOM     21  O   UNL     1       7.461  -4.501   4.770  1.00  0.00    -0.273 OA
ATOM     22  H   UNL     1       9.494  -5.399   2.511  1.00  0.00     0.164 HD
ATOM     23  G   UNL     1       9.272  -6.142   4.950  1.00  0.00     0.000 G0
ENDBRANCH  18  19
BRANCH  18  24
ATOM     24  C   UNL     1       8.689  -2.891   1.499  1.00  0.00     0.038 C 
BRANCH  24  25
ATOM     25  C   UNL     1       9.876  -2.477   2.394  1.00  0.00    -0.015 C 
ATOM     26  C   UNL     1       9.605  -1.185   3.165  1.00  0.00     0.007 C 
ATOM     27  C   UNL     1      11.134  -2.312   1.537  1.00  0.00     0.007 C 
ENDBRANCH  24  25
ENDBRANCH  18  24
ENDBRANCH  15  18
ENDBRANCH  13  14
BRANCH  13  28
ATOM     28  C   UNL     1       4.464  -4.830  -0.882  1.00  0.00     0.327 C 
ATOM     29  O   UNL     1       3.965  -4.776   0.231  1.00  0.00    -0.250 OA
BRANCH  28  30
ATOM     30  O   UNL     1       3.682  -4.937  -1.976  1.00  0.00    -0.480 OA
ATOM     31  H   UNL     1       2.976  -4.274  -1.833  1.00  0.00     0.296 HD
ENDBRANCH  28  30
ENDBRANCH  13  28
ENDBRANCH  11  13
ENDBRANCH   8  11
ENDBRANCH   6   7
BRANCH   6  32
ATOM     32  C   UNL     1       4.831  -0.703  -5.117  1.00  0.00     0.037 C 
BRANCH  32  33
ATOM     33  C   UNL     1       5.546  -1.599  -6.137  1.00  0.00     0.026 C 
BRANCH  33  34
ATOM     34  C   UNL     1       4.866  -1.585  -7.507  1.00  0.00     0.146 C 
BRANCH  34  35
ATOM     35  N   UNL     1       5.107  -2.862  -8.164  1.00  0.00    -0.254 NA
ATOM     36  C   UNL     1       4.193  -3.759  -8.119  1.00  0.00     0.185 C 
ATOM     37  N   UNL     1       4.403  -4.937  -8.726  1.00  0.00    -0.370 N 
ATOM     38  N   UNL     1       2.986  -3.706  -7.529  1.00  0.00    -0.370 N 
ATOM     39  H   UNL     1       5.288  -5.051  -9.204  1.00  0.00     0.159 HD
ATOM     40  H   UNL     1       3.679  -5.618  -8.885  1.00  0.00     0.159 HD
ATOM     41  H   UNL     1       2.411  -4.528  -7.444  1.00  0.00     0.159 HD
ATOM     42  H   UNL     1       2.700  -2.883  -7.021  1.00  0.00     0.159 HD
ENDBRANCH  34  35
ENDBRANCH  33  34
ENDBRANCH  32  33
ENDBRANCH   6  32
ENDBRANCH   4   6
ENDBRANCH   1   2
BRANCH   1  43
ATOM     43  C   UNL     1       0.342   0.222  -6.065  1.00  0.00     0.102 C 
ATOM     44  C   UNL     1      -0.908   1.118  -6.083  1.00  0.00     0.020 C 
BRANCH  43  45
ATOM     45  C   UNL     1       0.503  -0.647  -7.316  1.00  0.00     0.225 C 
ATOM     46  O   UNL     1       0.653  -1.864  -7.272  1.00  0.00    -0.275 OA
ATOM     47  N   UNL     1       0.563   0.037  -8.509  1.00  0.00    -0.342 N 
ATOM     48  H   UNL     1       0.288   1.009  -8.543  1.00  0.00     0.164 HD
BRANCH  47  49
ATOM     49  C   UNL     1       0.679  -0.666  -9.790  1.00  0.00     0.192 C 
BRANCH  49  50
ATOM     50  C   UNL     1       2.129  -1.107 -10.005  1.00  0.00     0.047 C 
BRANCH  50  51
ATOM     51  C   UNL     1       2.380  -1.603 -11.436  1.00  0.00     0.103 C 
BRANCH  51  52
ATOM     52  C   UNL     1       1.958  -3.059 -11.620  1.00  0.00     0.226 C 
ATOM     53  O   UNL     1       2.134  -3.866 -10.705  1.00  0.00    -0.275 OA
BRANCH  52  54
ATOM     54  N   UNL     1       1.310  -3.376 -12.829  1.00  0.00    -0.311 N 
ATOM     55  C   UNL     1      -0.094  -3.008 -13.053  1.00  0.00     0.153 C 
BRANCH  54  56
ATOM     56  C   UNL     1       1.980  -4.048 -13.864  1.00  0.00     0.102 C 
ATOM     57  C   UNL     1       1.403  -4.902 -14.726  1.00  0.00     0.043 C 
BRANCH  56  58
ATOM     58  C   UNL     1       3.450  -3.811 -14.119  1.00  0.00     0.268 C 
ATOM     59  O   UNL     1       4.316  -4.637 -13.861  1.00  0.00    -0.268 OA
ATOM     60  N   UNL     1       3.706  -2.605 -14.726  1.00  0.00    -0.339 N 
ATOM     61  H   UNL     1       2.934  -1.972 -14.896  1.00  0.00     0.164 HD
BRANCH  60  62
ATOM     62  C   UNL     1       5.056  -2.201 -15.118  1.00  0.00     0.168 CG0
ATOM     63  C   UNL     1       5.732  -1.405 -14.010  1.00  0.00     0.041 C 
ATOM     64  G   UNL     1       4.990  -1.377 -16.421  1.00  0.00     0.000 G0
ENDBRANCH  60  62
ENDBRANCH  56  58
ENDBRANCH  54  56
ENDBRANCH  52  54
ENDBRANCH  51  52
ENDBRANCH  50  51
ENDBRANCH  49  50
BRANCH  49  65
ATOM     65  C   UNL     1       0.236   0.221 -10.965  1.00  0.00     0.326 C 
ATOM     66  O   UNL     1      -0.678  -0.027 -11.737  1.00  0.00    -0.250 OA
BRANCH  65  67
ATOM     67  O   UNL     1       0.989   1.328 -11.150  1.00  0.00    -0.480 OA
ATOM     68  H   UNL     1       1.578   1.341 -10.365  1.00  0.00     0.296 HD
ENDBRANCH  65  67
ENDBRANCH  49  65
ENDBRANCH  47  49
ENDBRANCH  43  45
ENDBRANCH   1  43
BRANCH   1  69
ATOM     69  C   UNL     1      -0.313  -0.222  -3.539  1.00  0.00    -0.001 C 
ATOM     70  C   UNL     1      -1.280  -0.921  -2.918  1.00  0.00     0.001 C 
BRANCH  70  71
ATOM     71  C   UNL     1      -2.018  -0.525  -1.717  1.00  0.00    -0.055 C 
ATOM     72  C   UNL     1      -1.803  -1.231  -0.587  1.00  0.00    -0.018 C 
ATOM     73  C   UNL     1      -2.958   0.647  -1.825  1.00  0.00     0.044 C 
BRANCH  72  74
ATOM     74  C   UNL     1      -2.417  -1.049   0.794  1.00  0.00     0.038 C 
ATOM     75  C   UNL     1      -3.934  -1.213   0.640  1.00  0.00     0.015 C 
BRANCH  74  76
ATOM     76  C   UNL     1      -1.963   0.326   1.366  1.00  0.00     0.128 C 
BRANCH  76  77
ATOM     77  O   UNL     1      -3.083   1.003   1.961  1.00  0.00    -0.381 OA
ATOM     78  C   UNL     1      -2.846   1.438   3.293  1.00  0.00     0.195 C 
ENDBRANCH  76  77
BRANCH  76  79
ATOM     79  C   UNL     1      -0.741   0.241   2.315  1.00  0.00     0.068 C 
BRANCH  79  80
ATOM     80  C   UNL     1       0.537  -0.350   1.770  1.00  0.00    -0.045 A 
ATOM     81  C   UNL     1       1.239   0.278   0.733  1.00  0.00     0.004 A 
ATOM     82  C   UNL     1       1.028  -1.562   2.279  1.00  0.00     0.004 A 
ATOM     83  C   UNL     1       2.412  -0.283   0.226  1.00  0.00     0.000 A 
ATOM     84  C   UNL     1       2.201  -2.123   1.770  1.00  0.00     0.000 A 
ATOM     85  C   UNL     1       2.894  -1.482   0.745  1.00  0.00     0.000 A 
ENDBRANCH  79  80
ENDBRANCH  76  79
ENDBRANCH  74  76
ENDBRANCH  72  74
ENDBRANCH  70  71
ENDBRANCH   1  69
TORSDOF 17
ENDMDL
MODEL 22
REMARK VINA RESULT:    -5.391     14.930     21.161
REMARK INTER + INTRA:         -24.735
REMARK INTER:                 -16.067
REMARK INTRA:                  -8.668
REMARK UNBOUND:                -8.629
REMARK SMILES C=C1C(=O)N[C@H](C)C(=O)N[C@@H](CC(C)C)C(=O)N[C@@H](C(=O)O)[C@H](C)C(=O)N[C@@H](CCCN=C(N)N)C(=O)N[C@@H](/C=C/C(C)=C/[C@H](C)[C@H](Cc2ccccc2)OC)[C@H](C)C(=O)N[C@@H](C(=O)O)CCC(=O)N1C
REMARK SMILES IDX 39 1 38 2 37 3 36 4 28 6 27 7 25 8 26 9 23 11 24 12 19 13
REMARK SMILES IDX 18 14 16 15 17 16 11 18 10 19 8 20 9 21 12 24 13 25 14 26
REMARK SMILES IDX 15 27 20 28 21 29 22 30 29 32 30 33 31 34 32 35 33 36 34 37
REMARK SMILES IDX 35 38 57 43 58 44 59 45 60 46 61 47 62 49 66 50 67 51 68 52
REMARK SMILES IDX 69 53 70 54 71 55 2 56 1 57 3 58 4 59 5 60 6 62 7 63 63 65
REMARK SMILES IDX 64 66 65 67 40 69 41 70 42 71 44 72 43 73 45 74 46 75 47 76
REMARK SMILES IDX 55 77 56 78 48 79 49 80 50 81 54 82 51 83 53 84 52 85
REMARK H PARENT 38 5 27 10 18 17 10 22 22 31 34 39 34 40 35 41 35 42 61 48
REMARK H PARENT 5 61 65 68
REMARK Flexibility Score:  369.900
ROOT
ATOM      1  C   UNL     1      -7.229  -0.036   4.505  1.00  0.00     0.117 C 
ENDROOT
BRANCH   1   2
ATOM      2  N   UNL     1      -6.258  -0.301   3.443  1.00  0.00    -0.347 N 
ATOM      3  O   UNL     1      -6.117   1.833   2.609  1.00  0.00    -0.273 OA
ATOM      4  C   UNL     1      -5.709   0.677   2.636  1.00  0.00     0.243 C 
ATOM      5  H   UNL     1      -5.917  -1.240   3.308  1.00  0.00     0.164 HD
BRANCH   4   6
ATOM      6  C   UNL     1      -4.640   0.143   1.649  1.00  0.00     0.171 C 
BRANCH   6   7
ATOM      7  N   UNL     1      -4.884   0.664   0.295  1.00  0.00    -0.344 N 
ATOM      8  C   UNL     1      -5.605  -0.070  -0.621  1.00  0.00     0.226 C 
ATOM      9  O   UNL     1      -6.052  -1.183  -0.370  1.00  0.00    -0.275 OA
ATOM     10  H   UNL     1      -4.473   1.550   0.029  1.00  0.00     0.164 HD
BRANCH   8  11
ATOM     11  C   UNL     1      -5.817   0.626  -1.954  1.00  0.00     0.109 C 
ATOM     12  C   UNL     1      -4.618   1.518  -2.278  1.00  0.00     0.021 C 
BRANCH  11  13
ATOM     13  C   UNL     1      -6.163  -0.414  -3.037  1.00  0.00     0.204 C 
BRANCH  13  14
ATOM     14  N   UNL     1      -7.608  -0.644  -3.141  1.00  0.00    -0.340 N 
ATOM     15  C   UNL     1      -8.165  -1.904  -3.168  1.00  0.00     0.243 C 
ATOM     16  O   UNL     1      -7.493  -2.926  -3.046  1.00  0.00    -0.273 OA
ATOM     17  H   UNL     1      -8.203   0.149  -3.396  1.00  0.00     0.164 HD
BRANCH  15  18
ATOM     18  C   UNL     1      -9.680  -1.903  -3.491  1.00  0.00     0.171 C 
BRANCH  18  19
ATOM     19  N   UNL     1      -9.846  -2.678  -4.719  1.00  0.00    -0.343 N 
ATOM     20  C   UNL     1     -10.758  -2.314  -5.692  1.00  0.00     0.242 CG0
ATOM     21  O   UNL     1     -11.562  -1.403  -5.512  1.00  0.00    -0.273 OA
ATOM     22  H   UNL     1      -9.284  -3.509  -4.863  1.00  0.00     0.164 HD
ATOM     23  G   UNL     1     -10.735  -3.206  -6.950  1.00  0.00     0.000 G0
ENDBRANCH  18  19
BRANCH  18  24
ATOM     24  C   UNL     1     -10.480  -2.509  -2.332  1.00  0.00     0.038 C 
BRANCH  24  25
ATOM     25  C   UNL     1     -11.629  -1.620  -1.808  1.00  0.00    -0.015 C 
ATOM     26  C   UNL     1     -12.997  -2.067  -2.326  1.00  0.00     0.007 C 
ATOM     27  C   UNL     1     -11.377  -0.164  -2.209  1.00  0.00     0.007 C 
ENDBRANCH  24  25
ENDBRANCH  18  24
ENDBRANCH  15  18
ENDBRANCH  13  14
BRANCH  13  28
ATOM     28  C   UNL     1      -5.665  -0.022  -4.432  1.00  0.00     0.327 C 
ATOM     29  O   UNL     1      -6.025   0.947  -5.082  1.00  0.00    -0.250 OA
BRANCH  28  30
ATOM     30  O   UNL     1      -4.834  -0.936  -4.972  1.00  0.00    -0.480 OA
ATOM     31  H   UNL     1      -5.403  -1.719  -5.127  1.00  0.00     0.296 HD
ENDBRANCH  28  30
ENDBRANCH  13  28
ENDBRANCH  11  13
ENDBRANCH   8  11
ENDBRANCH   6   7
BRANCH   6  32
ATOM     32  C   UNL     1      -3.248   0.546   2.148  1.00  0.00     0.037 C 
BRANCH  32  33
ATOM     33  C   UNL     1      -2.186   0.450   1.043  1.00  0.00     0.026 C 
BRANCH  33  34
ATOM     34  C   UNL     1      -1.989  -0.982   0.544  1.00  0.00     0.146 C 
BRANCH  34  35
ATOM     35  N   UNL     1      -2.073  -0.988  -0.910  1.00  0.00    -0.254 NA
ATOM     36  C   UNL     1      -2.736  -1.922  -1.483  1.00  0.00     0.185 C 
ATOM     37  N   UNL     1      -2.823  -1.934  -2.822  1.00  0.00    -0.370 N 
ATOM     38  N   UNL     1      -3.398  -2.952  -0.927  1.00  0.00    -0.370 N 
ATOM     39  H   UNL     1      -2.358  -1.183  -3.315  1.00  0.00     0.159 HD
ATOM     40  H   UNL     1      -3.460  -2.522  -3.332  1.00  0.00     0.159 HD
ATOM     41  H   UNL     1      -3.765  -3.700  -1.491  1.00  0.00     0.159 HD
ATOM     42  H   UNL     1      -3.404  -3.077   0.073  1.00  0.00     0.159 HD
ENDBRANCH  34  35
ENDBRANCH  33  34
ENDBRANCH  32  33
ENDBRANCH   6  32
ENDBRANCH   4   6
ENDBRANCH   1   2
BRANCH   1  43
ATOM     43  C   UNL     1      -6.464   0.105   5.853  1.00  0.00     0.102 C 
ATOM     44  C   UNL     1      -7.163  -0.597   7.029  1.00  0.00     0.020 C 
BRANCH  43  45
ATOM     45  C   UNL     1      -6.101   1.567   6.129  1.00  0.00     0.225 C 
ATOM     46  O   UNL     1      -6.900   2.491   6.005  1.00  0.00    -0.275 OA
ATOM     47  N   UNL     1      -4.781   1.801   6.439  1.00  0.00    -0.342 N 
ATOM     48  H   UNL     1      -4.180   1.027   6.683  1.00  0.00     0.164 HD
BRANCH  47  49
ATOM     49  C   UNL     1      -4.297   3.147   6.762  1.00  0.00     0.192 C 
BRANCH  49  50
ATOM     50  C   UNL     1      -2.925   3.368   6.120  1.00  0.00     0.047 C 
BRANCH  50  51
ATOM     51  C   UNL     1      -2.362   2.085   5.493  1.00  0.00     0.103 C 
BRANCH  51  52
ATOM     52  C   UNL     1      -1.122   1.583   6.229  1.00  0.00     0.226 C 
ATOM     53  O   UNL     1      -1.111   1.559   7.461  1.00  0.00    -0.275 OA
BRANCH  52  54
ATOM     54  N   UNL     1      -0.072   1.096   5.428  1.00  0.00    -0.311 N 
ATOM     55  C   UNL     1       0.113   1.573   4.051  1.00  0.00     0.153 C 
BRANCH  54  56
ATOM     56  C   UNL     1       0.840   0.144   5.914  1.00  0.00     0.102 C 
ATOM     57  C   UNL     1       0.644  -1.185   5.899  1.00  0.00     0.043 C 
BRANCH  56  58
ATOM     58  C   UNL     1       2.179   0.567   6.471  1.00  0.00     0.268 C 
ATOM     59  O   UNL     1       3.246   0.193   6.003  1.00  0.00    -0.268 OA
ATOM     60  N   UNL     1       2.075   1.462   7.508  1.00  0.00    -0.339 N 
ATOM     61  H   UNL     1       1.153   1.713   7.844  1.00  0.00     0.164 HD
BRANCH  60  62
ATOM     62  C   UNL     1       3.249   2.048   8.152  1.00  0.00     0.168 CG0
ATOM     63  C   UNL     1       3.530   3.445   7.611  1.00  0.00     0.041 C 
ATOM     64  G   UNL     1       4.468   1.126   7.942  1.00  0.00     0.000 G0
ENDBRANCH  60  62
ENDBRANCH  56  58
ENDBRANCH  54  56
ENDBRANCH  52  54
ENDBRANCH  51  52
ENDBRANCH  50  51
ENDBRANCH  49  50
BRANCH  49  65
ATOM     65  C   UNL     1      -4.189   3.361   8.280  1.00  0.00     0.326 C 
ATOM     66  O   UNL     1      -5.131   3.427   9.056  1.00  0.00    -0.250 OA
BRANCH  65  67
ATOM     67  O   UNL     1      -2.930   3.539   8.736  1.00  0.00    -0.480 OA
ATOM     68  H   UNL     1      -2.560   4.220   8.133  1.00  0.00     0.296 HD
ENDBRANCH  65  67
ENDBRANCH  49  65
ENDBRANCH  47  49
ENDBRANCH  43  45
ENDBRANCH   1  43
BRANCH   1  69
ATOM     69  C   UNL     1      -8.299  -1.106   4.377  1.00  0.00    -0.001 C 
ATOM     70  C   UNL     1      -8.211  -2.274   3.717  1.00  0.00     0.001 C 
BRANCH  70  71
ATOM     71  C   UNL     1      -9.243  -3.308   3.618  1.00  0.00    -0.055 C 
ATOM     72  C   UNL     1     -10.283  -3.080   2.789  1.00  0.00    -0.018 C 
ATOM     73  C   UNL     1      -9.067  -4.556   4.443  1.00  0.00     0.044 C 
BRANCH  72  74
ATOM     74  C   UNL     1     -11.485  -3.963   2.485  1.00  0.00     0.038 C 
ATOM     75  C   UNL     1     -11.629  -4.023   0.960  1.00  0.00     0.015 C 
BRANCH  74  76
ATOM     76  C   UNL     1     -12.725  -3.397   3.237  1.00  0.00     0.128 C 
BRANCH  76  77
ATOM     77  O   UNL     1     -13.920  -4.046   2.771  1.00  0.00    -0.381 OA
ATOM     78  C   UNL     1     -15.008  -3.156   2.558  1.00  0.00     0.195 C 
ENDBRANCH  76  77
BRANCH  76  79
ATOM     79  C   UNL     1     -12.592  -3.422   4.780  1.00  0.00     0.068 C 
BRANCH  79  80
ATOM     80  C   UNL     1     -12.047  -2.191   5.463  1.00  0.00    -0.045 A 
ATOM     81  C   UNL     1     -12.261  -0.914   4.928  1.00  0.00     0.004 A 
ATOM     82  C   UNL     1     -11.287  -2.312   6.637  1.00  0.00     0.004 A 
ATOM     83  C   UNL     1     -11.741   0.219   5.559  1.00  0.00     0.000 A 
ATOM     84  C   UNL     1     -10.767  -1.178   7.266  1.00  0.00     0.000 A 
ATOM     85  C   UNL     1     -10.995   0.086   6.728  1.00  0.00     0.000 A 
ENDBRANCH  79  80
ENDBRANCH  76  79
ENDBRANCH  74  76
ENDBRANCH  72  74
ENDBRANCH  70  71
ENDBRANCH   1  69
TORSDOF 17
ENDMDL
MODEL 23
REMARK VINA RESULT:    -5.383      3.803     13.066
REMARK INTER + INTRA:         -24.712
REMARK INTER:                 -17.555
REMARK INTRA:                  -7.157
REMARK UNBOUND:                -8.629
REMARK SMILES C=C1C(=O)N[C@H](C)C(=O)N[C@@H](CC(C)C)C(=O)N[C@@H](C(=O)O)[C@H](C)C(=O)N[C@@H](CCCN=C(N)N)C(=O)N[C@@H](/C=C/C(C)=C/[C@H](C)[C@H](Cc2ccccc2)OC)[C@H](C)C(=O)N[C@@H](C(=O)O)CCC(=O)N1C
REMARK SMILES IDX 39 1 38 2 37 3 36 4 28 6 27 7 25 8 26 9 23 11 24 12 19 13
REMARK SMILES IDX 18 14 16 15 17 16 11 18 10 19 8 20 9 21 12 24 13 25 14 26
REMARK SMILES IDX 15 27 20 28 21 29 22 30 29 32 30 33 31 34 32 35 33 36 34 37
REMARK SMILES IDX 35 38 57 43 58 44 59 45 60 46 61 47 62 49 66 50 67 51 68 52
REMARK SMILES IDX 69 53 70 54 71 55 2 56 1 57 3 58 4 59 5 60 6 62 7 63 63 65
REMARK SMILES IDX 64 66 65 67 40 69 41 70 42 71 44 72 43 73 45 74 46 75 47 76
REMARK SMILES IDX 55 77 56 78 48 79 49 80 50 81 54 82 51 83 53 84 52 85
REMARK H PARENT 38 5 27 10 18 17 10 22 22 31 34 39 34 40 35 41 35 42 61 48
REMARK H PARENT 5 61 65 68
REMARK Flexibility Score:  369.900
ROOT
ATOM      1  C   UNL     1       6.719  -2.369  -8.776  1.00  0.00     0.117 C 
ENDROOT
BRANCH   1   2
ATOM      2  N   UNL     1       5.975  -1.911  -7.602  1.00  0.00    -0.347 N 
ATOM      3  O   UNL     1       4.739  -3.813  -7.253  1.00  0.00    -0.273 OA
ATOM      4  C   UNL     1       5.109  -2.705  -6.877  1.00  0.00     0.243 C 
ATOM      5  H   UNL     1       6.128  -0.976  -7.255  1.00  0.00     0.164 HD
BRANCH   4   6
ATOM      6  C   UNL     1       4.517  -2.004  -5.628  1.00  0.00     0.171 C 
BRANCH   6   7
ATOM      7  N   UNL     1       5.438  -2.123  -4.487  1.00  0.00    -0.344 N 
ATOM      8  C   UNL     1       5.015  -2.678  -3.298  1.00  0.00     0.226 C 
ATOM      9  O   UNL     1       3.868  -3.072  -3.125  1.00  0.00    -0.275 OA
ATOM     10  H   UNL     1       6.374  -1.747  -4.570  1.00  0.00     0.164 HD
BRANCH   8  11
ATOM     11  C   UNL     1       6.096  -2.781  -2.236  1.00  0.00     0.109 C 
ATOM     12  C   UNL     1       6.857  -1.460  -2.132  1.00  0.00     0.021 C 
BRANCH  11  13
ATOM     13  C   UNL     1       5.482  -3.282  -0.914  1.00  0.00     0.204 C 
BRANCH  13  14
ATOM     14  N   UNL     1       4.383  -2.425  -0.456  1.00  0.00    -0.340 N 
ATOM     15  C   UNL     1       4.487  -1.598   0.641  1.00  0.00     0.243 C 
ATOM     16  O   UNL     1       5.531  -1.475   1.279  1.00  0.00    -0.273 OA
ATOM     17  H   UNL     1       3.451  -2.591  -0.845  1.00  0.00     0.164 HD
BRANCH  15  18
ATOM     18  C   UNL     1       3.143  -0.951   1.057  1.00  0.00     0.171 C 
BRANCH  18  19
ATOM     19  N   UNL     1       2.694  -0.150  -0.081  1.00  0.00    -0.343 N 
ATOM     20  C   UNL     1       3.053   1.176  -0.226  1.00  0.00     0.242 CG0
ATOM     21  O   UNL     1       3.654   1.780   0.659  1.00  0.00    -0.273 OA
ATOM     22  H   UNL     1       2.098  -0.574  -0.783  1.00  0.00     0.164 HD
ATOM     23  G   UNL     1       2.551   1.833  -1.528  1.00  0.00     0.000 G0
ENDBRANCH  18  19
BRANCH  18  24
ATOM     24  C   UNL     1       2.115  -2.027   1.427  1.00  0.00     0.038 C 
BRANCH  24  25
ATOM     25  C   UNL     1       1.030  -1.566   2.423  1.00  0.00    -0.015 C 
ATOM     26  C   UNL     1      -0.231  -1.060   1.722  1.00  0.00     0.007 C 
ATOM     27  C   UNL     1       1.594  -0.466   3.326  1.00  0.00     0.007 C 
ENDBRANCH  24  25
ENDBRANCH  18  24
ENDBRANCH  15  18
ENDBRANCH  13  14
BRANCH  13  28
ATOM     28  C   UNL     1       4.935  -4.710  -1.005  1.00  0.00     0.327 C 
ATOM     29  O   UNL     1       5.510  -5.675  -1.486  1.00  0.00    -0.250 OA
BRANCH  28  30
ATOM     30  O   UNL     1       3.655  -4.814  -0.594  1.00  0.00    -0.480 OA
ATOM     31  H   UNL     1       3.233  -5.391  -1.263  1.00  0.00     0.296 HD
ENDBRANCH  28  30
ENDBRANCH  13  28
ENDBRANCH  11  13
ENDBRANCH   8  11
ENDBRANCH   6   7
BRANCH   6  32
ATOM     32  C   UNL     1       4.244  -0.532  -5.960  1.00  0.00     0.037 C 
BRANCH  32  33
ATOM     33  C   UNL     1       2.903  -0.049  -5.389  1.00  0.00     0.026 C 
BRANCH  33  34
ATOM     34  C   UNL     1       1.704  -0.627  -6.142  1.00  0.00     0.146 C 
BRANCH  34  35
ATOM     35  N   UNL     1       0.943  -1.474  -5.234  1.00  0.00    -0.254 NA
ATOM     36  C   UNL     1       0.933  -2.738  -5.436  1.00  0.00     0.185 C 
ATOM     37  N   UNL     1       0.238  -3.528  -4.602  1.00  0.00    -0.370 N 
ATOM     38  N   UNL     1       1.542  -3.444  -6.405  1.00  0.00    -0.370 N 
ATOM     39  H   UNL     1      -0.242  -3.071  -3.837  1.00  0.00     0.159 HD
ATOM     40  H   UNL     1       0.321  -4.530  -4.588  1.00  0.00     0.159 HD
ATOM     41  H   UNL     1       1.344  -4.422  -6.540  1.00  0.00     0.159 HD
ATOM     42  H   UNL     1       2.087  -2.978  -7.113  1.00  0.00     0.159 HD
ENDBRANCH  34  35
ENDBRANCH  33  34
ENDBRANCH  32  33
ENDBRANCH   6  32
ENDBRANCH   4   6
ENDBRANCH   1   2
BRANCH   1  43
ATOM     43  C   UNL     1       8.098  -1.648  -8.802  1.00  0.00     0.102 C 
ATOM     44  C   UNL     1       8.338  -0.743  -7.582  1.00  0.00     0.020 C 
BRANCH  43  45
ATOM     45  C   UNL     1       8.330  -0.953 -10.147  1.00  0.00     0.225 C 
ATOM     46  O   UNL     1       8.128   0.245 -10.327  1.00  0.00    -0.275 OA
ATOM     47  N   UNL     1       8.695  -1.779 -11.185  1.00  0.00    -0.342 N 
ATOM     48  H   UNL     1       9.002  -2.722 -10.991  1.00  0.00     0.164 HD
BRANCH  47  49
ATOM     49  C   UNL     1       8.985  -1.248 -12.521  1.00  0.00     0.192 C 
BRANCH  49  50
ATOM     50  C   UNL     1       8.661  -2.307 -13.577  1.00  0.00     0.047 C 
BRANCH  50  51
ATOM     51  C   UNL     1       8.247  -1.685 -14.918  1.00  0.00     0.103 C 
BRANCH  51  52
ATOM     52  C   UNL     1       8.878  -2.409 -16.105  1.00  0.00     0.226 C 
ATOM     53  O   UNL     1       8.164  -3.048 -16.880  1.00  0.00    -0.275 OA
BRANCH  52  54
ATOM     54  N   UNL     1      10.263  -2.231 -16.284  1.00  0.00    -0.311 N 
ATOM     55  C   UNL     1      10.827  -0.900 -16.543  1.00  0.00     0.153 C 
BRANCH  54  56
ATOM     56  C   UNL     1      11.155  -3.314 -16.217  1.00  0.00     0.102 C 
ATOM     57  C   UNL     1      12.438  -3.230 -15.830  1.00  0.00     0.043 C 
BRANCH  56  58
ATOM     58  C   UNL     1      10.698  -4.716 -16.546  1.00  0.00     0.268 C 
ATOM     59  O   UNL     1      10.447  -5.556 -15.693  1.00  0.00    -0.268 OA
ATOM     60  N   UNL     1      10.532  -4.927 -17.894  1.00  0.00    -0.339 N 
ATOM     61  H   UNL     1      10.772  -4.182 -18.537  1.00  0.00     0.164 HD
BRANCH  60  62
ATOM     62  C   UNL     1      10.036  -6.195 -18.429  1.00  0.00     0.168 CG0
ATOM     63  C   UNL     1      11.187  -7.143 -18.744  1.00  0.00     0.041 C 
ATOM     64  G   UNL     1       9.188  -5.928 -19.689  1.00  0.00     0.000 G0
ENDBRANCH  60  62
ENDBRANCH  56  58
ENDBRANCH  54  56
ENDBRANCH  52  54
ENDBRANCH  51  52
ENDBRANCH  50  51
ENDBRANCH  49  50
BRANCH  49  65
ATOM     65  C   UNL     1      10.457  -0.828 -12.656  1.00  0.00     0.326 C 
ATOM     66  O   UNL     1      11.382  -1.567 -12.958  1.00  0.00    -0.250 OA
BRANCH  65  67
ATOM     67  O   UNL     1      10.705   0.465 -12.351  1.00  0.00    -0.480 OA
ATOM     68  H   UNL     1      11.424   0.716 -12.971  1.00  0.00     0.296 HD
ENDBRANCH  65  67
ENDBRANCH  49  65
ENDBRANCH  47  49
ENDBRANCH  43  45
ENDBRANCH   1  43
BRANCH   1  69
ATOM     69  C   UNL     1       5.784  -2.206  -9.961  1.00  0.00    -0.001 C 
ATOM     70  C   UNL     1       5.224  -3.179 -10.700  1.00  0.00     0.001 C 
BRANCH  70  71
ATOM     71  C   UNL     1       4.306  -3.010 -11.828  1.00  0.00    -0.055 C 
ATOM     72  C   UNL     1       4.805  -3.164 -13.073  1.00  0.00    -0.018 C 
ATOM     73  C   UNL     1       2.868  -2.683 -11.520  1.00  0.00     0.044 C 
BRANCH  72  74
ATOM     74  C   UNL     1       4.096  -3.053 -14.415  1.00  0.00     0.038 C 
ATOM     75  C   UNL     1       4.205  -4.421 -15.100  1.00  0.00     0.015 C 
BRANCH  74  76
ATOM     76  C   UNL     1       4.721  -1.871 -15.214  1.00  0.00     0.128 C 
BRANCH  76  77
ATOM     77  O   UNL     1       5.005  -2.285 -16.561  1.00  0.00    -0.381 OA
ATOM     78  C   UNL     1       5.194  -1.203 -17.463  1.00  0.00     0.195 C 
ENDBRANCH  76  77
BRANCH  76  79
ATOM     79  C   UNL     1       3.894  -0.562 -15.151  1.00  0.00     0.068 C 
BRANCH  79  80
ATOM     80  C   UNL     1       4.191   0.409 -14.034  1.00  0.00    -0.045 A 
ATOM     81  C   UNL     1       3.197   1.259 -13.532  1.00  0.00     0.004 A 
ATOM     82  C   UNL     1       5.485   0.495 -13.497  1.00  0.00     0.004 A 
ATOM     83  C   UNL     1       3.484   2.164 -12.509  1.00  0.00     0.000 A 
ATOM     84  C   UNL     1       5.771   1.401 -12.474  1.00  0.00     0.000 A 
ATOM     85  C   UNL     1       4.770   2.234 -11.979  1.00  0.00     0.000 A 
ENDBRANCH  79  80
ENDBRANCH  76  79
ENDBRANCH  74  76
ENDBRANCH  72  74
ENDBRANCH  70  71
ENDBRANCH   1  69
TORSDOF 17
ENDMDL
MODEL 24
REMARK VINA RESULT:    -5.367      3.012      5.840
REMARK INTER + INTRA:         -24.664
REMARK INTER:                 -17.453
REMARK INTRA:                  -7.211
REMARK UNBOUND:                -8.629
REMARK SMILES C=C1C(=O)N[C@H](C)C(=O)N[C@@H](CC(C)C)C(=O)N[C@@H](C(=O)O)[C@H](C)C(=O)N[C@@H](CCCN=C(N)N)C(=O)N[C@@H](/C=C/C(C)=C/[C@H](C)[C@H](Cc2ccccc2)OC)[C@H](C)C(=O)N[C@@H](C(=O)O)CCC(=O)N1C
REMARK SMILES IDX 39 1 38 2 37 3 36 4 28 6 27 7 25 8 26 9 23 11 24 12 19 13
REMARK SMILES IDX 18 14 16 15 17 16 11 18 10 19 8 20 9 21 12 24 13 25 14 26
REMARK SMILES IDX 15 27 20 28 21 29 22 30 29 32 30 33 31 34 32 35 33 36 34 37
REMARK SMILES IDX 35 38 57 43 58 44 59 45 60 46 61 47 62 49 66 50 67 51 68 52
REMARK SMILES IDX 69 53 70 54 71 55 2 56 1 57 3 58 4 59 5 60 6 62 7 63 63 65
REMARK SMILES IDX 64 66 65 67 40 69 41 70 42 71 44 72 43 73 45 74 46 75 47 76
REMARK SMILES IDX 55 77 56 78 48 79 49 80 50 81 54 82 51 83 53 84 52 85
REMARK H PARENT 38 5 27 10 18 17 10 22 22 31 34 39 34 40 35 41 35 42 61 48
REMARK H PARENT 5 61 65 68
REMARK Flexibility Score:  369.900
ROOT
ATOM      1  C   UNL     1       1.366  -2.349 -12.457  1.00  0.00     0.117 C 
ENDROOT
BRANCH   1   2
ATOM      2  N   UNL     1       2.462  -2.725 -13.350  1.00  0.00    -0.347 N 
ATOM      3  O   UNL     1       1.916  -4.940 -13.601  1.00  0.00    -0.273 OA
ATOM      4  C   UNL     1       2.597  -3.973 -13.925  1.00  0.00     0.243 C 
ATOM      5  H   UNL     1       3.145  -2.031 -13.613  1.00  0.00     0.164 HD
BRANCH   4   6
ATOM      6  C   UNL     1       3.798  -4.084 -14.900  1.00  0.00     0.171 C 
BRANCH   6   7
ATOM      7  N   UNL     1       4.551  -2.820 -14.934  1.00  0.00    -0.344 N 
ATOM      8  C   UNL     1       5.173  -2.404 -16.091  1.00  0.00     0.226 C 
ATOM      9  O   UNL     1       5.153  -3.061 -17.124  1.00  0.00    -0.275 OA
ATOM     10  H   UNL     1       4.646  -2.283 -14.081  1.00  0.00     0.164 HD
BRANCH   8  11
ATOM     11  C   UNL     1       5.861  -1.055 -15.980  1.00  0.00     0.109 C 
ATOM     12  C   UNL     1       5.027  -0.107 -15.118  1.00  0.00     0.021 C 
BRANCH  11  13
ATOM     13  C   UNL     1       7.316  -1.249 -15.508  1.00  0.00     0.204 C 
BRANCH  13  14
ATOM     14  N   UNL     1       8.001  -2.310 -16.253  1.00  0.00    -0.340 N 
ATOM     15  C   UNL     1       8.997  -3.087 -15.704  1.00  0.00     0.243 C 
ATOM     16  O   UNL     1       9.341  -2.986 -14.527  1.00  0.00    -0.273 OA
ATOM     17  H   UNL     1       7.872  -2.344 -17.268  1.00  0.00     0.164 HD
BRANCH  15  18
ATOM     18  C   UNL     1       9.714  -3.994 -16.734  1.00  0.00     0.171 C 
BRANCH  18  19
ATOM     19  N   UNL     1       9.839  -5.312 -16.115  1.00  0.00    -0.343 N 
ATOM     20  C   UNL     1      10.994  -6.062 -16.226  1.00  0.00     0.242 CG0
ATOM     21  O   UNL     1      11.918  -5.717 -16.959  1.00  0.00    -0.273 OA
ATOM     22  H   UNL     1       9.058  -5.694 -15.593  1.00  0.00     0.164 HD
ATOM     23  G   UNL     1      10.969  -7.390 -15.441  1.00  0.00     0.000 G0
ENDBRANCH  18  19
BRANCH  18  24
ATOM     24  C   UNL     1       8.917  -4.062 -18.042  1.00  0.00     0.038 C 
BRANCH  24  25
ATOM     25  C   UNL     1       9.610  -3.403 -19.254  1.00  0.00    -0.015 C 
ATOM     26  C   UNL     1      11.096  -3.142 -19.007  1.00  0.00     0.007 C 
ATOM     27  C   UNL     1       8.906  -2.087 -19.596  1.00  0.00     0.007 C 
ENDBRANCH  24  25
ENDBRANCH  18  24
ENDBRANCH  15  18
ENDBRANCH  13  14
BRANCH  13  28
ATOM     28  C   UNL     1       8.167   0.019 -15.638  1.00  0.00     0.327 C 
ATOM     29  O   UNL     1       8.512   0.554 -16.680  1.00  0.00    -0.250 OA
BRANCH  28  30
ATOM     30  O   UNL     1       8.631   0.467 -14.454  1.00  0.00    -0.480 OA
ATOM     31  H   UNL     1       8.847  -0.348 -13.955  1.00  0.00     0.296 HD
ENDBRANCH  28  30
ENDBRANCH  13  28
ENDBRANCH  11  13
ENDBRANCH   8  11
ENDBRANCH   6   7
BRANCH   6  32
ATOM     32  C   UNL     1       4.697  -5.245 -14.460  1.00  0.00     0.037 C 
BRANCH  32  33
ATOM     33  C   UNL     1       6.112  -4.775 -14.095  1.00  0.00     0.026 C 
BRANCH  33  34
ATOM     34  C   UNL     1       6.252  -4.441 -12.609  1.00  0.00     0.146 C 
BRANCH  34  35
ATOM     35  N   UNL     1       6.304  -2.993 -12.456  1.00  0.00    -0.254 NA
ATOM     36  C   UNL     1       7.385  -2.459 -12.024  1.00  0.00     0.185 C 
ATOM     37  N   UNL     1       7.445  -1.126 -11.884  1.00  0.00    -0.370 N 
ATOM     38  N   UNL     1       8.537  -3.054 -11.668  1.00  0.00    -0.370 N 
ATOM     39  H   UNL     1       6.618  -0.604 -12.143  1.00  0.00     0.159 HD
ATOM     40  H   UNL     1       8.300  -0.622 -11.721  1.00  0.00     0.159 HD
ATOM     41  H   UNL     1       9.270  -2.538 -11.210  1.00  0.00     0.159 HD
ATOM     42  H   UNL     1       8.630  -4.057 -11.707  1.00  0.00     0.159 HD
ENDBRANCH  34  35
ENDBRANCH  33  34
ENDBRANCH  32  33
ENDBRANCH   6  32
ENDBRANCH   4   6
ENDBRANCH   1   2
BRANCH   1  43
ATOM     43  C   UNL     1       0.708  -1.048 -13.000  1.00  0.00     0.102 C 
ATOM     44  C   UNL     1       1.583  -0.300 -14.021  1.00  0.00     0.020 C 
BRANCH  43  45
ATOM     45  C   UNL     1       0.201  -0.167 -11.854  1.00  0.00     0.225 C 
ATOM     46  O   UNL     1       0.733   0.892 -11.536  1.00  0.00    -0.275 OA
ATOM     47  N   UNL     1      -0.847  -0.686 -11.128  1.00  0.00    -0.342 N 
ATOM     48  H   UNL     1      -1.365  -1.474 -11.490  1.00  0.00     0.164 HD
BRANCH  47  49
ATOM     49  C   UNL     1      -1.458   0.061 -10.025  1.00  0.00     0.192 C 
BRANCH  49  50
ATOM     50  C   UNL     1      -0.975  -0.507  -8.688  1.00  0.00     0.047 C 
BRANCH  50  51
ATOM     51  C   UNL     1      -1.533   0.271  -7.489  1.00  0.00     0.103 C 
BRANCH  51  52
ATOM     52  C   UNL     1      -2.188  -0.650  -6.461  1.00  0.00     0.226 C 
ATOM     53  O   UNL     1      -3.053  -1.450  -6.823  1.00  0.00    -0.275 OA
BRANCH  52  54
ATOM     54  N   UNL     1      -1.692  -0.575  -5.146  1.00  0.00    -0.311 N 
ATOM     55  C   UNL     1      -1.217   0.699  -4.589  1.00  0.00     0.153 C 
BRANCH  54  56
ATOM     56  C   UNL     1      -1.638  -1.708  -4.318  1.00  0.00     0.102 C 
ATOM     57  C   UNL     1      -0.942  -2.825  -4.589  1.00  0.00     0.043 C 
BRANCH  56  58
ATOM     58  C   UNL     1      -2.353  -1.731  -2.988  1.00  0.00     0.268 C 
ATOM     59  O   UNL     1      -3.554  -1.937  -2.877  1.00  0.00    -0.268 OA
ATOM     60  N   UNL     1      -1.508  -1.563  -1.917  1.00  0.00    -0.339 N 
ATOM     61  H   UNL     1      -0.526  -1.387  -2.094  1.00  0.00     0.164 HD
BRANCH  60  62
ATOM     62  C   UNL     1      -1.982  -1.614  -0.535  1.00  0.00     0.168 CG0
ATOM     63  C   UNL     1      -1.116  -0.751   0.373  1.00  0.00     0.041 C 
ATOM     64  G   UNL     1      -1.996  -3.077  -0.047  1.00  0.00     0.000 G0
ENDBRANCH  60  62
ENDBRANCH  56  58
ENDBRANCH  54  56
ENDBRANCH  52  54
ENDBRANCH  51  52
ENDBRANCH  50  51
ENDBRANCH  49  50
BRANCH  49  65
ATOM     65  C   UNL     1      -2.993  -0.002 -10.080  1.00  0.00     0.326 C 
ATOM     66  O   UNL     1      -3.671  -0.994  -9.859  1.00  0.00    -0.250 OA
BRANCH  65  67
ATOM     67  O   UNL     1      -3.591   1.148 -10.463  1.00  0.00    -0.480 OA
ATOM     68  H   UNL     1      -4.456   0.851 -10.819  1.00  0.00     0.296 HD
ENDBRANCH  65  67
ENDBRANCH  49  65
ENDBRANCH  47  49
ENDBRANCH  43  45
ENDBRANCH   1  43
BRANCH   1  69
ATOM     69  C   UNL     1       1.943  -2.348 -11.053  1.00  0.00    -0.001 C 
ATOM     70  C   UNL     1       1.819  -3.306 -10.117  1.00  0.00     0.001 C 
BRANCH  70  71
ATOM     71  C   UNL     1       2.399  -3.303  -8.773  1.00  0.00    -0.055 C 
ATOM     72  C   UNL     1       2.286  -2.174  -8.043  1.00  0.00    -0.018 C 
ATOM     73  C   UNL     1       3.074  -4.563  -8.297  1.00  0.00     0.044 C 
BRANCH  72  74
ATOM     74  C   UNL     1       2.782  -1.884  -6.633  1.00  0.00     0.038 C 
ATOM     75  C   UNL     1       1.845  -0.829  -6.032  1.00  0.00     0.015 C 
BRANCH  74  76
ATOM     76  C   UNL     1       4.279  -1.463  -6.706  1.00  0.00     0.128 C 
BRANCH  76  77
ATOM     77  O   UNL     1       4.562  -0.875  -7.986  1.00  0.00    -0.381 OA
ATOM     78  C   UNL     1       5.175   0.405  -7.904  1.00  0.00     0.195 C 
ENDBRANCH  76  77
BRANCH  76  79
ATOM     79  C   UNL     1       4.741  -0.576  -5.523  1.00  0.00     0.068 C 
BRANCH  79  80
ATOM     80  C   UNL     1       5.143  -1.262  -4.239  1.00  0.00    -0.045 A 
ATOM     81  C   UNL     1       5.529  -2.608  -4.230  1.00  0.00     0.004 A 
ATOM     82  C   UNL     1       5.107  -0.563  -3.023  1.00  0.00     0.004 A 
ATOM     83  C   UNL     1       5.885  -3.239  -3.036  1.00  0.00     0.000 A 
ATOM     84  C   UNL     1       5.462  -1.195  -1.829  1.00  0.00     0.000 A 
ATOM     85  C   UNL     1       5.853  -2.532  -1.837  1.00  0.00     0.000 A 
ENDBRANCH  79  80
ENDBRANCH  76  79
ENDBRANCH  74  76
ENDBRANCH  72  74
ENDBRANCH  70  71
ENDBRANCH   1  69
TORSDOF 17
ENDMDL
MODEL 25
REMARK VINA RESULT:    -5.354     15.043     21.467
REMARK INTER + INTRA:         -24.625
REMARK INTER:                 -17.162
REMARK INTRA:                  -7.463
REMARK UNBOUND:                -8.629
REMARK SMILES C=C1C(=O)N[C@H](C)C(=O)N[C@@H](CC(C)C)C(=O)N[C@@H](C(=O)O)[C@H](C)C(=O)N[C@@H](CCCN=C(N)N)C(=O)N[C@@H](/C=C/C(C)=C/[C@H](C)[C@H](Cc2ccccc2)OC)[C@H](C)C(=O)N[C@@H](C(=O)O)CCC(=O)N1C
REMARK SMILES IDX 39 1 38 2 37 3 36 4 28 6 27 7 25 8 26 9 23 11 24 12 19 13
REMARK SMILES IDX 18 14 16 15 17 16 11 18 10 19 8 20 9 21 12 24 13 25 14 26
REMARK SMILES IDX 15 27 20 28 21 29 22 30 29 32 30 33 31 34 32 35 33 36 34 37
REMARK SMILES IDX 35 38 57 43 58 44 59 45 60 46 61 47 62 49 66 50 67 51 68 52
REMARK SMILES IDX 69 53 70 54 71 55 2 56 1 57 3 58 4 59 5 60 6 62 7 63 63 65
REMARK SMILES IDX 64 66 65 67 40 69 41 70 42 71 44 72 43 73 45 74 46 75 47 76
REMARK SMILES IDX 55 77 56 78 48 79 49 80 50 81 54 82 51 83 53 84 52 85
REMARK H PARENT 38 5 27 10 18 17 10 22 22 31 34 39 34 40 35 41 35 42 61 48
REMARK H PARENT 5 61 65 68
REMARK Flexibility Score:  369.900
ROOT
ATOM      1  C   UNL     1      -6.840   0.547   4.699  1.00  0.00     0.117 C 
ENDROOT
BRANCH   1   2
ATOM      2  N   UNL     1      -5.842   0.146   3.708  1.00  0.00    -0.347 N 
ATOM      3  O   UNL     1      -6.131   1.893   2.247  1.00  0.00    -0.273 OA
ATOM      4  C   UNL     1      -5.502   0.902   2.603  1.00  0.00     0.243 C 
ATOM      5  H   UNL     1      -5.324  -0.709   3.846  1.00  0.00     0.164 HD
BRANCH   4   6
ATOM      6  C   UNL     1      -4.354   0.291   1.759  1.00  0.00     0.171 C 
BRANCH   6   7
ATOM      7  N   UNL     1      -4.495   0.674   0.345  1.00  0.00    -0.344 N 
ATOM      8  C   UNL     1      -5.198  -0.123  -0.532  1.00  0.00     0.226 C 
ATOM      9  O   UNL     1      -5.713  -1.182  -0.194  1.00  0.00    -0.275 OA
ATOM     10  H   UNL     1      -4.027   1.508   0.014  1.00  0.00     0.164 HD
BRANCH   8  11
ATOM     11  C   UNL     1      -5.300   0.436  -1.941  1.00  0.00     0.109 C 
ATOM     12  C   UNL     1      -3.959   1.031  -2.368  1.00  0.00     0.021 C 
BRANCH  11  13
ATOM     13  C   UNL     1      -5.863  -0.641  -2.889  1.00  0.00     0.204 C 
BRANCH  13  14
ATOM     14  N   UNL     1      -7.328  -0.699  -2.851  1.00  0.00    -0.340 N 
ATOM     15  C   UNL     1      -8.029  -1.884  -2.802  1.00  0.00     0.243 C 
ATOM     16  O   UNL     1      -7.473  -2.978  -2.726  1.00  0.00    -0.273 OA
ATOM     17  H   UNL     1      -7.848   0.157  -3.064  1.00  0.00     0.164 HD
BRANCH  15  18
ATOM     18  C   UNL     1      -9.557  -1.706  -2.980  1.00  0.00     0.171 C 
BRANCH  18  19
ATOM     19  N   UNL     1      -9.979  -2.687  -3.978  1.00  0.00    -0.343 N 
ATOM     20  C   UNL     1     -10.612  -2.311  -5.147  1.00  0.00     0.242 CG0
ATOM     21  O   UNL     1     -10.969  -1.151  -5.341  1.00  0.00    -0.273 OA
ATOM     22  H   UNL     1      -9.811  -3.672  -3.809  1.00  0.00     0.164 HD
ATOM     23  G   UNL     1     -10.911  -3.477  -6.113  1.00  0.00     0.000 G0
ENDBRANCH  18  19
BRANCH  18  24
ATOM     24  C   UNL     1     -10.285  -1.913  -1.646  1.00  0.00     0.038 C 
BRANCH  24  25
ATOM     25  C   UNL     1     -11.471  -2.899  -1.705  1.00  0.00    -0.015 C 
ATOM     26  C   UNL     1     -12.821  -2.186  -1.785  1.00  0.00     0.007 C 
ATOM     27  C   UNL     1     -11.442  -3.812  -0.476  1.00  0.00     0.007 C 
ENDBRANCH  24  25
ENDBRANCH  18  24
ENDBRANCH  15  18
ENDBRANCH  13  14
BRANCH  13  28
ATOM     28  C   UNL     1      -5.455  -0.431  -4.351  1.00  0.00     0.327 C 
ATOM     29  O   UNL     1      -4.572  -1.028  -4.948  1.00  0.00    -0.250 OA
BRANCH  28  30
ATOM     30  O   UNL     1      -6.101   0.597  -4.938  1.00  0.00    -0.480 OA
ATOM     31  H   UNL     1      -7.033   0.299  -4.990  1.00  0.00     0.296 HD
ENDBRANCH  28  30
ENDBRANCH  13  28
ENDBRANCH  11  13
ENDBRANCH   8  11
ENDBRANCH   6   7
BRANCH   6  32
ATOM     32  C   UNL     1      -3.009   0.762   2.322  1.00  0.00     0.037 C 
BRANCH  32  33
ATOM     33  C   UNL     1      -1.867   0.595   1.310  1.00  0.00     0.026 C 
BRANCH  33  34
ATOM     34  C   UNL     1      -1.495  -0.871   1.085  1.00  0.00     0.146 C 
BRANCH  34  35
ATOM     35  N   UNL     1      -1.742  -1.209  -0.310  1.00  0.00    -0.254 NA
ATOM     36  C   UNL     1      -2.483  -2.220  -0.574  1.00  0.00     0.185 C 
ATOM     37  N   UNL     1      -2.722  -2.538  -1.856  1.00  0.00    -0.370 N 
ATOM     38  N   UNL     1      -3.097  -3.063   0.275  1.00  0.00    -0.370 N 
ATOM     39  H   UNL     1      -2.302  -1.942  -2.558  1.00  0.00     0.159 HD
ATOM     40  H   UNL     1      -3.423  -3.199  -2.144  1.00  0.00     0.159 HD
ATOM     41  H   UNL     1      -3.539  -3.905  -0.056  1.00  0.00     0.159 HD
ATOM     42  H   UNL     1      -2.992  -2.954   1.271  1.00  0.00     0.159 HD
ENDBRANCH  34  35
ENDBRANCH  33  34
ENDBRANCH  32  33
ENDBRANCH   6  32
ENDBRANCH   4   6
ENDBRANCH   1   2
BRANCH   1  43
ATOM     43  C   UNL     1      -6.230   0.365   6.119  1.00  0.00     0.102 C 
ATOM     44  C   UNL     1      -7.131  -0.435   7.075  1.00  0.00     0.020 C 
BRANCH  43  45
ATOM     45  C   UNL     1      -5.754   1.705   6.689  1.00  0.00     0.225 C 
ATOM     46  O   UNL     1      -6.375   2.754   6.544  1.00  0.00    -0.275 OA
ATOM     47  N   UNL     1      -4.524   1.683   7.306  1.00  0.00    -0.342 N 
ATOM     48  H   UNL     1      -4.103   0.798   7.550  1.00  0.00     0.164 HD
BRANCH  47  49
ATOM     49  C   UNL     1      -3.958   2.883   7.929  1.00  0.00     0.192 C 
BRANCH  49  50
ATOM     50  C   UNL     1      -2.469   2.984   7.592  1.00  0.00     0.047 C 
BRANCH  50  51
ATOM     51  C   UNL     1      -1.791   1.609   7.529  1.00  0.00     0.103 C 
BRANCH  51  52
ATOM     52  C   UNL     1      -0.279   1.722   7.346  1.00  0.00     0.226 C 
ATOM     53  O   UNL     1       0.412   2.188   8.254  1.00  0.00    -0.275 OA
BRANCH  52  54
ATOM     54  N   UNL     1       0.248   1.202   6.150  1.00  0.00    -0.311 N 
ATOM     55  C   UNL     1      -0.085   1.804   4.852  1.00  0.00     0.153 C 
BRANCH  54  56
ATOM     56  C   UNL     1       1.115   0.096   6.151  1.00  0.00     0.102 C 
ATOM     57  C   UNL     1       0.745  -1.170   5.899  1.00  0.00     0.043 C 
BRANCH  56  58
ATOM     58  C   UNL     1       2.594   0.271   6.401  1.00  0.00     0.268 C 
ATOM     59  O   UNL     1       3.203   1.297   6.130  1.00  0.00    -0.268 OA
ATOM     60  N   UNL     1       3.168  -0.812   7.023  1.00  0.00    -0.339 N 
ATOM     61  H   UNL     1       2.597  -1.629   7.205  1.00  0.00     0.164 HD
BRANCH  60  62
ATOM     62  C   UNL     1       4.577  -0.829   7.415  1.00  0.00     0.168 CG0
ATOM     63  C   UNL     1       4.750  -1.412   8.812  1.00  0.00     0.041 C 
ATOM     64  G   UNL     1       5.150   0.602   7.347  1.00  0.00     0.000 G0
ENDBRANCH  60  62
ENDBRANCH  56  58
ENDBRANCH  54  56
ENDBRANCH  52  54
ENDBRANCH  51  52
ENDBRANCH  50  51
ENDBRANCH  49  50
BRANCH  49  65
ATOM     65  C   UNL     1      -4.134   2.865   9.456  1.00  0.00     0.326 C 
ATOM     66  O   UNL     1      -4.235   1.863  10.148  1.00  0.00    -0.250 OA
BRANCH  65  67
ATOM     67  O   UNL     1      -4.236   4.086  10.026  1.00  0.00    -0.480 OA
ATOM     68  H   UNL     1      -5.191   4.299   9.949  1.00  0.00     0.296 HD
ENDBRANCH  65  67
ENDBRANCH  49  65
ENDBRANCH  47  49
ENDBRANCH  43  45
ENDBRANCH   1  43
BRANCH   1  69
ATOM     69  C   UNL     1      -8.113  -0.201   4.347  1.00  0.00    -0.001 C 
ATOM     70  C   UNL     1      -9.114   0.219   3.554  1.00  0.00     0.001 C 
BRANCH  70  71
ATOM     71  C   UNL     1     -10.328  -0.521   3.203  1.00  0.00    -0.055 C 
ATOM     72  C   UNL     1     -11.460  -0.226   3.877  1.00  0.00    -0.018 C 
ATOM     73  C   UNL     1     -10.231  -1.554   2.111  1.00  0.00     0.044 C 
BRANCH  72  74
ATOM     74  C   UNL     1     -12.853  -0.822   3.729  1.00  0.00     0.038 C 
ATOM     75  C   UNL     1     -13.795   0.323   3.340  1.00  0.00     0.015 C 
BRANCH  74  76
ATOM     76  C   UNL     1     -13.227  -1.556   5.050  1.00  0.00     0.128 C 
BRANCH  76  77
ATOM     77  O   UNL     1     -14.603  -1.302   5.380  1.00  0.00    -0.381 OA
ATOM     78  C   UNL     1     -14.824  -1.058   6.762  1.00  0.00     0.195 C 
ENDBRANCH  76  77
BRANCH  76  79
ATOM     79  C   UNL     1     -12.879  -3.066   5.052  1.00  0.00     0.068 C 
BRANCH  79  80
ATOM     80  C   UNL     1     -11.424  -3.456   5.149  1.00  0.00    -0.045 A 
ATOM     81  C   UNL     1     -10.877  -4.421   4.294  1.00  0.00     0.004 A 
ATOM     82  C   UNL     1     -10.599  -2.873   6.123  1.00  0.00     0.004 A 
ATOM     83  C   UNL     1      -9.533  -4.786   4.399  1.00  0.00     0.000 A 
ATOM     84  C   UNL     1      -9.256  -3.240   6.229  1.00  0.00     0.000 A 
ATOM     85  C   UNL     1      -8.723  -4.195   5.366  1.00  0.00     0.000 A 
ENDBRANCH  79  80
ENDBRANCH  76  79
ENDBRANCH  74  76
ENDBRANCH  72  74
ENDBRANCH  70  71
ENDBRANCH   1  69
TORSDOF 17
ENDMDL
MODEL 26
REMARK VINA RESULT:    -5.353      5.411     10.328
REMARK INTER + INTRA:         -24.622
REMARK INTER:                 -17.857
REMARK INTRA:                  -6.765
REMARK UNBOUND:                -8.629
REMARK SMILES C=C1C(=O)N[C@H](C)C(=O)N[C@@H](CC(C)C)C(=O)N[C@@H](C(=O)O)[C@H](C)C(=O)N[C@@H](CCCN=C(N)N)C(=O)N[C@@H](/C=C/C(C)=C/[C@H](C)[C@H](Cc2ccccc2)OC)[C@H](C)C(=O)N[C@@H](C(=O)O)CCC(=O)N1C
REMARK SMILES IDX 39 1 38 2 37 3 36 4 28 6 27 7 25 8 26 9 23 11 24 12 19 13
REMARK SMILES IDX 18 14 16 15 17 16 11 18 10 19 8 20 9 21 12 24 13 25 14 26
REMARK SMILES IDX 15 27 20 28 21 29 22 30 29 32 30 33 31 34 32 35 33 36 34 37
REMARK SMILES IDX 35 38 57 43 58 44 59 45 60 46 61 47 62 49 66 50 67 51 68 52
REMARK SMILES IDX 69 53 70 54 71 55 2 56 1 57 3 58 4 59 5 60 6 62 7 63 63 65
REMARK SMILES IDX 64 66 65 67 40 69 41 70 42 71 44 72 43 73 45 74 46 75 47 76
REMARK SMILES IDX 55 77 56 78 48 79 49 80 50 81 54 82 51 83 53 84 52 85
REMARK H PARENT 38 5 27 10 18 17 10 22 22 31 34 39 34 40 35 41 35 42 61 48
REMARK H PARENT 5 61 65 68
REMARK Flexibility Score:  369.900
ROOT
ATOM      1  C   UNL     1       2.830  -0.806  -2.858  1.00  0.00     0.117 C 
ENDROOT
BRANCH   1   2
ATOM      2  N   UNL     1       3.283  -0.518  -4.219  1.00  0.00    -0.347 N 
ATOM      3  O   UNL     1       2.888  -2.590  -5.125  1.00  0.00    -0.273 OA
ATOM      4  C   UNL     1       3.190  -1.410  -5.270  1.00  0.00     0.243 C 
ATOM      5  H   UNL     1       3.644   0.398  -4.437  1.00  0.00     0.164 HD
BRANCH   4   6
ATOM      6  C   UNL     1       3.661  -0.827  -6.626  1.00  0.00     0.171 C 
BRANCH   6   7
ATOM      7  N   UNL     1       3.517  -1.828  -7.695  1.00  0.00    -0.344 N 
ATOM      8  C   UNL     1       4.617  -2.497  -8.185  1.00  0.00     0.226 C 
ATOM      9  O   UNL     1       5.754  -2.282  -7.782  1.00  0.00    -0.275 OA
ATOM     10  H   UNL     1       2.602  -1.984  -8.100  1.00  0.00     0.164 HD
BRANCH   8  11
ATOM     11  C   UNL     1       4.297  -3.536  -9.246  1.00  0.00     0.109 C 
ATOM     12  C   UNL     1       4.404  -4.941  -8.654  1.00  0.00     0.021 C 
BRANCH  11  13
ATOM     13  C   UNL     1       2.940  -3.211  -9.901  1.00  0.00     0.204 C 
BRANCH  13  14
ATOM     14  N   UNL     1       2.992  -3.325 -11.362  1.00  0.00    -0.340 N 
ATOM     15  C   UNL     1       3.493  -2.330 -12.173  1.00  0.00     0.243 C 
ATOM     16  O   UNL     1       3.990  -1.299 -11.724  1.00  0.00    -0.273 OA
ATOM     17  H   UNL     1       2.462  -4.082 -11.804  1.00  0.00     0.164 HD
BRANCH  15  18
ATOM     18  C   UNL     1       3.255  -2.584 -13.682  1.00  0.00     0.171 C 
BRANCH  18  19
ATOM     19  N   UNL     1       2.530  -3.849 -13.785  1.00  0.00    -0.343 N 
ATOM     20  C   UNL     1       2.844  -4.793 -14.744  1.00  0.00     0.242 CG0
ATOM     21  O   UNL     1       3.655  -4.558 -15.637  1.00  0.00    -0.273 OA
ATOM     22  H   UNL     1       1.772  -4.041 -13.141  1.00  0.00     0.164 HD
ATOM     23  G   UNL     1       2.025  -6.096 -14.647  1.00  0.00     0.000 G0
ENDBRANCH  18  19
BRANCH  18  24
ATOM     24  C   UNL     1       2.461  -1.429 -14.306  1.00  0.00     0.038 C 
BRANCH  24  25
ATOM     25  C   UNL     1       1.189  -1.029 -13.530  1.00  0.00    -0.015 C 
ATOM     26  C   UNL     1       0.108  -2.109 -13.582  1.00  0.00     0.007 C 
ATOM     27  C   UNL     1       0.634   0.283 -14.093  1.00  0.00     0.007 C 
ENDBRANCH  24  25
ENDBRANCH  18  24
ENDBRANCH  15  18
ENDBRANCH  13  14
BRANCH  13  28
ATOM     28  C   UNL     1       1.803  -4.114  -9.415  1.00  0.00     0.327 C 
ATOM     29  O   UNL     1       1.442  -4.262  -8.258  1.00  0.00    -0.250 OA
BRANCH  28  30
ATOM     30  O   UNL     1       1.267  -4.865 -10.399  1.00  0.00    -0.480 OA
ATOM     31  H   UNL     1       0.387  -5.123 -10.054  1.00  0.00     0.296 HD
ENDBRANCH  28  30
ENDBRANCH  13  28
ENDBRANCH  11  13
ENDBRANCH   8  11
ENDBRANCH   6   7
BRANCH   6  32
ATOM     32  C   UNL     1       2.848   0.433  -6.942  1.00  0.00     0.037 C 
BRANCH  32  33
ATOM     33  C   UNL     1       1.859   0.210  -8.096  1.00  0.00     0.026 C 
BRANCH  33  34
ATOM     34  C   UNL     1       0.503  -0.306  -7.613  1.00  0.00     0.146 C 
BRANCH  34  35
ATOM     35  N   UNL     1      -0.244  -0.807  -8.758  1.00  0.00    -0.254 NA
ATOM     36  C   UNL     1      -1.428  -0.363  -8.961  1.00  0.00     0.185 C 
ATOM     37  N   UNL     1      -2.124  -0.815 -10.016  1.00  0.00    -0.370 N 
ATOM     38  N   UNL     1      -2.127   0.536  -8.246  1.00  0.00    -0.370 N 
ATOM     39  H   UNL     1      -1.659  -1.489 -10.611  1.00  0.00     0.159 HD
ATOM     40  H   UNL     1      -2.977  -0.394 -10.341  1.00  0.00     0.159 HD
ATOM     41  H   UNL     1      -3.104   0.700  -8.428  1.00  0.00     0.159 HD
ATOM     42  H   UNL     1      -1.733   0.948  -7.415  1.00  0.00     0.159 HD
ENDBRANCH  34  35
ENDBRANCH  33  34
ENDBRANCH  32  33
ENDBRANCH   6  32
ENDBRANCH   4   6
ENDBRANCH   1   2
BRANCH   1  43
ATOM     43  C   UNL     1       1.744   0.237  -2.467  1.00  0.00     0.102 C 
ATOM     44  C   UNL     1       1.584   0.414  -0.947  1.00  0.00     0.020 C 
BRANCH  43  45
ATOM     45  C   UNL     1       0.429  -0.036  -3.202  1.00  0.00     0.225 C 
ATOM     46  O   UNL     1      -0.161   0.815  -3.862  1.00  0.00    -0.275 OA
ATOM     47  N   UNL     1      -0.113  -1.285  -3.003  1.00  0.00    -0.342 N 
ATOM     48  H   UNL     1       0.450  -2.015  -2.590  1.00  0.00     0.164 HD
BRANCH  47  49
ATOM     49  C   UNL     1      -1.350  -1.700  -3.672  1.00  0.00     0.192 C 
BRANCH  49  50
ATOM     50  C   UNL     1      -2.401  -2.075  -2.623  1.00  0.00     0.047 C 
BRANCH  50  51
ATOM     51  C   UNL     1      -2.881  -0.860  -1.819  1.00  0.00     0.103 C 
BRANCH  51  52
ATOM     52  C   UNL     1      -2.349  -0.872  -0.388  1.00  0.00     0.226 C 
ATOM     53  O   UNL     1      -2.013  -1.939   0.129  1.00  0.00    -0.275 OA
BRANCH  52  54
ATOM     54  N   UNL     1      -2.202   0.381   0.237  1.00  0.00    -0.311 N 
ATOM     55  C   UNL     1      -1.864   1.579  -0.542  1.00  0.00     0.153 C 
BRANCH  54  56
ATOM     56  C   UNL     1      -2.377   0.533   1.622  1.00  0.00     0.102 C 
ATOM     57  C   UNL     1      -3.560   0.716   2.232  1.00  0.00     0.043 C 
BRANCH  56  58
ATOM     58  C   UNL     1      -1.200   0.452   2.566  1.00  0.00     0.268 C 
ATOM     59  O   UNL     1      -0.090   0.071   2.221  1.00  0.00    -0.268 OA
ATOM     60  N   UNL     1      -1.488   0.912   3.829  1.00  0.00    -0.339 N 
ATOM     61  H   UNL     1      -2.436   1.201   4.038  1.00  0.00     0.164 HD
BRANCH  60  62
ATOM     62  C   UNL     1      -0.476   0.981   4.882  1.00  0.00     0.168 CG0
ATOM     63  C   UNL     1      -1.121   1.189   6.247  1.00  0.00     0.041 C 
ATOM     64  G   UNL     1       0.519   2.117   4.569  1.00  0.00     0.000 G0
ENDBRANCH  60  62
ENDBRANCH  56  58
ENDBRANCH  54  56
ENDBRANCH  52  54
ENDBRANCH  51  52
ENDBRANCH  50  51
ENDBRANCH  49  50
BRANCH  49  65
ATOM     65  C   UNL     1      -1.115  -2.895  -4.608  1.00  0.00     0.326 C 
ATOM     66  O   UNL     1      -1.971  -3.686  -4.979  1.00  0.00    -0.250 OA
BRANCH  65  67
ATOM     67  O   UNL     1       0.171  -3.076  -4.980  1.00  0.00    -0.480 OA
ATOM     68  H   UNL     1       0.542  -3.636  -4.265  1.00  0.00     0.296 HD
ENDBRANCH  65  67
ENDBRANCH  49  65
ENDBRANCH  47  49
ENDBRANCH  43  45
ENDBRANCH   1  43
BRANCH   1  69
ATOM     69  C   UNL     1       4.083  -0.915  -2.008  1.00  0.00    -0.001 C 
ATOM     70  C   UNL     1       5.221  -1.565  -2.309  1.00  0.00     0.001 C 
BRANCH  70  71
ATOM     71  C   UNL     1       6.431  -1.644  -1.489  1.00  0.00    -0.055 C 
ATOM     72  C   UNL     1       6.927  -2.870  -1.219  1.00  0.00    -0.018 C 
ATOM     73  C   UNL     1       7.043  -0.353  -1.012  1.00  0.00     0.044 C 
BRANCH  72  74
ATOM     74  C   UNL     1       8.156  -3.255  -0.408  1.00  0.00     0.038 C 
ATOM     75  C   UNL     1       9.012  -4.171  -1.290  1.00  0.00     0.015 C 
BRANCH  74  76
ATOM     76  C   UNL     1       7.690  -3.891   0.935  1.00  0.00     0.128 C 
BRANCH  76  77
ATOM     77  O   UNL     1       8.792  -4.565   1.567  1.00  0.00    -0.381 OA
ATOM     78  C   UNL     1       8.536  -4.938   2.915  1.00  0.00     0.195 C 
ENDBRANCH  76  77
BRANCH  76  79
ATOM     79  C   UNL     1       6.969  -2.901   1.884  1.00  0.00     0.068 C 
BRANCH  79  80
ATOM     80  C   UNL     1       5.483  -2.704   1.704  1.00  0.00    -0.045 A 
ATOM     81  C   UNL     1       4.674  -3.733   1.204  1.00  0.00     0.004 A 
ATOM     82  C   UNL     1       4.891  -1.469   2.010  1.00  0.00     0.004 A 
ATOM     83  C   UNL     1       3.303  -3.538   1.026  1.00  0.00     0.000 A 
ATOM     84  C   UNL     1       3.520  -1.275   1.832  1.00  0.00     0.000 A 
ATOM     85  C   UNL     1       2.726  -2.309   1.342  1.00  0.00     0.000 A 
ENDBRANCH  79  80
ENDBRANCH  76  79
ENDBRANCH  74  76
ENDBRANCH  72  74
ENDBRANCH  70  71
ENDBRANCH   1  69
TORSDOF 17
ENDMDL
MODEL 27
REMARK VINA RESULT:    -5.331      5.467     14.361
REMARK INTER + INTRA:         -24.557
REMARK INTER:                 -16.907
REMARK INTRA:                  -7.649
REMARK UNBOUND:                -8.629
REMARK SMILES C=C1C(=O)N[C@H](C)C(=O)N[C@@H](CC(C)C)C(=O)N[C@@H](C(=O)O)[C@H](C)C(=O)N[C@@H](CCCN=C(N)N)C(=O)N[C@@H](/C=C/C(C)=C/[C@H](C)[C@H](Cc2ccccc2)OC)[C@H](C)C(=O)N[C@@H](C(=O)O)CCC(=O)N1C
REMARK SMILES IDX 39 1 38 2 37 3 36 4 28 6 27 7 25 8 26 9 23 11 24 12 19 13
REMARK SMILES IDX 18 14 16 15 17 16 11 18 10 19 8 20 9 21 12 24 13 25 14 26
REMARK SMILES IDX 15 27 20 28 21 29 22 30 29 32 30 33 31 34 32 35 33 36 34 37
REMARK SMILES IDX 35 38 57 43 58 44 59 45 60 46 61 47 62 49 66 50 67 51 68 52
REMARK SMILES IDX 69 53 70 54 71 55 2 56 1 57 3 58 4 59 5 60 6 62 7 63 63 65
REMARK SMILES IDX 64 66 65 67 40 69 41 70 42 71 44 72 43 73 45 74 46 75 47 76
REMARK SMILES IDX 55 77 56 78 48 79 49 80 50 81 54 82 51 83 53 84 52 85
REMARK H PARENT 38 5 27 10 18 17 10 22 22 31 34 39 34 40 35 41 35 42 61 48
REMARK H PARENT 5 61 65 68
REMARK Flexibility Score:  369.900
ROOT
ATOM      1  C   UNL     1       0.885  -1.044  -5.199  1.00  0.00     0.117 C 
ENDROOT
BRANCH   1   2
ATOM      2  N   UNL     1       1.928  -0.961  -4.176  1.00  0.00    -0.347 N 
ATOM      3  O   UNL     1       3.299  -2.611  -4.992  1.00  0.00    -0.273 OA
ATOM      4  C   UNL     1       3.101  -1.691  -4.206  1.00  0.00     0.243 C 
ATOM      5  H   UNL     1       1.828  -0.301  -3.420  1.00  0.00     0.164 HD
BRANCH   4   6
ATOM      6  C   UNL     1       4.075  -1.352  -3.050  1.00  0.00     0.171 C 
BRANCH   6   7
ATOM      7  N   UNL     1       5.099  -2.401  -2.916  1.00  0.00    -0.344 N 
ATOM      8  C   UNL     1       4.970  -3.392  -1.966  1.00  0.00     0.226 C 
ATOM      9  O   UNL     1       4.028  -3.438  -1.184  1.00  0.00    -0.275 OA
ATOM     10  H   UNL     1       5.925  -2.358  -3.499  1.00  0.00     0.164 HD
BRANCH   8  11
ATOM     11  C   UNL     1       6.079  -4.429  -1.991  1.00  0.00     0.109 C 
ATOM     12  C   UNL     1       6.670  -4.534  -3.396  1.00  0.00     0.021 C 
BRANCH  11  13
ATOM     13  C   UNL     1       7.102  -4.125  -0.878  1.00  0.00     0.204 C 
BRANCH  13  14
ATOM     14  N   UNL     1       6.452  -3.815   0.399  1.00  0.00    -0.340 N 
ATOM     15  C   UNL     1       7.088  -3.139   1.418  1.00  0.00     0.243 C 
ATOM     16  O   UNL     1       8.229  -2.695   1.304  1.00  0.00    -0.273 OA
ATOM     17  H   UNL     1       5.568  -4.283   0.615  1.00  0.00     0.164 HD
BRANCH  15  18
ATOM     18  C   UNL     1       6.282  -3.111   2.739  1.00  0.00     0.171 C 
BRANCH  18  19
ATOM     19  N   UNL     1       7.089  -2.370   3.707  1.00  0.00    -0.343 N 
ATOM     20  C   UNL     1       7.661  -2.986   4.803  1.00  0.00     0.242 CG0
ATOM     21  O   UNL     1       7.408  -4.155   5.088  1.00  0.00    -0.273 OA
ATOM     22  H   UNL     1       7.232  -1.375   3.577  1.00  0.00     0.164 HD
ATOM     23  G   UNL     1       8.542  -2.061   5.667  1.00  0.00     0.000 G0
ENDBRANCH  18  19
BRANCH  18  24
ATOM     24  C   UNL     1       4.915  -2.449   2.525  1.00  0.00     0.038 C 
BRANCH  24  25
ATOM     25  C   UNL     1       4.930  -0.907   2.575  1.00  0.00    -0.015 C 
ATOM     26  C   UNL     1       3.883  -0.342   3.535  1.00  0.00     0.007 C 
ATOM     27  C   UNL     1       4.698  -0.344   1.170  1.00  0.00     0.007 C 
ENDBRANCH  24  25
ENDBRANCH  18  24
ENDBRANCH  15  18
ENDBRANCH  13  14
BRANCH  13  28
ATOM     28  C   UNL     1       8.076  -5.279  -0.622  1.00  0.00     0.327 C 
ATOM     29  O   UNL     1       7.776  -6.436  -0.370  1.00  0.00    -0.250 OA
BRANCH  28  30
ATOM     30  O   UNL     1       9.365  -4.884  -0.583  1.00  0.00    -0.480 OA
ATOM     31  H   UNL     1       9.540  -4.725   0.368  1.00  0.00     0.296 HD
ENDBRANCH  28  30
ENDBRANCH  13  28
ENDBRANCH  11  13
ENDBRANCH   8  11
ENDBRANCH   6   7
BRANCH   6  32
ATOM     32  C   UNL     1       4.721   0.011  -3.319  1.00  0.00     0.037 C 
BRANCH  32  33
ATOM     33  C   UNL     1       6.253  -0.075  -3.382  1.00  0.00     0.026 C 
BRANCH  33  34
ATOM     34  C   UNL     1       6.786   0.025  -4.812  1.00  0.00     0.146 C 
BRANCH  34  35
ATOM     35  N   UNL     1       6.498  -1.222  -5.509  1.00  0.00    -0.254 NA
ATOM     36  C   UNL     1       5.909  -1.168  -6.645  1.00  0.00     0.185 C 
ATOM     37  N   UNL     1       5.643  -2.310  -7.298  1.00  0.00    -0.370 N 
ATOM     38  N   UNL     1       5.491  -0.089  -7.330  1.00  0.00    -0.370 N 
ATOM     39  H   UNL     1       5.938  -3.168  -6.851  1.00  0.00     0.159 HD
ATOM     40  H   UNL     1       5.347  -2.345  -8.259  1.00  0.00     0.159 HD
ATOM     41  H   UNL     1       4.915  -0.184  -8.151  1.00  0.00     0.159 HD
ATOM     42  H   UNL     1       5.611   0.837  -6.951  1.00  0.00     0.159 HD
ENDBRANCH  34  35
ENDBRANCH  33  34
ENDBRANCH  32  33
ENDBRANCH   6  32
ENDBRANCH   4   6
ENDBRANCH   1   2
BRANCH   1  43
ATOM     43  C   UNL     1       1.197  -0.000  -6.310  1.00  0.00     0.102 C 
ATOM     44  C   UNL     1      -0.036   0.803  -6.758  1.00  0.00     0.020 C 
BRANCH  43  45
ATOM     45  C   UNL     1       1.974  -0.640  -7.464  1.00  0.00     0.225 C 
ATOM     46  O   UNL     1       2.660   0.006  -8.251  1.00  0.00    -0.275 OA
ATOM     47  N   UNL     1       1.783  -1.993  -7.628  1.00  0.00    -0.342 N 
ATOM     48  H   UNL     1       1.345  -2.530  -6.892  1.00  0.00     0.164 HD
BRANCH  47  49
ATOM     49  C   UNL     1       2.490  -2.746  -8.669  1.00  0.00     0.192 C 
BRANCH  49  50
ATOM     50  C   UNL     1       1.629  -2.808  -9.933  1.00  0.00     0.047 C 
BRANCH  50  51
ATOM     51  C   UNL     1       2.464  -2.667 -11.213  1.00  0.00     0.103 C 
BRANCH  51  52
ATOM     52  C   UNL     1       2.091  -3.715 -12.260  1.00  0.00     0.226 C 
ATOM     53  O   UNL     1       1.396  -4.680 -11.936  1.00  0.00    -0.275 OA
BRANCH  52  54
ATOM     54  N   UNL     1       2.514  -3.462 -13.578  1.00  0.00    -0.311 N 
ATOM     55  C   UNL     1       2.551  -4.537 -14.579  1.00  0.00     0.153 C 
BRANCH  54  56
ATOM     56  C   UNL     1       2.909  -2.178 -13.987  1.00  0.00     0.102 C 
ATOM     57  C   UNL     1       2.121  -1.091 -13.975  1.00  0.00     0.043 C 
BRANCH  56  58
ATOM     58  C   UNL     1       4.324  -1.912 -14.445  1.00  0.00     0.268 C 
ATOM     59  O   UNL     1       5.299  -2.039 -13.717  1.00  0.00    -0.268 OA
ATOM     60  N   UNL     1       4.407  -1.577 -15.776  1.00  0.00    -0.339 N 
ATOM     61  H   UNL     1       3.550  -1.481 -16.308  1.00  0.00     0.164 HD
BRANCH  60  62
ATOM     62  C   UNL     1       5.687  -1.339 -16.441  1.00  0.00     0.168 CG0
ATOM     63  C   UNL     1       5.987   0.152 -16.531  1.00  0.00     0.041 C 
ATOM     64  G   UNL     1       5.667  -1.978 -17.845  1.00  0.00     0.000 G0
ENDBRANCH  60  62
ENDBRANCH  56  58
ENDBRANCH  54  56
ENDBRANCH  52  54
ENDBRANCH  51  52
ENDBRANCH  50  51
ENDBRANCH  49  50
BRANCH  49  65
ATOM     65  C   UNL     1       2.822  -4.174  -8.208  1.00  0.00     0.326 C 
ATOM     66  O   UNL     1       3.938  -4.674  -8.194  1.00  0.00    -0.250 OA
BRANCH  65  67
ATOM     67  O   UNL     1       1.750  -4.915  -7.852  1.00  0.00    -0.480 OA
ATOM     68  H   UNL     1       1.187  -4.284  -7.355  1.00  0.00     0.296 HD
ENDBRANCH  65  67
ENDBRANCH  49  65
ENDBRANCH  47  49
ENDBRANCH  43  45
ENDBRANCH   1  43
BRANCH   1  69
ATOM     69  C   UNL     1      -0.439  -0.958  -4.462  1.00  0.00    -0.001 C 
ATOM     70  C   UNL     1      -0.631  -0.751  -3.147  1.00  0.00     0.001 C 
BRANCH  70  71
ATOM     71  C   UNL     1      -1.914  -0.648  -2.451  1.00  0.00    -0.055 C 
ATOM     72  C   UNL     1      -2.478  -1.789  -2.002  1.00  0.00    -0.018 C 
ATOM     73  C   UNL     1      -2.511   0.724  -2.277  1.00  0.00     0.044 C 
BRANCH  72  74
ATOM     74  C   UNL     1      -3.787  -1.987  -1.251  1.00  0.00     0.038 C 
ATOM     75  C   UNL     1      -4.920  -1.592  -2.207  1.00  0.00     0.015 C 
BRANCH  74  76
ATOM     76  C   UNL     1      -3.735  -1.168   0.072  1.00  0.00     0.128 C 
BRANCH  76  77
ATOM     77  O   UNL     1      -5.021  -1.187   0.713  1.00  0.00    -0.381 OA
ATOM     78  C   UNL     1      -5.373   0.046   1.325  1.00  0.00     0.195 C 
ENDBRANCH  76  77
BRANCH  76  79
ATOM     79  C   UNL     1      -2.584  -1.583   1.024  1.00  0.00     0.068 C 
BRANCH  79  80
ATOM     80  C   UNL     1      -1.386  -0.671   1.125  1.00  0.00    -0.045 A 
ATOM     81  C   UNL     1      -1.543   0.712   1.282  1.00  0.00     0.004 A 
ATOM     82  C   UNL     1      -0.088  -1.196   1.033  1.00  0.00     0.004 A 
ATOM     83  C   UNL     1      -0.429   1.551   1.361  1.00  0.00     0.000 A 
ATOM     84  C   UNL     1       1.025  -0.357   1.110  1.00  0.00     0.000 A 
ATOM     85  C   UNL     1       0.855   1.016   1.276  1.00  0.00     0.000 A 
ENDBRANCH  79  80
ENDBRANCH  76  79
ENDBRANCH  74  76
ENDBRANCH  72  74
ENDBRANCH  70  71
ENDBRANCH   1  69
TORSDOF 17
ENDMDL
MODEL 28
REMARK VINA RESULT:    -5.327      4.395      6.907
REMARK INTER + INTRA:         -24.546
REMARK INTER:                 -16.540
REMARK INTRA:                  -8.006
REMARK UNBOUND:                -8.629
REMARK SMILES C=C1C(=O)N[C@H](C)C(=O)N[C@@H](CC(C)C)C(=O)N[C@@H](C(=O)O)[C@H](C)C(=O)N[C@@H](CCCN=C(N)N)C(=O)N[C@@H](/C=C/C(C)=C/[C@H](C)[C@H](Cc2ccccc2)OC)[C@H](C)C(=O)N[C@@H](C(=O)O)CCC(=O)N1C
REMARK SMILES IDX 39 1 38 2 37 3 36 4 28 6 27 7 25 8 26 9 23 11 24 12 19 13
REMARK SMILES IDX 18 14 16 15 17 16 11 18 10 19 8 20 9 21 12 24 13 25 14 26
REMARK SMILES IDX 15 27 20 28 21 29 22 30 29 32 30 33 31 34 32 35 33 36 34 37
REMARK SMILES IDX 35 38 57 43 58 44 59 45 60 46 61 47 62 49 66 50 67 51 68 52
REMARK SMILES IDX 69 53 70 54 71 55 2 56 1 57 3 58 4 59 5 60 6 62 7 63 63 65
REMARK SMILES IDX 64 66 65 67 40 69 41 70 42 71 44 72 43 73 45 74 46 75 47 76
REMARK SMILES IDX 55 77 56 78 48 79 49 80 50 81 54 82 51 83 53 84 52 85
REMARK H PARENT 38 5 27 10 18 17 10 22 22 31 34 39 34 40 35 41 35 42 61 48
REMARK H PARENT 5 61 65 68
REMARK Flexibility Score:  369.900
ROOT
ATOM      1  C   UNL     1       6.393  -1.734  -8.476  1.00  0.00     0.117 C 
ENDROOT
BRANCH   1   2
ATOM      2  N   UNL     1       5.510  -1.591  -9.634  1.00  0.00    -0.347 N 
ATOM      3  O   UNL     1       5.118  -3.822 -10.005  1.00  0.00    -0.273 OA
ATOM      4  C   UNL     1       4.867  -2.647 -10.251  1.00  0.00     0.243 C 
ATOM      5  H   UNL     1       5.304  -0.669  -9.988  1.00  0.00     0.164 HD
BRANCH   4   6
ATOM      6  C   UNL     1       3.920  -2.215 -11.399  1.00  0.00     0.171 C 
BRANCH   6   7
ATOM      7  N   UNL     1       4.050  -3.130 -12.545  1.00  0.00    -0.344 N 
ATOM      8  C   UNL     1       5.274  -3.335 -13.145  1.00  0.00     0.226 C 
ATOM      9  O   UNL     1       6.293  -2.762 -12.779  1.00  0.00    -0.275 OA
ATOM     10  H   UNL     1       3.219  -3.570 -12.918  1.00  0.00     0.164 HD
BRANCH   8  11
ATOM     11  C   UNL     1       5.253  -4.347 -14.277  1.00  0.00     0.109 C 
ATOM     12  C   UNL     1       3.817  -4.588 -14.741  1.00  0.00     0.021 C 
BRANCH  11  13
ATOM     13  C   UNL     1       6.228  -3.908 -15.387  1.00  0.00     0.204 C 
BRANCH  13  14
ATOM     14  N   UNL     1       6.423  -2.455 -15.407  1.00  0.00    -0.340 N 
ATOM     15  C   UNL     1       5.949  -1.650 -16.420  1.00  0.00     0.243 C 
ATOM     16  O   UNL     1       5.275  -2.088 -17.351  1.00  0.00    -0.273 OA
ATOM     17  H   UNL     1       7.098  -2.052 -14.751  1.00  0.00     0.164 HD
BRANCH  15  18
ATOM     18  C   UNL     1       6.452  -0.188 -16.335  1.00  0.00     0.171 C 
BRANCH  18  19
ATOM     19  N   UNL     1       7.520  -0.055 -17.324  1.00  0.00    -0.343 N 
ATOM     20  C   UNL     1       8.767  -0.618 -17.129  1.00  0.00     0.242 CG0
ATOM     21  O   UNL     1       9.078  -1.141 -16.062  1.00  0.00    -0.273 OA
ATOM     22  H   UNL     1       7.349   0.469 -18.174  1.00  0.00     0.164 HD
ATOM     23  G   UNL     1       9.738  -0.439 -18.315  1.00  0.00     0.000 G0
ENDBRANCH  18  19
BRANCH  18  24
ATOM     24  C   UNL     1       5.307   0.795 -16.610  1.00  0.00     0.038 C 
BRANCH  24  25
ATOM     25  C   UNL     1       4.819   1.577 -15.372  1.00  0.00    -0.015 C 
ATOM     26  C   UNL     1       4.891   0.747 -14.090  1.00  0.00     0.007 C 
ATOM     27  C   UNL     1       3.381   2.053 -15.598  1.00  0.00     0.007 C 
ENDBRANCH  24  25
ENDBRANCH  18  24
ENDBRANCH  15  18
ENDBRANCH  13  14
BRANCH  13  28
ATOM     28  C   UNL     1       7.613  -4.550 -15.263  1.00  0.00     0.327 C 
ATOM     29  O   UNL     1       7.912  -5.692 -15.577  1.00  0.00    -0.250 OA
BRANCH  28  30
ATOM     30  O   UNL     1       8.510  -3.757 -14.642  1.00  0.00    -0.480 OA
ATOM     31  H   UNL     1       9.222  -3.633 -15.304  1.00  0.00     0.296 HD
ENDBRANCH  28  30
ENDBRANCH  13  28
ENDBRANCH  11  13
ENDBRANCH   8  11
ENDBRANCH   6   7
BRANCH   6  32
ATOM     32  C   UNL     1       2.479  -2.189 -10.880  1.00  0.00     0.037 C 
BRANCH  32  33
ATOM     33  C   UNL     1       1.682  -3.424 -11.323  1.00  0.00     0.026 C 
BRANCH  33  34
ATOM     34  C   UNL     1       1.727  -4.551 -10.289  1.00  0.00     0.146 C 
BRANCH  34  35
ATOM     35  N   UNL     1       1.395  -4.003  -8.982  1.00  0.00    -0.254 NA
ATOM     36  C   UNL     1       2.187  -4.230  -8.001  1.00  0.00     0.185 C 
ATOM     37  N   UNL     1       1.894  -3.725  -6.793  1.00  0.00    -0.370 N 
ATOM     38  N   UNL     1       3.334  -4.932  -7.987  1.00  0.00    -0.370 N 
ATOM     39  H   UNL     1       1.048  -3.173  -6.724  1.00  0.00     0.159 HD
ATOM     40  H   UNL     1       2.542  -3.709  -6.024  1.00  0.00     0.159 HD
ATOM     41  H   UNL     1       3.796  -5.157  -7.121  1.00  0.00     0.159 HD
ATOM     42  H   UNL     1       3.669  -5.383  -8.824  1.00  0.00     0.159 HD
ENDBRANCH  34  35
ENDBRANCH  33  34
ENDBRANCH  32  33
ENDBRANCH   6  32
ENDBRANCH   4   6
ENDBRANCH   1   2
BRANCH   1  43
ATOM     43  C   UNL     1       5.692  -1.106  -7.237  1.00  0.00     0.102 C 
ATOM     44  C   UNL     1       6.339   0.209  -6.769  1.00  0.00     0.020 C 
BRANCH  43  45
ATOM     45  C   UNL     1       5.513  -2.141  -6.123  1.00  0.00     0.225 C 
ATOM     46  O   UNL     1       4.687  -3.048  -6.177  1.00  0.00    -0.275 OA
ATOM     47  N   UNL     1       6.278  -1.939  -4.997  1.00  0.00    -0.342 N 
ATOM     48  H   UNL     1       7.051  -1.289  -5.028  1.00  0.00     0.164 HD
BRANCH  47  49
ATOM     49  C   UNL     1       6.237  -2.870  -3.866  1.00  0.00     0.192 C 
BRANCH  49  50
ATOM     50  C   UNL     1       5.401  -2.267  -2.734  1.00  0.00     0.047 C 
BRANCH  50  51
ATOM     51  C   UNL     1       4.318  -3.233  -2.233  1.00  0.00     0.103 C 
BRANCH  51  52
ATOM     52  C   UNL     1       4.887  -4.296  -1.295  1.00  0.00     0.226 C 
ATOM     53  O   UNL     1       5.218  -5.394  -1.747  1.00  0.00    -0.275 OA
BRANCH  52  54
ATOM     54  N   UNL     1       5.071  -3.914   0.047  1.00  0.00    -0.311 N 
ATOM     55  C   UNL     1       4.004  -4.100   1.039  1.00  0.00     0.153 C 
BRANCH  54  56
ATOM     56  C   UNL     1       6.279  -3.349   0.489  1.00  0.00     0.102 C 
ATOM     57  C   UNL     1       6.526  -2.031   0.571  1.00  0.00     0.043 C 
BRANCH  56  58
ATOM     58  C   UNL     1       7.415  -4.223   0.964  1.00  0.00     0.268 C 
ATOM     59  O   UNL     1       7.975  -5.042   0.248  1.00  0.00    -0.268 OA
ATOM     60  N   UNL     1       7.796  -3.957   2.258  1.00  0.00    -0.339 N 
ATOM     61  H   UNL     1       7.274  -3.270   2.788  1.00  0.00     0.164 HD
BRANCH  60  62
ATOM     62  C   UNL     1       8.918  -4.644   2.897  1.00  0.00     0.168 CG0
ATOM     63  C   UNL     1       8.529  -5.161   4.276  1.00  0.00     0.041 C 
ATOM     64  G   UNL     1      10.124  -3.687   2.992  1.00  0.00     0.000 G0
ENDBRANCH  60  62
ENDBRANCH  56  58
ENDBRANCH  54  56
ENDBRANCH  52  54
ENDBRANCH  51  52
ENDBRANCH  50  51
ENDBRANCH  49  50
BRANCH  49  65
ATOM     65  C   UNL     1       7.646  -3.189  -3.343  1.00  0.00     0.326 C 
ATOM     66  O   UNL     1       8.150  -4.302  -3.289  1.00  0.00    -0.250 OA
BRANCH  65  67
ATOM     67  O   UNL     1       8.324  -2.123  -2.863  1.00  0.00    -0.480 OA
ATOM     68  H   UNL     1       8.507  -1.585  -3.663  1.00  0.00     0.296 HD
ENDBRANCH  65  67
ENDBRANCH  49  65
ENDBRANCH  47  49
ENDBRANCH  43  45
ENDBRANCH   1  43
BRANCH   1  69
ATOM     69  C   UNL     1       7.745  -1.194  -8.906  1.00  0.00    -0.001 C 
ATOM     70  C   UNL     1       8.784  -1.891  -9.400  1.00  0.00     0.001 C 
BRANCH  70  71
ATOM     71  C   UNL     1      10.077  -1.356  -9.831  1.00  0.00    -0.055 C 
ATOM     72  C   UNL     1      10.090  -0.137 -10.411  1.00  0.00    -0.018 C 
ATOM     73  C   UNL     1      11.302  -2.199  -9.591  1.00  0.00     0.044 C 
BRANCH  72  74
ATOM     74  C   UNL     1      11.268   0.662 -10.948  1.00  0.00     0.038 C 
ATOM     75  C   UNL     1      11.529   1.805  -9.960  1.00  0.00     0.015 C 
BRANCH  74  76
ATOM     76  C   UNL     1      10.945   1.116 -12.402  1.00  0.00     0.128 C 
BRANCH  76  77
ATOM     77  O   UNL     1      11.911   0.569 -13.314  1.00  0.00    -0.381 OA
ATOM     78  C   UNL     1      11.808  -0.839 -13.478  1.00  0.00     0.195 C 
ENDBRANCH  76  77
BRANCH  76  79
ATOM     79  C   UNL     1       9.484   0.838 -12.838  1.00  0.00     0.068 C 
BRANCH  79  80
ATOM     80  C   UNL     1       8.724   1.952 -13.516  1.00  0.00    -0.045 A 
ATOM     81  C   UNL     1       7.808   2.739 -12.806  1.00  0.00     0.004 A 
ATOM     82  C   UNL     1       8.905   2.200 -14.885  1.00  0.00     0.004 A 
ATOM     83  C   UNL     1       7.098   3.758 -13.444  1.00  0.00     0.000 A 
ATOM     84  C   UNL     1       8.195   3.220 -15.523  1.00  0.00     0.000 A 
ATOM     85  C   UNL     1       7.293   3.999 -14.802  1.00  0.00     0.000 A 
ENDBRANCH  79  80
ENDBRANCH  76  79
ENDBRANCH  74  76
ENDBRANCH  72  74
ENDBRANCH  70  71
ENDBRANCH   1  69
TORSDOF 17
ENDMDL
MODEL 29
REMARK VINA RESULT:    -5.323      3.458     12.686
REMARK INTER + INTRA:         -24.533
REMARK INTER:                 -17.735
REMARK INTRA:                  -6.798
REMARK UNBOUND:                -8.629
REMARK SMILES C=C1C(=O)N[C@H](C)C(=O)N[C@@H](CC(C)C)C(=O)N[C@@H](C(=O)O)[C@H](C)C(=O)N[C@@H](CCCN=C(N)N)C(=O)N[C@@H](/C=C/C(C)=C/[C@H](C)[C@H](Cc2ccccc2)OC)[C@H](C)C(=O)N[C@@H](C(=O)O)CCC(=O)N1C
REMARK SMILES IDX 39 1 38 2 37 3 36 4 28 6 27 7 25 8 26 9 23 11 24 12 19 13
REMARK SMILES IDX 18 14 16 15 17 16 11 18 10 19 8 20 9 21 12 24 13 25 14 26
REMARK SMILES IDX 15 27 20 28 21 29 22 30 29 32 30 33 31 34 32 35 33 36 34 37
REMARK SMILES IDX 35 38 57 43 58 44 59 45 60 46 61 47 62 49 66 50 67 51 68 52
REMARK SMILES IDX 69 53 70 54 71 55 2 56 1 57 3 58 4 59 5 60 6 62 7 63 63 65
REMARK SMILES IDX 64 66 65 67 40 69 41 70 42 71 44 72 43 73 45 74 46 75 47 76
REMARK SMILES IDX 55 77 56 78 48 79 49 80 50 81 54 82 51 83 53 84 52 85
REMARK H PARENT 38 5 27 10 18 17 10 22 22 31 34 39 34 40 35 41 35 42 61 48
REMARK H PARENT 5 61 65 68
REMARK Flexibility Score:  369.900
ROOT
ATOM      1  C   UNL     1       1.433  -2.233 -11.335  1.00  0.00     0.117 C 
ENDROOT
BRANCH   1   2
ATOM      2  N   UNL     1       1.632  -1.220 -10.298  1.00  0.00    -0.347 N 
ATOM      3  O   UNL     1      -0.526  -1.145  -9.516  1.00  0.00    -0.273 OA
ATOM      4  C   UNL     1       0.653  -0.823  -9.408  1.00  0.00     0.243 C 
ATOM      5  H   UNL     1       2.545  -0.810 -10.176  1.00  0.00     0.164 HD
BRANCH   4   6
ATOM      6  C   UNL     1       1.147   0.201  -8.354  1.00  0.00     0.171 C 
BRANCH   6   7
ATOM      7  N   UNL     1       0.183   0.305  -7.247  1.00  0.00    -0.344 N 
ATOM      8  C   UNL     1      -0.727   1.339  -7.203  1.00  0.00     0.226 C 
ATOM      9  O   UNL     1      -0.767   2.220  -8.053  1.00  0.00    -0.275 OA
ATOM     10  H   UNL     1       0.230  -0.366  -6.490  1.00  0.00     0.164 HD
BRANCH   8  11
ATOM     11  C   UNL     1      -1.688   1.277  -6.028  1.00  0.00     0.109 C 
ATOM     12  C   UNL     1      -3.004   1.965  -6.388  1.00  0.00     0.021 C 
BRANCH  11  13
ATOM     13  C   UNL     1      -1.829  -0.181  -5.546  1.00  0.00     0.204 C 
BRANCH  13  14
ATOM     14  N   UNL     1      -2.207  -0.261  -4.132  1.00  0.00    -0.340 N 
ATOM     15  C   UNL     1      -1.727  -1.234  -3.283  1.00  0.00     0.243 C 
ATOM     16  O   UNL     1      -0.898  -2.070  -3.637  1.00  0.00    -0.273 OA
ATOM     17  H   UNL     1      -3.000   0.303  -3.815  1.00  0.00     0.164 HD
BRANCH  15  18
ATOM     18  C   UNL     1      -2.423  -1.245  -1.899  1.00  0.00     0.171 C 
BRANCH  18  19
ATOM     19  N   UNL     1      -2.350  -2.619  -1.405  1.00  0.00    -0.343 N 
ATOM     20  C   UNL     1      -3.463  -3.436  -1.357  1.00  0.00     0.242 CG0
ATOM     21  O   UNL     1      -4.588  -3.005  -1.601  1.00  0.00    -0.273 OA
ATOM     22  H   UNL     1      -1.462  -2.985  -1.082  1.00  0.00     0.164 HD
ATOM     23  G   UNL     1      -3.177  -4.875  -0.882  1.00  0.00     0.000 G0
ENDBRANCH  18  19
BRANCH  18  24
ATOM     24  C   UNL     1      -1.735  -0.266  -0.940  1.00  0.00     0.038 C 
BRANCH  24  25
ATOM     25  C   UNL     1      -2.636   0.882  -0.436  1.00  0.00    -0.015 C 
ATOM     26  C   UNL     1      -4.099   0.460  -0.297  1.00  0.00     0.007 C 
ATOM     27  C   UNL     1      -2.532   2.075  -1.390  1.00  0.00     0.007 C 
ENDBRANCH  24  25
ENDBRANCH  18  24
ENDBRANCH  15  18
ENDBRANCH  13  14
BRANCH  13  28
ATOM     28  C   UNL     1      -2.866  -0.981  -6.340  1.00  0.00     0.327 C 
ATOM     29  O   UNL     1      -3.848  -1.546  -5.882  1.00  0.00    -0.250 OA
BRANCH  28  30
ATOM     30  O   UNL     1      -2.542  -1.123  -7.641  1.00  0.00    -0.480 OA
ATOM     31  H   UNL     1      -3.397  -1.302  -8.085  1.00  0.00     0.296 HD
ENDBRANCH  28  30
ENDBRANCH  13  28
ENDBRANCH  11  13
ENDBRANCH   8  11
ENDBRANCH   6   7
BRANCH   6  32
ATOM     32  C   UNL     1       2.526  -0.230  -7.841  1.00  0.00     0.037 C 
BRANCH  32  33
ATOM     33  C   UNL     1       3.471   0.964  -7.648  1.00  0.00     0.026 C 
BRANCH  33  34
ATOM     34  C   UNL     1       4.816   0.554  -7.047  1.00  0.00     0.146 C 
BRANCH  34  35
ATOM     35  N   UNL     1       4.613  -0.607  -6.191  1.00  0.00    -0.254 NA
ATOM     36  C   UNL     1       5.147  -1.721  -6.529  1.00  0.00     0.185 C 
ATOM     37  N   UNL     1       4.970  -2.796  -5.745  1.00  0.00    -0.370 N 
ATOM     38  N   UNL     1       5.900  -2.004  -7.607  1.00  0.00    -0.370 N 
ATOM     39  H   UNL     1       4.421  -2.661  -4.906  1.00  0.00     0.159 HD
ATOM     40  H   UNL     1       5.492  -3.650  -5.846  1.00  0.00     0.159 HD
ATOM     41  H   UNL     1       6.146  -2.953  -7.836  1.00  0.00     0.159 HD
ATOM     42  H   UNL     1       6.101  -1.293  -8.293  1.00  0.00     0.159 HD
ENDBRANCH  34  35
ENDBRANCH  33  34
ENDBRANCH  32  33
ENDBRANCH   6  32
ENDBRANCH   4   6
ENDBRANCH   1   2
BRANCH   1  43
ATOM     43  C   UNL     1       2.351  -3.450 -11.021  1.00  0.00     0.102 C 
ATOM     44  C   UNL     1       1.974  -4.181  -9.720  1.00  0.00     0.020 C 
BRANCH  43  45
ATOM     45  C   UNL     1       3.829  -3.062 -11.109  1.00  0.00     0.225 C 
ATOM     46  O   UNL     1       4.349  -2.227 -10.374  1.00  0.00    -0.275 OA
ATOM     47  N   UNL     1       4.534  -3.643 -12.139  1.00  0.00    -0.342 N 
ATOM     48  H   UNL     1       4.139  -4.431 -12.633  1.00  0.00     0.164 HD
BRANCH  47  49
ATOM     49  C   UNL     1       5.966  -3.391 -12.325  1.00  0.00     0.192 C 
BRANCH  49  50
ATOM     50  C   UNL     1       6.182  -2.553 -13.587  1.00  0.00     0.047 C 
BRANCH  50  51
ATOM     51  C   UNL     1       5.094  -2.799 -14.642  1.00  0.00     0.103 C 
BRANCH  51  52
ATOM     52  C   UNL     1       5.513  -3.854 -15.663  1.00  0.00     0.226 C 
ATOM     53  O   UNL     1       4.929  -4.940 -15.693  1.00  0.00    -0.275 OA
BRANCH  52  54
ATOM     54  N   UNL     1       6.515  -3.480 -16.577  1.00  0.00    -0.311 N 
ATOM     55  C   UNL     1       6.499  -2.158 -17.217  1.00  0.00     0.153 C 
BRANCH  54  56
ATOM     56  C   UNL     1       7.569  -4.349 -16.905  1.00  0.00     0.102 C 
ATOM     57  C   UNL     1       7.548  -5.234 -17.915  1.00  0.00     0.043 C 
BRANCH  56  58
ATOM     58  C   UNL     1       8.870  -4.313 -16.139  1.00  0.00     0.268 C 
ATOM     59  O   UNL     1       9.053  -4.934 -15.100  1.00  0.00    -0.268 OA
ATOM     60  N   UNL     1       9.844  -3.569 -16.762  1.00  0.00    -0.339 N 
ATOM     61  H   UNL     1       9.609  -3.077 -17.616  1.00  0.00     0.164 HD
BRANCH  60  62
ATOM     62  C   UNL     1      11.199  -3.453 -16.224  1.00  0.00     0.168 CG0
ATOM     63  C   UNL     1      11.413  -2.092 -15.572  1.00  0.00     0.041 C 
ATOM     64  G   UNL     1      12.224  -3.685 -17.352  1.00  0.00     0.000 G0
ENDBRANCH  60  62
ENDBRANCH  56  58
ENDBRANCH  54  56
ENDBRANCH  52  54
ENDBRANCH  51  52
ENDBRANCH  50  51
ENDBRANCH  49  50
BRANCH  49  65
ATOM     65  C   UNL     1       6.761  -4.701 -12.442  1.00  0.00     0.326 C 
ATOM     66  O   UNL     1       6.281  -5.826 -12.441  1.00  0.00    -0.250 OA
BRANCH  65  67
ATOM     67  O   UNL     1       8.102  -4.545 -12.492  1.00  0.00    -0.480 OA
ATOM     68  H   UNL     1       8.218  -3.577 -12.606  1.00  0.00     0.296 HD
ENDBRANCH  65  67
ENDBRANCH  49  65
ENDBRANCH  47  49
ENDBRANCH  43  45
ENDBRANCH   1  43
BRANCH   1  69
ATOM     69  C   UNL     1       1.594  -1.517 -12.663  1.00  0.00    -0.001 C 
ATOM     70  C   UNL     1       0.960  -0.405 -13.074  1.00  0.00     0.001 C 
BRANCH  70  71
ATOM     71  C   UNL     1       1.139   0.290 -14.350  1.00  0.00    -0.055 C 
ATOM     72  C   UNL     1       2.402   0.528 -14.763  1.00  0.00    -0.018 C 
ATOM     73  C   UNL     1      -0.097   0.682 -15.116  1.00  0.00     0.044 C 
BRANCH  72  74
ATOM     74  C   UNL     1       2.887   1.217 -16.030  1.00  0.00     0.038 C 
ATOM     75  C   UNL     1       4.189   0.525 -16.452  1.00  0.00     0.015 C 
BRANCH  74  76
ATOM     76  C   UNL     1       3.020   2.744 -15.751  1.00  0.00     0.128 C 
BRANCH  76  77
ATOM     77  O   UNL     1       4.393   3.077 -15.488  1.00  0.00    -0.381 OA
ATOM     78  C   UNL     1       4.636   3.485 -14.149  1.00  0.00     0.195 C 
ENDBRANCH  76  77
BRANCH  76  79
ATOM     79  C   UNL     1       2.383   3.641 -16.842  1.00  0.00     0.068 C 
BRANCH  79  80
ATOM     80  C   UNL     1       0.913   3.462 -17.135  1.00  0.00    -0.045 A 
ATOM     81  C   UNL     1       0.483   2.711 -18.236  1.00  0.00     0.004 A 
ATOM     82  C   UNL     1      -0.051   4.074 -16.318  1.00  0.00     0.004 A 
ATOM     83  C   UNL     1      -0.879   2.562 -18.509  1.00  0.00     0.000 A 
ATOM     84  C   UNL     1      -1.412   3.925 -16.592  1.00  0.00     0.000 A 
ATOM     85  C   UNL     1      -1.826   3.168 -17.686  1.00  0.00     0.000 A 
ENDBRANCH  79  80
ENDBRANCH  76  79
ENDBRANCH  74  76
ENDBRANCH  72  74
ENDBRANCH  70  71
ENDBRANCH   1  69
TORSDOF 17
ENDMDL
MODEL 30
REMARK VINA RESULT:    -5.235      2.432      4.788
REMARK INTER + INTRA:         -24.271
REMARK INTER:                 -18.944
REMARK INTRA:                  -5.326
REMARK UNBOUND:                -8.629
REMARK SMILES C=C1C(=O)N[C@H](C)C(=O)N[C@@H](CC(C)C)C(=O)N[C@@H](C(=O)O)[C@H](C)C(=O)N[C@@H](CCCN=C(N)N)C(=O)N[C@@H](/C=C/C(C)=C/[C@H](C)[C@H](Cc2ccccc2)OC)[C@H](C)C(=O)N[C@@H](C(=O)O)CCC(=O)N1C
REMARK SMILES IDX 39 1 38 2 37 3 36 4 28 6 27 7 25 8 26 9 23 11 24 12 19 13
REMARK SMILES IDX 18 14 16 15 17 16 11 18 10 19 8 20 9 21 12 24 13 25 14 26
REMARK SMILES IDX 15 27 20 28 21 29 22 30 29 32 30 33 31 34 32 35 33 36 34 37
REMARK SMILES IDX 35 38 57 43 58 44 59 45 60 46 61 47 62 49 66 50 67 51 68 52
REMARK SMILES IDX 69 53 70 54 71 55 2 56 1 57 3 58 4 59 5 60 6 62 7 63 63 65
REMARK SMILES IDX 64 66 65 67 40 69 41 70 42 71 44 72 43 73 45 74 46 75 47 76
REMARK SMILES IDX 55 77 56 78 48 79 49 80 50 81 54 82 51 83 53 84 52 85
REMARK H PARENT 38 5 27 10 18 17 10 22 22 31 34 39 34 40 35 41 35 42 61 48
REMARK H PARENT 5 61 65 68
REMARK Flexibility Score:  369.900
ROOT
ATOM      1  C   UNL     1       1.378  -2.271 -12.418  1.00  0.00     0.117 C 
ENDROOT
BRANCH   1   2
ATOM      2  N   UNL     1       2.448  -2.494 -13.390  1.00  0.00    -0.347 N 
ATOM      3  O   UNL     1       2.219  -4.770 -13.591  1.00  0.00    -0.273 OA
ATOM      4  C   UNL     1       2.724  -3.718 -13.970  1.00  0.00     0.243 C 
ATOM      5  H   UNL     1       3.000  -1.711 -13.708  1.00  0.00     0.164 HD
BRANCH   4   6
ATOM      6  C   UNL     1       3.851  -3.665 -15.032  1.00  0.00     0.171 C 
BRANCH   6   7
ATOM      7  N   UNL     1       4.680  -2.464 -14.843  1.00  0.00    -0.344 N 
ATOM      8  C   UNL     1       5.153  -1.759 -15.929  1.00  0.00     0.226 C 
ATOM      9  O   UNL     1       4.933  -2.100 -17.085  1.00  0.00    -0.275 OA
ATOM     10  H   UNL     1       4.939  -2.189 -13.904  1.00  0.00     0.164 HD
BRANCH   8  11
ATOM     11  C   UNL     1       5.946  -0.514 -15.569  1.00  0.00     0.109 C 
ATOM     12  C   UNL     1       5.034   0.515 -14.900  1.00  0.00     0.021 C 
BRANCH  11  13
ATOM     13  C   UNL     1       7.191  -0.908 -14.749  1.00  0.00     0.204 C 
BRANCH  13  14
ATOM     14  N   UNL     1       8.248  -1.478 -15.590  1.00  0.00    -0.340 N 
ATOM     15  C   UNL     1       9.226  -2.315 -15.098  1.00  0.00     0.243 C 
ATOM     16  O   UNL     1       9.246  -2.691 -13.928  1.00  0.00    -0.273 OA
ATOM     17  H   UNL     1       8.377  -1.089 -16.528  1.00  0.00     0.164 HD
BRANCH  15  18
ATOM     18  C   UNL     1      10.348  -2.622 -16.120  1.00  0.00     0.171 C 
BRANCH  18  19
ATOM     19  N   UNL     1      10.205  -1.652 -17.203  1.00  0.00    -0.343 N 
ATOM     20  C   UNL     1      10.257  -2.030 -18.531  1.00  0.00     0.242 CG0
ATOM     21  O   UNL     1      10.558  -3.174 -18.863  1.00  0.00    -0.273 OA
ATOM     22  H   UNL     1      10.070  -0.673 -16.980  1.00  0.00     0.164 HD
ATOM     23  G   UNL     1      10.007  -0.881 -19.530  1.00  0.00     0.000 G0
ENDBRANCH  18  19
BRANCH  18  24
ATOM     24  C   UNL     1      11.727  -2.524 -15.456  1.00  0.00     0.038 C 
BRANCH  24  25
ATOM     25  C   UNL     1      12.127  -1.101 -15.010  1.00  0.00    -0.015 C 
ATOM     26  C   UNL     1      11.900  -0.871 -13.516  1.00  0.00     0.007 C 
ATOM     27  C   UNL     1      11.337  -0.068 -15.817  1.00  0.00     0.007 C 
ENDBRANCH  24  25
ENDBRANCH  18  24
ENDBRANCH  15  18
ENDBRANCH  13  14
BRANCH  13  28
ATOM     28  C   UNL     1       7.805   0.267 -13.983  1.00  0.00     0.327 C 
ATOM     29  O   UNL     1       8.231   1.304 -14.469  1.00  0.00    -0.250 OA
BRANCH  28  30
ATOM     30  O   UNL     1       7.956   0.019 -12.666  1.00  0.00    -0.480 OA
ATOM     31  H   UNL     1       7.896   0.902 -12.246  1.00  0.00     0.296 HD
ENDBRANCH  28  30
ENDBRANCH  13  28
ENDBRANCH  11  13
ENDBRANCH   8  11
ENDBRANCH   6   7
BRANCH   6  32
ATOM     32  C   UNL     1       4.700  -4.937 -14.929  1.00  0.00     0.037 C 
BRANCH  32  33
ATOM     33  C   UNL     1       6.146  -4.636 -14.511  1.00  0.00     0.026 C 
BRANCH  33  34
ATOM     34  C   UNL     1       7.171  -5.312 -15.422  1.00  0.00     0.146 C 
BRANCH  34  35
ATOM     35  N   UNL     1       7.002  -4.803 -16.777  1.00  0.00    -0.254 NA
ATOM     36  C   UNL     1       7.925  -5.027 -17.636  1.00  0.00     0.185 C 
ATOM     37  N   UNL     1       7.778  -4.567 -18.889  1.00  0.00    -0.370 N 
ATOM     38  N   UNL     1       9.086  -5.687 -17.477  1.00  0.00    -0.370 N 
ATOM     39  H   UNL     1       6.922  -4.066 -19.091  1.00  0.00     0.159 HD
ATOM     40  H   UNL     1       8.365  -4.846 -19.656  1.00  0.00     0.159 HD
ATOM     41  H   UNL     1       9.794  -5.676 -18.193  1.00  0.00     0.159 HD
ATOM     42  H   UNL     1       9.337  -6.074 -16.581  1.00  0.00     0.159 HD
ENDBRANCH  34  35
ENDBRANCH  33  34
ENDBRANCH  32  33
ENDBRANCH   6  32
ENDBRANCH   4   6
ENDBRANCH   1   2
BRANCH   1  43
ATOM     43  C   UNL     1       0.409  -1.194 -12.987  1.00  0.00     0.102 C 
ATOM     44  C   UNL     1       0.971  -0.452 -14.212  1.00  0.00     0.020 C 
BRANCH  43  45
ATOM     45  C   UNL     1      -0.096  -0.268 -11.877  1.00  0.00     0.225 C 
ATOM     46  O   UNL     1       0.343   0.864 -11.695  1.00  0.00    -0.275 OA
ATOM     47  N   UNL     1      -1.022  -0.819 -11.021  1.00  0.00    -0.342 N 
ATOM     48  H   UNL     1      -1.481  -1.684 -11.270  1.00  0.00     0.164 HD
BRANCH  47  49
ATOM     49  C   UNL     1      -1.621  -0.039  -9.934  1.00  0.00     0.192 C 
BRANCH  49  50
ATOM     50  C   UNL     1      -0.980  -0.437  -8.602  1.00  0.00     0.047 C 
BRANCH  50  51
ATOM     51  C   UNL     1      -1.589   0.320  -7.414  1.00  0.00     0.103 C 
BRANCH  51  52
ATOM     52  C   UNL     1      -2.195  -0.627  -6.380  1.00  0.00     0.226 C 
ATOM     53  O   UNL     1      -3.097  -1.398  -6.715  1.00  0.00    -0.275 OA
BRANCH  52  54
ATOM     54  N   UNL     1      -1.618  -0.608  -5.097  1.00  0.00    -0.311 N 
ATOM     55  C   UNL     1      -0.773   0.513  -4.665  1.00  0.00     0.153 C 
BRANCH  54  56
ATOM     56  C   UNL     1      -1.832  -1.652  -4.182  1.00  0.00     0.102 C 
ATOM     57  C   UNL     1      -1.222  -2.848  -4.225  1.00  0.00     0.043 C 
BRANCH  56  58
ATOM     58  C   UNL     1      -2.769  -1.477  -3.011  1.00  0.00     0.268 C 
ATOM     59  O   UNL     1      -3.985  -1.580  -3.105  1.00  0.00    -0.268 OA
ATOM     60  N   UNL     1      -2.114  -1.256  -1.823  1.00  0.00    -0.339 N 
ATOM     61  H   UNL     1      -1.105  -1.173  -1.831  1.00  0.00     0.164 HD
BRANCH  60  62
ATOM     62  C   UNL     1      -2.827  -1.121  -0.554  1.00  0.00     0.168 CG0
ATOM     63  C   UNL     1      -1.954  -1.562   0.614  1.00  0.00     0.041 C 
ATOM     64  G   UNL     1      -4.130  -1.945  -0.602  1.00  0.00     0.000 G0
ENDBRANCH  60  62
ENDBRANCH  56  58
ENDBRANCH  54  56
ENDBRANCH  52  54
ENDBRANCH  51  52
ENDBRANCH  50  51
ENDBRANCH  49  50
BRANCH  49  65
ATOM     65  C   UNL     1      -3.140  -0.254  -9.852  1.00  0.00     0.326 C 
ATOM     66  O   UNL     1      -3.984   0.631  -9.851  1.00  0.00    -0.250 OA
BRANCH  65  67
ATOM     67  O   UNL     1      -3.520  -1.543  -9.715  1.00  0.00    -0.480 OA
ATOM     68  H   UNL     1      -4.405  -1.480  -9.295  1.00  0.00     0.296 HD
ENDBRANCH  65  67
ENDBRANCH  49  65
ENDBRANCH  47  49
ENDBRANCH  43  45
ENDBRANCH   1  43
BRANCH   1  69
ATOM     69  C   UNL     1       2.061  -2.013 -11.087  1.00  0.00    -0.001 C 
ATOM     70  C   UNL     1       1.793  -2.596  -9.905  1.00  0.00     0.001 C 
BRANCH  70  71
ATOM     71  C   UNL     1       2.474  -2.355  -8.631  1.00  0.00    -0.055 C 
ATOM     72  C   UNL     1       3.272  -1.270  -8.542  1.00  0.00    -0.018 C 
ATOM     73  C   UNL     1       2.228  -3.329  -7.509  1.00  0.00     0.044 C 
BRANCH  72  74
ATOM     74  C   UNL     1       4.092  -0.773  -7.360  1.00  0.00     0.038 C 
ATOM     75  C   UNL     1       4.202   0.751  -7.495  1.00  0.00     0.015 C 
BRANCH  74  76
ATOM     76  C   UNL     1       5.455  -1.526  -7.343  1.00  0.00     0.128 C 
BRANCH  76  77
ATOM     77  O   UNL     1       5.426  -2.571  -6.356  1.00  0.00    -0.381 OA
ATOM     78  C   UNL     1       4.911  -2.153  -5.098  1.00  0.00     0.195 C 
ENDBRANCH  76  77
BRANCH  76  79
ATOM     79  C   UNL     1       5.913  -2.030  -8.735  1.00  0.00     0.068 C 
BRANCH  79  80
ATOM     80  C   UNL     1       7.381  -1.936  -9.073  1.00  0.00    -0.045 A 
ATOM     81  C   UNL     1       7.899  -2.554 -10.220  1.00  0.00     0.004 A 
ATOM     82  C   UNL     1       8.260  -1.248  -8.223  1.00  0.00     0.004 A 
ATOM     83  C   UNL     1       9.260  -2.474 -10.518  1.00  0.00     0.000 A 
ATOM     84  C   UNL     1       9.622  -1.170  -8.522  1.00  0.00     0.000 A 
ATOM     85  C   UNL     1      10.121  -1.781  -9.669  1.00  0.00     0.000 A 
ENDBRANCH  79  80
ENDBRANCH  76  79
ENDBRANCH  74  76
ENDBRANCH  72  74
ENDBRANCH  70  71
ENDBRANCH   1  69
TORSDOF 17
ENDMDL
MODEL 31
REMARK VINA RESULT:    -5.222     11.043     15.746
REMARK INTER + INTRA:         -24.232
REMARK INTER:                 -17.016
REMARK INTRA:                  -7.216
REMARK UNBOUND:                -8.629
REMARK SMILES C=C1C(=O)N[C@H](C)C(=O)N[C@@H](CC(C)C)C(=O)N[C@@H](C(=O)O)[C@H](C)C(=O)N[C@@H](CCCN=C(N)N)C(=O)N[C@@H](/C=C/C(C)=C/[C@H](C)[C@H](Cc2ccccc2)OC)[C@H](C)C(=O)N[C@@H](C(=O)O)CCC(=O)N1C
REMARK SMILES IDX 39 1 38 2 37 3 36 4 28 6 27 7 25 8 26 9 23 11 24 12 19 13
REMARK SMILES IDX 18 14 16 15 17 16 11 18 10 19 8 20 9 21 12 24 13 25 14 26
REMARK SMILES IDX 15 27 20 28 21 29 22 30 29 32 30 33 31 34 32 35 33 36 34 37
REMARK SMILES IDX 35 38 57 43 58 44 59 45 60 46 61 47 62 49 66 50 67 51 68 52
REMARK SMILES IDX 69 53 70 54 71 55 2 56 1 57 3 58 4 59 5 60 6 62 7 63 63 65
REMARK SMILES IDX 64 66 65 67 40 69 41 70 42 71 44 72 43 73 45 74 46 75 47 76
REMARK SMILES IDX 55 77 56 78 48 79 49 80 50 81 54 82 51 83 53 84 52 85
REMARK H PARENT 38 5 27 10 18 17 10 22 22 31 34 39 34 40 35 41 35 42 61 48
REMARK H PARENT 5 61 65 68
REMARK Flexibility Score:  369.900
ROOT
ATOM      1  C   UNL     1       0.169  -0.718   1.942  1.00  0.00     0.117 C 
ENDROOT
BRANCH   1   2
ATOM      2  N   UNL     1       1.343  -1.448   1.461  1.00  0.00    -0.347 N 
ATOM      3  O   UNL     1       2.656   0.367   0.958  1.00  0.00    -0.273 OA
ATOM      4  C   UNL     1       2.530  -0.846   1.092  1.00  0.00     0.243 C 
ATOM      5  H   UNL     1       1.321  -2.456   1.435  1.00  0.00     0.164 HD
BRANCH   4   6
ATOM      6  C   UNL     1       3.644  -1.851   0.702  1.00  0.00     0.171 C 
BRANCH   6   7
ATOM      7  N   UNL     1       4.096  -1.608  -0.677  1.00  0.00    -0.344 N 
ATOM      8  C   UNL     1       5.161  -0.771  -0.929  1.00  0.00     0.226 C 
ATOM      9  O   UNL     1       5.761  -0.178  -0.040  1.00  0.00    -0.275 OA
ATOM     10  H   UNL     1       3.584  -2.026  -1.443  1.00  0.00     0.164 HD
BRANCH   8  11
ATOM     11  C   UNL     1       5.541  -0.666  -2.396  1.00  0.00     0.109 C 
ATOM     12  C   UNL     1       5.870   0.784  -2.752  1.00  0.00     0.021 C 
BRANCH  11  13
ATOM     13  C   UNL     1       6.654  -1.682  -2.720  1.00  0.00     0.204 C 
BRANCH  13  14
ATOM     14  N   UNL     1       7.333  -2.161  -1.512  1.00  0.00    -0.340 N 
ATOM     15  C   UNL     1       8.611  -1.775  -1.169  1.00  0.00     0.243 C 
ATOM     16  O   UNL     1       9.250  -0.952  -1.822  1.00  0.00    -0.273 OA
ATOM     17  H   UNL     1       6.922  -2.954  -1.013  1.00  0.00     0.164 HD
BRANCH  15  18
ATOM     18  C   UNL     1       9.195  -2.564   0.028  1.00  0.00     0.171 C 
BRANCH  18  19
ATOM     19  N   UNL     1      10.262  -3.408  -0.508  1.00  0.00    -0.343 N 
ATOM     20  C   UNL     1       9.991  -4.558  -1.224  1.00  0.00     0.242 CG0
ATOM     21  O   UNL     1       8.847  -4.997  -1.329  1.00  0.00    -0.273 OA
ATOM     22  H   UNL     1      11.229  -3.149  -0.348  1.00  0.00     0.164 HD
ATOM     23  G   UNL     1      11.241  -5.274  -1.776  1.00  0.00     0.000 G0
ENDBRANCH  18  19
BRANCH  18  24
ATOM     24  C   UNL     1       9.723  -1.606   1.103  1.00  0.00     0.038 C 
BRANCH  24  25
ATOM     25  C   UNL     1       9.102  -1.802   2.502  1.00  0.00    -0.015 C 
ATOM     26  C   UNL     1       9.406  -0.638   3.446  1.00  0.00     0.007 C 
ATOM     27  C   UNL     1       9.614  -3.109   3.114  1.00  0.00     0.007 C 
ENDBRANCH  24  25
ENDBRANCH  18  24
ENDBRANCH  15  18
ENDBRANCH  13  14
BRANCH  13  28
ATOM     28  C   UNL     1       6.145  -2.915  -3.473  1.00  0.00     0.327 C 
ATOM     29  O   UNL     1       5.030  -3.061  -3.951  1.00  0.00    -0.250 OA
BRANCH  28  30
ATOM     30  O   UNL     1       7.028  -3.934  -3.477  1.00  0.00    -0.480 OA
ATOM     31  H   UNL     1       6.627  -4.599  -4.074  1.00  0.00     0.296 HD
ENDBRANCH  28  30
ENDBRANCH  13  28
ENDBRANCH  11  13
ENDBRANCH   8  11
ENDBRANCH   6   7
BRANCH   6  32
ATOM     32  C   UNL     1       4.807  -1.722   1.691  1.00  0.00     0.037 C 
BRANCH  32  33
ATOM     33  C   UNL     1       5.175  -3.067   2.332  1.00  0.00     0.026 C 
BRANCH  33  34
ATOM     34  C   UNL     1       6.274  -3.801   1.562  1.00  0.00     0.146 C 
BRANCH  34  35
ATOM     35  N   UNL     1       5.773  -4.141   0.238  1.00  0.00    -0.254 NA
ATOM     36  C   UNL     1       5.995  -5.317  -0.220  1.00  0.00     0.185 C 
ATOM     37  N   UNL     1       5.533  -5.643  -1.437  1.00  0.00    -0.370 N 
ATOM     38  N   UNL     1       6.653  -6.338   0.358  1.00  0.00    -0.370 N 
ATOM     39  H   UNL     1       5.016  -4.928  -1.933  1.00  0.00     0.159 HD
ATOM     40  H   UNL     1       5.513  -6.584  -1.790  1.00  0.00     0.159 HD
ATOM     41  H   UNL     1       6.882  -7.170  -0.161  1.00  0.00     0.159 HD
ATOM     42  H   UNL     1       7.069  -6.229   1.270  1.00  0.00     0.159 HD
ENDBRANCH  34  35
ENDBRANCH  33  34
ENDBRANCH  32  33
ENDBRANCH   6  32
ENDBRANCH   4   6
ENDBRANCH   1   2
BRANCH   1  43
ATOM     43  C   UNL     1      -0.321   0.233   0.812  1.00  0.00     0.102 C 
ATOM     44  C   UNL     1      -1.252   1.350   1.313  1.00  0.00     0.020 C 
BRANCH  43  45
ATOM     45  C   UNL     1      -0.884  -0.562  -0.370  1.00  0.00     0.225 C 
ATOM     46  O   UNL     1      -0.234  -0.812  -1.381  1.00  0.00    -0.275 OA
ATOM     47  N   UNL     1      -2.212  -0.907  -0.272  1.00  0.00    -0.342 N 
ATOM     48  H   UNL     1      -2.685  -0.830   0.617  1.00  0.00     0.164 HD
BRANCH  47  49
ATOM     49  C   UNL     1      -2.877  -1.699  -1.312  1.00  0.00     0.192 C 
BRANCH  49  50
ATOM     50  C   UNL     1      -4.226  -1.066  -1.658  1.00  0.00     0.047 C 
BRANCH  50  51
ATOM     51  C   UNL     1      -4.636   0.017  -0.651  1.00  0.00     0.103 C 
BRANCH  51  52
ATOM     52  C   UNL     1      -5.471  -0.552   0.495  1.00  0.00     0.226 C 
ATOM     53  O   UNL     1      -4.918  -1.187   1.395  1.00  0.00    -0.275 OA
BRANCH  52  54
ATOM     54  N   UNL     1      -6.843  -0.240   0.486  1.00  0.00    -0.311 N 
ATOM     55  C   UNL     1      -7.690  -0.589  -0.662  1.00  0.00     0.153 C 
BRANCH  54  56
ATOM     56  C   UNL     1      -7.454   0.408   1.573  1.00  0.00     0.102 C 
ATOM     57  C   UNL     1      -7.448   1.735   1.778  1.00  0.00     0.043 C 
BRANCH  56  58
ATOM     58  C   UNL     1      -8.231  -0.375   2.605  1.00  0.00     0.268 C 
ATOM     59  O   UNL     1      -9.454  -0.401   2.644  1.00  0.00    -0.268 OA
ATOM     60  N   UNL     1      -7.427  -1.104   3.448  1.00  0.00    -0.339 N 
ATOM     61  H   UNL     1      -6.422  -1.019   3.357  1.00  0.00     0.164 HD
BRANCH  60  62
ATOM     62  C   UNL     1      -7.975  -1.981   4.482  1.00  0.00     0.168 CG0
ATOM     63  C   UNL     1      -7.970  -3.435   4.024  1.00  0.00     0.041 C 
ATOM     64  G   UNL     1      -9.405  -1.527   4.840  1.00  0.00     0.000 G0
ENDBRANCH  60  62
ENDBRANCH  56  58
ENDBRANCH  54  56
ENDBRANCH  52  54
ENDBRANCH  51  52
ENDBRANCH  50  51
ENDBRANCH  49  50
BRANCH  49  65
ATOM     65  C   UNL     1      -3.097  -3.152  -0.862  1.00  0.00     0.326 C 
ATOM     66  O   UNL     1      -3.267  -4.108  -1.606  1.00  0.00    -0.250 OA
BRANCH  65  67
ATOM     67  O   UNL     1      -3.154  -3.326   0.476  1.00  0.00    -0.480 OA
ATOM     68  H   UNL     1      -3.986  -3.829   0.609  1.00  0.00     0.296 HD
ENDBRANCH  65  67
ENDBRANCH  49  65
ENDBRANCH  47  49
ENDBRANCH  43  45
ENDBRANCH   1  43
BRANCH   1  69
ATOM     69  C   UNL     1       0.561  -0.123   3.283  1.00  0.00    -0.001 C 
ATOM     70  C   UNL     1       1.032  -0.775   4.360  1.00  0.00     0.001 C 
BRANCH  70  71
ATOM     71  C   UNL     1       1.427  -0.187   5.641  1.00  0.00    -0.055 C 
ATOM     72  C   UNL     1       2.737  -0.213   5.967  1.00  0.00    -0.018 C 
ATOM     73  C   UNL     1       0.345   0.412   6.502  1.00  0.00     0.044 C 
BRANCH  72  74
ATOM     74  C   UNL     1       3.430   0.318   7.213  1.00  0.00     0.038 C 
ATOM     75  C   UNL     1       3.759   1.793   6.955  1.00  0.00     0.015 C 
BRANCH  74  76
ATOM     76  C   UNL     1       4.663  -0.582   7.522  1.00  0.00     0.128 C 
BRANCH  76  77
ATOM     77  O   UNL     1       4.239  -1.783   8.188  1.00  0.00    -0.381 OA
ATOM     78  C   UNL     1       4.779  -1.933   9.495  1.00  0.00     0.195 C 
ENDBRANCH  76  77
BRANCH  76  79
ATOM     79  C   UNL     1       5.561  -0.864   6.291  1.00  0.00     0.068 C 
BRANCH  79  80
ATOM     80  C   UNL     1       7.021  -1.161   6.535  1.00  0.00    -0.045 A 
ATOM     81  C   UNL     1       7.518  -2.467   6.429  1.00  0.00     0.004 A 
ATOM     82  C   UNL     1       7.901  -0.131   6.900  1.00  0.00     0.004 A 
ATOM     83  C   UNL     1       8.867  -2.736   6.670  1.00  0.00     0.000 A 
ATOM     84  C   UNL     1       9.250  -0.402   7.141  1.00  0.00     0.000 A 
ATOM     85  C   UNL     1       9.733  -1.703   7.024  1.00  0.00     0.000 A 
ENDBRANCH  79  80
ENDBRANCH  76  79
ENDBRANCH  74  76
ENDBRANCH  72  74
ENDBRANCH  70  71
ENDBRANCH   1  69
TORSDOF 17
ENDMDL
MODEL 32
REMARK VINA RESULT:    -5.220      5.524      9.641
REMARK INTER + INTRA:         -24.225
REMARK INTER:                 -17.173
REMARK INTRA:                  -7.051
REMARK UNBOUND:                -8.629
REMARK SMILES C=C1C(=O)N[C@H](C)C(=O)N[C@@H](CC(C)C)C(=O)N[C@@H](C(=O)O)[C@H](C)C(=O)N[C@@H](CCCN=C(N)N)C(=O)N[C@@H](/C=C/C(C)=C/[C@H](C)[C@H](Cc2ccccc2)OC)[C@H](C)C(=O)N[C@@H](C(=O)O)CCC(=O)N1C
REMARK SMILES IDX 39 1 38 2 37 3 36 4 28 6 27 7 25 8 26 9 23 11 24 12 19 13
REMARK SMILES IDX 18 14 16 15 17 16 11 18 10 19 8 20 9 21 12 24 13 25 14 26
REMARK SMILES IDX 15 27 20 28 21 29 22 30 29 32 30 33 31 34 32 35 33 36 34 37
REMARK SMILES IDX 35 38 57 43 58 44 59 45 60 46 61 47 62 49 66 50 67 51 68 52
REMARK SMILES IDX 69 53 70 54 71 55 2 56 1 57 3 58 4 59 5 60 6 62 7 63 63 65
REMARK SMILES IDX 64 66 65 67 40 69 41 70 42 71 44 72 43 73 45 74 46 75 47 76
REMARK SMILES IDX 55 77 56 78 48 79 49 80 50 81 54 82 51 83 53 84 52 85
REMARK H PARENT 38 5 27 10 18 17 10 22 22 31 34 39 34 40 35 41 35 42 61 48
REMARK H PARENT 5 61 65 68
REMARK Flexibility Score:  369.900
ROOT
ATOM      1  C   UNL     1       4.573   1.150 -16.641  1.00  0.00     0.117 C 
ENDROOT
BRANCH   1   2
ATOM      2  N   UNL     1       5.072  -0.210 -16.436  1.00  0.00    -0.347 N 
ATOM      3  O   UNL     1       4.756  -0.985 -18.574  1.00  0.00    -0.273 OA
ATOM      4  C   UNL     1       5.210  -1.144 -17.445  1.00  0.00     0.243 C 
ATOM      5  H   UNL     1       5.388  -0.488 -15.519  1.00  0.00     0.164 HD
BRANCH   4   6
ATOM      6  C   UNL     1       5.843  -2.479 -16.977  1.00  0.00     0.171 C 
BRANCH   6   7
ATOM      7  N   UNL     1       7.260  -2.542 -17.370  1.00  0.00    -0.344 N 
ATOM      8  C   UNL     1       7.786  -3.691 -17.920  1.00  0.00     0.226 C 
ATOM      9  O   UNL     1       7.122  -4.707 -18.087  1.00  0.00    -0.275 OA
ATOM     10  H   UNL     1       7.856  -1.745 -17.185  1.00  0.00     0.164 HD
BRANCH   8  11
ATOM     11  C   UNL     1       9.246  -3.579 -18.322  1.00  0.00     0.109 C 
ATOM     12  C   UNL     1       9.510  -2.222 -18.974  1.00  0.00     0.021 C 
BRANCH  11  13
ATOM     13  C   UNL     1      10.146  -3.904 -17.113  1.00  0.00     0.204 C 
BRANCH  13  14
ATOM     14  N   UNL     1      10.374  -2.731 -16.264  1.00  0.00    -0.340 N 
ATOM     15  C   UNL     1      11.524  -2.553 -15.526  1.00  0.00     0.243 C 
ATOM     16  O   UNL     1      12.468  -3.339 -15.575  1.00  0.00    -0.273 OA
ATOM     17  H   UNL     1       9.576  -2.122 -16.061  1.00  0.00     0.164 HD
BRANCH  15  18
ATOM     18  C   UNL     1      11.453  -1.353 -14.550  1.00  0.00     0.171 C 
BRANCH  18  19
ATOM     19  N   UNL     1      11.900  -1.845 -13.248  1.00  0.00    -0.343 N 
ATOM     20  C   UNL     1      11.238  -1.521 -12.080  1.00  0.00     0.242 CG0
ATOM     21  O   UNL     1      10.325  -0.698 -12.064  1.00  0.00    -0.273 OA
ATOM     22  H   UNL     1      12.722  -2.437 -13.195  1.00  0.00     0.164 HD
ATOM     23  G   UNL     1      11.808  -2.197 -10.816  1.00  0.00     0.000 G0
ENDBRANCH  18  19
BRANCH  18  24
ATOM     24  C   UNL     1      12.332  -0.198 -15.046  1.00  0.00     0.038 C 
BRANCH  24  25
ATOM     25  C   UNL     1      11.647   1.185 -15.034  1.00  0.00    -0.015 C 
ATOM     26  C   UNL     1      11.894   1.949 -13.734  1.00  0.00     0.007 C 
ATOM     27  C   UNL     1      10.142   1.015 -15.254  1.00  0.00     0.007 C 
ENDBRANCH  24  25
ENDBRANCH  18  24
ENDBRANCH  15  18
ENDBRANCH  13  14
BRANCH  13  28
ATOM     28  C   UNL     1       9.579  -5.009 -16.218  1.00  0.00     0.327 C 
ATOM     29  O   UNL     1       9.216  -4.885 -15.058  1.00  0.00    -0.250 OA
BRANCH  28  30
ATOM     30  O   UNL     1       9.612  -6.227 -16.795  1.00  0.00    -0.480 OA
ATOM     31  H   UNL     1       9.671  -6.037 -17.755  1.00  0.00     0.296 HD
ENDBRANCH  28  30
ENDBRANCH  13  28
ENDBRANCH  11  13
ENDBRANCH   8  11
ENDBRANCH   6   7
BRANCH   6  32
ATOM     32  C   UNL     1       5.690  -2.603 -15.457  1.00  0.00     0.037 C 
BRANCH  32  33
ATOM     33  C   UNL     1       6.929  -2.093 -14.707  1.00  0.00     0.026 C 
BRANCH  33  34
ATOM     34  C   UNL     1       7.032  -2.665 -13.292  1.00  0.00     0.146 C 
BRANCH  34  35
ATOM     35  N   UNL     1       6.353  -3.952 -13.255  1.00  0.00    -0.254 NA
ATOM     36  C   UNL     1       6.942  -4.942 -12.694  1.00  0.00     0.185 C 
ATOM     37  N   UNL     1       6.324  -6.132 -12.650  1.00  0.00    -0.370 N 
ATOM     38  N   UNL     1       8.152  -4.983 -12.109  1.00  0.00    -0.370 N 
ATOM     39  H   UNL     1       5.401  -6.179 -13.062  1.00  0.00     0.159 HD
ATOM     40  H   UNL     1       6.638  -6.901 -12.083  1.00  0.00     0.159 HD
ATOM     41  H   UNL     1       8.565  -5.857 -11.826  1.00  0.00     0.159 HD
ATOM     42  H   UNL     1       8.737  -4.162 -12.083  1.00  0.00     0.159 HD
ENDBRANCH  34  35
ENDBRANCH  33  34
ENDBRANCH  32  33
ENDBRANCH   6  32
ENDBRANCH   4   6
ENDBRANCH   1   2
BRANCH   1  43
ATOM     43  C   UNL     1       5.711   2.153 -16.293  1.00  0.00     0.102 C 
ATOM     44  C   UNL     1       6.351   1.898 -14.918  1.00  0.00     0.020 C 
BRANCH  43  45
ATOM     45  C   UNL     1       5.254   3.599 -16.507  1.00  0.00     0.225 C 
ATOM     46  O   UNL     1       5.223   4.433 -15.607  1.00  0.00    -0.275 OA
ATOM     47  N   UNL     1       4.784   3.891 -17.767  1.00  0.00    -0.342 N 
ATOM     48  H   UNL     1       4.957   3.248 -18.527  1.00  0.00     0.164 HD
BRANCH  47  49
ATOM     49  C   UNL     1       4.347   5.243 -18.127  1.00  0.00     0.192 C 
BRANCH  49  50
ATOM     50  C   UNL     1       2.926   5.190 -18.694  1.00  0.00     0.047 C 
BRANCH  50  51
ATOM     51  C   UNL     1       1.878   4.899 -17.611  1.00  0.00     0.103 C 
BRANCH  51  52
ATOM     52  C   UNL     1       0.591   4.324 -18.199  1.00  0.00     0.226 C 
ATOM     53  O   UNL     1       0.653   3.474 -19.089  1.00  0.00    -0.275 OA
BRANCH  52  54
ATOM     54  N   UNL     1      -0.614   4.761 -17.616  1.00  0.00    -0.311 N 
ATOM     55  C   UNL     1      -0.718   4.980 -16.168  1.00  0.00     0.153 C 
BRANCH  54  56
ATOM     56  C   UNL     1      -1.756   5.009 -18.395  1.00  0.00     0.102 C 
ATOM     57  C   UNL     1      -2.516   4.061 -18.968  1.00  0.00     0.043 C 
BRANCH  56  58
ATOM     58  C   UNL     1      -2.255   6.418 -18.614  1.00  0.00     0.268 C 
ATOM     59  O   UNL     1      -1.549   7.317 -19.051  1.00  0.00    -0.268 OA
ATOM     60  N   UNL     1      -3.592   6.567 -18.337  1.00  0.00    -0.339 N 
ATOM     61  H   UNL     1      -4.105   5.775 -17.968  1.00  0.00     0.164 HD
BRANCH  60  62
ATOM     62  C   UNL     1      -4.293   7.834 -18.539  1.00  0.00     0.168 CG0
ATOM     63  C   UNL     1      -3.999   8.810 -17.406  1.00  0.00     0.041 C 
ATOM     64  G   UNL     1      -5.809   7.574 -18.655  1.00  0.00     0.000 G0
ENDBRANCH  60  62
ENDBRANCH  56  58
ENDBRANCH  54  56
ENDBRANCH  52  54
ENDBRANCH  51  52
ENDBRANCH  50  51
ENDBRANCH  49  50
BRANCH  49  65
ATOM     65  C   UNL     1       5.284   5.885 -19.162  1.00  0.00     0.326 C 
ATOM     66  O   UNL     1       6.311   5.385 -19.597  1.00  0.00    -0.250 OA
BRANCH  65  67
ATOM     67  O   UNL     1       4.928   7.129 -19.551  1.00  0.00    -0.480 OA
ATOM     68  H   UNL     1       5.533   7.320 -20.300  1.00  0.00     0.296 HD
ENDBRANCH  65  67
ENDBRANCH  49  65
ENDBRANCH  47  49
ENDBRANCH  43  45
ENDBRANCH   1  43
BRANCH   1  69
ATOM     69  C   UNL     1       3.260   1.238 -15.885  1.00  0.00    -0.001 C 
ATOM     70  C   UNL     1       2.032   1.428 -16.399  1.00  0.00     0.001 C 
BRANCH  70  71
ATOM     71  C   UNL     1       0.769   1.490 -15.660  1.00  0.00    -0.055 C 
ATOM     72  C   UNL     1       0.826   1.779 -14.343  1.00  0.00    -0.018 C 
ATOM     73  C   UNL     1      -0.504   1.235 -16.424  1.00  0.00     0.044 C 
BRANCH  72  74
ATOM     74  C   UNL     1      -0.308   1.912 -13.337  1.00  0.00     0.038 C 
ATOM     75  C   UNL     1      -0.271   3.348 -12.800  1.00  0.00     0.015 C 
BRANCH  74  76
ATOM     76  C   UNL     1      -0.147   0.805 -12.252  1.00  0.00     0.128 C 
BRANCH  76  77
ATOM     77  O   UNL     1      -1.270   0.831 -11.355  1.00  0.00    -0.381 OA
ATOM     78  C   UNL     1      -0.904   0.844  -9.982  1.00  0.00     0.195 C 
ENDBRANCH  76  77
BRANCH  76  79
ATOM     79  C   UNL     1       0.128  -0.606 -12.829  1.00  0.00     0.068 C 
BRANCH  79  80
ATOM     80  C   UNL     1       1.361  -1.336 -12.355  1.00  0.00    -0.045 A 
ATOM     81  C   UNL     1       1.306  -2.210 -11.261  1.00  0.00     0.004 A 
ATOM     82  C   UNL     1       2.595  -1.127 -12.989  1.00  0.00     0.004 A 
ATOM     83  C   UNL     1       2.454  -2.871 -10.819  1.00  0.00     0.000 A 
ATOM     84  C   UNL     1       3.742  -1.788 -12.546  1.00  0.00     0.000 A 
ATOM     85  C   UNL     1       3.672  -2.660 -11.463  1.00  0.00     0.000 A 
ENDBRANCH  79  80
ENDBRANCH  76  79
ENDBRANCH  74  76
ENDBRANCH  72  74
ENDBRANCH  70  71
ENDBRANCH   1  69
TORSDOF 17
ENDMDL
MODEL 33
REMARK VINA RESULT:    -5.212     10.799     16.525
REMARK INTER + INTRA:         -24.200
REMARK INTER:                 -17.084
REMARK INTRA:                  -7.115
REMARK UNBOUND:                -8.629
REMARK SMILES C=C1C(=O)N[C@H](C)C(=O)N[C@@H](CC(C)C)C(=O)N[C@@H](C(=O)O)[C@H](C)C(=O)N[C@@H](CCCN=C(N)N)C(=O)N[C@@H](/C=C/C(C)=C/[C@H](C)[C@H](Cc2ccccc2)OC)[C@H](C)C(=O)N[C@@H](C(=O)O)CCC(=O)N1C
REMARK SMILES IDX 39 1 38 2 37 3 36 4 28 6 27 7 25 8 26 9 23 11 24 12 19 13
REMARK SMILES IDX 18 14 16 15 17 16 11 18 10 19 8 20 9 21 12 24 13 25 14 26
REMARK SMILES IDX 15 27 20 28 21 29 22 30 29 32 30 33 31 34 32 35 33 36 34 37
REMARK SMILES IDX 35 38 57 43 58 44 59 45 60 46 61 47 62 49 66 50 67 51 68 52
REMARK SMILES IDX 69 53 70 54 71 55 2 56 1 57 3 58 4 59 5 60 6 62 7 63 63 65
REMARK SMILES IDX 64 66 65 67 40 69 41 70 42 71 44 72 43 73 45 74 46 75 47 76
REMARK SMILES IDX 55 77 56 78 48 79 49 80 50 81 54 82 51 83 53 84 52 85
REMARK H PARENT 38 5 27 10 18 17 10 22 22 31 34 39 34 40 35 41 35 42 61 48
REMARK H PARENT 5 61 65 68
REMARK Flexibility Score:  369.900
ROOT
ATOM      1  C   UNL     1       2.225  -0.779   2.623  1.00  0.00     0.117 C 
ENDROOT
BRANCH   1   2
ATOM      2  N   UNL     1       3.428  -1.311   1.983  1.00  0.00    -0.347 N 
ATOM      3  O   UNL     1       2.589  -3.366   1.399  1.00  0.00    -0.273 OA
ATOM      4  C   UNL     1       3.486  -2.532   1.339  1.00  0.00     0.243 C 
ATOM      5  H   UNL     1       4.265  -0.747   1.956  1.00  0.00     0.164 HD
BRANCH   4   6
ATOM      6  C   UNL     1       4.854  -2.820   0.670  1.00  0.00     0.171 C 
BRANCH   6   7
ATOM      7  N   UNL     1       5.956  -2.459   1.576  1.00  0.00    -0.344 N 
ATOM      8  C   UNL     1       7.134  -1.944   1.080  1.00  0.00     0.226 C 
ATOM      9  O   UNL     1       7.331  -1.784  -0.119  1.00  0.00    -0.275 OA
ATOM     10  H   UNL     1       5.855  -2.639   2.567  1.00  0.00     0.164 HD
BRANCH   8  11
ATOM     11  C   UNL     1       8.151  -1.571   2.144  1.00  0.00     0.109 C 
ATOM     12  C   UNL     1       7.438  -1.180   3.439  1.00  0.00     0.021 C 
BRANCH  11  13
ATOM     13  C   UNL     1       9.190  -2.700   2.291  1.00  0.00     0.204 C 
BRANCH  13  14
ATOM     14  N   UNL     1       9.184  -3.284   3.636  1.00  0.00    -0.340 N 
ATOM     15  C   UNL     1      10.297  -3.862   4.206  1.00  0.00     0.243 C 
ATOM     16  O   UNL     1      11.393  -3.875   3.649  1.00  0.00    -0.273 OA
ATOM     17  H   UNL     1       8.278  -3.442   4.087  1.00  0.00     0.164 HD
BRANCH  15  18
ATOM     18  C   UNL     1      10.001  -4.594   5.538  1.00  0.00     0.171 C 
BRANCH  18  19
ATOM     19  N   UNL     1      10.652  -5.899   5.453  1.00  0.00    -0.343 N 
ATOM     20  C   UNL     1      10.059  -6.969   4.811  1.00  0.00     0.242 CG0
ATOM     21  O   UNL     1       8.903  -6.912   4.399  1.00  0.00    -0.273 OA
ATOM     22  H   UNL     1      11.562  -6.030   5.881  1.00  0.00     0.164 HD
ATOM     23  G   UNL     1      10.931  -8.241   4.755  1.00  0.00     0.000 G0
ENDBRANCH  18  19
BRANCH  18  24
ATOM     24  C   UNL     1      10.523  -3.781   6.730  1.00  0.00     0.038 C 
BRANCH  24  25
ATOM     25  C   UNL     1       9.454  -3.425   7.785  1.00  0.00    -0.015 C 
ATOM     26  C   UNL     1       9.209  -4.562   8.777  1.00  0.00     0.007 C 
ATOM     27  C   UNL     1       8.143  -3.059   7.085  1.00  0.00     0.007 C 
ENDBRANCH  24  25
ENDBRANCH  18  24
ENDBRANCH  15  18
ENDBRANCH  13  14
BRANCH  13  28
ATOM     28  C   UNL     1       8.980  -3.847   1.297  1.00  0.00     0.327 C 
ATOM     29  O   UNL     1       8.210  -4.785   1.429  1.00  0.00    -0.250 OA
BRANCH  28  30
ATOM     30  O   UNL     1       9.837  -3.807   0.256  1.00  0.00    -0.480 OA
ATOM     31  H   UNL     1       9.976  -2.851   0.095  1.00  0.00     0.296 HD
ENDBRANCH  28  30
ENDBRANCH  13  28
ENDBRANCH  11  13
ENDBRANCH   8  11
ENDBRANCH   6   7
BRANCH   6  32
ATOM     32  C   UNL     1       4.924  -4.302   0.286  1.00  0.00     0.037 C 
BRANCH  32  33
ATOM     33  C   UNL     1       4.399  -4.558  -1.133  1.00  0.00     0.026 C 
BRANCH  33  34
ATOM     34  C   UNL     1       5.518  -4.593  -2.175  1.00  0.00     0.146 C 
BRANCH  34  35
ATOM     35  N   UNL     1       6.672  -5.271  -1.601  1.00  0.00    -0.254 NA
ATOM     36  C   UNL     1       7.825  -5.071  -2.125  1.00  0.00     0.185 C 
ATOM     37  N   UNL     1       8.896  -5.687  -1.601  1.00  0.00    -0.370 N 
ATOM     38  N   UNL     1       8.153  -4.299  -3.175  1.00  0.00    -0.370 N 
ATOM     39  H   UNL     1       8.731  -6.280  -0.798  1.00  0.00     0.159 HD
ATOM     40  H   UNL     1       9.844  -5.451  -1.839  1.00  0.00     0.159 HD
ATOM     41  H   UNL     1       9.075  -4.333  -3.579  1.00  0.00     0.159 HD
ATOM     42  H   UNL     1       7.444  -3.788  -3.677  1.00  0.00     0.159 HD
ENDBRANCH  34  35
ENDBRANCH  33  34
ENDBRANCH  32  33
ENDBRANCH   6  32
ENDBRANCH   4   6
ENDBRANCH   1   2
BRANCH   1  43
ATOM     43  C   UNL     1       1.574   0.261   1.667  1.00  0.00     0.102 C 
ATOM     44  C   UNL     1       0.822   1.383   2.403  1.00  0.00     0.020 C 
BRANCH  43  45
ATOM     45  C   UNL     1       0.746  -0.433   0.581  1.00  0.00     0.225 C 
ATOM     46  O   UNL     1       1.222  -0.812  -0.486  1.00  0.00    -0.275 OA
ATOM     47  N   UNL     1      -0.603  -0.526   0.834  1.00  0.00    -0.342 N 
ATOM     48  H   UNL     1      -0.951  -0.352   1.766  1.00  0.00     0.164 HD
BRANCH  47  49
ATOM     49  C   UNL     1      -1.513  -1.198  -0.100  1.00  0.00     0.192 C 
BRANCH  49  50
ATOM     50  C   UNL     1      -1.995  -0.199  -1.156  1.00  0.00     0.047 C 
BRANCH  50  51
ATOM     51  C   UNL     1      -2.966  -0.837  -2.159  1.00  0.00     0.103 C 
BRANCH  51  52
ATOM     52  C   UNL     1      -2.243  -1.717  -3.176  1.00  0.00     0.226 C 
ATOM     53  O   UNL     1      -2.347  -2.943  -3.105  1.00  0.00    -0.275 OA
BRANCH  52  54
ATOM     54  N   UNL     1      -1.548  -1.049  -4.201  1.00  0.00    -0.311 N 
ATOM     55  C   UNL     1      -0.091  -1.178  -4.335  1.00  0.00     0.153 C 
BRANCH  54  56
ATOM     56  C   UNL     1      -2.218  -0.242  -5.135  1.00  0.00     0.102 C 
ATOM     57  C   UNL     1      -2.444   1.074  -4.992  1.00  0.00     0.043 C 
BRANCH  56  58
ATOM     58  C   UNL     1      -2.712  -0.816  -6.442  1.00  0.00     0.268 C 
ATOM     59  O   UNL     1      -3.448  -1.791  -6.510  1.00  0.00    -0.268 OA
ATOM     60  N   UNL     1      -2.305  -0.093  -7.538  1.00  0.00    -0.339 N 
ATOM     61  H   UNL     1      -1.687   0.697  -7.398  1.00  0.00     0.164 HD
BRANCH  60  62
ATOM     62  C   UNL     1      -2.722  -0.437  -8.897  1.00  0.00     0.168 CG0
ATOM     63  C   UNL     1      -2.727   0.793  -9.796  1.00  0.00     0.041 C 
ATOM     64  G   UNL     1      -4.119  -1.091  -8.859  1.00  0.00     0.000 G0
ENDBRANCH  60  62
ENDBRANCH  56  58
ENDBRANCH  54  56
ENDBRANCH  52  54
ENDBRANCH  51  52
ENDBRANCH  50  51
ENDBRANCH  49  50
BRANCH  49  65
ATOM     65  C   UNL     1      -2.727  -1.798   0.625  1.00  0.00     0.326 C 
ATOM     66  O   UNL     1      -3.126  -2.948   0.511  1.00  0.00    -0.250 OA
BRANCH  65  67
ATOM     67  O   UNL     1      -3.410  -0.926   1.399  1.00  0.00    -0.480 OA
ATOM     68  H   UNL     1      -4.342  -1.043   1.113  1.00  0.00     0.296 HD
ENDBRANCH  65  67
ENDBRANCH  49  65
ENDBRANCH  47  49
ENDBRANCH  43  45
ENDBRANCH   1  43
BRANCH   1  69
ATOM     69  C   UNL     1       2.645  -0.335   4.013  1.00  0.00    -0.001 C 
ATOM     70  C   UNL     1       3.882  -0.364   4.540  1.00  0.00     0.001 C 
BRANCH  70  71
ATOM     71  C   UNL     1       4.279   0.088   5.876  1.00  0.00    -0.055 C 
ATOM     72  C   UNL     1       5.285  -0.572   6.488  1.00  0.00    -0.018 C 
ATOM     73  C   UNL     1       3.543   1.261   6.468  1.00  0.00     0.044 C 
BRANCH  72  74
ATOM     74  C   UNL     1       5.905  -0.328   7.856  1.00  0.00     0.038 C 
ATOM     75  C   UNL     1       4.757  -0.289   8.872  1.00  0.00     0.015 C 
BRANCH  74  76
ATOM     76  C   UNL     1       6.765   0.969   7.793  1.00  0.00     0.128 C 
BRANCH  76  77
ATOM     77  O   UNL     1       6.366   1.874   8.836  1.00  0.00    -0.381 OA
ATOM     78  C   UNL     1       7.075   3.106   8.825  1.00  0.00     0.195 C 
ENDBRANCH  76  77
BRANCH  76  79
ATOM     79  C   UNL     1       8.293   0.710   7.774  1.00  0.00     0.068 C 
BRANCH  79  80
ATOM     80  C   UNL     1       9.012   0.816   6.451  1.00  0.00    -0.045 A 
ATOM     81  C   UNL     1       8.664   1.801   5.517  1.00  0.00     0.004 A 
ATOM     82  C   UNL     1      10.028  -0.095   6.123  1.00  0.00     0.004 A 
ATOM     83  C   UNL     1       9.324   1.883   4.289  1.00  0.00     0.000 A 
ATOM     84  C   UNL     1      10.687  -0.012   4.895  1.00  0.00     0.000 A 
ATOM     85  C   UNL     1      10.336   0.978   3.979  1.00  0.00     0.000 A 
ENDBRANCH  79  80
ENDBRANCH  76  79
ENDBRANCH  74  76
ENDBRANCH  72  74
ENDBRANCH  70  71
ENDBRANCH   1  69
TORSDOF 17
ENDMDL
MODEL 34
REMARK VINA RESULT:    -5.200      3.299     11.040
REMARK INTER + INTRA:         -24.166
REMARK INTER:                 -17.857
REMARK INTRA:                  -6.309
REMARK UNBOUND:                -8.629
REMARK SMILES C=C1C(=O)N[C@H](C)C(=O)N[C@@H](CC(C)C)C(=O)N[C@@H](C(=O)O)[C@H](C)C(=O)N[C@@H](CCCN=C(N)N)C(=O)N[C@@H](/C=C/C(C)=C/[C@H](C)[C@H](Cc2ccccc2)OC)[C@H](C)C(=O)N[C@@H](C(=O)O)CCC(=O)N1C
REMARK SMILES IDX 39 1 38 2 37 3 36 4 28 6 27 7 25 8 26 9 23 11 24 12 19 13
REMARK SMILES IDX 18 14 16 15 17 16 11 18 10 19 8 20 9 21 12 24 13 25 14 26
REMARK SMILES IDX 15 27 20 28 21 29 22 30 29 32 30 33 31 34 32 35 33 36 34 37
REMARK SMILES IDX 35 38 57 43 58 44 59 45 60 46 61 47 62 49 66 50 67 51 68 52
REMARK SMILES IDX 69 53 70 54 71 55 2 56 1 57 3 58 4 59 5 60 6 62 7 63 63 65
REMARK SMILES IDX 64 66 65 67 40 69 41 70 42 71 44 72 43 73 45 74 46 75 47 76
REMARK SMILES IDX 55 77 56 78 48 79 49 80 50 81 54 82 51 83 53 84 52 85
REMARK H PARENT 38 5 27 10 18 17 10 22 22 31 34 39 34 40 35 41 35 42 61 48
REMARK H PARENT 5 61 65 68
REMARK Flexibility Score:  369.900
ROOT
ATOM      1  C   UNL     1       6.223  -2.217 -10.834  1.00  0.00     0.117 C 
ENDROOT
BRANCH   1   2
ATOM      2  N   UNL     1       6.057  -2.364  -9.387  1.00  0.00    -0.347 N 
ATOM      3  O   UNL     1       4.880  -0.429  -9.010  1.00  0.00    -0.273 OA
ATOM      4  C   UNL     1       5.317  -1.501  -8.603  1.00  0.00     0.243 C 
ATOM      5  H   UNL     1       6.458  -3.164  -8.922  1.00  0.00     0.164 HD
BRANCH   4   6
ATOM      6  C   UNL     1       5.229  -1.930  -7.116  1.00  0.00     0.171 C 
BRANCH   6   7
ATOM      7  N   UNL     1       4.420  -0.969  -6.350  1.00  0.00    -0.344 N 
ATOM      8  C   UNL     1       5.021  -0.048  -5.520  1.00  0.00     0.226 C 
ATOM      9  O   UNL     1       6.235   0.004  -5.361  1.00  0.00    -0.275 OA
ATOM     10  H   UNL     1       3.410  -1.025  -6.404  1.00  0.00     0.164 HD
BRANCH   8  11
ATOM     11  C   UNL     1       4.055   0.908  -4.842  1.00  0.00     0.109 C 
ATOM     12  C   UNL     1       3.066   1.468  -5.864  1.00  0.00     0.021 C 
BRANCH  11  13
ATOM     13  C   UNL     1       3.408   0.219  -3.624  1.00  0.00     0.204 C 
BRANCH  13  14
ATOM     14  N   UNL     1       4.298  -0.775  -3.016  1.00  0.00    -0.340 N 
ATOM     15  C   UNL     1       4.113  -2.133  -3.161  1.00  0.00     0.243 C 
ATOM     16  O   UNL     1       3.222  -2.607  -3.864  1.00  0.00    -0.273 OA
ATOM     17  H   UNL     1       4.959  -0.456  -2.303  1.00  0.00     0.164 HD
BRANCH  15  18
ATOM     18  C   UNL     1       5.045  -2.984  -2.264  1.00  0.00     0.171 C 
BRANCH  18  19
ATOM     19  N   UNL     1       4.304  -4.197  -1.922  1.00  0.00    -0.343 N 
ATOM     20  C   UNL     1       4.078  -4.567  -0.610  1.00  0.00     0.242 CG0
ATOM     21  O   UNL     1       4.601  -3.968   0.327  1.00  0.00    -0.273 OA
ATOM     22  H   UNL     1       3.950  -4.789  -2.664  1.00  0.00     0.164 HD
ATOM     23  G   UNL     1       3.211  -5.832  -0.446  1.00  0.00     0.000 G0
ENDBRANCH  18  19
BRANCH  18  24
ATOM     24  C   UNL     1       6.351  -3.311  -2.997  1.00  0.00     0.038 C 
BRANCH  24  25
ATOM     25  C   UNL     1       7.581  -3.479  -2.079  1.00  0.00    -0.015 C 
ATOM     26  C   UNL     1       8.860  -2.923  -2.706  1.00  0.00     0.007 C 
ATOM     27  C   UNL     1       7.774  -4.960  -1.743  1.00  0.00     0.007 C 
ENDBRANCH  24  25
ENDBRANCH  18  24
ENDBRANCH  15  18
ENDBRANCH  13  14
BRANCH  13  28
ATOM     28  C   UNL     1       3.003   1.201  -2.520  1.00  0.00     0.327 C 
ATOM     29  O   UNL     1       3.667   1.501  -1.540  1.00  0.00    -0.250 OA
BRANCH  28  30
ATOM     30  O   UNL     1       1.740   1.654  -2.653  1.00  0.00    -0.480 OA
ATOM     31  H   UNL     1       1.276   0.937  -3.134  1.00  0.00     0.296 HD
ENDBRANCH  28  30
ENDBRANCH  13  28
ENDBRANCH  11  13
ENDBRANCH   8  11
ENDBRANCH   6   7
BRANCH   6  32
ATOM     32  C   UNL     1       4.630  -3.339  -7.034  1.00  0.00     0.037 C 
BRANCH  32  33
ATOM     33  C   UNL     1       3.133  -3.352  -7.373  1.00  0.00     0.026 C 
BRANCH  33  34
ATOM     34  C   UNL     1       2.821  -4.200  -8.607  1.00  0.00     0.146 C 
BRANCH  34  35
ATOM     35  N   UNL     1       2.465  -3.315  -9.707  1.00  0.00    -0.254 NA
ATOM     36  C   UNL     1       1.643  -3.737 -10.594  1.00  0.00     0.185 C 
ATOM     37  N   UNL     1       1.304  -2.927 -11.610  1.00  0.00    -0.370 N 
ATOM     38  N   UNL     1       1.027  -4.929 -10.676  1.00  0.00    -0.370 N 
ATOM     39  H   UNL     1       1.720  -2.004 -11.613  1.00  0.00     0.159 HD
ATOM     40  H   UNL     1       0.544  -3.115 -12.241  1.00  0.00     0.159 HD
ATOM     41  H   UNL     1       0.509  -5.193 -11.498  1.00  0.00     0.159 HD
ATOM     42  H   UNL     1       1.201  -5.644  -9.987  1.00  0.00     0.159 HD
ENDBRANCH  34  35
ENDBRANCH  33  34
ENDBRANCH  32  33
ENDBRANCH   6  32
ENDBRANCH   4   6
ENDBRANCH   1   2
BRANCH   1  43
ATOM     43  C   UNL     1       5.876  -3.574 -11.512  1.00  0.00     0.102 C 
ATOM     44  C   UNL     1       7.109  -4.447 -11.801  1.00  0.00     0.020 C 
BRANCH  43  45
ATOM     45  C   UNL     1       4.965  -3.365 -12.725  1.00  0.00     0.225 C 
ATOM     46  O   UNL     1       4.232  -2.388 -12.854  1.00  0.00    -0.275 OA
ATOM     47  N   UNL     1       4.943  -4.398 -13.634  1.00  0.00    -0.342 N 
ATOM     48  H   UNL     1       5.654  -5.114 -13.595  1.00  0.00     0.164 HD
BRANCH  47  49
ATOM     49  C   UNL     1       4.144  -4.321 -14.861  1.00  0.00     0.192 C 
BRANCH  49  50
ATOM     50  C   UNL     1       4.190  -2.896 -15.417  1.00  0.00     0.047 C 
BRANCH  50  51
ATOM     51  C   UNL     1       5.164  -2.762 -16.595  1.00  0.00     0.103 C 
BRANCH  51  52
ATOM     52  C   UNL     1       6.600  -2.533 -16.129  1.00  0.00     0.226 C 
ATOM     53  O   UNL     1       6.812  -1.894 -15.096  1.00  0.00    -0.275 OA
BRANCH  52  54
ATOM     54  N   UNL     1       7.612  -3.148 -16.889  1.00  0.00    -0.311 N 
ATOM     55  C   UNL     1       8.504  -2.354 -17.744  1.00  0.00     0.153 C 
BRANCH  54  56
ATOM     56  C   UNL     1       7.811  -4.539 -16.855  1.00  0.00     0.102 C 
ATOM     57  C   UNL     1       7.680  -5.307 -15.761  1.00  0.00     0.043 C 
BRANCH  56  58
ATOM     58  C   UNL     1       8.156  -5.303 -18.111  1.00  0.00     0.268 C 
ATOM     59  O   UNL     1       7.390  -5.416 -19.058  1.00  0.00    -0.268 OA
ATOM     60  N   UNL     1       9.438  -5.800 -18.106  1.00  0.00    -0.339 N 
ATOM     61  H   UNL     1      10.006  -5.672 -17.277  1.00  0.00     0.164 HD
BRANCH  60  62
ATOM     62  C   UNL     1      10.000  -6.518 -19.249  1.00  0.00     0.168 CG0
ATOM     63  C   UNL     1      10.415  -7.931 -18.856  1.00  0.00     0.041 C 
ATOM     64  G   UNL     1      11.201  -5.733 -19.814  1.00  0.00     0.000 G0
ENDBRANCH  60  62
ENDBRANCH  56  58
ENDBRANCH  54  56
ENDBRANCH  52  54
ENDBRANCH  51  52
ENDBRANCH  50  51
ENDBRANCH  49  50
BRANCH  49  65
ATOM     65  C   UNL     1       2.682  -4.723 -14.611  1.00  0.00     0.326 C 
ATOM     66  O   UNL     1       2.172  -4.905 -13.515  1.00  0.00    -0.250 OA
BRANCH  65  67
ATOM     67  O   UNL     1       1.956  -4.935 -15.731  1.00  0.00    -0.480 OA
ATOM     68  H   UNL     1       2.633  -4.984 -16.440  1.00  0.00     0.296 HD
ENDBRANCH  65  67
ENDBRANCH  49  65
ENDBRANCH  47  49
ENDBRANCH  43  45
ENDBRANCH   1  43
BRANCH   1  69
ATOM     69  C   UNL     1       7.605  -1.624 -11.044  1.00  0.00    -0.001 C 
ATOM     70  C   UNL     1       8.762  -2.036 -10.497  1.00  0.00     0.001 C 
BRANCH  70  71
ATOM     71  C   UNL     1      10.093  -1.469 -10.724  1.00  0.00    -0.055 C 
ATOM     72  C   UNL     1      10.259  -0.667 -11.797  1.00  0.00    -0.018 C 
ATOM     73  C   UNL     1      11.181  -1.814  -9.741  1.00  0.00     0.044 C 
BRANCH  72  74
ATOM     74  C   UNL     1      11.510   0.056 -12.275  1.00  0.00     0.038 C 
ATOM     75  C   UNL     1      11.537   1.422 -11.580  1.00  0.00     0.015 C 
BRANCH  74  76
ATOM     76  C   UNL     1      11.490   0.115 -13.831  1.00  0.00     0.128 C 
BRANCH  76  77
ATOM     77  O   UNL     1      12.603  -0.622 -14.365  1.00  0.00    -0.381 OA
ATOM     78  C   UNL     1      12.256  -1.916 -14.840  1.00  0.00     0.195 C 
ENDBRANCH  76  77
BRANCH  76  79
ATOM     79  C   UNL     1      10.137  -0.303 -14.460  1.00  0.00     0.068 C 
BRANCH  79  80
ATOM     80  C   UNL     1       9.182   0.790 -14.875  1.00  0.00    -0.045 A 
ATOM     81  C   UNL     1       8.674   1.699 -13.937  1.00  0.00     0.004 A 
ATOM     82  C   UNL     1       8.764   0.895 -16.210  1.00  0.00     0.004 A 
ATOM     83  C   UNL     1       7.780   2.699 -14.326  1.00  0.00     0.000 A 
ATOM     84  C   UNL     1       7.870   1.895 -16.598  1.00  0.00     0.000 A 
ATOM     85  C   UNL     1       7.379   2.797 -15.657  1.00  0.00     0.000 A 
ENDBRANCH  79  80
ENDBRANCH  76  79
ENDBRANCH  74  76
ENDBRANCH  72  74
ENDBRANCH  70  71
ENDBRANCH   1  69
TORSDOF 17
ENDMDL
MODEL 35
REMARK VINA RESULT:    -5.196     10.800     15.308
REMARK INTER + INTRA:         -24.152
REMARK INTER:                 -17.892
REMARK INTRA:                  -6.260
REMARK UNBOUND:                -8.629
REMARK SMILES C=C1C(=O)N[C@H](C)C(=O)N[C@@H](CC(C)C)C(=O)N[C@@H](C(=O)O)[C@H](C)C(=O)N[C@@H](CCCN=C(N)N)C(=O)N[C@@H](/C=C/C(C)=C/[C@H](C)[C@H](Cc2ccccc2)OC)[C@H](C)C(=O)N[C@@H](C(=O)O)CCC(=O)N1C
REMARK SMILES IDX 39 1 38 2 37 3 36 4 28 6 27 7 25 8 26 9 23 11 24 12 19 13
REMARK SMILES IDX 18 14 16 15 17 16 11 18 10 19 8 20 9 21 12 24 13 25 14 26
REMARK SMILES IDX 15 27 20 28 21 29 22 30 29 32 30 33 31 34 32 35 33 36 34 37
REMARK SMILES IDX 35 38 57 43 58 44 59 45 60 46 61 47 62 49 66 50 67 51 68 52
REMARK SMILES IDX 69 53 70 54 71 55 2 56 1 57 3 58 4 59 5 60 6 62 7 63 63 65
REMARK SMILES IDX 64 66 65 67 40 69 41 70 42 71 44 72 43 73 45 74 46 75 47 76
REMARK SMILES IDX 55 77 56 78 48 79 49 80 50 81 54 82 51 83 53 84 52 85
REMARK H PARENT 38 5 27 10 18 17 10 22 22 31 34 39 34 40 35 41 35 42 61 48
REMARK H PARENT 5 61 65 68
REMARK Flexibility Score:  369.900
ROOT
ATOM      1  C   UNL     1      -0.469  -0.782   1.267  1.00  0.00     0.117 C 
ENDROOT
BRANCH   1   2
ATOM      2  N   UNL     1       0.697  -0.780   0.383  1.00  0.00    -0.347 N 
ATOM      3  O   UNL     1       1.060   1.487   0.349  1.00  0.00    -0.273 OA
ATOM      4  C   UNL     1       1.426   0.351   0.067  1.00  0.00     0.243 C 
ATOM      5  H   UNL     1       1.036  -1.653   0.009  1.00  0.00     0.164 HD
BRANCH   4   6
ATOM      6  C   UNL     1       2.665   0.066  -0.820  1.00  0.00     0.171 C 
BRANCH   6   7
ATOM      7  N   UNL     1       3.224  -1.260  -0.512  1.00  0.00    -0.344 N 
ATOM      8  C   UNL     1       4.030  -1.444   0.592  1.00  0.00     0.226 C 
ATOM      9  O   UNL     1       4.335  -0.528   1.346  1.00  0.00    -0.275 OA
ATOM     10  H   UNL     1       3.049  -2.027  -1.149  1.00  0.00     0.164 HD
BRANCH   8  11
ATOM     11  C   UNL     1       4.482  -2.878   0.803  1.00  0.00     0.109 C 
ATOM     12  C   UNL     1       3.271  -3.787   1.012  1.00  0.00     0.021 C 
BRANCH  11  13
ATOM     13  C   UNL     1       5.422  -3.303  -0.343  1.00  0.00     0.204 C 
BRANCH  13  14
ATOM     14  N   UNL     1       6.697  -3.827   0.155  1.00  0.00    -0.340 N 
ATOM     15  C   UNL     1       7.795  -3.028   0.390  1.00  0.00     0.243 C 
ATOM     16  O   UNL     1       7.762  -1.806   0.255  1.00  0.00    -0.273 OA
ATOM     17  H   UNL     1       6.837  -4.841   0.143  1.00  0.00     0.164 HD
BRANCH  15  18
ATOM     18  C   UNL     1       9.084  -3.824   0.710  1.00  0.00     0.171 C 
BRANCH  18  19
ATOM     19  N   UNL     1       9.776  -4.028  -0.561  1.00  0.00    -0.343 N 
ATOM     20  C   UNL     1       9.346  -4.961  -1.485  1.00  0.00     0.242 CG0
ATOM     21  O   UNL     1       8.444  -5.753  -1.226  1.00  0.00    -0.273 OA
ATOM     22  H   UNL     1      10.600  -3.475  -0.773  1.00  0.00     0.164 HD
ATOM     23  G   UNL     1      10.155  -4.977  -2.798  1.00  0.00     0.000 G0
ENDBRANCH  18  19
BRANCH  18  24
ATOM     24  C   UNL     1       9.958  -3.059   1.711  1.00  0.00     0.038 C 
BRANCH  24  25
ATOM     25  C   UNL     1       9.698  -3.407   3.192  1.00  0.00    -0.015 C 
ATOM     26  C   UNL     1      10.984  -3.460   4.016  1.00  0.00     0.007 C 
ATOM     27  C   UNL     1       8.971  -4.751   3.284  1.00  0.00     0.007 C 
ENDBRANCH  24  25
ENDBRANCH  18  24
ENDBRANCH  15  18
ENDBRANCH  13  14
BRANCH  13  28
ATOM     28  C   UNL     1       4.816  -4.374  -1.254  1.00  0.00     0.327 C 
ATOM     29  O   UNL     1       5.062  -5.570  -1.227  1.00  0.00    -0.250 OA
BRANCH  28  30
ATOM     30  O   UNL     1       4.028  -3.861  -2.222  1.00  0.00    -0.480 OA
ATOM     31  H   UNL     1       3.821  -2.956  -1.909  1.00  0.00     0.296 HD
ENDBRANCH  28  30
ENDBRANCH  13  28
ENDBRANCH  11  13
ENDBRANCH   8  11
ENDBRANCH   6   7
BRANCH   6  32
ATOM     32  C   UNL     1       2.260   0.160  -2.295  1.00  0.00     0.037 C 
BRANCH  32  33
ATOM     33  C   UNL     1       3.246  -0.576  -3.214  1.00  0.00     0.026 C 
BRANCH  33  34
ATOM     34  C   UNL     1       2.638  -0.907  -4.578  1.00  0.00     0.146 C 
BRANCH  34  35
ATOM     35  N   UNL     1       2.254  -2.312  -4.592  1.00  0.00    -0.254 NA
ATOM     36  C   UNL     1       1.065  -2.620  -4.954  1.00  0.00     0.185 C 
ATOM     37  N   UNL     1       0.702  -3.912  -4.976  1.00  0.00    -0.370 N 
ATOM     38  N   UNL     1       0.063  -1.810  -5.341  1.00  0.00    -0.370 N 
ATOM     39  H   UNL     1       1.407  -4.586  -4.707  1.00  0.00     0.159 HD
ATOM     40  H   UNL     1      -0.143  -4.245  -5.409  1.00  0.00     0.159 HD
ATOM     41  H   UNL     1      -0.872  -2.163  -5.468  1.00  0.00     0.159 HD
ATOM     42  H   UNL     1       0.189  -0.810  -5.357  1.00  0.00     0.159 HD
ENDBRANCH  34  35
ENDBRANCH  33  34
ENDBRANCH  32  33
ENDBRANCH   6  32
ENDBRANCH   4   6
ENDBRANCH   1   2
BRANCH   1  43
ATOM     43  C   UNL     1      -1.571   0.115   0.635  1.00  0.00     0.102 C 
ATOM     44  C   UNL     1      -2.773   0.355   1.565  1.00  0.00     0.020 C 
BRANCH  43  45
ATOM     45  C   UNL     1      -1.956  -0.386  -0.760  1.00  0.00     0.225 C 
ATOM     46  O   UNL     1      -1.335  -0.086  -1.776  1.00  0.00    -0.275 OA
ATOM     47  N   UNL     1      -3.112  -1.130  -0.824  1.00  0.00    -0.342 N 
ATOM     48  H   UNL     1      -3.521  -1.492   0.025  1.00  0.00     0.164 HD
BRANCH  47  49
ATOM     49  C   UNL     1      -3.583  -1.705  -2.088  1.00  0.00     0.192 C 
BRANCH  49  50
ATOM     50  C   UNL     1      -5.071  -2.046  -1.974  1.00  0.00     0.047 C 
BRANCH  50  51
ATOM     51  C   UNL     1      -5.936  -1.196  -2.916  1.00  0.00     0.103 C 
BRANCH  51  52
ATOM     52  C   UNL     1      -6.401   0.100  -2.255  1.00  0.00     0.226 C 
ATOM     53  O   UNL     1      -5.568   0.930  -1.887  1.00  0.00    -0.275 OA
BRANCH  52  54
ATOM     54  N   UNL     1      -7.792   0.299  -2.176  1.00  0.00    -0.311 N 
ATOM     55  C   UNL     1      -8.474   0.357  -0.876  1.00  0.00     0.153 C 
BRANCH  54  56
ATOM     56  C   UNL     1      -8.577   0.454  -3.330  1.00  0.00     0.102 C 
ATOM     57  C   UNL     1      -8.334   1.339  -4.311  1.00  0.00     0.043 C 
BRANCH  56  58
ATOM     58  C   UNL     1      -9.773  -0.434  -3.579  1.00  0.00     0.268 C 
ATOM     59  O   UNL     1     -10.918  -0.111  -3.292  1.00  0.00    -0.268 OA
ATOM     60  N   UNL     1      -9.452  -1.608  -4.218  1.00  0.00    -0.339 N 
ATOM     61  H   UNL     1      -8.477  -1.806  -4.412  1.00  0.00     0.164 HD
BRANCH  60  62
ATOM     62  C   UNL     1     -10.467  -2.584  -4.611  1.00  0.00     0.168 CG0
ATOM     63  C   UNL     1     -10.972  -2.310  -6.022  1.00  0.00     0.041 C 
ATOM     64  G   UNL     1     -11.631  -2.555  -3.599  1.00  0.00     0.000 G0
ENDBRANCH  60  62
ENDBRANCH  56  58
ENDBRANCH  54  56
ENDBRANCH  52  54
ENDBRANCH  51  52
ENDBRANCH  50  51
ENDBRANCH  49  50
BRANCH  49  65
ATOM     65  C   UNL     1      -2.798  -2.973  -2.461  1.00  0.00     0.326 C 
ATOM     66  O   UNL     1      -1.995  -3.067  -3.378  1.00  0.00    -0.250 OA
BRANCH  65  67
ATOM     67  O   UNL     1      -3.098  -4.061  -1.717  1.00  0.00    -0.480 OA
ATOM     68  H   UNL     1      -3.887  -3.781  -1.206  1.00  0.00     0.296 HD
ENDBRANCH  65  67
ENDBRANCH  49  65
ENDBRANCH  47  49
ENDBRANCH  43  45
ENDBRANCH   1  43
BRANCH   1  69
ATOM     69  C   UNL     1       0.050  -0.442   2.653  1.00  0.00    -0.001 C 
ATOM     70  C   UNL     1       1.013  -1.076   3.343  1.00  0.00     0.001 C 
BRANCH  70  71
ATOM     71  C   UNL     1       1.520  -0.725   4.672  1.00  0.00    -0.055 C 
ATOM     72  C   UNL     1       2.657  -0.002   4.738  1.00  0.00    -0.018 C 
ATOM     73  C   UNL     1       0.732  -1.188   5.869  1.00  0.00     0.044 C 
BRANCH  72  74
ATOM     74  C   UNL     1       3.406   0.504   5.963  1.00  0.00     0.038 C 
ATOM     75  C   UNL     1       2.782   1.849   6.352  1.00  0.00     0.015 C 
BRANCH  74  76
ATOM     76  C   UNL     1       4.927   0.562   5.631  1.00  0.00     0.128 C 
BRANCH  76  77
ATOM     77  O   UNL     1       5.199   1.678   4.767  1.00  0.00    -0.381 OA
ATOM     78  C   UNL     1       6.090   1.371   3.702  1.00  0.00     0.195 C 
ENDBRANCH  76  77
BRANCH  76  79
ATOM     79  C   UNL     1       5.845   0.532   6.880  1.00  0.00     0.068 C 
BRANCH  79  80
ATOM     80  C   UNL     1       6.971  -0.472   6.905  1.00  0.00    -0.045 A 
ATOM     81  C   UNL     1       8.244  -0.142   6.421  1.00  0.00     0.004 A 
ATOM     82  C   UNL     1       6.751  -1.770   7.392  1.00  0.00     0.004 A 
ATOM     83  C   UNL     1       9.277  -1.081   6.435  1.00  0.00     0.000 A 
ATOM     84  C   UNL     1       7.785  -2.708   7.405  1.00  0.00     0.000 A 
ATOM     85  C   UNL     1       9.048  -2.364   6.928  1.00  0.00     0.000 A 
ENDBRANCH  79  80
ENDBRANCH  76  79
ENDBRANCH  74  76
ENDBRANCH  72  74
ENDBRANCH  70  71
ENDBRANCH   1  69
TORSDOF 17
ENDMDL
MODEL 36
REMARK VINA RESULT:    -5.164      3.680     12.607
REMARK INTER + INTRA:         -24.058
REMARK INTER:                 -16.458
REMARK INTRA:                  -7.600
REMARK UNBOUND:                -8.629
REMARK SMILES C=C1C(=O)N[C@H](C)C(=O)N[C@@H](CC(C)C)C(=O)N[C@@H](C(=O)O)[C@H](C)C(=O)N[C@@H](CCCN=C(N)N)C(=O)N[C@@H](/C=C/C(C)=C/[C@H](C)[C@H](Cc2ccccc2)OC)[C@H](C)C(=O)N[C@@H](C(=O)O)CCC(=O)N1C
REMARK SMILES IDX 39 1 38 2 37 3 36 4 28 6 27 7 25 8 26 9 23 11 24 12 19 13
REMARK SMILES IDX 18 14 16 15 17 16 11 18 10 19 8 20 9 21 12 24 13 25 14 26
REMARK SMILES IDX 15 27 20 28 21 29 22 30 29 32 30 33 31 34 32 35 33 36 34 37
REMARK SMILES IDX 35 38 57 43 58 44 59 45 60 46 61 47 62 49 66 50 67 51 68 52
REMARK SMILES IDX 69 53 70 54 71 55 2 56 1 57 3 58 4 59 5 60 6 62 7 63 63 65
REMARK SMILES IDX 64 66 65 67 40 69 41 70 42 71 44 72 43 73 45 74 46 75 47 76
REMARK SMILES IDX 55 77 56 78 48 79 49 80 50 81 54 82 51 83 53 84 52 85
REMARK H PARENT 38 5 27 10 18 17 10 22 22 31 34 39 34 40 35 41 35 42 61 48
REMARK H PARENT 5 61 65 68
REMARK Flexibility Score:  369.900
ROOT
ATOM      1  C   UNL     1       6.424  -2.300  -8.869  1.00  0.00     0.117 C 
ENDROOT
BRANCH   1   2
ATOM      2  N   UNL     1       5.199  -1.811  -8.234  1.00  0.00    -0.347 N 
ATOM      3  O   UNL     1       4.474  -3.811  -7.372  1.00  0.00    -0.273 OA
ATOM      4  C   UNL     1       4.367  -2.593  -7.456  1.00  0.00     0.243 C 
ATOM      5  H   UNL     1       4.955  -0.836  -8.316  1.00  0.00     0.164 HD
BRANCH   4   6
ATOM      6  C   UNL     1       3.185  -1.811  -6.829  1.00  0.00     0.171 C 
BRANCH   6   7
ATOM      7  N   UNL     1       3.617  -1.118  -5.605  1.00  0.00    -0.344 N 
ATOM      8  C   UNL     1       3.296  -1.620  -4.362  1.00  0.00     0.226 C 
ATOM      9  O   UNL     1       2.627  -2.636  -4.214  1.00  0.00    -0.275 OA
ATOM     10  H   UNL     1       4.114  -0.240  -5.687  1.00  0.00     0.164 HD
BRANCH   8  11
ATOM     11  C   UNL     1       3.861  -0.822  -3.200  1.00  0.00     0.109 C 
ATOM     12  C   UNL     1       3.284   0.593  -3.204  1.00  0.00     0.021 C 
BRANCH  11  13
ATOM     13  C   UNL     1       3.657  -1.601  -1.885  1.00  0.00     0.204 C 
BRANCH  13  14
ATOM     14  N   UNL     1       4.860  -2.340  -1.489  1.00  0.00    -0.340 N 
ATOM     15  C   UNL     1       4.941  -3.715  -1.528  1.00  0.00     0.243 C 
ATOM     16  O   UNL     1       4.028  -4.418  -1.957  1.00  0.00    -0.273 OA
ATOM     17  H   UNL     1       5.591  -1.831  -0.985  1.00  0.00     0.164 HD
BRANCH  15  18
ATOM     18  C   UNL     1       6.225  -4.278  -0.870  1.00  0.00     0.171 C 
BRANCH  18  19
ATOM     19  N   UNL     1       5.821  -4.848   0.414  1.00  0.00    -0.343 N 
ATOM     20  C   UNL     1       6.041  -4.185   1.606  1.00  0.00     0.242 CG0
ATOM     21  O   UNL     1       6.703  -3.151   1.655  1.00  0.00    -0.273 OA
ATOM     22  H   UNL     1       5.373  -5.757   0.436  1.00  0.00     0.164 HD
ATOM     23  G   UNL     1       5.476  -4.906   2.848  1.00  0.00     0.000 G0
ENDBRANCH  18  19
BRANCH  18  24
ATOM     24  C   UNL     1       6.878  -5.332  -1.772  1.00  0.00     0.038 C 
BRANCH  24  25
ATOM     25  C   UNL     1       8.264  -4.937  -2.326  1.00  0.00    -0.015 C 
ATOM     26  C   UNL     1       9.315  -4.798  -1.225  1.00  0.00     0.007 C 
ATOM     27  C   UNL     1       8.152  -3.622  -3.101  1.00  0.00     0.007 C 
ENDBRANCH  24  25
ENDBRANCH  18  24
ENDBRANCH  15  18
ENDBRANCH  13  14
BRANCH  13  28
ATOM     28  C   UNL     1       3.266  -0.704  -0.707  1.00  0.00     0.327 C 
ATOM     29  O   UNL     1       4.027  -0.033  -0.026  1.00  0.00    -0.250 OA
BRANCH  28  30
ATOM     30  O   UNL     1       1.961  -0.798  -0.381  1.00  0.00    -0.480 OA
ATOM     31  H   UNL     1       1.628   0.120  -0.452  1.00  0.00     0.296 HD
ENDBRANCH  28  30
ENDBRANCH  13  28
ENDBRANCH  11  13
ENDBRANCH   8  11
ENDBRANCH   6   7
BRANCH   6  32
ATOM     32  C   UNL     1       2.639  -0.814  -7.858  1.00  0.00     0.037 C 
BRANCH  32  33
ATOM     33  C   UNL     1       1.112  -0.899  -7.993  1.00  0.00     0.026 C 
BRANCH  33  34
ATOM     34  C   UNL     1       0.386  -0.430  -6.732  1.00  0.00     0.146 C 
BRANCH  34  35
ATOM     35  N   UNL     1      -0.312  -1.563  -6.142  1.00  0.00    -0.254 NA
ATOM     36  C   UNL     1      -0.424  -1.620  -4.867  1.00  0.00     0.185 C 
ATOM     37  N   UNL     1      -1.070  -2.658  -4.313  1.00  0.00    -0.370 N 
ATOM     38  N   UNL     1       0.027  -0.757  -3.940  1.00  0.00    -0.370 N 
ATOM     39  H   UNL     1      -1.450  -3.349  -4.948  1.00  0.00     0.159 HD
ATOM     40  H   UNL     1      -1.350  -2.688  -3.348  1.00  0.00     0.159 HD
ATOM     41  H   UNL     1      -0.003  -0.983  -2.959  1.00  0.00     0.159 HD
ATOM     42  H   UNL     1       0.545   0.063  -4.213  1.00  0.00     0.159 HD
ENDBRANCH  34  35
ENDBRANCH  33  34
ENDBRANCH  32  33
ENDBRANCH   6  32
ENDBRANCH   4   6
ENDBRANCH   1   2
BRANCH   1  43
ATOM     43  C   UNL     1       7.543  -1.238  -8.669  1.00  0.00     0.102 C 
ATOM     44  C   UNL     1       7.689  -0.770  -7.211  1.00  0.00     0.020 C 
BRANCH  43  45
ATOM     45  C   UNL     1       7.404  -0.095  -9.678  1.00  0.00     0.225 C 
ATOM     46  O   UNL     1       6.506   0.741  -9.626  1.00  0.00    -0.275 OA
ATOM     47  N   UNL     1       8.303  -0.111 -10.720  1.00  0.00    -0.342 N 
ATOM     48  H   UNL     1       9.119  -0.705 -10.667  1.00  0.00     0.164 HD
BRANCH  47  49
ATOM     49  C   UNL     1       8.312   0.941 -11.741  1.00  0.00     0.192 C 
BRANCH  49  50
ATOM     50  C   UNL     1       8.266   0.306 -13.134  1.00  0.00     0.047 C 
BRANCH  50  51
ATOM     51  C   UNL     1       8.381  -1.223 -13.080  1.00  0.00     0.103 C 
BRANCH  51  52
ATOM     52  C   UNL     1       9.471  -1.750 -14.012  1.00  0.00     0.226 C 
ATOM     53  O   UNL     1       9.203  -2.637 -14.824  1.00  0.00    -0.275 OA
BRANCH  52  54
ATOM     54  N   UNL     1      10.725  -1.117 -13.930  1.00  0.00    -0.311 N 
ATOM     55  C   UNL     1      11.528  -1.186 -12.702  1.00  0.00     0.153 C 
BRANCH  54  56
ATOM     56  C   UNL     1      11.257  -0.402 -15.016  1.00  0.00     0.102 C 
ATOM     57  C   UNL     1      12.522   0.042 -15.099  1.00  0.00     0.043 C 
BRANCH  56  58
ATOM     58  C   UNL     1      10.418  -0.111 -16.238  1.00  0.00     0.268 C 
ATOM     59  O   UNL     1       9.626   0.820 -16.300  1.00  0.00    -0.268 OA
ATOM     60  N   UNL     1      10.683  -0.956 -17.289  1.00  0.00    -0.339 N 
ATOM     61  H   UNL     1      11.346  -1.710 -17.153  1.00  0.00     0.164 HD
BRANCH  60  62
ATOM     62  C   UNL     1      10.028  -0.812 -18.589  1.00  0.00     0.168 CG0
ATOM     63  C   UNL     1       8.863  -1.785 -18.725  1.00  0.00     0.041 C 
ATOM     64  G   UNL     1      11.058  -1.033 -19.715  1.00  0.00     0.000 G0
ENDBRANCH  60  62
ENDBRANCH  56  58
ENDBRANCH  54  56
ENDBRANCH  52  54
ENDBRANCH  51  52
ENDBRANCH  50  51
ENDBRANCH  49  50
BRANCH  49  65
ATOM     65  C   UNL     1       9.559   1.831 -11.628  1.00  0.00     0.326 C 
ATOM     66  O   UNL     1       9.990   2.323 -10.596  1.00  0.00    -0.250 OA
BRANCH  65  67
ATOM     67  O   UNL     1      10.164   2.106 -12.805  1.00  0.00    -0.480 OA
ATOM     68  H   UNL     1      10.698   2.906 -12.609  1.00  0.00     0.296 HD
ENDBRANCH  65  67
ENDBRANCH  49  65
ENDBRANCH  47  49
ENDBRANCH  43  45
ENDBRANCH   1  43
BRANCH   1  69
ATOM     69  C   UNL     1       6.037  -2.701 -10.281  1.00  0.00    -0.001 C 
ATOM     70  C   UNL     1       6.609  -3.647 -11.047  1.00  0.00     0.001 C 
BRANCH  70  71
ATOM     71  C   UNL     1       6.214  -4.041 -12.401  1.00  0.00    -0.055 C 
ATOM     72  C   UNL     1       5.352  -3.239 -13.061  1.00  0.00    -0.018 C 
ATOM     73  C   UNL     1       6.803  -5.307 -12.965  1.00  0.00     0.044 C 
BRANCH  72  74
ATOM     74  C   UNL     1       4.775  -3.390 -14.461  1.00  0.00     0.038 C 
ATOM     75  C   UNL     1       5.339  -2.244 -15.310  1.00  0.00     0.015 C 
BRANCH  74  76
ATOM     76  C   UNL     1       3.221  -3.425 -14.362  1.00  0.00     0.128 C 
BRANCH  76  77
ATOM     77  O   UNL     1       2.706  -4.531 -15.123  1.00  0.00    -0.381 OA
ATOM     78  C   UNL     1       1.402  -4.937 -14.728  1.00  0.00     0.195 C 
ENDBRANCH  76  77
BRANCH  76  79
ATOM     79  C   UNL     1       2.683  -3.394 -12.909  1.00  0.00     0.068 C 
BRANCH  79  80
ATOM     80  C   UNL     1       1.971  -2.146 -12.446  1.00  0.00    -0.045 A 
ATOM     81  C   UNL     1       2.687  -1.043 -11.965  1.00  0.00     0.004 A 
ATOM     82  C   UNL     1       0.569  -2.084 -12.465  1.00  0.00     0.004 A 
ATOM     83  C   UNL     1       2.020   0.103 -11.525  1.00  0.00     0.000 A 
ATOM     84  C   UNL     1      -0.097  -0.938 -12.024  1.00  0.00     0.000 A 
ATOM     85  C   UNL     1       0.629   0.155 -11.556  1.00  0.00     0.000 A 
ENDBRANCH  79  80
ENDBRANCH  76  79
ENDBRANCH  74  76
ENDBRANCH  72  74
ENDBRANCH  70  71
ENDBRANCH   1  69
TORSDOF 17
ENDMDL
MODEL 37
REMARK VINA RESULT:    -5.158      5.881     14.929
REMARK INTER + INTRA:         -24.039
REMARK INTER:                 -18.116
REMARK INTRA:                  -5.923
REMARK UNBOUND:                -8.629
REMARK SMILES C=C1C(=O)N[C@H](C)C(=O)N[C@@H](CC(C)C)C(=O)N[C@@H](C(=O)O)[C@H](C)C(=O)N[C@@H](CCCN=C(N)N)C(=O)N[C@@H](/C=C/C(C)=C/[C@H](C)[C@H](Cc2ccccc2)OC)[C@H](C)C(=O)N[C@@H](C(=O)O)CCC(=O)N1C
REMARK SMILES IDX 39 1 38 2 37 3 36 4 28 6 27 7 25 8 26 9 23 11 24 12 19 13
REMARK SMILES IDX 18 14 16 15 17 16 11 18 10 19 8 20 9 21 12 24 13 25 14 26
REMARK SMILES IDX 15 27 20 28 21 29 22 30 29 32 30 33 31 34 32 35 33 36 34 37
REMARK SMILES IDX 35 38 57 43 58 44 59 45 60 46 61 47 62 49 66 50 67 51 68 52
REMARK SMILES IDX 69 53 70 54 71 55 2 56 1 57 3 58 4 59 5 60 6 62 7 63 63 65
REMARK SMILES IDX 64 66 65 67 40 69 41 70 42 71 44 72 43 73 45 74 46 75 47 76
REMARK SMILES IDX 55 77 56 78 48 79 49 80 50 81 54 82 51 83 53 84 52 85
REMARK H PARENT 38 5 27 10 18 17 10 22 22 31 34 39 34 40 35 41 35 42 61 48
REMARK H PARENT 5 61 65 68
REMARK Flexibility Score:  369.900
ROOT
ATOM      1  C   UNL     1       3.376  -1.701  -5.556  1.00  0.00     0.117 C 
ENDROOT
BRANCH   1   2
ATOM      2  N   UNL     1       3.975  -1.145  -4.342  1.00  0.00    -0.347 N 
ATOM      3  O   UNL     1       4.011  -3.075  -3.099  1.00  0.00    -0.273 OA
ATOM      4  C   UNL     1       4.329  -1.899  -3.240  1.00  0.00     0.243 C 
ATOM      5  H   UNL     1       4.196  -0.162  -4.306  1.00  0.00     0.164 HD
BRANCH   4   6
ATOM      6  C   UNL     1       5.024  -1.080  -2.123  1.00  0.00     0.171 C 
BRANCH   6   7
ATOM      7  N   UNL     1       4.621  -1.573  -0.796  1.00  0.00    -0.344 N 
ATOM      8  C   UNL     1       3.411  -1.205  -0.248  1.00  0.00     0.226 C 
ATOM      9  O   UNL     1       2.634  -0.445  -0.813  1.00  0.00    -0.275 OA
ATOM     10  H   UNL     1       5.266  -2.149  -0.270  1.00  0.00     0.164 HD
BRANCH   8  11
ATOM     11  C   UNL     1       3.116  -1.840   1.100  1.00  0.00     0.109 C 
ATOM     12  C   UNL     1       3.661  -3.268   1.139  1.00  0.00     0.021 C 
BRANCH  11  13
ATOM     13  C   UNL     1       3.622  -0.922   2.230  1.00  0.00     0.204 C 
BRANCH  13  14
ATOM     14  N   UNL     1       2.842  -1.082   3.461  1.00  0.00    -0.340 N 
ATOM     15  C   UNL     1       2.498  -0.022   4.272  1.00  0.00     0.243 C 
ATOM     16  O   UNL     1       2.771   1.143   3.987  1.00  0.00    -0.273 OA
ATOM     17  H   UNL     1       2.716  -2.028   3.831  1.00  0.00     0.164 HD
BRANCH  15  18
ATOM     18  C   UNL     1       1.859  -0.452   5.615  1.00  0.00     0.171 C 
BRANCH  18  19
ATOM     19  N   UNL     1       2.324   0.498   6.624  1.00  0.00    -0.343 N 
ATOM     20  C   UNL     1       3.404   0.225   7.440  1.00  0.00     0.242 CG0
ATOM     21  O   UNL     1       3.941  -0.881   7.448  1.00  0.00    -0.273 OA
ATOM     22  H   UNL     1       1.839   1.382   6.735  1.00  0.00     0.164 HD
ATOM     23  G   UNL     1       3.795   1.378   8.386  1.00  0.00     0.000 G0
ENDBRANCH  18  19
BRANCH  18  24
ATOM     24  C   UNL     1       0.329  -0.456   5.510  1.00  0.00     0.038 C 
BRANCH  24  25
ATOM     25  C   UNL     1      -0.321   0.944   5.515  1.00  0.00    -0.015 C 
ATOM     26  C   UNL     1      -1.219   1.167   6.732  1.00  0.00     0.007 C 
ATOM     27  C   UNL     1      -1.134   1.138   4.232  1.00  0.00     0.007 C 
ENDBRANCH  24  25
ENDBRANCH  18  24
ENDBRANCH  15  18
ENDBRANCH  13  14
BRANCH  13  28
ATOM     28  C   UNL     1       5.092  -1.162   2.591  1.00  0.00     0.327 C 
ATOM     29  O   UNL     1       5.509  -1.705   3.602  1.00  0.00    -0.250 OA
BRANCH  28  30
ATOM     30  O   UNL     1       5.949  -0.599   1.715  1.00  0.00    -0.480 OA
ATOM     31  H   UNL     1       6.692  -1.236   1.662  1.00  0.00     0.296 HD
ENDBRANCH  28  30
ENDBRANCH  13  28
ENDBRANCH  11  13
ENDBRANCH   8  11
ENDBRANCH   6   7
BRANCH   6  32
ATOM     32  C   UNL     1       6.544  -1.172  -2.302  1.00  0.00     0.037 C 
BRANCH  32  33
ATOM     33  C   UNL     1       7.186  -2.147  -1.305  1.00  0.00     0.026 C 
BRANCH  33  34
ATOM     34  C   UNL     1       7.507  -3.502  -1.936  1.00  0.00     0.146 C 
BRANCH  34  35
ATOM     35  N   UNL     1       7.587  -4.504  -0.882  1.00  0.00    -0.254 NA
ATOM     36  C   UNL     1       6.584  -5.277  -0.692  1.00  0.00     0.185 C 
ATOM     37  N   UNL     1       6.649  -6.207   0.274  1.00  0.00    -0.370 N 
ATOM     38  N   UNL     1       5.408  -5.310  -1.342  1.00  0.00    -0.370 N 
ATOM     39  H   UNL     1       7.510  -6.253   0.803  1.00  0.00     0.159 HD
ATOM     40  H   UNL     1       5.985  -6.956   0.370  1.00  0.00     0.159 HD
ATOM     41  H   UNL     1       4.643  -5.874  -1.008  1.00  0.00     0.159 HD
ATOM     42  H   UNL     1       5.214  -4.656  -2.084  1.00  0.00     0.159 HD
ENDBRANCH  34  35
ENDBRANCH  33  34
ENDBRANCH  32  33
ENDBRANCH   6  32
ENDBRANCH   4   6
ENDBRANCH   1   2
BRANCH   1  43
ATOM     43  C   UNL     1       4.494  -1.880  -6.623  1.00  0.00     0.102 C 
ATOM     44  C   UNL     1       4.857  -0.575  -7.353  1.00  0.00     0.020 C 
BRANCH  43  45
ATOM     45  C   UNL     1       4.179  -3.049  -7.561  1.00  0.00     0.225 C 
ATOM     46  O   UNL     1       4.777  -4.120  -7.522  1.00  0.00    -0.275 OA
ATOM     47  N   UNL     1       3.233  -2.795  -8.528  1.00  0.00    -0.342 N 
ATOM     48  H   UNL     1       2.649  -1.974  -8.452  1.00  0.00     0.164 HD
BRANCH  47  49
ATOM     49  C   UNL     1       2.805  -3.831  -9.472  1.00  0.00     0.192 C 
BRANCH  49  50
ATOM     50  C   UNL     1       2.196  -3.175 -10.714  1.00  0.00     0.047 C 
BRANCH  50  51
ATOM     51  C   UNL     1       3.256  -2.501 -11.596  1.00  0.00     0.103 C 
BRANCH  51  52
ATOM     52  C   UNL     1       3.748  -3.425 -12.708  1.00  0.00     0.226 C 
ATOM     53  O   UNL     1       2.953  -4.183 -13.268  1.00  0.00    -0.275 OA
BRANCH  52  54
ATOM     54  N   UNL     1       5.098  -3.292 -13.082  1.00  0.00    -0.311 N 
ATOM     55  C   UNL     1       5.914  -2.176 -12.584  1.00  0.00     0.153 C 
BRANCH  54  56
ATOM     56  C   UNL     1       5.716  -4.220 -13.936  1.00  0.00     0.102 C 
ATOM     57  C   UNL     1       6.276  -5.375 -13.540  1.00  0.00     0.043 C 
BRANCH  56  58
ATOM     58  C   UNL     1       5.755  -3.993 -15.429  1.00  0.00     0.268 C 
ATOM     59  O   UNL     1       4.753  -3.798 -16.103  1.00  0.00    -0.268 OA
ATOM     60  N   UNL     1       7.032  -3.963 -15.937  1.00  0.00    -0.339 N 
ATOM     61  H   UNL     1       7.809  -4.144 -15.314  1.00  0.00     0.164 HD
BRANCH  60  62
ATOM     62  C   UNL     1       7.302  -3.694 -17.349  1.00  0.00     0.168 CG0
ATOM     63  C   UNL     1       7.966  -4.892 -18.017  1.00  0.00     0.041 C 
ATOM     64  G   UNL     1       8.188  -2.438 -17.476  1.00  0.00     0.000 G0
ENDBRANCH  60  62
ENDBRANCH  56  58
ENDBRANCH  54  56
ENDBRANCH  52  54
ENDBRANCH  51  52
ENDBRANCH  50  51
ENDBRANCH  49  50
BRANCH  49  65
ATOM     65  C   UNL     1       1.776  -4.782  -8.841  1.00  0.00     0.326 C 
ATOM     66  O   UNL     1       1.028  -5.529  -9.456  1.00  0.00    -0.250 OA
BRANCH  65  67
ATOM     67  O   UNL     1       1.690  -4.707  -7.495  1.00  0.00    -0.480 OA
ATOM     68  H   UNL     1       2.571  -5.015  -7.190  1.00  0.00     0.296 HD
ENDBRANCH  65  67
ENDBRANCH  49  65
ENDBRANCH  47  49
ENDBRANCH  43  45
ENDBRANCH   1  43
BRANCH   1  69
ATOM     69  C   UNL     1       2.184  -0.820  -5.883  1.00  0.00    -0.001 C 
ATOM     70  C   UNL     1       0.988  -1.207  -6.360  1.00  0.00     0.001 C 
BRANCH  70  71
ATOM     71  C   UNL     1      -0.162  -0.349  -6.651  1.00  0.00    -0.055 C 
ATOM     72  C   UNL     1      -0.555  -0.241  -7.938  1.00  0.00    -0.018 C 
ATOM     73  C   UNL     1      -0.832   0.345  -5.494  1.00  0.00     0.044 C 
BRANCH  72  74
ATOM     74  C   UNL     1      -1.702   0.564  -8.531  1.00  0.00     0.038 C 
ATOM     75  C   UNL     1      -2.720  -0.440  -9.086  1.00  0.00     0.015 C 
BRANCH  74  76
ATOM     76  C   UNL     1      -1.126   1.558  -9.581  1.00  0.00     0.128 C 
BRANCH  76  77
ATOM     77  O   UNL     1      -1.118   2.891  -9.043  1.00  0.00    -0.381 OA
ATOM     78  C   UNL     1      -1.948   3.050  -7.900  1.00  0.00     0.195 C 
ENDBRANCH  76  77
BRANCH  76  79
ATOM     79  C   UNL     1       0.248   1.137 -10.160  1.00  0.00     0.068 C 
BRANCH  79  80
ATOM     80  C   UNL     1       0.274   0.501 -11.528  1.00  0.00    -0.045 A 
ATOM     81  C   UNL     1       0.658   1.234 -12.659  1.00  0.00     0.004 A 
ATOM     82  C   UNL     1      -0.115  -0.837 -11.694  1.00  0.00     0.004 A 
ATOM     83  C   UNL     1       0.666   0.642 -13.923  1.00  0.00     0.000 A 
ATOM     84  C   UNL     1      -0.108  -1.428 -12.959  1.00  0.00     0.000 A 
ATOM     85  C   UNL     1       0.284  -0.689 -14.073  1.00  0.00     0.000 A 
ENDBRANCH  79  80
ENDBRANCH  76  79
ENDBRANCH  74  76
ENDBRANCH  72  74
ENDBRANCH  70  71
ENDBRANCH   1  69
TORSDOF 17
ENDMDL
MODEL 38
REMARK VINA RESULT:    -5.156      9.574     15.100
REMARK INTER + INTRA:         -24.034
REMARK INTER:                 -16.601
REMARK INTRA:                  -7.433
REMARK UNBOUND:                -8.629
REMARK SMILES C=C1C(=O)N[C@H](C)C(=O)N[C@@H](CC(C)C)C(=O)N[C@@H](C(=O)O)[C@H](C)C(=O)N[C@@H](CCCN=C(N)N)C(=O)N[C@@H](/C=C/C(C)=C/[C@H](C)[C@H](Cc2ccccc2)OC)[C@H](C)C(=O)N[C@@H](C(=O)O)CCC(=O)N1C
REMARK SMILES IDX 39 1 38 2 37 3 36 4 28 6 27 7 25 8 26 9 23 11 24 12 19 13
REMARK SMILES IDX 18 14 16 15 17 16 11 18 10 19 8 20 9 21 12 24 13 25 14 26
REMARK SMILES IDX 15 27 20 28 21 29 22 30 29 32 30 33 31 34 32 35 33 36 34 37
REMARK SMILES IDX 35 38 57 43 58 44 59 45 60 46 61 47 62 49 66 50 67 51 68 52
REMARK SMILES IDX 69 53 70 54 71 55 2 56 1 57 3 58 4 59 5 60 6 62 7 63 63 65
REMARK SMILES IDX 64 66 65 67 40 69 41 70 42 71 44 72 43 73 45 74 46 75 47 76
REMARK SMILES IDX 55 77 56 78 48 79 49 80 50 81 54 82 51 83 53 84 52 85
REMARK H PARENT 38 5 27 10 18 17 10 22 22 31 34 39 34 40 35 41 35 42 61 48
REMARK H PARENT 5 61 65 68
REMARK Flexibility Score:  369.900
ROOT
ATOM      1  C   UNL     1       1.323   0.044   1.048  1.00  0.00     0.117 C 
ENDROOT
BRANCH   1   2
ATOM      2  N   UNL     1       2.504  -0.656   0.540  1.00  0.00    -0.347 N 
ATOM      3  O   UNL     1       2.153  -2.666   1.591  1.00  0.00    -0.273 OA
ATOM      4  C   UNL     1       2.776  -1.989   0.780  1.00  0.00     0.243 C 
ATOM      5  H   UNL     1       3.146  -0.167  -0.065  1.00  0.00     0.164 HD
BRANCH   4   6
ATOM      6  C   UNL     1       4.044  -2.506   0.056  1.00  0.00     0.171 C 
BRANCH   6   7
ATOM      7  N   UNL     1       4.441  -1.577  -1.014  1.00  0.00    -0.344 N 
ATOM      8  C   UNL     1       4.428  -1.976  -2.333  1.00  0.00     0.226 C 
ATOM      9  O   UNL     1       4.114  -3.109  -2.677  1.00  0.00    -0.275 OA
ATOM     10  H   UNL     1       4.771  -0.653  -0.764  1.00  0.00     0.164 HD
BRANCH   8  11
ATOM     11  C   UNL     1       4.810  -0.887  -3.320  1.00  0.00     0.109 C 
ATOM     12  C   UNL     1       4.781   0.479  -2.634  1.00  0.00     0.021 C 
BRANCH  11  13
ATOM     13  C   UNL     1       6.149  -1.244  -3.997  1.00  0.00     0.204 C 
BRANCH  13  14
ATOM     14  N   UNL     1       6.973  -2.121  -3.161  1.00  0.00    -0.340 N 
ATOM     15  C   UNL     1       8.061  -1.668  -2.446  1.00  0.00     0.243 C 
ATOM     16  O   UNL     1       8.381  -0.481  -2.412  1.00  0.00    -0.273 OA
ATOM     17  H   UNL     1       6.857  -3.133  -3.265  1.00  0.00     0.164 HD
BRANCH  15  18
ATOM     18  C   UNL     1       8.898  -2.804  -1.808  1.00  0.00     0.171 C 
BRANCH  18  19
ATOM     19  N   UNL     1      10.165  -2.206  -1.390  1.00  0.00    -0.343 N 
ATOM     20  C   UNL     1      11.300  -2.967  -1.190  1.00  0.00     0.242 CG0
ATOM     21  O   UNL     1      11.265  -4.195  -1.225  1.00  0.00    -0.273 OA
ATOM     22  H   UNL     1      10.215  -1.205  -1.235  1.00  0.00     0.164 HD
ATOM     23  G   UNL     1      12.558  -2.152  -0.829  1.00  0.00     0.000 G0
ENDBRANCH  18  19
BRANCH  18  24
ATOM     24  C   UNL     1       8.152  -3.426  -0.622  1.00  0.00     0.038 C 
BRANCH  24  25
ATOM     25  C   UNL     1       7.439  -4.758  -0.937  1.00  0.00    -0.015 C 
ATOM     26  C   UNL     1       7.375  -5.688   0.275  1.00  0.00     0.007 C 
ATOM     27  C   UNL     1       8.153  -5.464  -2.091  1.00  0.00     0.007 C 
ENDBRANCH  24  25
ENDBRANCH  18  24
ENDBRANCH  15  18
ENDBRANCH  13  14
BRANCH  13  28
ATOM     28  C   UNL     1       5.973  -1.940  -5.351  1.00  0.00     0.327 C 
ATOM     29  O   UNL     1       6.416  -1.557  -6.423  1.00  0.00    -0.250 OA
BRANCH  28  30
ATOM     30  O   UNL     1       5.153  -3.008  -5.293  1.00  0.00    -0.480 OA
ATOM     31  H   UNL     1       5.747  -3.757  -5.076  1.00  0.00     0.296 HD
ENDBRANCH  28  30
ENDBRANCH  13  28
ENDBRANCH  11  13
ENDBRANCH   8  11
ENDBRANCH   6   7
BRANCH   6  32
ATOM     32  C   UNL     1       5.173  -2.679   1.078  1.00  0.00     0.037 C 
BRANCH  32  33
ATOM     33  C   UNL     1       5.848  -1.344   1.426  1.00  0.00     0.026 C 
BRANCH  33  34
ATOM     34  C   UNL     1       6.977  -1.508   2.445  1.00  0.00     0.146 C 
BRANCH  34  35
ATOM     35  N   UNL     1       6.699  -2.675   3.271  1.00  0.00    -0.254 NA
ATOM     36  C   UNL     1       7.647  -3.505   3.500  1.00  0.00     0.185 C 
ATOM     37  N   UNL     1       7.403  -4.581   4.264  1.00  0.00    -0.370 N 
ATOM     38  N   UNL     1       8.922  -3.470   3.074  1.00  0.00    -0.370 N 
ATOM     39  H   UNL     1       6.465  -4.674   4.632  1.00  0.00     0.159 HD
ATOM     40  H   UNL     1       8.124  -5.179   4.630  1.00  0.00     0.159 HD
ATOM     41  H   UNL     1       9.537  -4.256   3.207  1.00  0.00     0.159 HD
ATOM     42  H   UNL     1       9.242  -2.724   2.477  1.00  0.00     0.159 HD
ENDBRANCH  34  35
ENDBRANCH  33  34
ENDBRANCH  32  33
ENDBRANCH   6  32
ENDBRANCH   4   6
ENDBRANCH   1   2
BRANCH   1  43
ATOM     43  C   UNL     1       0.723   0.903  -0.102  1.00  0.00     0.102 C 
ATOM     44  C   UNL     1       0.171   2.259   0.371  1.00  0.00     0.020 C 
BRANCH  43  45
ATOM     45  C   UNL     1      -0.265   0.087  -0.940  1.00  0.00     0.225 C 
ATOM     46  O   UNL     1      -0.212   0.021  -2.165  1.00  0.00    -0.275 OA
ATOM     47  N   UNL     1      -1.292  -0.502  -0.238  1.00  0.00    -0.342 N 
ATOM     48  H   UNL     1      -1.237  -0.566   0.769  1.00  0.00     0.164 HD
BRANCH  47  49
ATOM     49  C   UNL     1      -2.292  -1.342  -0.904  1.00  0.00     0.192 C 
BRANCH  49  50
ATOM     50  C   UNL     1      -3.340  -0.455  -1.580  1.00  0.00     0.047 C 
BRANCH  50  51
ATOM     51  C   UNL     1      -4.058  -1.176  -2.730  1.00  0.00     0.103 C 
BRANCH  51  52
ATOM     52  C   UNL     1      -5.489  -1.561  -2.361  1.00  0.00     0.226 C 
ATOM     53  O   UNL     1      -5.733  -2.706  -1.976  1.00  0.00    -0.275 OA
BRANCH  52  54
ATOM     54  N   UNL     1      -6.448  -0.533  -2.415  1.00  0.00    -0.311 N 
ATOM     55  C   UNL     1      -6.465   0.428  -3.525  1.00  0.00     0.153 C 
BRANCH  54  56
ATOM     56  C   UNL     1      -7.426  -0.391  -1.416  1.00  0.00     0.102 C 
ATOM     57  C   UNL     1      -7.233   0.212  -0.232  1.00  0.00     0.043 C 
BRANCH  56  58
ATOM     58  C   UNL     1      -8.835  -0.890  -1.635  1.00  0.00     0.268 C 
ATOM     59  O   UNL     1      -9.828  -0.278  -1.262  1.00  0.00    -0.268 OA
ATOM     60  N   UNL     1      -8.889  -2.062  -2.350  1.00  0.00    -0.339 N 
ATOM     61  H   UNL     1      -8.020  -2.512  -2.613  1.00  0.00     0.164 HD
BRANCH  60  62
ATOM     62  C   UNL     1     -10.156  -2.687  -2.728  1.00  0.00     0.168 CG0
ATOM     63  C   UNL     1     -10.336  -2.687  -4.241  1.00  0.00     0.041 C 
ATOM     64  G   UNL     1     -11.322  -1.949  -2.039  1.00  0.00     0.000 G0
ENDBRANCH  60  62
ENDBRANCH  56  58
ENDBRANCH  54  56
ENDBRANCH  52  54
ENDBRANCH  51  52
ENDBRANCH  50  51
ENDBRANCH  49  50
BRANCH  49  65
ATOM     65  C   UNL     1      -2.988  -2.288   0.087  1.00  0.00     0.326 C 
ATOM     66  O   UNL     1      -3.694  -1.942   1.023  1.00  0.00    -0.250 OA
BRANCH  65  67
ATOM     67  O   UNL     1      -2.721  -3.599  -0.102  1.00  0.00    -0.480 OA
ATOM     68  H   UNL     1      -2.809  -3.985   0.796  1.00  0.00     0.296 HD
ENDBRANCH  65  67
ENDBRANCH  49  65
ENDBRANCH  47  49
ENDBRANCH  43  45
ENDBRANCH   1  43
BRANCH   1  69
ATOM     69  C   UNL     1       1.757   0.733   2.329  1.00  0.00    -0.001 C 
ATOM     70  C   UNL     1       2.975   1.223   2.621  1.00  0.00     0.001 C 
BRANCH  70  71
ATOM     71  C   UNL     1       3.376   1.905   3.852  1.00  0.00    -0.055 C 
ATOM     72  C   UNL     1       4.443   1.419   4.521  1.00  0.00    -0.018 C 
ATOM     73  C   UNL     1       2.576   3.107   4.283  1.00  0.00     0.044 C 
BRANCH  72  74
ATOM     74  C   UNL     1       5.082   1.917   5.809  1.00  0.00     0.038 C 
ATOM     75  C   UNL     1       6.470   2.458   5.446  1.00  0.00     0.015 C 
BRANCH  74  76
ATOM     76  C   UNL     1       5.084   0.757   6.848  1.00  0.00     0.128 C 
BRANCH  76  77
ATOM     77  O   UNL     1       6.318   0.762   7.586  1.00  0.00    -0.381 OA
ATOM     78  C   UNL     1       6.876  -0.532   7.774  1.00  0.00     0.195 C 
ENDBRANCH  76  77
BRANCH  76  79
ATOM     79  C   UNL     1       3.836   0.731   7.766  1.00  0.00     0.068 C 
BRANCH  79  80
ATOM     80  C   UNL     1       2.493   0.478   7.125  1.00  0.00    -0.045 A 
ATOM     81  C   UNL     1       2.247  -0.698   6.404  1.00  0.00     0.004 A 
ATOM     82  C   UNL     1       1.473   1.437   7.220  1.00  0.00     0.004 A 
ATOM     83  C   UNL     1       1.006  -0.918   5.803  1.00  0.00     0.000 A 
ATOM     84  C   UNL     1       0.232   1.216   6.618  1.00  0.00     0.000 A 
ATOM     85  C   UNL     1      -0.001   0.039   5.911  1.00  0.00     0.000 A 
ENDBRANCH  79  80
ENDBRANCH  76  79
ENDBRANCH  74  76
ENDBRANCH  72  74
ENDBRANCH  70  71
ENDBRANCH   1  69
TORSDOF 17
ENDMDL
MODEL 39
REMARK VINA RESULT:    -5.090     11.393     16.580
REMARK INTER + INTRA:         -23.837
REMARK INTER:                 -16.331
REMARK INTRA:                  -7.505
REMARK UNBOUND:                -8.629
REMARK SMILES C=C1C(=O)N[C@H](C)C(=O)N[C@@H](CC(C)C)C(=O)N[C@@H](C(=O)O)[C@H](C)C(=O)N[C@@H](CCCN=C(N)N)C(=O)N[C@@H](/C=C/C(C)=C/[C@H](C)[C@H](Cc2ccccc2)OC)[C@H](C)C(=O)N[C@@H](C(=O)O)CCC(=O)N1C
REMARK SMILES IDX 39 1 38 2 37 3 36 4 28 6 27 7 25 8 26 9 23 11 24 12 19 13
REMARK SMILES IDX 18 14 16 15 17 16 11 18 10 19 8 20 9 21 12 24 13 25 14 26
REMARK SMILES IDX 15 27 20 28 21 29 22 30 29 32 30 33 31 34 32 35 33 36 34 37
REMARK SMILES IDX 35 38 57 43 58 44 59 45 60 46 61 47 62 49 66 50 67 51 68 52
REMARK SMILES IDX 69 53 70 54 71 55 2 56 1 57 3 58 4 59 5 60 6 62 7 63 63 65
REMARK SMILES IDX 64 66 65 67 40 69 41 70 42 71 44 72 43 73 45 74 46 75 47 76
REMARK SMILES IDX 55 77 56 78 48 79 49 80 50 81 54 82 51 83 53 84 52 85
REMARK H PARENT 38 5 27 10 18 17 10 22 22 31 34 39 34 40 35 41 35 42 61 48
REMARK H PARENT 5 61 65 68
REMARK Flexibility Score:  369.900
ROOT
ATOM      1  C   UNL     1      -0.571   0.371   2.016  1.00  0.00     0.117 C 
ENDROOT
BRANCH   1   2
ATOM      2  N   UNL     1       0.873   0.149   1.935  1.00  0.00    -0.347 N 
ATOM      3  O   UNL     1       1.012  -1.562   3.458  1.00  0.00    -0.273 OA
ATOM      4  C   UNL     1       1.538  -0.865   2.597  1.00  0.00     0.243 C 
ATOM      5  H   UNL     1       1.429   0.730   1.325  1.00  0.00     0.164 HD
BRANCH   4   6
ATOM      6  C   UNL     1       3.052  -0.933   2.272  1.00  0.00     0.171 C 
BRANCH   6   7
ATOM      7  N   UNL     1       3.299  -0.514   0.883  1.00  0.00    -0.344 N 
ATOM      8  C   UNL     1       3.410  -1.449  -0.123  1.00  0.00     0.226 C 
ATOM      9  O   UNL     1       3.333  -2.654   0.084  1.00  0.00    -0.275 OA
ATOM     10  H   UNL     1       3.436   0.469   0.684  1.00  0.00     0.164 HD
BRANCH   8  11
ATOM     11  C   UNL     1       3.610  -0.857  -1.507  1.00  0.00     0.109 C 
ATOM     12  C   UNL     1       3.697   0.666  -1.420  1.00  0.00     0.021 C 
BRANCH  11  13
ATOM     13  C   UNL     1       4.811  -1.537  -2.196  1.00  0.00     0.204 C 
BRANCH  13  14
ATOM     14  N   UNL     1       5.769  -2.078  -1.227  1.00  0.00    -0.340 N 
ATOM     15  C   UNL     1       7.129  -1.882  -1.330  1.00  0.00     0.243 C 
ATOM     16  O   UNL     1       7.631  -1.186  -2.211  1.00  0.00    -0.273 OA
ATOM     17  H   UNL     1       5.436  -2.784  -0.566  1.00  0.00     0.164 HD
BRANCH  15  18
ATOM     18  C   UNL     1       7.953  -2.717  -0.319  1.00  0.00     0.171 C 
BRANCH  18  19
ATOM     19  N   UNL     1       9.356  -2.370  -0.536  1.00  0.00    -0.343 N 
ATOM     20  C   UNL     1      10.300  -3.324  -0.864  1.00  0.00     0.242 CG0
ATOM     21  O   UNL     1      10.032  -4.523  -0.858  1.00  0.00    -0.273 OA
ATOM     22  H   UNL     1       9.651  -1.405  -0.437  1.00  0.00     0.164 HD
ATOM     23  G   UNL     1      11.711  -2.759  -1.130  1.00  0.00     0.000 G0
ENDBRANCH  18  19
BRANCH  18  24
ATOM     24  C   UNL     1       7.514  -2.413   1.118  1.00  0.00     0.038 C 
BRANCH  24  25
ATOM     25  C   UNL     1       6.848  -3.596   1.853  1.00  0.00    -0.015 C 
ATOM     26  C   UNL     1       7.421  -3.812   3.253  1.00  0.00     0.007 C 
ATOM     27  C   UNL     1       7.013  -4.873   1.025  1.00  0.00     0.007 C 
ENDBRANCH  24  25
ENDBRANCH  18  24
ENDBRANCH  15  18
ENDBRANCH  13  14
BRANCH  13  28
ATOM     28  C   UNL     1       4.404  -2.686  -3.123  1.00  0.00     0.327 C 
ATOM     29  O   UNL     1       4.301  -2.633  -4.339  1.00  0.00    -0.250 OA
BRANCH  28  30
ATOM     30  O   UNL     1       4.035  -3.798  -2.455  1.00  0.00    -0.480 OA
ATOM     31  H   UNL     1       3.958  -4.483  -3.152  1.00  0.00     0.296 HD
ENDBRANCH  28  30
ENDBRANCH  13  28
ENDBRANCH  11  13
ENDBRANCH   8  11
ENDBRANCH   6   7
BRANCH   6  32
ATOM     32  C   UNL     1       3.818  -0.043   3.257  1.00  0.00     0.037 C 
BRANCH  32  33
ATOM     33  C   UNL     1       5.026  -0.764   3.871  1.00  0.00     0.026 C 
BRANCH  33  34
ATOM     34  C   UNL     1       6.310   0.060   3.776  1.00  0.00     0.146 C 
BRANCH  34  35
ATOM     35  N   UNL     1       7.344  -0.586   4.574  1.00  0.00    -0.254 NA
ATOM     36  C   UNL     1       7.709  -0.034   5.670  1.00  0.00     0.185 C 
ATOM     37  N   UNL     1       8.656  -0.623   6.416  1.00  0.00    -0.370 N 
ATOM     38  N   UNL     1       7.269   1.108   6.228  1.00  0.00    -0.370 N 
ATOM     39  H   UNL     1       9.031  -1.496   6.066  1.00  0.00     0.159 HD
ATOM     40  H   UNL     1       8.870  -0.351   7.360  1.00  0.00     0.159 HD
ATOM     41  H   UNL     1       7.733   1.511   7.025  1.00  0.00     0.159 HD
ATOM     42  H   UNL     1       6.566   1.666   5.769  1.00  0.00     0.159 HD
ENDBRANCH  34  35
ENDBRANCH  33  34
ENDBRANCH  32  33
ENDBRANCH   6  32
ENDBRANCH   4   6
ENDBRANCH   1   2
BRANCH   1  43
ATOM     43  C   UNL     1      -1.091   0.770   0.604  1.00  0.00     0.102 C 
ATOM     44  C   UNL     1      -2.452   1.485   0.633  1.00  0.00     0.020 C 
BRANCH  43  45
ATOM     45  C   UNL     1      -1.034  -0.420  -0.359  1.00  0.00     0.225 C 
ATOM     46  O   UNL     1       0.006  -0.815  -0.877  1.00  0.00    -0.275 OA
ATOM     47  N   UNL     1      -2.250  -0.973  -0.689  1.00  0.00    -0.342 N 
ATOM     48  H   UNL     1      -3.070  -0.741  -0.145  1.00  0.00     0.164 HD
BRANCH  47  49
ATOM     49  C   UNL     1      -2.347  -2.139  -1.572  1.00  0.00     0.192 C 
BRANCH  49  50
ATOM     50  C   UNL     1      -2.681  -1.682  -2.994  1.00  0.00     0.047 C 
BRANCH  50  51
ATOM     51  C   UNL     1      -3.435  -0.345  -3.013  1.00  0.00     0.103 C 
BRANCH  51  52
ATOM     52  C   UNL     1      -4.836  -0.485  -3.604  1.00  0.00     0.226 C 
ATOM     53  O   UNL     1      -4.972  -0.670  -4.815  1.00  0.00    -0.275 OA
BRANCH  52  54
ATOM     54  N   UNL     1      -5.907  -0.468  -2.691  1.00  0.00    -0.311 N 
ATOM     55  C   UNL     1      -5.728   0.048  -1.327  1.00  0.00     0.153 C 
BRANCH  54  56
ATOM     56  C   UNL     1      -7.182  -0.935  -3.048  1.00  0.00     0.102 C 
ATOM     57  C   UNL     1      -7.568  -2.220  -3.011  1.00  0.00     0.043 C 
BRANCH  56  58
ATOM     58  C   UNL     1      -8.268   0.026  -3.475  1.00  0.00     0.268 C 
ATOM     59  O   UNL     1      -9.297   0.198  -2.837  1.00  0.00    -0.268 OA
ATOM     60  N   UNL     1      -7.950   0.729  -4.612  1.00  0.00    -0.339 N 
ATOM     61  H   UNL     1      -7.081   0.519  -5.088  1.00  0.00     0.164 HD
BRANCH  60  62
ATOM     62  C   UNL     1      -8.832   1.756  -5.165  1.00  0.00     0.168 CG0
ATOM     63  C   UNL     1      -8.721   1.813  -6.683  1.00  0.00     0.041 C 
ATOM     64  G   UNL     1      -8.488   3.124  -4.540  1.00  0.00     0.000 G0
ENDBRANCH  60  62
ENDBRANCH  56  58
ENDBRANCH  54  56
ENDBRANCH  52  54
ENDBRANCH  51  52
ENDBRANCH  50  51
ENDBRANCH  49  50
BRANCH  49  65
ATOM     65  C   UNL     1      -3.421  -3.127  -1.090  1.00  0.00     0.326 C 
ATOM     66  O   UNL     1      -4.519  -3.288  -1.601  1.00  0.00    -0.250 OA
BRANCH  65  67
ATOM     67  O   UNL     1      -3.095  -3.812   0.029  1.00  0.00    -0.480 OA
ATOM     68  H   UNL     1      -2.795  -4.682  -0.312  1.00  0.00     0.296 HD
ENDBRANCH  65  67
ENDBRANCH  49  65
ENDBRANCH  47  49
ENDBRANCH  43  45
ENDBRANCH   1  43
BRANCH   1  69
ATOM     69  C   UNL     1      -0.789   1.328   3.174  1.00  0.00    -0.001 C 
ATOM     70  C   UNL     1      -1.736   1.256   4.126  1.00  0.00     0.001 C 
BRANCH  70  71
ATOM     71  C   UNL     1      -1.923   2.173   5.252  1.00  0.00    -0.055 C 
ATOM     72  C   UNL     1      -0.819   2.629   5.880  1.00  0.00    -0.018 C 
ATOM     73  C   UNL     1      -3.333   2.549   5.625  1.00  0.00     0.044 C 
BRANCH  72  74
ATOM     74  C   UNL     1      -0.707   3.581   7.062  1.00  0.00     0.038 C 
ATOM     75  C   UNL     1      -0.755   5.007   6.500  1.00  0.00     0.015 C 
BRANCH  74  76
ATOM     76  C   UNL     1       0.585   3.238   7.862  1.00  0.00     0.128 C 
BRANCH  76  77
ATOM     77  O   UNL     1       0.313   2.189   8.806  1.00  0.00    -0.381 OA
ATOM     78  C   UNL     1      -0.460   2.611   9.922  1.00  0.00     0.195 C 
ENDBRANCH  76  77
BRANCH  76  79
ATOM     79  C   UNL     1       1.816   2.938   6.970  1.00  0.00     0.068 C 
BRANCH  79  80
ATOM     80  C   UNL     1       2.475   1.587   7.107  1.00  0.00    -0.045 A 
ATOM     81  C   UNL     1       1.921   0.449   6.506  1.00  0.00     0.004 A 
ATOM     82  C   UNL     1       3.646   1.445   7.867  1.00  0.00     0.004 A 
ATOM     83  C   UNL     1       2.530  -0.800   6.649  1.00  0.00     0.000 A 
ATOM     84  C   UNL     1       4.254   0.196   8.010  1.00  0.00     0.000 A 
ATOM     85  C   UNL     1       3.696  -0.926   7.400  1.00  0.00     0.000 A 
ENDBRANCH  79  80
ENDBRANCH  76  79
ENDBRANCH  74  76
ENDBRANCH  72  74
ENDBRANCH  70  71
ENDBRANCH   1  69
TORSDOF 17
ENDMDL
MODEL 40
REMARK VINA RESULT:    -5.045      9.641     14.518
REMARK INTER + INTRA:         -23.703
REMARK INTER:                 -14.756
REMARK INTRA:                  -8.947
REMARK UNBOUND:                -8.629
REMARK SMILES C=C1C(=O)N[C@H](C)C(=O)N[C@@H](CC(C)C)C(=O)N[C@@H](C(=O)O)[C@H](C)C(=O)N[C@@H](CCCN=C(N)N)C(=O)N[C@@H](/C=C/C(C)=C/[C@H](C)[C@H](Cc2ccccc2)OC)[C@H](C)C(=O)N[C@@H](C(=O)O)CCC(=O)N1C
REMARK SMILES IDX 39 1 38 2 37 3 36 4 28 6 27 7 25 8 26 9 23 11 24 12 19 13
REMARK SMILES IDX 18 14 16 15 17 16 11 18 10 19 8 20 9 21 12 24 13 25 14 26
REMARK SMILES IDX 15 27 20 28 21 29 22 30 29 32 30 33 31 34 32 35 33 36 34 37
REMARK SMILES IDX 35 38 57 43 58 44 59 45 60 46 61 47 62 49 66 50 67 51 68 52
REMARK SMILES IDX 69 53 70 54 71 55 2 56 1 57 3 58 4 59 5 60 6 62 7 63 63 65
REMARK SMILES IDX 64 66 65 67 40 69 41 70 42 71 44 72 43 73 45 74 46 75 47 76
REMARK SMILES IDX 55 77 56 78 48 79 49 80 50 81 54 82 51 83 53 84 52 85
REMARK H PARENT 38 5 27 10 18 17 10 22 22 31 34 39 34 40 35 41 35 42 61 48
REMARK H PARENT 5 61 65 68
REMARK Flexibility Score:  369.900
ROOT
ATOM      1  C   UNL     1       5.943  -3.945   1.728  1.00  0.00     0.117 C 
ENDROOT
BRANCH   1   2
ATOM      2  N   UNL     1       6.743  -3.850   0.506  1.00  0.00    -0.347 N 
ATOM      3  O   UNL     1       6.653  -6.062  -0.100  1.00  0.00    -0.273 OA
ATOM      4  C   UNL     1       6.958  -4.903  -0.362  1.00  0.00     0.243 C 
ATOM      5  H   UNL     1       7.129  -2.958   0.236  1.00  0.00     0.164 HD
BRANCH   4   6
ATOM      6  C   UNL     1       7.767  -4.515  -1.625  1.00  0.00     0.171 C 
BRANCH   6   7
ATOM      7  N   UNL     1       7.443  -3.141  -2.041  1.00  0.00    -0.344 N 
ATOM      8  C   UNL     1       6.661  -2.910  -3.152  1.00  0.00     0.226 C 
ATOM      9  O   UNL     1       6.222  -3.815  -3.851  1.00  0.00    -0.275 OA
ATOM     10  H   UNL     1       7.844  -2.366  -1.529  1.00  0.00     0.164 HD
BRANCH   8  11
ATOM     11  C   UNL     1       6.372  -1.443  -3.419  1.00  0.00     0.109 C 
ATOM     12  C   UNL     1       7.609  -0.761  -4.003  1.00  0.00     0.021 C 
BRANCH  11  13
ATOM     13  C   UNL     1       5.095  -1.310  -4.271  1.00  0.00     0.204 C 
BRANCH  13  14
ATOM     14  N   UNL     1       5.248  -1.923  -5.594  1.00  0.00    -0.340 N 
ATOM     15  C   UNL     1       5.071  -1.223  -6.768  1.00  0.00     0.243 C 
ATOM     16  O   UNL     1       4.830  -0.018  -6.789  1.00  0.00    -0.273 OA
ATOM     17  H   UNL     1       5.296  -2.944  -5.648  1.00  0.00     0.164 HD
BRANCH  15  18
ATOM     18  C   UNL     1       5.078  -2.121  -8.030  1.00  0.00     0.171 C 
BRANCH  18  19
ATOM     19  N   UNL     1       6.479  -2.312  -8.400  1.00  0.00    -0.343 N 
ATOM     20  C   UNL     1       6.898  -2.268  -9.716  1.00  0.00     0.242 CG0
ATOM     21  O   UNL     1       6.097  -2.200 -10.644  1.00  0.00    -0.273 OA
ATOM     22  H   UNL     1       7.165  -2.488  -7.675  1.00  0.00     0.164 HD
ATOM     23  G   UNL     1       8.423  -2.413  -9.903  1.00  0.00     0.000 G0
ENDBRANCH  18  19
BRANCH  18  24
ATOM     24  C   UNL     1       4.383  -3.458  -7.747  1.00  0.00     0.038 C 
BRANCH  24  25
ATOM     25  C   UNL     1       3.327  -3.870  -8.795  1.00  0.00    -0.015 C 
ATOM     26  C   UNL     1       2.815  -2.681  -9.608  1.00  0.00     0.007 C 
ATOM     27  C   UNL     1       2.153  -4.562  -8.097  1.00  0.00     0.007 C 
ENDBRANCH  24  25
ENDBRANCH  18  24
ENDBRANCH  15  18
ENDBRANCH  13  14
BRANCH  13  28
ATOM     28  C   UNL     1       3.863  -1.944  -3.617  1.00  0.00     0.327 C 
ATOM     29  O   UNL     1       3.059  -2.687  -4.159  1.00  0.00    -0.250 OA
BRANCH  28  30
ATOM     30  O   UNL     1       3.653  -1.512  -2.357  1.00  0.00    -0.480 OA
ATOM     31  H   UNL     1       3.313  -0.600  -2.468  1.00  0.00     0.296 HD
ENDBRANCH  28  30
ENDBRANCH  13  28
ENDBRANCH  11  13
ENDBRANCH   8  11
ENDBRANCH   6   7
BRANCH   6  32
ATOM     32  C   UNL     1       9.264  -4.659  -1.328  1.00  0.00     0.037 C 
BRANCH  32  33
ATOM     33  C   UNL     1       9.651  -4.021   0.014  1.00  0.00     0.026 C 
BRANCH  33  34
ATOM     34  C   UNL     1      10.260  -2.628  -0.154  1.00  0.00     0.146 C 
BRANCH  34  35
ATOM     35  N   UNL     1      10.323  -1.983   1.150  1.00  0.00    -0.254 NA
ATOM     36  C   UNL     1       9.405  -1.147   1.467  1.00  0.00     0.185 C 
ATOM     37  N   UNL     1       9.451  -0.550   2.668  1.00  0.00    -0.370 N 
ATOM     38  N   UNL     1       8.340  -0.750   0.748  1.00  0.00    -0.370 N 
ATOM     39  H   UNL     1      10.220  -0.807   3.274  1.00  0.00     0.159 HD
ATOM     40  H   UNL     1       8.687  -0.024   3.057  1.00  0.00     0.159 HD
ATOM     41  H   UNL     1       7.765   0.019   1.052  1.00  0.00     0.159 HD
ATOM     42  H   UNL     1       8.188  -1.105  -0.182  1.00  0.00     0.159 HD
ENDBRANCH  34  35
ENDBRANCH  33  34
ENDBRANCH  32  33
ENDBRANCH   6  32
ENDBRANCH   4   6
ENDBRANCH   1   2
BRANCH   1  43
ATOM     43  C   UNL     1       4.594  -3.206   1.495  1.00  0.00     0.102 C 
ATOM     44  C   UNL     1       3.602  -4.002   0.629  1.00  0.00     0.020 C 
BRANCH  43  45
ATOM     45  C   UNL     1       4.828  -1.772   1.012  1.00  0.00     0.225 C 
ATOM     46  O   UNL     1       5.392  -1.503  -0.045  1.00  0.00    -0.275 OA
ATOM     47  N   UNL     1       4.446  -0.782   1.888  1.00  0.00    -0.342 N 
ATOM     48  H   UNL     1       3.852  -1.010   2.673  1.00  0.00     0.164 HD
BRANCH  47  49
ATOM     49  C   UNL     1       4.577   0.637   1.545  1.00  0.00     0.192 C 
BRANCH  49  50
ATOM     50  C   UNL     1       4.702   1.467   2.826  1.00  0.00     0.047 C 
BRANCH  50  51
ATOM     51  C   UNL     1       4.204   0.706   4.063  1.00  0.00     0.103 C 
BRANCH  51  52
ATOM     52  C   UNL     1       3.181   1.514   4.859  1.00  0.00     0.226 C 
ATOM     53  O   UNL     1       2.798   2.604   4.430  1.00  0.00    -0.275 OA
BRANCH  52  54
ATOM     54  N   UNL     1       2.674   0.909   6.024  1.00  0.00    -0.311 N 
ATOM     55  C   UNL     1       2.236  -0.493   6.019  1.00  0.00     0.153 C 
BRANCH  54  56
ATOM     56  C   UNL     1       2.574   1.618   7.233  1.00  0.00     0.102 C 
ATOM     57  C   UNL     1       3.537   1.684   8.167  1.00  0.00     0.043 C 
BRANCH  56  58
ATOM     58  C   UNL     1       1.340   2.425   7.558  1.00  0.00     0.268 C 
ATOM     59  O   UNL     1       0.393   1.976   8.189  1.00  0.00    -0.268 OA
ATOM     60  N   UNL     1       1.419   3.729   7.131  1.00  0.00    -0.339 N 
ATOM     61  H   UNL     1       2.234   4.021   6.605  1.00  0.00     0.164 HD
BRANCH  60  62
ATOM     62  C   UNL     1       0.360   4.702   7.397  1.00  0.00     0.168 CG0
ATOM     63  C   UNL     1      -0.202   5.267   6.098  1.00  0.00     0.041 C 
ATOM     64  G   UNL     1       0.909   5.832   8.291  1.00  0.00     0.000 G0
ENDBRANCH  60  62
ENDBRANCH  56  58
ENDBRANCH  54  56
ENDBRANCH  52  54
ENDBRANCH  51  52
ENDBRANCH  50  51
ENDBRANCH  49  50
BRANCH  49  65
ATOM     65  C   UNL     1       3.373   1.137   0.731  1.00  0.00     0.326 C 
ATOM     66  O   UNL     1       2.375   1.671   1.193  1.00  0.00    -0.250 OA
BRANCH  65  67
ATOM     67  O   UNL     1       3.449   0.893  -0.596  1.00  0.00    -0.480 OA
ATOM     68  H   UNL     1       2.575   0.499  -0.809  1.00  0.00     0.296 HD
ENDBRANCH  65  67
ENDBRANCH  49  65
ENDBRANCH  47  49
ENDBRANCH  43  45
ENDBRANCH   1  43
BRANCH   1  69
ATOM     69  C   UNL     1       6.844  -3.487   2.860  1.00  0.00    -0.001 C 
ATOM     70  C   UNL     1       6.518  -2.685   3.889  1.00  0.00     0.001 C 
BRANCH  70  71
ATOM     71  C   UNL     1       7.391  -2.267   4.989  1.00  0.00    -0.055 C 
ATOM     72  C   UNL     1       6.978  -1.240   5.762  1.00  0.00    -0.018 C 
ATOM     73  C   UNL     1       8.682  -3.017   5.185  1.00  0.00     0.044 C 
BRANCH  72  74
ATOM     74  C   UNL     1       7.665  -0.601   6.960  1.00  0.00     0.038 C 
ATOM     75  C   UNL     1       6.616  -0.484   8.073  1.00  0.00     0.015 C 
BRANCH  74  76
ATOM     76  C   UNL     1       8.296   0.751   6.514  1.00  0.00     0.128 C 
BRANCH  76  77
ATOM     77  O   UNL     1       9.467   0.507   5.717  1.00  0.00    -0.381 OA
ATOM     78  C   UNL     1      10.565  -0.009   6.459  1.00  0.00     0.195 C 
ENDBRANCH  76  77
BRANCH  76  79
ATOM     79  C   UNL     1       7.296   1.717   5.829  1.00  0.00     0.068 C 
BRANCH  79  80
ATOM     80  C   UNL     1       6.757   2.870   6.641  1.00  0.00    -0.045 A 
ATOM     81  C   UNL     1       7.168   3.074   7.965  1.00  0.00     0.004 A 
ATOM     82  C   UNL     1       5.809   3.743   6.086  1.00  0.00     0.004 A 
ATOM     83  C   UNL     1       6.654   4.135   8.714  1.00  0.00     0.000 A 
ATOM     84  C   UNL     1       5.295   4.803   6.837  1.00  0.00     0.000 A 
ATOM     85  C   UNL     1       5.719   4.999   8.149  1.00  0.00     0.000 A 
ENDBRANCH  79  80
ENDBRANCH  76  79
ENDBRANCH  74  76
ENDBRANCH  72  74
ENDBRANCH  70  71
ENDBRANCH   1  69
TORSDOF 17
ENDMDL
MODEL 41
REMARK VINA RESULT:    -5.043     11.918     16.558
REMARK INTER + INTRA:         -23.695
REMARK INTER:                 -15.792
REMARK INTRA:                  -7.903
REMARK UNBOUND:                -8.629
REMARK SMILES C=C1C(=O)N[C@H](C)C(=O)N[C@@H](CC(C)C)C(=O)N[C@@H](C(=O)O)[C@H](C)C(=O)N[C@@H](CCCN=C(N)N)C(=O)N[C@@H](/C=C/C(C)=C/[C@H](C)[C@H](Cc2ccccc2)OC)[C@H](C)C(=O)N[C@@H](C(=O)O)CCC(=O)N1C
REMARK SMILES IDX 39 1 38 2 37 3 36 4 28 6 27 7 25 8 26 9 23 11 24 12 19 13
REMARK SMILES IDX 18 14 16 15 17 16 11 18 10 19 8 20 9 21 12 24 13 25 14 26
REMARK SMILES IDX 15 27 20 28 21 29 22 30 29 32 30 33 31 34 32 35 33 36 34 37
REMARK SMILES IDX 35 38 57 43 58 44 59 45 60 46 61 47 62 49 66 50 67 51 68 52
REMARK SMILES IDX 69 53 70 54 71 55 2 56 1 57 3 58 4 59 5 60 6 62 7 63 63 65
REMARK SMILES IDX 64 66 65 67 40 69 41 70 42 71 44 72 43 73 45 74 46 75 47 76
REMARK SMILES IDX 55 77 56 78 48 79 49 80 50 81 54 82 51 83 53 84 52 85
REMARK H PARENT 38 5 27 10 18 17 10 22 22 31 34 39 34 40 35 41 35 42 61 48
REMARK H PARENT 5 61 65 68
REMARK Flexibility Score:  369.900
ROOT
ATOM      1  C   UNL     1       1.461   0.289   3.705  1.00  0.00     0.117 C 
ENDROOT
BRANCH   1   2
ATOM      2  N   UNL     1       2.189   0.046   2.459  1.00  0.00    -0.347 N 
ATOM      3  O   UNL     1       1.532  -2.128   2.130  1.00  0.00    -0.273 OA
ATOM      4  C   UNL     1       2.092  -1.117   1.721  1.00  0.00     0.243 C 
ATOM      5  H   UNL     1       2.764   0.779   2.072  1.00  0.00     0.164 HD
BRANCH   4   6
ATOM      6  C   UNL     1       2.899  -1.085   0.398  1.00  0.00     0.171 C 
BRANCH   6   7
ATOM      7  N   UNL     1       3.439  -2.419   0.091  1.00  0.00    -0.344 N 
ATOM      8  C   UNL     1       4.706  -2.775   0.499  1.00  0.00     0.226 C 
ATOM      9  O   UNL     1       5.444  -2.008   1.105  1.00  0.00    -0.275 OA
ATOM     10  H   UNL     1       2.884  -3.056  -0.467  1.00  0.00     0.164 HD
BRANCH   8  11
ATOM     11  C   UNL     1       5.096  -4.201   0.154  1.00  0.00     0.109 C 
ATOM     12  C   UNL     1       4.592  -4.561  -1.244  1.00  0.00     0.021 C 
BRANCH  11  13
ATOM     13  C   UNL     1       6.611  -4.393   0.367  1.00  0.00     0.204 C 
BRANCH  13  14
ATOM     14  N   UNL     1       6.994  -4.246   1.774  1.00  0.00    -0.340 N 
ATOM     15  C   UNL     1       8.194  -3.697   2.170  1.00  0.00     0.243 C 
ATOM     16  O   UNL     1       9.005  -3.235   1.369  1.00  0.00    -0.273 OA
ATOM     17  H   UNL     1       6.440  -4.743   2.477  1.00  0.00     0.164 HD
BRANCH  15  18
ATOM     18  C   UNL     1       8.468  -3.836   3.688  1.00  0.00     0.171 C 
BRANCH  18  19
ATOM     19  N   UNL     1       9.233  -5.069   3.864  1.00  0.00    -0.343 N 
ATOM     20  C   UNL     1       8.961  -5.956   4.888  1.00  0.00     0.242 CG0
ATOM     21  O   UNL     1       8.153  -5.686   5.775  1.00  0.00    -0.273 OA
ATOM     22  H   UNL     1       9.989  -5.281   3.224  1.00  0.00     0.164 HD
ATOM     23  G   UNL     1       9.820  -7.237   4.866  1.00  0.00     0.000 G0
ENDBRANCH  18  19
BRANCH  18  24
ATOM     24  C   UNL     1       9.236  -2.618   4.214  1.00  0.00     0.038 C 
BRANCH  24  25
ATOM     25  C   UNL     1       8.622  -1.961   5.468  1.00  0.00    -0.015 C 
ATOM     26  C   UNL     1       9.247  -2.476   6.764  1.00  0.00     0.007 C 
ATOM     27  C   UNL     1       7.111  -2.207   5.491  1.00  0.00     0.007 C 
ENDBRANCH  24  25
ENDBRANCH  18  24
ENDBRANCH  15  18
ENDBRANCH  13  14
BRANCH  13  28
ATOM     28  C   UNL     1       7.118  -5.761  -0.101  1.00  0.00     0.327 C 
ATOM     29  O   UNL     1       7.787  -5.981  -1.099  1.00  0.00    -0.250 OA
BRANCH  28  30
ATOM     30  O   UNL     1       6.653  -6.781   0.648  1.00  0.00    -0.480 OA
ATOM     31  H   UNL     1       7.143  -7.564   0.321  1.00  0.00     0.296 HD
ENDBRANCH  28  30
ENDBRANCH  13  28
ENDBRANCH  11  13
ENDBRANCH   8  11
ENDBRANCH   6   7
BRANCH   6  32
ATOM     32  C   UNL     1       1.990  -0.589  -0.733  1.00  0.00     0.037 C 
BRANCH  32  33
ATOM     33  C   UNL     1       2.781   0.115  -1.845  1.00  0.00     0.026 C 
BRANCH  33  34
ATOM     34  C   UNL     1       1.953   0.315  -3.115  1.00  0.00     0.146 C 
BRANCH  34  35
ATOM     35  N   UNL     1       1.952  -0.928  -3.874  1.00  0.00    -0.254 NA
ATOM     36  C   UNL     1       0.831  -1.405  -4.271  1.00  0.00     0.185 C 
ATOM     37  N   UNL     1       0.818  -2.547  -4.976  1.00  0.00    -0.370 N 
ATOM     38  N   UNL     1      -0.408  -0.916  -4.084  1.00  0.00    -0.370 N 
ATOM     39  H   UNL     1       1.716  -2.972  -5.167  1.00  0.00     0.159 HD
ATOM     40  H   UNL     1       0.009  -2.889  -5.466  1.00  0.00     0.159 HD
ATOM     41  H   UNL     1      -1.223  -1.456  -4.325  1.00  0.00     0.159 HD
ATOM     42  H   UNL     1      -0.551  -0.069  -3.557  1.00  0.00     0.159 HD
ENDBRANCH  34  35
ENDBRANCH  33  34
ENDBRANCH  32  33
ENDBRANCH   6  32
ENDBRANCH   4   6
ENDBRANCH   1   2
BRANCH   1  43
ATOM     43  C   UNL     1       0.409   1.407   3.454  1.00  0.00     0.102 C 
ATOM     44  C   UNL     1      -0.708   1.445   4.511  1.00  0.00     0.020 C 
BRANCH  43  45
ATOM     45  C   UNL     1      -0.102   1.369   2.011  1.00  0.00     0.225 C 
ATOM     46  O   UNL     1       0.367   2.064   1.114  1.00  0.00    -0.275 OA
ATOM     47  N   UNL     1      -1.197   0.565   1.792  1.00  0.00    -0.342 N 
ATOM     48  H   UNL     1      -1.472  -0.108   2.494  1.00  0.00     0.164 HD
BRANCH  47  49
ATOM     49  C   UNL     1      -1.773   0.402   0.453  1.00  0.00     0.192 C 
BRANCH  49  50
ATOM     50  C   UNL     1      -3.291   0.584   0.520  1.00  0.00     0.047 C 
BRANCH  50  51
ATOM     51  C   UNL     1      -4.006  -0.676   1.028  1.00  0.00     0.103 C 
BRANCH  51  52
ATOM     52  C   UNL     1      -5.406  -0.820   0.434  1.00  0.00     0.226 C 
ATOM     53  O   UNL     1      -6.389  -0.805   1.178  1.00  0.00    -0.275 OA
BRANCH  52  54
ATOM     54  N   UNL     1      -5.488  -0.887  -0.969  1.00  0.00    -0.311 N 
ATOM     55  C   UNL     1      -4.760  -1.918  -1.721  1.00  0.00     0.153 C 
BRANCH  54  56
ATOM     56  C   UNL     1      -6.269   0.023  -1.701  1.00  0.00     0.102 C 
ATOM     57  C   UNL     1      -5.890   1.268  -2.034  1.00  0.00     0.043 C 
BRANCH  56  58
ATOM     58  C   UNL     1      -7.630  -0.372  -2.226  1.00  0.00     0.268 C 
ATOM     59  O   UNL     1      -7.960  -0.240  -3.397  1.00  0.00    -0.268 OA
ATOM     60  N   UNL     1      -8.430  -0.951  -1.270  1.00  0.00    -0.339 N 
ATOM     61  H   UNL     1      -8.086  -1.014  -0.319  1.00  0.00     0.164 HD
BRANCH  60  62
ATOM     62  C   UNL     1      -9.765  -1.463  -1.578  1.00  0.00     0.168 CG0
ATOM     63  C   UNL     1     -10.801  -0.905  -0.610  1.00  0.00     0.041 C 
ATOM     64  G   UNL     1      -9.750  -3.005  -1.533  1.00  0.00     0.000 G0
ENDBRANCH  60  62
ENDBRANCH  56  58
ENDBRANCH  54  56
ENDBRANCH  52  54
ENDBRANCH  51  52
ENDBRANCH  50  51
ENDBRANCH  49  50
BRANCH  49  65
ATOM     65  C   UNL     1      -1.451  -0.980  -0.138  1.00  0.00     0.326 C 
ATOM     66  O   UNL     1      -1.488  -1.271  -1.324  1.00  0.00    -0.250 OA
BRANCH  65  67
ATOM     67  O   UNL     1      -1.162  -1.931   0.777  1.00  0.00    -0.480 OA
ATOM     68  H   UNL     1      -2.035  -2.148   1.169  1.00  0.00     0.296 HD
ENDBRANCH  65  67
ENDBRANCH  49  65
ENDBRANCH  47  49
ENDBRANCH  43  45
ENDBRANCH   1  43
BRANCH   1  69
ATOM     69  C   UNL     1       2.514   0.499   4.778  1.00  0.00    -0.001 C 
ATOM     70  C   UNL     1       3.086  -0.437   5.556  1.00  0.00     0.001 C 
BRANCH  70  71
ATOM     71  C   UNL     1       4.117  -0.224   6.573  1.00  0.00    -0.055 C 
ATOM     72  C   UNL     1       5.070   0.697   6.318  1.00  0.00    -0.018 C 
ATOM     73  C   UNL     1       4.038  -1.043   7.835  1.00  0.00     0.044 C 
BRANCH  72  74
ATOM     74  C   UNL     1       6.249   1.127   7.179  1.00  0.00     0.038 C 
ATOM     75  C   UNL     1       5.725   2.169   8.176  1.00  0.00     0.015 C 
BRANCH  74  76
ATOM     76  C   UNL     1       7.392   1.630   6.249  1.00  0.00     0.128 C 
BRANCH  76  77
ATOM     77  O   UNL     1       6.871   2.574   5.298  1.00  0.00    -0.381 OA
ATOM     78  C   UNL     1       7.535   2.545   4.042  1.00  0.00     0.195 C 
ENDBRANCH  76  77
BRANCH  76  79
ATOM     79  C   UNL     1       8.632   2.166   7.008  1.00  0.00     0.068 C 
BRANCH  79  80
ATOM     80  C   UNL     1       9.896   1.342   6.969  1.00  0.00    -0.045 A 
ATOM     81  C   UNL     1      10.472   0.847   8.146  1.00  0.00     0.004 A 
ATOM     82  C   UNL     1      10.532   1.081   5.746  1.00  0.00     0.004 A 
ATOM     83  C   UNL     1      11.649   0.097   8.103  1.00  0.00     0.000 A 
ATOM     84  C   UNL     1      11.710   0.332   5.704  1.00  0.00     0.000 A 
ATOM     85  C   UNL     1      12.267  -0.161   6.881  1.00  0.00     0.000 A 
ENDBRANCH  79  80
ENDBRANCH  76  79
ENDBRANCH  74  76
ENDBRANCH  72  74
ENDBRANCH  70  71
ENDBRANCH   1  69
TORSDOF 17
ENDMDL
MODEL 42
REMARK VINA RESULT:    -5.023     12.352     17.874
REMARK INTER + INTRA:         -23.635
REMARK INTER:                 -16.278
REMARK INTRA:                  -7.357
REMARK UNBOUND:                -8.629
REMARK SMILES C=C1C(=O)N[C@H](C)C(=O)N[C@@H](CC(C)C)C(=O)N[C@@H](C(=O)O)[C@H](C)C(=O)N[C@@H](CCCN=C(N)N)C(=O)N[C@@H](/C=C/C(C)=C/[C@H](C)[C@H](Cc2ccccc2)OC)[C@H](C)C(=O)N[C@@H](C(=O)O)CCC(=O)N1C
REMARK SMILES IDX 39 1 38 2 37 3 36 4 28 6 27 7 25 8 26 9 23 11 24 12 19 13
REMARK SMILES IDX 18 14 16 15 17 16 11 18 10 19 8 20 9 21 12 24 13 25 14 26
REMARK SMILES IDX 15 27 20 28 21 29 22 30 29 32 30 33 31 34 32 35 33 36 34 37
REMARK SMILES IDX 35 38 57 43 58 44 59 45 60 46 61 47 62 49 66 50 67 51 68 52
REMARK SMILES IDX 69 53 70 54 71 55 2 56 1 57 3 58 4 59 5 60 6 62 7 63 63 65
REMARK SMILES IDX 64 66 65 67 40 69 41 70 42 71 44 72 43 73 45 74 46 75 47 76
REMARK SMILES IDX 55 77 56 78 48 79 49 80 50 81 54 82 51 83 53 84 52 85
REMARK H PARENT 38 5 27 10 18 17 10 22 22 31 34 39 34 40 35 41 35 42 61 48
REMARK H PARENT 5 61 65 68
REMARK Flexibility Score:  369.900
ROOT
ATOM      1  C   UNL     1       4.700  -1.326   2.353  1.00  0.00     0.117 C 
ENDROOT
BRANCH   1   2
ATOM      2  N   UNL     1       4.878  -1.111   3.789  1.00  0.00    -0.347 N 
ATOM      3  O   UNL     1       5.071   1.176   3.743  1.00  0.00    -0.273 OA
ATOM      4  C   UNL     1       4.958   0.134   4.381  1.00  0.00     0.243 C 
ATOM      5  H   UNL     1       4.897  -1.907   4.410  1.00  0.00     0.164 HD
BRANCH   4   6
ATOM      6  C   UNL     1       5.058   0.085   5.927  1.00  0.00     0.171 C 
BRANCH   6   7
ATOM      7  N   UNL     1       5.900   1.185   6.424  1.00  0.00    -0.344 N 
ATOM      8  C   UNL     1       6.871   0.953   7.374  1.00  0.00     0.226 C 
ATOM      9  O   UNL     1       7.065  -0.153   7.863  1.00  0.00    -0.275 OA
ATOM     10  H   UNL     1       5.723   2.125   6.093  1.00  0.00     0.164 HD
BRANCH   8  11
ATOM     11  C   UNL     1       7.690   2.178   7.742  1.00  0.00     0.109 C 
ATOM     12  C   UNL     1       7.025   2.928   8.896  1.00  0.00     0.021 C 
BRANCH  11  13
ATOM     13  C   UNL     1       9.155   1.768   7.994  1.00  0.00     0.204 C 
BRANCH  13  14
ATOM     14  N   UNL     1       9.602   0.722   7.070  1.00  0.00    -0.340 N 
ATOM     15  C   UNL     1      10.623  -0.155   7.368  1.00  0.00     0.243 C 
ATOM     16  O   UNL     1      11.190  -0.160   8.459  1.00  0.00    -0.273 OA
ATOM     17  H   UNL     1       9.280   0.769   6.099  1.00  0.00     0.164 HD
BRANCH  15  18
ATOM     18  C   UNL     1      11.058  -1.029   6.167  1.00  0.00     0.171 C 
BRANCH  18  19
ATOM     19  N   UNL     1      12.300  -0.452   5.657  1.00  0.00    -0.343 N 
ATOM     20  C   UNL     1      12.304   0.652   4.826  1.00  0.00     0.242 CG0
ATOM     21  O   UNL     1      11.262   1.117   4.370  1.00  0.00    -0.273 OA
ATOM     22  H   UNL     1      13.186  -0.872   5.913  1.00  0.00     0.164 HD
ATOM     23  G   UNL     1      13.710   1.166   4.456  1.00  0.00     0.000 G0
ENDBRANCH  18  19
BRANCH  18  24
ATOM     24  C   UNL     1      11.253  -2.487   6.601  1.00  0.00     0.038 C 
BRANCH  24  25
ATOM     25  C   UNL     1      10.267  -3.487   5.961  1.00  0.00    -0.015 C 
ATOM     26  C   UNL     1      10.828  -4.134   4.695  1.00  0.00     0.007 C 
ATOM     27  C   UNL     1       8.950  -2.776   5.637  1.00  0.00     0.007 C 
ENDBRANCH  24  25
ENDBRANCH  18  24
ENDBRANCH  15  18
ENDBRANCH  13  14
BRANCH  13  28
ATOM     28  C   UNL     1      10.138   2.936   7.869  1.00  0.00     0.327 C 
ATOM     29  O   UNL     1      10.186   3.746   6.955  1.00  0.00    -0.250 OA
BRANCH  28  30
ATOM     30  O   UNL     1      11.076   2.944   8.837  1.00  0.00    -0.480 OA
ATOM     31  H   UNL     1      11.001   3.834   9.239  1.00  0.00     0.296 HD
ENDBRANCH  28  30
ENDBRANCH  13  28
ENDBRANCH  11  13
ENDBRANCH   8  11
ENDBRANCH   6   7
BRANCH   6  32
ATOM     32  C   UNL     1       3.649   0.160   6.525  1.00  0.00     0.037 C 
BRANCH  32  33
ATOM     33  C   UNL     1       3.419   1.464   7.302  1.00  0.00     0.026 C 
BRANCH  33  34
ATOM     34  C   UNL     1       2.384   2.369   6.633  1.00  0.00     0.146 C 
BRANCH  34  35
ATOM     35  N   UNL     1       1.711   3.153   7.659  1.00  0.00    -0.254 NA
ATOM     36  C   UNL     1       1.842   4.427   7.644  1.00  0.00     0.185 C 
ATOM     37  N   UNL     1       1.222   5.160   8.582  1.00  0.00    -0.370 N 
ATOM     38  N   UNL     1       2.541   5.195   6.789  1.00  0.00    -0.370 N 
ATOM     39  H   UNL     1       0.665   4.653   9.259  1.00  0.00     0.159 HD
ATOM     40  H   UNL     1       1.132   6.160   8.537  1.00  0.00     0.159 HD
ATOM     41  H   UNL     1       2.680   6.176   6.964  1.00  0.00     0.159 HD
ATOM     42  H   UNL     1       3.071   4.776   6.040  1.00  0.00     0.159 HD
ENDBRANCH  34  35
ENDBRANCH  33  34
ENDBRANCH  32  33
ENDBRANCH   6  32
ENDBRANCH   4   6
ENDBRANCH   1   2
BRANCH   1  43
ATOM     43  C   UNL     1       3.380  -2.119   2.130  1.00  0.00     0.102 C 
ATOM     44  C   UNL     1       3.482  -3.177   1.018  1.00  0.00     0.020 C 
BRANCH  43  45
ATOM     45  C   UNL     1       2.187  -1.170   1.978  1.00  0.00     0.225 C 
ATOM     46  O   UNL     1       1.881  -0.336   2.825  1.00  0.00    -0.275 OA
ATOM     47  N   UNL     1       1.409  -1.371   0.861  1.00  0.00    -0.342 N 
ATOM     48  H   UNL     1       1.755  -1.949   0.108  1.00  0.00     0.164 HD
BRANCH  47  49
ATOM     49  C   UNL     1       0.256  -0.515   0.566  1.00  0.00     0.192 C 
BRANCH  49  50
ATOM     50  C   UNL     1      -1.033  -1.332   0.682  1.00  0.00     0.047 C 
BRANCH  50  51
ATOM     51  C   UNL     1      -2.288  -0.466   0.507  1.00  0.00     0.103 C 
BRANCH  51  52
ATOM     52  C   UNL     1      -3.572  -1.277   0.675  1.00  0.00     0.226 C 
ATOM     53  O   UNL     1      -3.505  -2.488   0.891  1.00  0.00    -0.275 OA
BRANCH  52  54
ATOM     54  N   UNL     1      -4.779  -0.553   0.644  1.00  0.00    -0.311 N 
ATOM     55  C   UNL     1      -5.133   0.372   1.729  1.00  0.00     0.153 C 
BRANCH  54  56
ATOM     56  C   UNL     1      -5.684  -0.682  -0.422  1.00  0.00     0.102 C 
ATOM     57  C   UNL     1      -6.952  -0.239  -0.412  1.00  0.00     0.043 C 
BRANCH  56  58
ATOM     58  C   UNL     1      -5.260  -1.318  -1.725  1.00  0.00     0.268 C 
ATOM     59  O   UNL     1      -5.421  -2.505  -1.975  1.00  0.00    -0.268 OA
ATOM     60  N   UNL     1      -4.739  -0.415  -2.622  1.00  0.00    -0.339 N 
ATOM     61  H   UNL     1      -4.629   0.549  -2.333  1.00  0.00     0.164 HD
BRANCH  60  62
ATOM     62  C   UNL     1      -4.323  -0.806  -3.968  1.00  0.00     0.168 CG0
ATOM     63  C   UNL     1      -2.899  -0.348  -4.255  1.00  0.00     0.041 C 
ATOM     64  G   UNL     1      -5.305  -0.219  -5.003  1.00  0.00     0.000 G0
ENDBRANCH  60  62
ENDBRANCH  56  58
ENDBRANCH  54  56
ENDBRANCH  52  54
ENDBRANCH  51  52
ENDBRANCH  50  51
ENDBRANCH  49  50
BRANCH  49  65
ATOM     65  C   UNL     1       0.348   0.095  -0.841  1.00  0.00     0.326 C 
ATOM     66  O   UNL     1       0.254   1.284  -1.108  1.00  0.00    -0.250 OA
BRANCH  65  67
ATOM     67  O   UNL     1       0.489  -0.807  -1.838  1.00  0.00    -0.480 OA
ATOM     68  H   UNL     1       1.455  -0.807  -2.014  1.00  0.00     0.296 HD
ENDBRANCH  65  67
ENDBRANCH  49  65
ENDBRANCH  47  49
ENDBRANCH  43  45
ENDBRANCH   1  43
BRANCH   1  69
ATOM     69  C   UNL     1       6.004  -1.916   1.848  1.00  0.00    -0.001 C 
ATOM     70  C   UNL     1       6.910  -2.618   2.551  1.00  0.00     0.001 C 
BRANCH  70  71
ATOM     71  C   UNL     1       8.155  -3.201   2.047  1.00  0.00    -0.055 C 
ATOM     72  C   UNL     1       9.163  -2.357   1.739  1.00  0.00    -0.018 C 
ATOM     73  C   UNL     1       8.226  -4.700   1.915  1.00  0.00     0.044 C 
BRANCH  72  74
ATOM     74  C   UNL     1      10.554  -2.673   1.206  1.00  0.00     0.038 C 
ATOM     75  C   UNL     1      11.544  -1.789   1.974  1.00  0.00     0.015 C 
BRANCH  74  76
ATOM     76  C   UNL     1      10.556  -2.467  -0.338  1.00  0.00     0.128 C 
BRANCH  76  77
ATOM     77  O   UNL     1      11.834  -1.966  -0.764  1.00  0.00    -0.381 OA
ATOM     78  C   UNL     1      12.319  -2.576  -1.953  1.00  0.00     0.195 C 
ENDBRANCH  76  77
BRANCH  76  79
ATOM     79  C   UNL     1      10.103  -3.713  -1.140  1.00  0.00     0.068 C 
BRANCH  79  80
ATOM     80  C   UNL     1       8.676  -3.756  -1.631  1.00  0.00    -0.045 A 
ATOM     81  C   UNL     1       8.159  -4.905  -2.244  1.00  0.00     0.004 A 
ATOM     82  C   UNL     1       7.850  -2.629  -1.506  1.00  0.00     0.004 A 
ATOM     83  C   UNL     1       6.842  -4.933  -2.709  1.00  0.00     0.000 A 
ATOM     84  C   UNL     1       6.534  -2.658  -1.972  1.00  0.00     0.000 A 
ATOM     85  C   UNL     1       6.030  -3.809  -2.572  1.00  0.00     0.000 A 
ENDBRANCH  79  80
ENDBRANCH  76  79
ENDBRANCH  74  76
ENDBRANCH  72  74
ENDBRANCH  70  71
ENDBRANCH   1  69
TORSDOF 17
ENDMDL
MODEL 43
REMARK VINA RESULT:    -5.021      3.026     12.360
REMARK INTER + INTRA:         -23.629
REMARK INTER:                 -18.921
REMARK INTRA:                  -4.708
REMARK UNBOUND:                -8.629
REMARK SMILES C=C1C(=O)N[C@H](C)C(=O)N[C@@H](CC(C)C)C(=O)N[C@@H](C(=O)O)[C@H](C)C(=O)N[C@@H](CCCN=C(N)N)C(=O)N[C@@H](/C=C/C(C)=C/[C@H](C)[C@H](Cc2ccccc2)OC)[C@H](C)C(=O)N[C@@H](C(=O)O)CCC(=O)N1C
REMARK SMILES IDX 39 1 38 2 37 3 36 4 28 6 27 7 25 8 26 9 23 11 24 12 19 13
REMARK SMILES IDX 18 14 16 15 17 16 11 18 10 19 8 20 9 21 12 24 13 25 14 26
REMARK SMILES IDX 15 27 20 28 21 29 22 30 29 32 30 33 31 34 32 35 33 36 34 37
REMARK SMILES IDX 35 38 57 43 58 44 59 45 60 46 61 47 62 49 66 50 67 51 68 52
REMARK SMILES IDX 69 53 70 54 71 55 2 56 1 57 3 58 4 59 5 60 6 62 7 63 63 65
REMARK SMILES IDX 64 66 65 67 40 69 41 70 42 71 44 72 43 73 45 74 46 75 47 76
REMARK SMILES IDX 55 77 56 78 48 79 49 80 50 81 54 82 51 83 53 84 52 85
REMARK H PARENT 38 5 27 10 18 17 10 22 22 31 34 39 34 40 35 41 35 42 61 48
REMARK H PARENT 5 61 65 68
REMARK Flexibility Score:  369.900
ROOT
ATOM      1  C   UNL     1       5.764  -2.316 -10.493  1.00  0.00     0.117 C 
ENDROOT
BRANCH   1   2
ATOM      2  N   UNL     1       4.381  -2.613 -10.117  1.00  0.00    -0.347 N 
ATOM      3  O   UNL     1       4.777  -4.573  -8.991  1.00  0.00    -0.273 OA
ATOM      4  C   UNL     1       4.009  -3.674  -9.315  1.00  0.00     0.243 C 
ATOM      5  H   UNL     1       3.645  -1.989 -10.410  1.00  0.00     0.164 HD
BRANCH   4   6
ATOM      6  C   UNL     1       2.493  -3.713  -8.998  1.00  0.00     0.171 C 
BRANCH   6   7
ATOM      7  N   UNL     1       2.174  -2.795  -7.893  1.00  0.00    -0.344 N 
ATOM      8  C   UNL     1       1.649  -3.272  -6.712  1.00  0.00     0.226 C 
ATOM      9  O   UNL     1       1.403  -4.458  -6.530  1.00  0.00    -0.275 OA
ATOM     10  H   UNL     1       2.301  -1.800  -8.030  1.00  0.00     0.164 HD
BRANCH   8  11
ATOM     11  C   UNL     1       1.427  -2.208  -5.651  1.00  0.00     0.109 C 
ATOM     12  C   UNL     1       2.350  -1.015  -5.901  1.00  0.00     0.021 C 
BRANCH  11  13
ATOM     13  C   UNL     1      -0.073  -1.860  -5.568  1.00  0.00     0.204 C 
BRANCH  13  14
ATOM     14  N   UNL     1      -0.467  -1.439  -4.220  1.00  0.00    -0.340 N 
ATOM     15  C   UNL     1      -1.424  -2.099  -3.480  1.00  0.00     0.243 C 
ATOM     16  O   UNL     1      -1.972  -3.126  -3.875  1.00  0.00    -0.273 OA
ATOM     17  H   UNL     1      -0.165  -0.516  -3.897  1.00  0.00     0.164 HD
BRANCH  15  18
ATOM     18  C   UNL     1      -1.823  -1.357  -2.181  1.00  0.00     0.171 C 
BRANCH  18  19
ATOM     19  N   UNL     1      -2.694  -0.254  -2.580  1.00  0.00    -0.343 N 
ATOM     20  C   UNL     1      -4.042  -0.440  -2.821  1.00  0.00     0.242 CG0
ATOM     21  O   UNL     1      -4.543  -1.562  -2.841  1.00  0.00    -0.273 OA
ATOM     22  H   UNL     1      -2.303   0.675  -2.690  1.00  0.00     0.164 HD
ATOM     23  G   UNL     1      -4.814   0.853  -3.153  1.00  0.00     0.000 G0
ENDBRANCH  18  19
BRANCH  18  24
ATOM     24  C   UNL     1      -2.530  -2.309  -1.208  1.00  0.00     0.038 C 
BRANCH  24  25
ATOM     25  C   UNL     1      -2.345  -1.960   0.284  1.00  0.00    -0.015 C 
ATOM     26  C   UNL     1      -3.511  -1.145   0.843  1.00  0.00     0.007 C 
ATOM     27  C   UNL     1      -1.038  -1.187   0.473  1.00  0.00     0.007 C 
ENDBRANCH  24  25
ENDBRANCH  18  24
ENDBRANCH  15  18
ENDBRANCH  13  14
BRANCH  13  28
ATOM     28  C   UNL     1      -0.488  -0.744  -6.531  1.00  0.00     0.327 C 
ATOM     29  O   UNL     1      -0.508  -0.812  -7.751  1.00  0.00    -0.250 OA
BRANCH  28  30
ATOM     30  O   UNL     1      -0.738   0.426  -5.909  1.00  0.00    -0.480 OA
ATOM     31  H   UNL     1      -1.679   0.610  -6.111  1.00  0.00     0.296 HD
ENDBRANCH  28  30
ENDBRANCH  13  28
ENDBRANCH  11  13
ENDBRANCH   8  11
ENDBRANCH   6   7
BRANCH   6  32
ATOM     32  C   UNL     1       1.704  -3.345 -10.260  1.00  0.00     0.037 C 
BRANCH  32  33
ATOM     33  C   UNL     1       1.139  -1.919 -10.195  1.00  0.00     0.026 C 
BRANCH  33  34
ATOM     34  C   UNL     1       0.574  -1.452 -11.537  1.00  0.00     0.146 C 
BRANCH  34  35
ATOM     35  N   UNL     1       1.681  -1.185 -12.445  1.00  0.00    -0.254 NA
ATOM     36  C   UNL     1       1.768  -1.867 -13.526  1.00  0.00     0.185 C 
ATOM     37  N   UNL     1       2.781  -1.626 -14.372  1.00  0.00    -0.370 N 
ATOM     38  N   UNL     1       0.959  -2.843 -13.976  1.00  0.00    -0.370 N 
ATOM     39  H   UNL     1       3.429  -0.895 -14.108  1.00  0.00     0.159 HD
ATOM     40  H   UNL     1       2.821  -1.989 -15.309  1.00  0.00     0.159 HD
ATOM     41  H   UNL     1       1.211  -3.401 -14.775  1.00  0.00     0.159 HD
ATOM     42  H   UNL     1       0.163  -3.140 -13.433  1.00  0.00     0.159 HD
ENDBRANCH  34  35
ENDBRANCH  33  34
ENDBRANCH  32  33
ENDBRANCH   6  32
ENDBRANCH   4   6
ENDBRANCH   1   2
BRANCH   1  43
ATOM     43  C   UNL     1       6.351  -3.550 -11.237  1.00  0.00     0.102 C 
ATOM     44  C   UNL     1       7.885  -3.634 -11.167  1.00  0.00     0.020 C 
BRANCH  43  45
ATOM     45  C   UNL     1       5.788  -3.655 -12.658  1.00  0.00     0.225 C 
ATOM     46  O   UNL     1       5.289  -2.704 -13.253  1.00  0.00    -0.275 OA
ATOM     47  N   UNL     1       5.788  -4.918 -13.203  1.00  0.00    -0.342 N 
ATOM     48  H   UNL     1       6.333  -5.650 -12.769  1.00  0.00     0.164 HD
BRANCH  47  49
ATOM     49  C   UNL     1       5.312  -5.163 -14.568  1.00  0.00     0.192 C 
BRANCH  49  50
ATOM     50  C   UNL     1       6.136  -4.334 -15.556  1.00  0.00     0.047 C 
BRANCH  50  51
ATOM     51  C   UNL     1       7.525  -4.937 -15.807  1.00  0.00     0.103 C 
BRANCH  51  52
ATOM     52  C   UNL     1       7.946  -4.818 -17.270  1.00  0.00     0.226 C 
ATOM     53  O   UNL     1       7.088  -4.669 -18.142  1.00  0.00    -0.275 OA
BRANCH  52  54
ATOM     54  N   UNL     1       9.330  -4.811 -17.525  1.00  0.00    -0.311 N 
ATOM     55  C   UNL     1      10.098  -6.063 -17.563  1.00  0.00     0.153 C 
BRANCH  54  56
ATOM     56  C   UNL     1      10.026  -3.613 -17.758  1.00  0.00     0.102 C 
ATOM     57  C   UNL     1      10.318  -3.118 -18.972  1.00  0.00     0.043 C 
BRANCH  56  58
ATOM     58  C   UNL     1      10.473  -2.741 -16.609  1.00  0.00     0.268 C 
ATOM     59  O   UNL     1      10.659  -3.167 -15.477  1.00  0.00    -0.268 OA
ATOM     60  N   UNL     1      10.711  -1.439 -16.980  1.00  0.00    -0.339 N 
ATOM     61  H   UNL     1      10.522  -1.162 -17.936  1.00  0.00     0.164 HD
BRANCH  60  62
ATOM     62  C   UNL     1      11.211  -0.439 -16.038  1.00  0.00     0.168 CG0
ATOM     63  C   UNL     1      10.084   0.463 -15.548  1.00  0.00     0.041 C 
ATOM     64  G   UNL     1      12.324   0.392 -16.708  1.00  0.00     0.000 G0
ENDBRANCH  60  62
ENDBRANCH  56  58
ENDBRANCH  54  56
ENDBRANCH  52  54
ENDBRANCH  51  52
ENDBRANCH  50  51
ENDBRANCH  49  50
BRANCH  49  65
ATOM     65  C   UNL     1       3.825  -4.809 -14.722  1.00  0.00     0.326 C 
ATOM     66  O   UNL     1       3.259  -4.561 -15.776  1.00  0.00    -0.250 OA
BRANCH  65  67
ATOM     67  O   UNL     1       3.142  -4.725 -13.558  1.00  0.00    -0.480 OA
ATOM     68  H   UNL     1       3.718  -5.196 -12.918  1.00  0.00     0.296 HD
ENDBRANCH  65  67
ENDBRANCH  49  65
ENDBRANCH  47  49
ENDBRANCH  43  45
ENDBRANCH   1  43
BRANCH   1  69
ATOM     69  C   UNL     1       6.450  -1.825  -9.231  1.00  0.00    -0.001 C 
ATOM     70  C   UNL     1       5.940  -1.018  -8.284  1.00  0.00     0.001 C 
BRANCH  70  71
ATOM     71  C   UNL     1       6.605  -0.569  -7.059  1.00  0.00    -0.055 C 
ATOM     72  C   UNL     1       6.212  -1.123  -5.893  1.00  0.00    -0.018 C 
ATOM     73  C   UNL     1       7.685   0.472  -7.188  1.00  0.00     0.044 C 
BRANCH  72  74
ATOM     74  C   UNL     1       6.718  -0.858  -4.482  1.00  0.00     0.038 C 
ATOM     75  C   UNL     1       7.768  -1.930  -4.169  1.00  0.00     0.015 C 
BRANCH  74  76
ATOM     76  C   UNL     1       5.502  -0.832  -3.510  1.00  0.00     0.128 C 
BRANCH  76  77
ATOM     77  O   UNL     1       4.639   0.272  -3.833  1.00  0.00    -0.381 OA
ATOM     78  C   UNL     1       4.584   1.268  -2.821  1.00  0.00     0.195 C 
ENDBRANCH  76  77
BRANCH  76  79
ATOM     79  C   UNL     1       4.742  -2.179  -3.416  1.00  0.00     0.068 C 
BRANCH  79  80
ATOM     80  C   UNL     1       4.714  -2.883  -2.081  1.00  0.00    -0.045 A 
ATOM     81  C   UNL     1       5.044  -4.241  -1.975  1.00  0.00     0.004 A 
ATOM     82  C   UNL     1       4.328  -2.191  -0.924  1.00  0.00     0.004 A 
ATOM     83  C   UNL     1       5.002  -4.889  -0.738  1.00  0.00     0.000 A 
ATOM     84  C   UNL     1       4.286  -2.840   0.312  1.00  0.00     0.000 A 
ATOM     85  C   UNL     1       4.624  -4.188   0.405  1.00  0.00     0.000 A 
ENDBRANCH  79  80
ENDBRANCH  76  79
ENDBRANCH  74  76
ENDBRANCH  72  74
ENDBRANCH  70  71
ENDBRANCH   1  69
TORSDOF 17
ENDMDL
MODEL 44
REMARK VINA RESULT:    -4.980     10.591     15.056
REMARK INTER + INTRA:         -23.507
REMARK INTER:                 -16.786
REMARK INTRA:                  -6.721
REMARK UNBOUND:                -8.629
REMARK SMILES C=C1C(=O)N[C@H](C)C(=O)N[C@@H](CC(C)C)C(=O)N[C@@H](C(=O)O)[C@H](C)C(=O)N[C@@H](CCCN=C(N)N)C(=O)N[C@@H](/C=C/C(C)=C/[C@H](C)[C@H](Cc2ccccc2)OC)[C@H](C)C(=O)N[C@@H](C(=O)O)CCC(=O)N1C
REMARK SMILES IDX 39 1 38 2 37 3 36 4 28 6 27 7 25 8 26 9 23 11 24 12 19 13
REMARK SMILES IDX 18 14 16 15 17 16 11 18 10 19 8 20 9 21 12 24 13 25 14 26
REMARK SMILES IDX 15 27 20 28 21 29 22 30 29 32 30 33 31 34 32 35 33 36 34 37
REMARK SMILES IDX 35 38 57 43 58 44 59 45 60 46 61 47 62 49 66 50 67 51 68 52
REMARK SMILES IDX 69 53 70 54 71 55 2 56 1 57 3 58 4 59 5 60 6 62 7 63 63 65
REMARK SMILES IDX 64 66 65 67 40 69 41 70 42 71 44 72 43 73 45 74 46 75 47 76
REMARK SMILES IDX 55 77 56 78 48 79 49 80 50 81 54 82 51 83 53 84 52 85
REMARK H PARENT 38 5 27 10 18 17 10 22 22 31 34 39 34 40 35 41 35 42 61 48
REMARK H PARENT 5 61 65 68
REMARK Flexibility Score:  369.900
ROOT
ATOM      1  C   UNL     1       0.275  -0.752   2.265  1.00  0.00     0.117 C 
ENDROOT
BRANCH   1   2
ATOM      2  N   UNL     1       1.318  -1.454   1.517  1.00  0.00    -0.347 N 
ATOM      3  O   UNL     1       2.720   0.332   1.183  1.00  0.00    -0.273 OA
ATOM      4  C   UNL     1       2.505  -0.873   1.114  1.00  0.00     0.243 C 
ATOM      5  H   UNL     1       1.207  -2.436   1.316  1.00  0.00     0.164 HD
BRANCH   4   6
ATOM      6  C   UNL     1       3.476  -1.858   0.415  1.00  0.00     0.171 C 
BRANCH   6   7
ATOM      7  N   UNL     1       3.865  -1.345  -0.908  1.00  0.00    -0.344 N 
ATOM      8  C   UNL     1       5.042  -0.647  -1.073  1.00  0.00     0.226 C 
ATOM      9  O   UNL     1       5.800  -0.403  -0.142  1.00  0.00    -0.275 OA
ATOM     10  H   UNL     1       3.232  -1.469  -1.689  1.00  0.00     0.164 HD
BRANCH   8  11
ATOM     11  C   UNL     1       5.329  -0.232  -2.505  1.00  0.00     0.109 C 
ATOM     12  C   UNL     1       5.807   1.219  -2.547  1.00  0.00     0.021 C 
BRANCH  11  13
ATOM     13  C   UNL     1       6.284  -1.249  -3.162  1.00  0.00     0.204 C 
BRANCH  13  14
ATOM     14  N   UNL     1       7.062  -1.996  -2.168  1.00  0.00    -0.340 N 
ATOM     15  C   UNL     1       8.426  -1.859  -2.030  1.00  0.00     0.243 C 
ATOM     16  O   UNL     1       9.080  -1.055  -2.692  1.00  0.00    -0.273 OA
ATOM     17  H   UNL     1       6.609  -2.783  -1.697  1.00  0.00     0.164 HD
BRANCH  15  18
ATOM     18  C   UNL     1       9.057  -2.895  -1.067  1.00  0.00     0.171 C 
BRANCH  18  19
ATOM     19  N   UNL     1      10.353  -2.354  -0.662  1.00  0.00    -0.343 N 
ATOM     20  C   UNL     1      11.526  -3.061  -0.843  1.00  0.00     0.242 CG0
ATOM     21  O   UNL     1      11.521  -4.228  -1.229  1.00  0.00    -0.273 OA
ATOM     22  H   UNL     1      10.397  -1.438  -0.230  1.00  0.00     0.164 HD
ATOM     23  G   UNL     1      12.800  -2.297  -0.427  1.00  0.00     0.000 G0
ENDBRANCH  18  19
BRANCH  18  24
ATOM     24  C   UNL     1       8.145  -3.134   0.143  1.00  0.00     0.038 C 
BRANCH  24  25
ATOM     25  C   UNL     1       8.827  -2.935   1.513  1.00  0.00    -0.015 C 
ATOM     26  C   UNL     1       8.694  -4.160   2.417  1.00  0.00     0.007 C 
ATOM     27  C   UNL     1       8.228  -1.712   2.212  1.00  0.00     0.007 C 
ENDBRANCH  24  25
ENDBRANCH  18  24
ENDBRANCH  15  18
ENDBRANCH  13  14
BRANCH  13  28
ATOM     28  C   UNL     1       5.562  -2.277  -4.038  1.00  0.00     0.327 C 
ATOM     29  O   UNL     1       5.901  -3.436  -4.222  1.00  0.00    -0.250 OA
BRANCH  28  30
ATOM     30  O   UNL     1       4.526  -1.752  -4.724  1.00  0.00    -0.480 OA
ATOM     31  H   UNL     1       3.735  -2.036  -4.221  1.00  0.00     0.296 HD
ENDBRANCH  28  30
ENDBRANCH  13  28
ENDBRANCH  11  13
ENDBRANCH   8  11
ENDBRANCH   6   7
BRANCH   6  32
ATOM     32  C   UNL     1       4.706  -2.069   1.304  1.00  0.00     0.037 C 
BRANCH  32  33
ATOM     33  C   UNL     1       4.786  -3.501   1.853  1.00  0.00     0.026 C 
BRANCH  33  34
ATOM     34  C   UNL     1       4.242  -4.536   0.868  1.00  0.00     0.146 C 
BRANCH  34  35
ATOM     35  N   UNL     1       5.322  -4.959  -0.013  1.00  0.00    -0.254 NA
ATOM     36  C   UNL     1       5.128  -4.933  -1.279  1.00  0.00     0.185 C 
ATOM     37  N   UNL     1       6.119  -5.316  -2.100  1.00  0.00    -0.370 N 
ATOM     38  N   UNL     1       4.028  -4.562  -1.958  1.00  0.00    -0.370 N 
ATOM     39  H   UNL     1       6.986  -5.600  -1.664  1.00  0.00     0.159 HD
ATOM     40  H   UNL     1       6.108  -5.161  -3.094  1.00  0.00     0.159 HD
ATOM     41  H   UNL     1       3.950  -4.719  -2.949  1.00  0.00     0.159 HD
ATOM     42  H   UNL     1       3.199  -4.266  -1.467  1.00  0.00     0.159 HD
ENDBRANCH  34  35
ENDBRANCH  33  34
ENDBRANCH  32  33
ENDBRANCH   6  32
ENDBRANCH   4   6
ENDBRANCH   1   2
BRANCH   1  43
ATOM     43  C   UNL     1      -0.512   0.160   1.279  1.00  0.00     0.102 C 
ATOM     44  C   UNL     1      -1.732   0.843   1.919  1.00  0.00     0.020 C 
BRANCH  43  45
ATOM     45  C   UNL     1      -0.826  -0.581  -0.024  1.00  0.00     0.225 C 
ATOM     46  O   UNL     1      -0.006  -0.733  -0.924  1.00  0.00    -0.275 OA
ATOM     47  N   UNL     1      -2.131  -0.993  -0.170  1.00  0.00    -0.342 N 
ATOM     48  H   UNL     1      -2.747  -0.997   0.630  1.00  0.00     0.164 HD
BRANCH  47  49
ATOM     49  C   UNL     1      -2.569  -1.745  -1.350  1.00  0.00     0.192 C 
BRANCH  49  50
ATOM     50  C   UNL     1      -3.663  -0.963  -2.082  1.00  0.00     0.047 C 
BRANCH  50  51
ATOM     51  C   UNL     1      -4.937  -0.817  -1.239  1.00  0.00     0.103 C 
BRANCH  51  52
ATOM     52  C   UNL     1      -6.118  -1.568  -1.849  1.00  0.00     0.226 C 
ATOM     53  O   UNL     1      -5.951  -2.701  -2.305  1.00  0.00    -0.275 OA
BRANCH  52  54
ATOM     54  N   UNL     1      -7.370  -0.930  -1.780  1.00  0.00    -0.311 N 
ATOM     55  C   UNL     1      -7.898  -0.435  -0.501  1.00  0.00     0.153 C 
BRANCH  54  56
ATOM     56  C   UNL     1      -8.158  -0.737  -2.927  1.00  0.00     0.102 C 
ATOM     57  C   UNL     1      -8.111   0.348  -3.718  1.00  0.00     0.043 C 
BRANCH  56  58
ATOM     58  C   UNL     1      -9.121  -1.803  -3.394  1.00  0.00     0.268 C 
ATOM     59  O   UNL     1      -9.277  -2.867  -2.810  1.00  0.00    -0.268 OA
ATOM     60  N   UNL     1      -9.848  -1.427  -4.499  1.00  0.00    -0.339 N 
ATOM     61  H   UNL     1      -9.652  -0.532  -4.930  1.00  0.00     0.164 HD
BRANCH  60  62
ATOM     62  C   UNL     1     -10.882  -2.284  -5.079  1.00  0.00     0.168 CG0
ATOM     63  C   UNL     1     -12.257  -1.937  -4.520  1.00  0.00     0.041 C 
ATOM     64  G   UNL     1     -10.540  -3.763  -4.807  1.00  0.00     0.000 G0
ENDBRANCH  60  62
ENDBRANCH  56  58
ENDBRANCH  54  56
ENDBRANCH  52  54
ENDBRANCH  51  52
ENDBRANCH  50  51
ENDBRANCH  49  50
BRANCH  49  65
ATOM     65  C   UNL     1      -3.104  -3.134  -0.970  1.00  0.00     0.326 C 
ATOM     66  O   UNL     1      -3.470  -3.474   0.146  1.00  0.00    -0.250 OA
BRANCH  65  67
ATOM     67  O   UNL     1      -3.098  -4.036  -1.977  1.00  0.00    -0.480 OA
ATOM     68  H   UNL     1      -3.930  -4.538  -1.843  1.00  0.00     0.296 HD
ENDBRANCH  65  67
ENDBRANCH  49  65
ENDBRANCH  47  49
ENDBRANCH  43  45
ENDBRANCH   1  43
BRANCH   1  69
ATOM     69  C   UNL     1       0.963  -0.118   3.460  1.00  0.00    -0.001 C 
ATOM     70  C   UNL     1       0.388   0.333   4.589  1.00  0.00     0.001 C 
BRANCH  70  71
ATOM     71  C   UNL     1       1.066   0.923   5.745  1.00  0.00    -0.055 C 
ATOM     72  C   UNL     1       2.351   1.305   5.592  1.00  0.00    -0.018 C 
ATOM     73  C   UNL     1       0.278   1.070   7.021  1.00  0.00     0.044 C 
BRANCH  72  74
ATOM     74  C   UNL     1       3.294   1.941   6.604  1.00  0.00     0.038 C 
ATOM     75  C   UNL     1       3.786   3.260   5.996  1.00  0.00     0.015 C 
BRANCH  74  76
ATOM     76  C   UNL     1       4.419   0.922   6.951  1.00  0.00     0.128 C 
BRANCH  76  77
ATOM     77  O   UNL     1       4.025   0.122   8.078  1.00  0.00    -0.381 OA
ATOM     78  C   UNL     1       4.579  -1.187   8.070  1.00  0.00     0.195 C 
ENDBRANCH  76  77
BRANCH  76  79
ATOM     79  C   UNL     1       4.889   0.070   5.745  1.00  0.00     0.068 C 
BRANCH  79  80
ATOM     80  C   UNL     1       5.838   0.705   4.758  1.00  0.00    -0.045 A 
ATOM     81  C   UNL     1       7.130   1.089   5.143  1.00  0.00     0.004 A 
ATOM     82  C   UNL     1       5.428   0.947   3.438  1.00  0.00     0.004 A 
ATOM     83  C   UNL     1       7.997   1.689   4.227  1.00  0.00     0.000 A 
ATOM     84  C   UNL     1       6.296   1.547   2.523  1.00  0.00     0.000 A 
ATOM     85  C   UNL     1       7.580   1.917   2.917  1.00  0.00     0.000 A 
ENDBRANCH  79  80
ENDBRANCH  76  79
ENDBRANCH  74  76
ENDBRANCH  72  74
ENDBRANCH  70  71
ENDBRANCH   1  69
TORSDOF 17
ENDMDL
MODEL 45
REMARK VINA RESULT:    -4.975     12.830     18.548
REMARK INTER + INTRA:         -23.493
REMARK INTER:                 -15.923
REMARK INTRA:                  -7.570
REMARK UNBOUND:                -8.629
REMARK SMILES C=C1C(=O)N[C@H](C)C(=O)N[C@@H](CC(C)C)C(=O)N[C@@H](C(=O)O)[C@H](C)C(=O)N[C@@H](CCCN=C(N)N)C(=O)N[C@@H](/C=C/C(C)=C/[C@H](C)[C@H](Cc2ccccc2)OC)[C@H](C)C(=O)N[C@@H](C(=O)O)CCC(=O)N1C
REMARK SMILES IDX 39 1 38 2 37 3 36 4 28 6 27 7 25 8 26 9 23 11 24 12 19 13
REMARK SMILES IDX 18 14 16 15 17 16 11 18 10 19 8 20 9 21 12 24 13 25 14 26
REMARK SMILES IDX 15 27 20 28 21 29 22 30 29 32 30 33 31 34 32 35 33 36 34 37
REMARK SMILES IDX 35 38 57 43 58 44 59 45 60 46 61 47 62 49 66 50 67 51 68 52
REMARK SMILES IDX 69 53 70 54 71 55 2 56 1 57 3 58 4 59 5 60 6 62 7 63 63 65
REMARK SMILES IDX 64 66 65 67 40 69 41 70 42 71 44 72 43 73 45 74 46 75 47 76
REMARK SMILES IDX 55 77 56 78 48 79 49 80 50 81 54 82 51 83 53 84 52 85
REMARK H PARENT 38 5 27 10 18 17 10 22 22 31 34 39 34 40 35 41 35 42 61 48
REMARK H PARENT 5 61 65 68
REMARK Flexibility Score:  369.900
ROOT
ATOM      1  C   UNL     1       3.590   0.731   3.643  1.00  0.00     0.117 C 
ENDROOT
BRANCH   1   2
ATOM      2  N   UNL     1       3.844   1.217   5.000  1.00  0.00    -0.347 N 
ATOM      3  O   UNL     1       4.479   3.354   4.454  1.00  0.00    -0.273 OA
ATOM      4  C   UNL     1       4.181   2.522   5.304  1.00  0.00     0.243 C 
ATOM      5  H   UNL     1       3.722   0.589   5.781  1.00  0.00     0.164 HD
BRANCH   4   6
ATOM      6  C   UNL     1       4.309   2.794   6.824  1.00  0.00     0.171 C 
BRANCH   6   7
ATOM      7  N   UNL     1       5.362   3.790   7.081  1.00  0.00    -0.344 N 
ATOM      8  C   UNL     1       6.371   3.529   7.983  1.00  0.00     0.226 C 
ATOM      9  O   UNL     1       6.431   2.485   8.623  1.00  0.00    -0.275 OA
ATOM     10  H   UNL     1       5.309   4.690   6.622  1.00  0.00     0.164 HD
BRANCH   8  11
ATOM     11  C   UNL     1       7.410   4.631   8.096  1.00  0.00     0.109 C 
ATOM     12  C   UNL     1       7.738   4.896   9.565  1.00  0.00     0.021 C 
BRANCH  11  13
ATOM     13  C   UNL     1       8.626   4.294   7.211  1.00  0.00     0.204 C 
BRANCH  13  14
ATOM     14  N   UNL     1       8.913   2.856   7.191  1.00  0.00    -0.340 N 
ATOM     15  C   UNL     1       9.998   2.301   7.835  1.00  0.00     0.243 C 
ATOM     16  O   UNL     1      10.769   2.967   8.524  1.00  0.00    -0.273 OA
ATOM     17  H   UNL     1       8.405   2.274   6.520  1.00  0.00     0.164 HD
BRANCH  15  18
ATOM     18  C   UNL     1      10.214   0.804   7.504  1.00  0.00     0.171 C 
BRANCH  18  19
ATOM     19  N   UNL     1      11.158   0.288   8.494  1.00  0.00    -0.343 N 
ATOM     20  C   UNL     1      12.370  -0.264   8.126  1.00  0.00     0.242 CG0
ATOM     21  O   UNL     1      12.653  -0.468   6.948  1.00  0.00    -0.273 OA
ATOM     22  H   UNL     1      10.919   0.329   9.478  1.00  0.00     0.164 HD
ATOM     23  G   UNL     1      13.265  -0.680   9.311  1.00  0.00     0.000 G0
ENDBRANCH  18  19
BRANCH  18  24
ATOM     24  C   UNL     1       8.883   0.042   7.547  1.00  0.00     0.038 C 
BRANCH  24  25
ATOM     25  C   UNL     1       8.581  -0.798   6.288  1.00  0.00    -0.015 C 
ATOM     26  C   UNL     1       9.448  -0.396   5.094  1.00  0.00     0.007 C 
ATOM     27  C   UNL     1       7.101  -0.660   5.920  1.00  0.00     0.007 C 
ENDBRANCH  24  25
ENDBRANCH  18  24
ENDBRANCH  15  18
ENDBRANCH  13  14
BRANCH  13  28
ATOM     28  C   UNL     1       8.456   4.742   5.756  1.00  0.00     0.327 C 
ATOM     29  O   UNL     1       7.574   4.387   4.988  1.00  0.00    -0.250 OA
BRANCH  28  30
ATOM     30  O   UNL     1       9.471   5.515   5.319  1.00  0.00    -0.480 OA
ATOM     31  H   UNL     1       9.085   6.414   5.269  1.00  0.00     0.296 HD
ENDBRANCH  28  30
ENDBRANCH  13  28
ENDBRANCH  11  13
ENDBRANCH   8  11
ENDBRANCH   6   7
BRANCH   6  32
ATOM     32  C   UNL     1       2.958   3.275   7.366  1.00  0.00     0.037 C 
BRANCH  32  33
ATOM     33  C   UNL     1       2.169   2.144   8.040  1.00  0.00     0.026 C 
BRANCH  33  34
ATOM     34  C   UNL     1       1.108   1.541   7.120  1.00  0.00     0.146 C 
BRANCH  34  35
ATOM     35  N   UNL     1      -0.210   1.853   7.655  1.00  0.00    -0.254 NA
ATOM     36  C   UNL     1      -1.185   1.065   7.388  1.00  0.00     0.185 C 
ATOM     37  N   UNL     1      -2.402   1.341   7.880  1.00  0.00    -0.370 N 
ATOM     38  N   UNL     1      -1.183  -0.060   6.652  1.00  0.00    -0.370 N 
ATOM     39  H   UNL     1      -2.483   2.170   8.455  1.00  0.00     0.159 HD
ATOM     40  H   UNL     1      -3.169   0.691   7.863  1.00  0.00     0.159 HD
ATOM     41  H   UNL     1      -2.044  -0.518   6.399  1.00  0.00     0.159 HD
ATOM     42  H   UNL     1      -0.338  -0.381   6.206  1.00  0.00     0.159 HD
ENDBRANCH  34  35
ENDBRANCH  33  34
ENDBRANCH  32  33
ENDBRANCH   6  32
ENDBRANCH   4   6
ENDBRANCH   1   2
BRANCH   1  43
ATOM     43  C   UNL     1       2.060   0.805   3.369  1.00  0.00     0.102 C 
ATOM     44  C   UNL     1       1.287  -0.424   3.876  1.00  0.00     0.020 C 
BRANCH  43  45
ATOM     45  C   UNL     1       1.781   1.155   1.904  1.00  0.00     0.225 C 
ATOM     46  O   UNL     1       2.086   2.232   1.401  1.00  0.00    -0.275 OA
ATOM     47  N   UNL     1       1.072   0.212   1.195  1.00  0.00    -0.342 N 
ATOM     48  H   UNL     1       0.964  -0.720   1.571  1.00  0.00     0.164 HD
BRANCH  47  49
ATOM     49  C   UNL     1       0.763   0.394  -0.226  1.00  0.00     0.192 C 
BRANCH  49  50
ATOM     50  C   UNL     1      -0.685  -0.023  -0.496  1.00  0.00     0.047 C 
BRANCH  50  51
ATOM     51  C   UNL     1      -1.130  -1.191   0.395  1.00  0.00     0.103 C 
BRANCH  51  52
ATOM     52  C   UNL     1      -2.651  -1.322   0.452  1.00  0.00     0.226 C 
ATOM     53  O   UNL     1      -3.272  -0.817   1.389  1.00  0.00    -0.275 OA
BRANCH  52  54
ATOM     54  N   UNL     1      -3.265  -1.964  -0.639  1.00  0.00    -0.311 N 
ATOM     55  C   UNL     1      -3.100  -3.407  -0.858  1.00  0.00     0.153 C 
BRANCH  54  56
ATOM     56  C   UNL     1      -4.062  -1.254  -1.553  1.00  0.00     0.102 C 
ATOM     57  C   UNL     1      -3.599  -0.607  -2.635  1.00  0.00     0.043 C 
BRANCH  56  58
ATOM     58  C   UNL     1      -5.564  -1.206  -1.398  1.00  0.00     0.268 C 
ATOM     59  O   UNL     1      -6.124  -1.183  -0.311  1.00  0.00    -0.268 OA
ATOM     60  N   UNL     1      -6.228  -1.125  -2.599  1.00  0.00    -0.339 N 
ATOM     61  H   UNL     1      -5.690  -1.161  -3.456  1.00  0.00     0.164 HD
BRANCH  60  62
ATOM     62  C   UNL     1      -7.683  -1.006  -2.677  1.00  0.00     0.168 CG0
ATOM     63  C   UNL     1      -8.318  -2.325  -3.103  1.00  0.00     0.041 C 
ATOM     64  G   UNL     1      -8.057   0.122  -3.660  1.00  0.00     0.000 G0
ENDBRANCH  60  62
ENDBRANCH  56  58
ENDBRANCH  54  56
ENDBRANCH  52  54
ENDBRANCH  51  52
ENDBRANCH  50  51
ENDBRANCH  49  50
BRANCH  49  65
ATOM     65  C   UNL     1       1.704  -0.428  -1.121  1.00  0.00     0.326 C 
ATOM     66  O   UNL     1       1.665  -0.472  -2.342  1.00  0.00    -0.250 OA
BRANCH  65  67
ATOM     67  O   UNL     1       2.595  -1.191  -0.451  1.00  0.00    -0.480 OA
ATOM     68  H   UNL     1       2.503  -0.892   0.479  1.00  0.00     0.296 HD
ENDBRANCH  65  67
ENDBRANCH  49  65
ENDBRANCH  47  49
ENDBRANCH  43  45
ENDBRANCH   1  43
BRANCH   1  69
ATOM     69  C   UNL     1       4.290  -0.611   3.536  1.00  0.00    -0.001 C 
ATOM     70  C   UNL     1       4.774  -1.193   2.424  1.00  0.00     0.001 C 
BRANCH  70  71
ATOM     71  C   UNL     1       5.467  -2.480   2.336  1.00  0.00    -0.055 C 
ATOM     72  C   UNL     1       6.742  -2.538   2.777  1.00  0.00    -0.018 C 
ATOM     73  C   UNL     1       4.707  -3.650   1.767  1.00  0.00     0.044 C 
BRANCH  72  74
ATOM     74  C   UNL     1       7.696  -3.723   2.811  1.00  0.00     0.038 C 
ATOM     75  C   UNL     1       8.115  -3.924   4.273  1.00  0.00     0.015 C 
BRANCH  74  76
ATOM     76  C   UNL     1       8.871  -3.449   1.827  1.00  0.00     0.128 C 
BRANCH  76  77
ATOM     77  O   UNL     1      10.128  -3.653   2.494  1.00  0.00    -0.381 OA
ATOM     78  C   UNL     1      11.112  -2.680   2.169  1.00  0.00     0.195 C 
ENDBRANCH  76  77
BRANCH  76  79
ATOM     79  C   UNL     1       8.767  -4.227   0.491  1.00  0.00     0.068 C 
BRANCH  79  80
ATOM     80  C   UNL     1       7.597  -3.927  -0.414  1.00  0.00    -0.045 A 
ATOM     81  C   UNL     1       6.774  -4.954  -0.895  1.00  0.00     0.004 A 
ATOM     82  C   UNL     1       7.331  -2.608  -0.811  1.00  0.00     0.004 A 
ATOM     83  C   UNL     1       5.702  -4.669  -1.743  1.00  0.00     0.000 A 
ATOM     84  C   UNL     1       6.259  -2.324  -1.660  1.00  0.00     0.000 A 
ATOM     85  C   UNL     1       5.443  -3.354  -2.124  1.00  0.00     0.000 A 
ENDBRANCH  79  80
ENDBRANCH  76  79
ENDBRANCH  74  76
ENDBRANCH  72  74
ENDBRANCH  70  71
ENDBRANCH   1  69
TORSDOF 17
ENDMDL
MODEL 46
REMARK VINA RESULT:    -4.963      8.677     17.368
REMARK INTER + INTRA:         -23.456
REMARK INTER:                 -16.191
REMARK INTRA:                  -7.265
REMARK UNBOUND:                -8.629
REMARK SMILES C=C1C(=O)N[C@H](C)C(=O)N[C@@H](CC(C)C)C(=O)N[C@@H](C(=O)O)[C@H](C)C(=O)N[C@@H](CCCN=C(N)N)C(=O)N[C@@H](/C=C/C(C)=C/[C@H](C)[C@H](Cc2ccccc2)OC)[C@H](C)C(=O)N[C@@H](C(=O)O)CCC(=O)N1C
REMARK SMILES IDX 39 1 38 2 37 3 36 4 28 6 27 7 25 8 26 9 23 11 24 12 19 13
REMARK SMILES IDX 18 14 16 15 17 16 11 18 10 19 8 20 9 21 12 24 13 25 14 26
REMARK SMILES IDX 15 27 20 28 21 29 22 30 29 32 30 33 31 34 32 35 33 36 34 37
REMARK SMILES IDX 35 38 57 43 58 44 59 45 60 46 61 47 62 49 66 50 67 51 68 52
REMARK SMILES IDX 69 53 70 54 71 55 2 56 1 57 3 58 4 59 5 60 6 62 7 63 63 65
REMARK SMILES IDX 64 66 65 67 40 69 41 70 42 71 44 72 43 73 45 74 46 75 47 76
REMARK SMILES IDX 55 77 56 78 48 79 49 80 50 81 54 82 51 83 53 84 52 85
REMARK H PARENT 38 5 27 10 18 17 10 22 22 31 34 39 34 40 35 41 35 42 61 48
REMARK H PARENT 5 61 65 68
REMARK Flexibility Score:  369.900
ROOT
ATOM      1  C   UNL     1      -0.933  -0.041   0.674  1.00  0.00     0.117 C 
ENDROOT
BRANCH   1   2
ATOM      2  N   UNL     1       0.330  -0.583   1.176  1.00  0.00    -0.347 N 
ATOM      3  O   UNL     1       1.302   1.405   1.789  1.00  0.00    -0.273 OA
ATOM      4  C   UNL     1       1.313   0.178   1.779  1.00  0.00     0.243 C 
ATOM      5  H   UNL     1       0.493  -1.577   1.133  1.00  0.00     0.164 HD
BRANCH   4   6
ATOM      6  C   UNL     1       2.513  -0.653   2.299  1.00  0.00     0.171 C 
BRANCH   6   7
ATOM      7  N   UNL     1       2.549  -0.639   3.771  1.00  0.00    -0.344 N 
ATOM      8  C   UNL     1       3.424   0.184   4.445  1.00  0.00     0.226 C 
ATOM      9  O   UNL     1       4.218   0.917   3.868  1.00  0.00    -0.275 OA
ATOM     10  H   UNL     1       1.955  -1.280   4.282  1.00  0.00     0.164 HD
BRANCH   8  11
ATOM     11  C   UNL     1       3.302   0.123   5.957  1.00  0.00     0.109 C 
ATOM     12  C   UNL     1       2.160  -0.812   6.355  1.00  0.00     0.021 C 
BRANCH  11  13
ATOM     13  C   UNL     1       4.670  -0.224   6.577  1.00  0.00     0.204 C 
BRANCH  13  14
ATOM     14  N   UNL     1       5.593  -0.796   5.592  1.00  0.00    -0.340 N 
ATOM     15  C   UNL     1       6.567  -1.713   5.923  1.00  0.00     0.243 C 
ATOM     16  O   UNL     1       6.690  -2.164   7.061  1.00  0.00    -0.273 OA
ATOM     17  H   UNL     1       5.644  -0.356   4.670  1.00  0.00     0.164 HD
BRANCH  15  18
ATOM     18  C   UNL     1       7.551  -2.015   4.767  1.00  0.00     0.171 C 
BRANCH  18  19
ATOM     19  N   UNL     1       8.898  -1.833   5.305  1.00  0.00    -0.343 N 
ATOM     20  C   UNL     1       9.592  -0.648   5.147  1.00  0.00     0.242 CG0
ATOM     21  O   UNL     1       9.165   0.257   4.435  1.00  0.00    -0.273 OA
ATOM     22  H   UNL     1       9.342  -2.595   5.804  1.00  0.00     0.164 HD
ATOM     23  G   UNL     1      10.964  -0.616   5.851  1.00  0.00     0.000 G0
ENDBRANCH  18  19
BRANCH  18  24
ATOM     24  C   UNL     1       7.345  -3.440   4.239  1.00  0.00     0.038 C 
BRANCH  24  25
ATOM     25  C   UNL     1       7.537  -3.596   2.715  1.00  0.00    -0.015 C 
ATOM     26  C   UNL     1       8.901  -4.185   2.354  1.00  0.00     0.007 C 
ATOM     27  C   UNL     1       7.365  -2.237   2.033  1.00  0.00     0.007 C 
ENDBRANCH  24  25
ENDBRANCH  18  24
ENDBRANCH  15  18
ENDBRANCH  13  14
BRANCH  13  28
ATOM     28  C   UNL     1       5.370   0.983   7.209  1.00  0.00     0.327 C 
ATOM     29  O   UNL     1       5.591   1.150   8.398  1.00  0.00    -0.250 OA
BRANCH  28  30
ATOM     30  O   UNL     1       5.643   1.960   6.320  1.00  0.00    -0.480 OA
ATOM     31  H   UNL     1       6.210   2.587   6.817  1.00  0.00     0.296 HD
ENDBRANCH  28  30
ENDBRANCH  13  28
ENDBRANCH  11  13
ENDBRANCH   8  11
ENDBRANCH   6   7
BRANCH   6  32
ATOM     32  C   UNL     1       2.401  -2.086   1.768  1.00  0.00     0.037 C 
BRANCH  32  33
ATOM     33  C   UNL     1       3.771  -2.677   1.404  1.00  0.00     0.026 C 
BRANCH  33  34
ATOM     34  C   UNL     1       3.654  -3.966   0.589  1.00  0.00     0.146 C 
BRANCH  34  35
ATOM     35  N   UNL     1       4.028  -3.684  -0.790  1.00  0.00    -0.254 NA
ATOM     36  C   UNL     1       4.897  -4.436  -1.357  1.00  0.00     0.185 C 
ATOM     37  N   UNL     1       5.246  -4.189  -2.629  1.00  0.00    -0.370 N 
ATOM     38  N   UNL     1       5.554  -5.496  -0.853  1.00  0.00    -0.370 N 
ATOM     39  H   UNL     1       4.785  -3.411  -3.083  1.00  0.00     0.159 HD
ATOM     40  H   UNL     1       5.781  -4.827  -3.193  1.00  0.00     0.159 HD
ATOM     41  H   UNL     1       6.318  -5.921  -1.352  1.00  0.00     0.159 HD
ATOM     42  H   UNL     1       5.403  -5.787   0.101  1.00  0.00     0.159 HD
ENDBRANCH  34  35
ENDBRANCH  33  34
ENDBRANCH  32  33
ENDBRANCH   6  32
ENDBRANCH   4   6
ENDBRANCH   1   2
BRANCH   1  43
ATOM     43  C   UNL     1      -0.651   0.726  -0.651  1.00  0.00     0.102 C 
ATOM     44  C   UNL     1      -1.850   1.552  -1.146  1.00  0.00     0.020 C 
BRANCH  43  45
ATOM     45  C   UNL     1      -0.059  -0.207  -1.711  1.00  0.00     0.225 C 
ATOM     46  O   UNL     1       1.125  -0.530  -1.734  1.00  0.00    -0.275 OA
ATOM     47  N   UNL     1      -0.925  -0.596  -2.708  1.00  0.00    -0.342 N 
ATOM     48  H   UNL     1      -1.918  -0.450  -2.593  1.00  0.00     0.164 HD
BRANCH  47  49
ATOM     49  C   UNL     1      -0.506  -1.517  -3.769  1.00  0.00     0.192 C 
BRANCH  49  50
ATOM     50  C   UNL     1      -0.047  -0.717  -4.992  1.00  0.00     0.047 C 
BRANCH  50  51
ATOM     51  C   UNL     1       1.272  -1.246  -5.571  1.00  0.00     0.103 C 
BRANCH  51  52
ATOM     52  C   UNL     1       1.168  -1.534  -7.067  1.00  0.00     0.226 C 
ATOM     53  O   UNL     1       0.160  -1.187  -7.686  1.00  0.00    -0.275 OA
BRANCH  52  54
ATOM     54  N   UNL     1       2.292  -2.126  -7.672  1.00  0.00    -0.311 N 
ATOM     55  C   UNL     1       3.634  -1.556  -7.495  1.00  0.00     0.153 C 
BRANCH  54  56
ATOM     56  C   UNL     1       2.175  -3.284  -8.459  1.00  0.00     0.102 C 
ATOM     57  C   UNL     1       2.062  -4.532  -7.977  1.00  0.00     0.043 C 
BRANCH  56  58
ATOM     58  C   UNL     1       2.121  -3.194  -9.966  1.00  0.00     0.268 C 
ATOM     59  O   UNL     1       2.879  -3.812 -10.701  1.00  0.00    -0.268 OA
ATOM     60  N   UNL     1       1.096  -2.401 -10.423  1.00  0.00    -0.339 N 
ATOM     61  H   UNL     1       0.519  -1.914  -9.749  1.00  0.00     0.164 HD
BRANCH  60  62
ATOM     62  C   UNL     1       0.824  -2.225 -11.849  1.00  0.00     0.168 CG0
ATOM     63  C   UNL     1      -0.096  -1.035 -12.088  1.00  0.00     0.041 C 
ATOM     64  G   UNL     1       0.204  -3.517 -12.420  1.00  0.00     0.000 G0
ENDBRANCH  60  62
ENDBRANCH  56  58
ENDBRANCH  54  56
ENDBRANCH  52  54
ENDBRANCH  51  52
ENDBRANCH  50  51
ENDBRANCH  49  50
BRANCH  49  65
ATOM     65  C   UNL     1      -1.645  -2.464  -4.179  1.00  0.00     0.326 C 
ATOM     66  O   UNL     1      -1.972  -2.726  -5.327  1.00  0.00    -0.250 OA
BRANCH  65  67
ATOM     67  O   UNL     1      -2.346  -2.982  -3.147  1.00  0.00    -0.480 OA
ATOM     68  H   UNL     1      -2.212  -3.950  -3.238  1.00  0.00     0.296 HD
ENDBRANCH  65  67
ENDBRANCH  49  65
ENDBRANCH  47  49
ENDBRANCH  43  45
ENDBRANCH   1  43
BRANCH   1  69
ATOM     69  C   UNL     1      -1.564   0.707   1.834  1.00  0.00    -0.001 C 
ATOM     70  C   UNL     1      -2.866   0.746   2.169  1.00  0.00     0.001 C 
BRANCH  70  71
ATOM     71  C   UNL     1      -3.461   1.454   3.304  1.00  0.00    -0.055 C 
ATOM     72  C   UNL     1      -2.634   2.142   4.118  1.00  0.00    -0.018 C 
ATOM     73  C   UNL     1      -4.955   1.372   3.478  1.00  0.00     0.044 C 
BRANCH  72  74
ATOM     74  C   UNL     1      -2.964   2.964   5.356  1.00  0.00     0.038 C 
ATOM     75  C   UNL     1      -2.481   4.395   5.092  1.00  0.00     0.015 C 
BRANCH  74  76
ATOM     76  C   UNL     1      -2.323   2.278   6.599  1.00  0.00     0.128 C 
BRANCH  76  77
ATOM     77  O   UNL     1      -3.297   1.452   7.260  1.00  0.00    -0.381 OA
ATOM     78  C   UNL     1      -4.584   2.047   7.350  1.00  0.00     0.195 C 
ENDBRANCH  76  77
BRANCH  76  79
ATOM     79  C   UNL     1      -1.006   1.522   6.291  1.00  0.00     0.068 C 
BRANCH  79  80
ATOM     80  C   UNL     1       0.292   2.281   6.425  1.00  0.00    -0.045 A 
ATOM     81  C   UNL     1       0.905   2.448   7.674  1.00  0.00     0.004 A 
ATOM     82  C   UNL     1       0.894   2.859   5.297  1.00  0.00     0.004 A 
ATOM     83  C   UNL     1       2.098   3.164   7.792  1.00  0.00     0.000 A 
ATOM     84  C   UNL     1       2.087   3.574   5.416  1.00  0.00     0.000 A 
ATOM     85  C   UNL     1       2.690   3.725   6.663  1.00  0.00     0.000 A 
ENDBRANCH  79  80
ENDBRANCH  76  79
ENDBRANCH  74  76
ENDBRANCH  72  74
ENDBRANCH  70  71
ENDBRANCH   1  69
TORSDOF 17
ENDMDL
MODEL 47
REMARK VINA RESULT:    -4.947      5.104      8.670
REMARK INTER + INTRA:         -23.408
REMARK INTER:                 -17.146
REMARK INTRA:                  -6.262
REMARK UNBOUND:                -8.629
REMARK SMILES C=C1C(=O)N[C@H](C)C(=O)N[C@@H](CC(C)C)C(=O)N[C@@H](C(=O)O)[C@H](C)C(=O)N[C@@H](CCCN=C(N)N)C(=O)N[C@@H](/C=C/C(C)=C/[C@H](C)[C@H](Cc2ccccc2)OC)[C@H](C)C(=O)N[C@@H](C(=O)O)CCC(=O)N1C
REMARK SMILES IDX 39 1 38 2 37 3 36 4 28 6 27 7 25 8 26 9 23 11 24 12 19 13
REMARK SMILES IDX 18 14 16 15 17 16 11 18 10 19 8 20 9 21 12 24 13 25 14 26
REMARK SMILES IDX 15 27 20 28 21 29 22 30 29 32 30 33 31 34 32 35 33 36 34 37
REMARK SMILES IDX 35 38 57 43 58 44 59 45 60 46 61 47 62 49 66 50 67 51 68 52
REMARK SMILES IDX 69 53 70 54 71 55 2 56 1 57 3 58 4 59 5 60 6 62 7 63 63 65
REMARK SMILES IDX 64 66 65 67 40 69 41 70 42 71 44 72 43 73 45 74 46 75 47 76
REMARK SMILES IDX 55 77 56 78 48 79 49 80 50 81 54 82 51 83 53 84 52 85
REMARK H PARENT 38 5 27 10 18 17 10 22 22 31 34 39 34 40 35 41 35 42 61 48
REMARK H PARENT 5 61 65 68
REMARK Flexibility Score:  369.900
ROOT
ATOM      1  C   UNL     1       4.180   0.233 -16.001  1.00  0.00     0.117 C 
ENDROOT
BRANCH   1   2
ATOM      2  N   UNL     1       4.879  -1.047 -15.876  1.00  0.00    -0.347 N 
ATOM      3  O   UNL     1       4.888  -1.616 -18.100  1.00  0.00    -0.273 OA
ATOM      4  C   UNL     1       5.259  -1.828 -16.950  1.00  0.00     0.243 C 
ATOM      5  H   UNL     1       5.154  -1.373 -14.962  1.00  0.00     0.164 HD
BRANCH   4   6
ATOM      6  C   UNL     1       6.062  -3.091 -16.549  1.00  0.00     0.171 C 
BRANCH   6   7
ATOM      7  N   UNL     1       7.438  -3.013 -17.067  1.00  0.00    -0.344 N 
ATOM      8  C   UNL     1       7.926  -3.985 -17.913  1.00  0.00     0.226 C 
ATOM      9  O   UNL     1       7.264  -4.958 -18.253  1.00  0.00    -0.275 OA
ATOM     10  H   UNL     1       8.037  -2.259 -16.755  1.00  0.00     0.164 HD
BRANCH   8  11
ATOM     11  C   UNL     1       9.341  -3.733 -18.404  1.00  0.00     0.109 C 
ATOM     12  C   UNL     1       9.432  -2.357 -19.064  1.00  0.00     0.021 C 
BRANCH  11  13
ATOM     13  C   UNL     1      10.341  -3.969 -17.255  1.00  0.00     0.204 C 
BRANCH  13  14
ATOM     14  N   UNL     1      10.194  -2.979 -16.184  1.00  0.00    -0.340 N 
ATOM     15  C   UNL     1      11.268  -2.343 -15.600  1.00  0.00     0.243 C 
ATOM     16  O   UNL     1      12.425  -2.517 -15.979  1.00  0.00    -0.273 OA
ATOM     17  H   UNL     1       9.284  -2.901 -15.723  1.00  0.00     0.164 HD
BRANCH  15  18
ATOM     18  C   UNL     1      10.888  -1.501 -14.357  1.00  0.00     0.171 C 
BRANCH  18  19
ATOM     19  N   UNL     1      11.903  -1.773 -13.341  1.00  0.00    -0.343 N 
ATOM     20  C   UNL     1      11.574  -1.937 -12.009  1.00  0.00     0.242 CG0
ATOM     21  O   UNL     1      10.435  -1.731 -11.597  1.00  0.00    -0.273 OA
ATOM     22  H   UNL     1      12.876  -1.839 -13.615  1.00  0.00     0.164 HD
ATOM     23  G   UNL     1      12.767  -2.296 -11.098  1.00  0.00     0.000 G0
ENDBRANCH  18  19
BRANCH  18  24
ATOM     24  C   UNL     1      10.832  -0.010 -14.709  1.00  0.00     0.038 C 
BRANCH  24  25
ATOM     25  C   UNL     1      11.916   0.854 -14.031  1.00  0.00    -0.015 C 
ATOM     26  C   UNL     1      11.347   1.748 -12.929  1.00  0.00     0.007 C 
ATOM     27  C   UNL     1      12.620   1.716 -15.082  1.00  0.00     0.007 C 
ENDBRANCH  24  25
ENDBRANCH  18  24
ENDBRANCH  15  18
ENDBRANCH  13  14
BRANCH  13  28
ATOM     28  C   UNL     1      10.209  -5.354 -16.614  1.00  0.00     0.327 C 
ATOM     29  O   UNL     1      10.473  -6.423 -17.143  1.00  0.00    -0.250 OA
BRANCH  28  30
ATOM     30  O   UNL     1       9.642  -5.319 -15.391  1.00  0.00    -0.480 OA
ATOM     31  H   UNL     1       9.375  -6.246 -15.223  1.00  0.00     0.296 HD
ENDBRANCH  28  30
ENDBRANCH  13  28
ENDBRANCH  11  13
ENDBRANCH   8  11
ENDBRANCH   6   7
BRANCH   6  32
ATOM     32  C   UNL     1       6.060  -3.225 -15.022  1.00  0.00     0.037 C 
BRANCH  32  33
ATOM     33  C   UNL     1       7.153  -2.372 -14.364  1.00  0.00     0.026 C 
BRANCH  33  34
ATOM     34  C   UNL     1       7.821  -3.082 -13.186  1.00  0.00     0.146 C 
BRANCH  34  35
ATOM     35  N   UNL     1       7.619  -4.517 -13.328  1.00  0.00    -0.254 NA
ATOM     36  C   UNL     1       6.850  -5.115 -12.495  1.00  0.00     0.185 C 
ATOM     37  N   UNL     1       6.653  -6.436 -12.619  1.00  0.00    -0.370 N 
ATOM     38  N   UNL     1       6.168  -4.601 -11.456  1.00  0.00    -0.370 N 
ATOM     39  H   UNL     1       7.126  -6.896 -13.387  1.00  0.00     0.159 HD
ATOM     40  H   UNL     1       5.939  -6.941 -12.123  1.00  0.00     0.159 HD
ATOM     41  H   UNL     1       5.707  -5.198 -10.789  1.00  0.00     0.159 HD
ATOM     42  H   UNL     1       6.235  -3.620 -11.234  1.00  0.00     0.159 HD
ENDBRANCH  34  35
ENDBRANCH  33  34
ENDBRANCH  32  33
ENDBRANCH   6  32
ENDBRANCH   4   6
ENDBRANCH   1   2
BRANCH   1  43
ATOM     43  C   UNL     1       5.222   1.334 -16.351  1.00  0.00     0.102 C 
ATOM     44  C   UNL     1       6.558   1.172 -15.606  1.00  0.00     0.020 C 
BRANCH  43  45
ATOM     45  C   UNL     1       4.607   2.732 -16.227  1.00  0.00     0.225 C 
ATOM     46  O   UNL     1       4.924   3.528 -15.348  1.00  0.00    -0.275 OA
ATOM     47  N   UNL     1       3.596   3.015 -17.116  1.00  0.00    -0.342 N 
ATOM     48  H   UNL     1       3.454   2.418 -17.919  1.00  0.00     0.164 HD
BRANCH  47  49
ATOM     49  C   UNL     1       2.940   4.326 -17.138  1.00  0.00     0.192 C 
BRANCH  49  50
ATOM     50  C   UNL     1       1.454   4.163 -16.807  1.00  0.00     0.047 C 
BRANCH  50  51
ATOM     51  C   UNL     1       1.220   3.843 -15.324  1.00  0.00     0.103 C 
BRANCH  51  52
ATOM     52  C   UNL     1      -0.128   3.162 -15.090  1.00  0.00     0.226 C 
ATOM     53  O   UNL     1      -0.255   1.961 -15.334  1.00  0.00    -0.275 OA
BRANCH  52  54
ATOM     54  N   UNL     1      -1.142   3.958 -14.526  1.00  0.00    -0.311 N 
ATOM     55  C   UNL     1      -1.554   3.778 -13.127  1.00  0.00     0.153 C 
BRANCH  54  56
ATOM     56  C   UNL     1      -1.792   4.954 -15.273  1.00  0.00     0.102 C 
ATOM     57  C   UNL     1      -1.541   6.270 -15.181  1.00  0.00     0.043 C 
BRANCH  56  58
ATOM     58  C   UNL     1      -2.832   4.593 -16.307  1.00  0.00     0.268 C 
ATOM     59  O   UNL     1      -3.111   3.439 -16.601  1.00  0.00    -0.268 OA
ATOM     60  N   UNL     1      -3.474   5.689 -16.833  1.00  0.00    -0.339 N 
ATOM     61  H   UNL     1      -3.176   6.613 -16.545  1.00  0.00     0.164 HD
BRANCH  60  62
ATOM     62  C   UNL     1      -4.559   5.563 -17.806  1.00  0.00     0.168 CG0
ATOM     63  C   UNL     1      -4.023   5.601 -19.231  1.00  0.00     0.041 C 
ATOM     64  G   UNL     1      -5.588   6.689 -17.579  1.00  0.00     0.000 G0
ENDBRANCH  60  62
ENDBRANCH  56  58
ENDBRANCH  54  56
ENDBRANCH  52  54
ENDBRANCH  51  52
ENDBRANCH  50  51
ENDBRANCH  49  50
BRANCH  49  65
ATOM     65  C   UNL     1       3.084   5.009 -18.507  1.00  0.00     0.326 C 
ATOM     66  O   UNL     1       2.211   5.646 -19.079  1.00  0.00    -0.250 OA
BRANCH  65  67
ATOM     67  O   UNL     1       4.276   4.813 -19.112  1.00  0.00    -0.480 OA
ATOM     68  H   UNL     1       4.352   3.835 -19.163  1.00  0.00     0.296 HD
ENDBRANCH  65  67
ENDBRANCH  49  65
ENDBRANCH  47  49
ENDBRANCH  43  45
ENDBRANCH   1  43
BRANCH   1  69
ATOM     69  C   UNL     1       3.347   0.385 -14.741  1.00  0.00    -0.001 C 
ATOM     70  C   UNL     1       3.783   0.680 -13.504  1.00  0.00     0.001 C 
BRANCH  70  71
ATOM     71  C   UNL     1       2.967   0.845 -12.299  1.00  0.00    -0.055 C 
ATOM     72  C   UNL     1       1.727   1.357 -12.447  1.00  0.00    -0.018 C 
ATOM     73  C   UNL     1       3.565   0.425 -10.982  1.00  0.00     0.044 C 
BRANCH  72  74
ATOM     74  C   UNL     1       0.667   1.635 -11.391  1.00  0.00     0.038 C 
ATOM     75  C   UNL     1       1.162   2.821 -10.554  1.00  0.00     0.015 C 
BRANCH  74  76
ATOM     76  C   UNL     1       0.410   0.328 -10.583  1.00  0.00     0.128 C 
BRANCH  76  77
ATOM     77  O   UNL     1      -0.161   0.647  -9.303  1.00  0.00    -0.381 OA
ATOM     78  C   UNL     1      -1.337  -0.092  -9.002  1.00  0.00     0.195 C 
ENDBRANCH  76  77
BRANCH  76  79
ATOM     79  C   UNL     1      -0.406  -0.738 -11.355  1.00  0.00     0.068 C 
BRANCH  79  80
ATOM     80  C   UNL     1       0.353  -1.832 -12.067  1.00  0.00    -0.045 A 
ATOM     81  C   UNL     1      -0.049  -2.286 -13.330  1.00  0.00     0.004 A 
ATOM     82  C   UNL     1       1.465  -2.432 -11.457  1.00  0.00     0.004 A 
ATOM     83  C   UNL     1       0.651  -3.307 -13.975  1.00  0.00     0.000 A 
ATOM     84  C   UNL     1       2.164  -3.454 -12.104  1.00  0.00     0.000 A 
ATOM     85  C   UNL     1       1.758  -3.890 -13.363  1.00  0.00     0.000 A 
ENDBRANCH  79  80
ENDBRANCH  76  79
ENDBRANCH  74  76
ENDBRANCH  72  74
ENDBRANCH  70  71
ENDBRANCH   1  69
TORSDOF 17
ENDMDL
MODEL 48
REMARK VINA RESULT:    -4.937     12.328     17.293
REMARK INTER + INTRA:         -23.378
REMARK INTER:                 -16.528
REMARK INTRA:                  -6.851
REMARK UNBOUND:                -8.629
REMARK SMILES C=C1C(=O)N[C@H](C)C(=O)N[C@@H](CC(C)C)C(=O)N[C@@H](C(=O)O)[C@H](C)C(=O)N[C@@H](CCCN=C(N)N)C(=O)N[C@@H](/C=C/C(C)=C/[C@H](C)[C@H](Cc2ccccc2)OC)[C@H](C)C(=O)N[C@@H](C(=O)O)CCC(=O)N1C
REMARK SMILES IDX 39 1 38 2 37 3 36 4 28 6 27 7 25 8 26 9 23 11 24 12 19 13
REMARK SMILES IDX 18 14 16 15 17 16 11 18 10 19 8 20 9 21 12 24 13 25 14 26
REMARK SMILES IDX 15 27 20 28 21 29 22 30 29 32 30 33 31 34 32 35 33 36 34 37
REMARK SMILES IDX 35 38 57 43 58 44 59 45 60 46 61 47 62 49 66 50 67 51 68 52
REMARK SMILES IDX 69 53 70 54 71 55 2 56 1 57 3 58 4 59 5 60 6 62 7 63 63 65
REMARK SMILES IDX 64 66 65 67 40 69 41 70 42 71 44 72 43 73 45 74 46 75 47 76
REMARK SMILES IDX 55 77 56 78 48 79 49 80 50 81 54 82 51 83 53 84 52 85
REMARK H PARENT 38 5 27 10 18 17 10 22 22 31 34 39 34 40 35 41 35 42 61 48
REMARK H PARENT 5 61 65 68
REMARK Flexibility Score:  369.900
ROOT
ATOM      1  C   UNL     1       0.985  -1.107   1.309  1.00  0.00     0.117 C 
ENDROOT
BRANCH   1   2
ATOM      2  N   UNL     1       2.394  -1.320   1.643  1.00  0.00    -0.347 N 
ATOM      3  O   UNL     1       2.643  -3.375   0.651  1.00  0.00    -0.273 OA
ATOM      4  C   UNL     1       3.137  -2.399   1.206  1.00  0.00     0.243 C 
ATOM      5  H   UNL     1       2.885  -0.623   2.182  1.00  0.00     0.164 HD
BRANCH   4   6
ATOM      6  C   UNL     1       4.628  -2.341   1.628  1.00  0.00     0.171 C 
BRANCH   6   7
ATOM      7  N   UNL     1       4.777  -1.595   2.888  1.00  0.00    -0.344 N 
ATOM      8  C   UNL     1       5.874  -0.789   3.102  1.00  0.00     0.226 C 
ATOM      9  O   UNL     1       6.776  -0.671   2.282  1.00  0.00    -0.275 OA
ATOM     10  H   UNL     1       4.085  -1.720   3.617  1.00  0.00     0.164 HD
BRANCH   8  11
ATOM     11  C   UNL     1       5.855  -0.045   4.425  1.00  0.00     0.109 C 
ATOM     12  C   UNL     1       4.414   0.242   4.847  1.00  0.00     0.021 C 
BRANCH  11  13
ATOM     13  C   UNL     1       6.695  -0.811   5.467  1.00  0.00     0.204 C 
BRANCH  13  14
ATOM     14  N   UNL     1       7.607  -1.773   4.840  1.00  0.00    -0.340 N 
ATOM     15  C   UNL     1       7.916  -2.990   5.407  1.00  0.00     0.243 C 
ATOM     16  O   UNL     1       7.399  -3.382   6.452  1.00  0.00    -0.273 OA
ATOM     17  H   UNL     1       8.182  -1.450   4.057  1.00  0.00     0.164 HD
BRANCH  15  18
ATOM     18  C   UNL     1       9.054  -3.743   4.675  1.00  0.00     0.171 C 
BRANCH  18  19
ATOM     19  N   UNL     1       9.890  -2.724   4.042  1.00  0.00    -0.343 N 
ATOM     20  C   UNL     1      10.272  -2.816   2.717  1.00  0.00     0.242 CG0
ATOM     21  O   UNL     1      10.039  -3.820   2.048  1.00  0.00    -0.273 OA
ATOM     22  H   UNL     1      10.205  -1.930   4.587  1.00  0.00     0.164 HD
ATOM     23  G   UNL     1      11.085  -1.609   2.204  1.00  0.00     0.000 G0
ENDBRANCH  18  19
BRANCH  18  24
ATOM     24  C   UNL     1       9.860  -4.597   5.661  1.00  0.00     0.038 C 
BRANCH  24  25
ATOM     25  C   UNL     1       9.393  -6.064   5.775  1.00  0.00    -0.015 C 
ATOM     26  C   UNL     1      10.488  -6.988   6.307  1.00  0.00     0.007 C 
ATOM     27  C   UNL     1       8.919  -6.560   4.406  1.00  0.00     0.007 C 
ENDBRANCH  24  25
ENDBRANCH  18  24
ENDBRANCH  15  18
ENDBRANCH  13  14
BRANCH  13  28
ATOM     28  C   UNL     1       7.542   0.107   6.353  1.00  0.00     0.327 C 
ATOM     29  O   UNL     1       8.437   0.849   5.977  1.00  0.00    -0.250 OA
BRANCH  28  30
ATOM     30  O   UNL     1       7.294  -0.051   7.669  1.00  0.00    -0.480 OA
ATOM     31  H   UNL     1       6.825   0.771   7.926  1.00  0.00     0.296 HD
ENDBRANCH  28  30
ENDBRANCH  13  28
ENDBRANCH  11  13
ENDBRANCH   8  11
ENDBRANCH   6   7
BRANCH   6  32
ATOM     32  C   UNL     1       5.166  -3.769   1.771  1.00  0.00     0.037 C 
BRANCH  32  33
ATOM     33  C   UNL     1       6.505  -3.958   1.045  1.00  0.00     0.026 C 
BRANCH  33  34
ATOM     34  C   UNL     1       6.407  -4.950  -0.115  1.00  0.00     0.146 C 
BRANCH  34  35
ATOM     35  N   UNL     1       6.352  -4.207  -1.366  1.00  0.00    -0.254 NA
ATOM     36  C   UNL     1       5.229  -4.111  -1.975  1.00  0.00     0.185 C 
ATOM     37  N   UNL     1       5.166  -3.424  -3.126  1.00  0.00    -0.370 N 
ATOM     38  N   UNL     1       4.033  -4.617  -1.625  1.00  0.00    -0.370 N 
ATOM     39  H   UNL     1       6.026  -3.003  -3.451  1.00  0.00     0.159 HD
ATOM     40  H   UNL     1       4.303  -3.158  -3.568  1.00  0.00     0.159 HD
ATOM     41  H   UNL     1       3.251  -4.591  -2.259  1.00  0.00     0.159 HD
ATOM     42  H   UNL     1       3.935  -5.170  -0.788  1.00  0.00     0.159 HD
ENDBRANCH  34  35
ENDBRANCH  33  34
ENDBRANCH  32  33
ENDBRANCH   6  32
ENDBRANCH   4   6
ENDBRANCH   1   2
BRANCH   1  43
ATOM     43  C   UNL     1       0.905  -0.172   0.069  1.00  0.00     0.102 C 
ATOM     44  C   UNL     1       0.579   1.289   0.423  1.00  0.00     0.020 C 
BRANCH  43  45
ATOM     45  C   UNL     1      -0.003  -0.766  -1.011  1.00  0.00     0.225 C 
ATOM     46  O   UNL     1       0.308  -0.814  -2.198  1.00  0.00    -0.275 OA
ATOM     47  N   UNL     1      -1.248  -1.167  -0.583  1.00  0.00    -0.342 N 
ATOM     48  H   UNL     1      -1.430  -1.263   0.406  1.00  0.00     0.164 HD
BRANCH  47  49
ATOM     49  C   UNL     1      -2.210  -1.788  -1.499  1.00  0.00     0.192 C 
BRANCH  49  50
ATOM     50  C   UNL     1      -3.105  -0.708  -2.114  1.00  0.00     0.047 C 
BRANCH  50  51
ATOM     51  C   UNL     1      -3.390   0.439  -1.135  1.00  0.00     0.103 C 
BRANCH  51  52
ATOM     52  C   UNL     1      -4.727   0.262  -0.418  1.00  0.00     0.226 C 
ATOM     53  O   UNL     1      -4.748   0.091   0.802  1.00  0.00    -0.275 OA
BRANCH  52  54
ATOM     54  N   UNL     1      -5.884   0.384  -1.211  1.00  0.00    -0.311 N 
ATOM     55  C   UNL     1      -6.009   1.458  -2.205  1.00  0.00     0.153 C 
BRANCH  54  56
ATOM     56  C   UNL     1      -6.956  -0.516  -1.085  1.00  0.00     0.102 C 
ATOM     57  C   UNL     1      -7.919  -0.438  -0.153  1.00  0.00     0.043 C 
BRANCH  56  58
ATOM     58  C   UNL     1      -7.129  -1.655  -2.062  1.00  0.00     0.268 C 
ATOM     59  O   UNL     1      -6.190  -2.289  -2.524  1.00  0.00    -0.268 OA
ATOM     60  N   UNL     1      -8.446  -1.947  -2.323  1.00  0.00    -0.339 N 
ATOM     61  H   UNL     1      -9.166  -1.367  -1.908  1.00  0.00     0.164 HD
BRANCH  60  62
ATOM     62  C   UNL     1      -8.841  -3.054  -3.193  1.00  0.00     0.168 CG0
ATOM     63  C   UNL     1      -9.867  -2.601  -4.224  1.00  0.00     0.041 C 
ATOM     64  G   UNL     1      -9.402  -4.209  -2.337  1.00  0.00     0.000 G0
ENDBRANCH  60  62
ENDBRANCH  56  58
ENDBRANCH  54  56
ENDBRANCH  52  54
ENDBRANCH  51  52
ENDBRANCH  50  51
ENDBRANCH  49  50
BRANCH  49  65
ATOM     65  C   UNL     1      -3.086  -2.827  -0.782  1.00  0.00     0.326 C 
ATOM     66  O   UNL     1      -3.239  -2.914   0.427  1.00  0.00    -0.250 OA
BRANCH  65  67
ATOM     67  O   UNL     1      -3.670  -3.732  -1.599  1.00  0.00    -0.480 OA
ATOM     68  H   UNL     1      -3.252  -3.561  -2.470  1.00  0.00     0.296 HD
ENDBRANCH  65  67
ENDBRANCH  49  65
ENDBRANCH  47  49
ENDBRANCH  43  45
ENDBRANCH   1  43
BRANCH   1  69
ATOM     69  C   UNL     1       0.305  -0.678   2.597  1.00  0.00    -0.001 C 
ATOM     70  C   UNL     1       0.876  -0.493   3.800  1.00  0.00     0.001 C 
BRANCH  70  71
ATOM     71  C   UNL     1       0.213  -0.058   5.031  1.00  0.00    -0.055 C 
ATOM     72  C   UNL     1      -0.517   1.077   4.983  1.00  0.00    -0.018 C 
ATOM     73  C   UNL     1       0.384  -0.911   6.261  1.00  0.00     0.044 C 
BRANCH  72  74
ATOM     74  C   UNL     1      -1.308   1.760   6.089  1.00  0.00     0.038 C 
ATOM     75  C   UNL     1      -2.561   2.363   5.443  1.00  0.00     0.015 C 
BRANCH  74  76
ATOM     76  C   UNL     1      -0.383   2.789   6.804  1.00  0.00     0.128 C 
BRANCH  76  77
ATOM     77  O   UNL     1      -0.096   2.345   8.141  1.00  0.00    -0.381 OA
ATOM     78  C   UNL     1      -1.256   2.119   8.929  1.00  0.00     0.195 C 
ENDBRANCH  76  77
BRANCH  76  79
ATOM     79  C   UNL     1       0.894   3.149   6.004  1.00  0.00     0.068 C 
BRANCH  79  80
ATOM     80  C   UNL     1       2.232   2.892   6.655  1.00  0.00    -0.045 A 
ATOM     81  C   UNL     1       3.341   3.699   6.370  1.00  0.00     0.004 A 
ATOM     82  C   UNL     1       2.392   1.814   7.540  1.00  0.00     0.004 A 
ATOM     83  C   UNL     1       4.579   3.445   6.965  1.00  0.00     0.000 A 
ATOM     84  C   UNL     1       3.630   1.561   8.134  1.00  0.00     0.000 A 
ATOM     85  C   UNL     1       4.722   2.377   7.848  1.00  0.00     0.000 A 
ENDBRANCH  79  80
ENDBRANCH  76  79
ENDBRANCH  74  76
ENDBRANCH  72  74
ENDBRANCH  70  71
ENDBRANCH   1  69
TORSDOF 17
ENDMDL
MODEL 49
REMARK VINA RESULT:    -4.915     13.887     20.611
REMARK INTER + INTRA:         -23.314
REMARK INTER:                 -15.757
REMARK INTRA:                  -7.557
REMARK UNBOUND:                -8.629
REMARK SMILES C=C1C(=O)N[C@H](C)C(=O)N[C@@H](CC(C)C)C(=O)N[C@@H](C(=O)O)[C@H](C)C(=O)N[C@@H](CCCN=C(N)N)C(=O)N[C@@H](/C=C/C(C)=C/[C@H](C)[C@H](Cc2ccccc2)OC)[C@H](C)C(=O)N[C@@H](C(=O)O)CCC(=O)N1C
REMARK SMILES IDX 39 1 38 2 37 3 36 4 28 6 27 7 25 8 26 9 23 11 24 12 19 13
REMARK SMILES IDX 18 14 16 15 17 16 11 18 10 19 8 20 9 21 12 24 13 25 14 26
REMARK SMILES IDX 15 27 20 28 21 29 22 30 29 32 30 33 31 34 32 35 33 36 34 37
REMARK SMILES IDX 35 38 57 43 58 44 59 45 60 46 61 47 62 49 66 50 67 51 68 52
REMARK SMILES IDX 69 53 70 54 71 55 2 56 1 57 3 58 4 59 5 60 6 62 7 63 63 65
REMARK SMILES IDX 64 66 65 67 40 69 41 70 42 71 44 72 43 73 45 74 46 75 47 76
REMARK SMILES IDX 55 77 56 78 48 79 49 80 50 81 54 82 51 83 53 84 52 85
REMARK H PARENT 38 5 27 10 18 17 10 22 22 31 34 39 34 40 35 41 35 42 61 48
REMARK H PARENT 5 61 65 68
REMARK Flexibility Score:  369.900
ROOT
ATOM      1  C   UNL     1      -4.977   1.970   4.225  1.00  0.00     0.117 C 
ENDROOT
BRANCH   1   2
ATOM      2  N   UNL     1      -4.095   1.099   3.447  1.00  0.00    -0.347 N 
ATOM      3  O   UNL     1      -3.586   2.585   1.773  1.00  0.00    -0.273 OA
ATOM      4  C   UNL     1      -3.395   1.508   2.328  1.00  0.00     0.243 C 
ATOM      5  H   UNL     1      -3.936   0.153   3.757  1.00  0.00     0.164 HD
BRANCH   4   6
ATOM      6  C   UNL     1      -2.466   0.416   1.741  1.00  0.00     0.171 C 
BRANCH   6   7
ATOM      7  N   UNL     1      -2.363   0.560   0.280  1.00  0.00    -0.344 N 
ATOM      8  C   UNL     1      -2.643  -0.502  -0.552  1.00  0.00     0.226 C 
ATOM      9  O   UNL     1      -2.964  -1.606  -0.128  1.00  0.00    -0.275 OA
ATOM     10  H   UNL     1      -2.035   1.437  -0.105  1.00  0.00     0.164 HD
BRANCH   8  11
ATOM     11  C   UNL     1      -2.544  -0.180  -2.033  1.00  0.00     0.109 C 
ATOM     12  C   UNL     1      -1.141  -0.501  -2.548  1.00  0.00     0.021 C 
BRANCH  11  13
ATOM     13  C   UNL     1      -3.690  -0.876  -2.795  1.00  0.00     0.204 C 
BRANCH  13  14
ATOM     14  N   UNL     1      -5.006  -0.532  -2.248  1.00  0.00    -0.340 N 
ATOM     15  C   UNL     1      -5.944  -1.480  -1.904  1.00  0.00     0.243 C 
ATOM     16  O   UNL     1      -5.721  -2.687  -1.976  1.00  0.00    -0.273 OA
ATOM     17  H   UNL     1      -5.310   0.444  -2.305  1.00  0.00     0.164 HD
BRANCH  15  18
ATOM     18  C   UNL     1      -7.327  -0.881  -1.547  1.00  0.00     0.171 C 
BRANCH  18  19
ATOM     19  N   UNL     1      -8.329  -1.850  -1.988  1.00  0.00    -0.343 N 
ATOM     20  C   UNL     1      -9.154  -1.605  -3.069  1.00  0.00     0.242 CG0
ATOM     21  O   UNL     1      -9.175  -0.511  -3.627  1.00  0.00    -0.273 OA
ATOM     22  H   UNL     1      -8.430  -2.725  -1.485  1.00  0.00     0.164 HD
ATOM     23  G   UNL     1     -10.092  -2.775  -3.432  1.00  0.00     0.000 G0
ENDBRANCH  18  19
BRANCH  18  24
ATOM     24  C   UNL     1      -7.429  -0.613  -0.041  1.00  0.00     0.038 C 
BRANCH  24  25
ATOM     25  C   UNL     1      -7.829   0.830   0.331  1.00  0.00    -0.015 C 
ATOM     26  C   UNL     1      -8.872   1.413  -0.623  1.00  0.00     0.007 C 
ATOM     27  C   UNL     1      -6.585   1.723   0.342  1.00  0.00     0.007 C 
ENDBRANCH  24  25
ENDBRANCH  18  24
ENDBRANCH  15  18
ENDBRANCH  13  14
BRANCH  13  28
ATOM     28  C   UNL     1      -3.716  -0.534  -4.288  1.00  0.00     0.327 C 
ATOM     29  O   UNL     1      -4.135   0.500  -4.786  1.00  0.00    -0.250 OA
BRANCH  28  30
ATOM     30  O   UNL     1      -3.325  -1.559  -5.072  1.00  0.00    -0.480 OA
ATOM     31  H   UNL     1      -3.443  -2.352  -4.509  1.00  0.00     0.296 HD
ENDBRANCH  28  30
ENDBRANCH  13  28
ENDBRANCH  11  13
ENDBRANCH   8  11
ENDBRANCH   6   7
BRANCH   6  32
ATOM     32  C   UNL     1      -1.086   0.522   2.400  1.00  0.00     0.037 C 
BRANCH  32  33
ATOM     33  C   UNL     1      -0.326  -0.811   2.369  1.00  0.00     0.026 C 
BRANCH  33  34
ATOM     34  C   UNL     1       1.090  -0.664   1.810  1.00  0.00     0.146 C 
BRANCH  34  35
ATOM     35  N   UNL     1       1.570  -1.976   1.396  1.00  0.00    -0.254 NA
ATOM     36  C   UNL     1       2.832  -2.197   1.397  1.00  0.00     0.185 C 
ATOM     37  N   UNL     1       3.285  -3.403   1.023  1.00  0.00    -0.370 N 
ATOM     38  N   UNL     1       3.835  -1.366   1.733  1.00  0.00    -0.370 N 
ATOM     39  H   UNL     1       2.588  -4.090   0.764  1.00  0.00     0.159 HD
ATOM     40  H   UNL     1       4.233  -3.708   1.161  1.00  0.00     0.159 HD
ATOM     41  H   UNL     1       4.795  -1.611   1.559  1.00  0.00     0.159 HD
ATOM     42  H   UNL     1       3.642  -0.419   2.020  1.00  0.00     0.159 HD
ENDBRANCH  34  35
ENDBRANCH  33  34
ENDBRANCH  32  33
ENDBRANCH   6  32
ENDBRANCH   4   6
ENDBRANCH   1   2
BRANCH   1  43
ATOM     43  C   UNL     1      -4.353   2.173   5.636  1.00  0.00     0.102 C 
ATOM     44  C   UNL     1      -5.103   3.206   6.495  1.00  0.00     0.020 C 
BRANCH  43  45
ATOM     45  C   UNL     1      -2.845   2.423   5.540  1.00  0.00     0.225 C 
ATOM     46  O   UNL     1      -2.361   3.389   4.957  1.00  0.00    -0.275 OA
ATOM     47  N   UNL     1      -2.046   1.438   6.074  1.00  0.00    -0.342 N 
ATOM     48  H   UNL     1      -2.452   0.737   6.676  1.00  0.00     0.164 HD
BRANCH  47  49
ATOM     49  C   UNL     1      -0.585   1.560   6.085  1.00  0.00     0.192 C 
BRANCH  49  50
ATOM     50  C   UNL     1       0.046   0.172   6.233  1.00  0.00     0.047 C 
BRANCH  50  51
ATOM     51  C   UNL     1       1.380   0.056   5.483  1.00  0.00     0.103 C 
BRANCH  51  52
ATOM     52  C   UNL     1       2.536  -0.286   6.420  1.00  0.00     0.226 C 
ATOM     53  O   UNL     1       2.535  -1.360   7.024  1.00  0.00    -0.275 OA
BRANCH  52  54
ATOM     54  N   UNL     1       3.593   0.642   6.476  1.00  0.00    -0.311 N 
ATOM     55  C   UNL     1       3.339   2.085   6.375  1.00  0.00     0.153 C 
BRANCH  54  56
ATOM     56  C   UNL     1       4.925   0.225   6.636  1.00  0.00     0.102 C 
ATOM     57  C   UNL     1       5.556  -0.655   5.841  1.00  0.00     0.043 C 
BRANCH  56  58
ATOM     58  C   UNL     1       5.790   0.799   7.733  1.00  0.00     0.268 C 
ATOM     59  O   UNL     1       5.640   0.525   8.916  1.00  0.00    -0.268 OA
ATOM     60  N   UNL     1       6.800   1.603   7.261  1.00  0.00    -0.339 N 
ATOM     61  H   UNL     1       6.849   1.790   6.267  1.00  0.00     0.164 HD
BRANCH  60  62
ATOM     62  C   UNL     1       7.791   2.211   8.148  1.00  0.00     0.168 CG0
ATOM     63  C   UNL     1       9.202   1.779   7.769  1.00  0.00     0.041 C 
ATOM     64  G   UNL     1       7.477   1.832   9.610  1.00  0.00     0.000 G0
ENDBRANCH  60  62
ENDBRANCH  56  58
ENDBRANCH  54  56
ENDBRANCH  52  54
ENDBRANCH  51  52
ENDBRANCH  50  51
ENDBRANCH  49  50
BRANCH  49  65
ATOM     65  C   UNL     1      -0.100   2.463   7.229  1.00  0.00     0.326 C 
ATOM     66  O   UNL     1       0.033   2.123   8.396  1.00  0.00    -0.250 OA
BRANCH  65  67
ATOM     67  O   UNL     1       0.133   3.746   6.875  1.00  0.00    -0.480 OA
ATOM     68  H   UNL     1       1.103   3.774   6.730  1.00  0.00     0.296 HD
ENDBRANCH  65  67
ENDBRANCH  49  65
ENDBRANCH  47  49
ENDBRANCH  43  45
ENDBRANCH   1  43
BRANCH   1  69
ATOM     69  C   UNL     1      -6.367   1.371   4.118  1.00  0.00    -0.001 C 
ATOM     70  C   UNL     1      -6.688   0.077   3.939  1.00  0.00     0.001 C 
BRANCH  70  71
ATOM     71  C   UNL     1      -8.034  -0.492   3.858  1.00  0.00    -0.055 C 
ATOM     72  C   UNL     1      -9.061   0.258   4.311  1.00  0.00    -0.018 C 
ATOM     73  C   UNL     1      -8.180  -1.870   3.268  1.00  0.00     0.044 C 
BRANCH  72  74
ATOM     74  C   UNL     1     -10.547  -0.067   4.350  1.00  0.00     0.038 C 
ATOM     75  C   UNL     1     -11.283   1.097   3.675  1.00  0.00     0.015 C 
BRANCH  74  76
ATOM     76  C   UNL     1     -10.963  -0.335   5.827  1.00  0.00     0.128 C 
BRANCH  76  77
ATOM     77  O   UNL     1     -11.818   0.722   6.295  1.00  0.00    -0.381 OA
ATOM     78  C   UNL     1     -12.973   0.259   6.983  1.00  0.00     0.195 C 
ENDBRANCH  76  77
BRANCH  76  79
ATOM     79  C   UNL     1     -11.564  -1.743   6.066  1.00  0.00     0.068 C 
BRANCH  79  80
ATOM     80  C   UNL     1     -10.703  -2.942   5.749  1.00  0.00    -0.045 A 
ATOM     81  C   UNL     1      -9.523  -3.192   6.461  1.00  0.00     0.004 A 
ATOM     82  C   UNL     1     -11.061  -3.814   4.710  1.00  0.00     0.004 A 
ATOM     83  C   UNL     1      -8.725  -4.296   6.152  1.00  0.00     0.000 A 
ATOM     84  C   UNL     1     -10.262  -4.917   4.401  1.00  0.00     0.000 A 
ATOM     85  C   UNL     1      -9.095  -5.158   5.123  1.00  0.00     0.000 A 
ENDBRANCH  79  80
ENDBRANCH  76  79
ENDBRANCH  74  76
ENDBRANCH  72  74
ENDBRANCH  70  71
ENDBRANCH   1  69
TORSDOF 17
ENDMDL
MODEL 50
REMARK VINA RESULT:    -4.892      9.416     15.560
REMARK INTER + INTRA:         -23.244
REMARK INTER:                 -16.017
REMARK INTRA:                  -7.227
REMARK UNBOUND:                -8.629
REMARK SMILES C=C1C(=O)N[C@H](C)C(=O)N[C@@H](CC(C)C)C(=O)N[C@@H](C(=O)O)[C@H](C)C(=O)N[C@@H](CCCN=C(N)N)C(=O)N[C@@H](/C=C/C(C)=C/[C@H](C)[C@H](Cc2ccccc2)OC)[C@H](C)C(=O)N[C@@H](C(=O)O)CCC(=O)N1C
REMARK SMILES IDX 39 1 38 2 37 3 36 4 28 6 27 7 25 8 26 9 23 11 24 12 19 13
REMARK SMILES IDX 18 14 16 15 17 16 11 18 10 19 8 20 9 21 12 24 13 25 14 26
REMARK SMILES IDX 15 27 20 28 21 29 22 30 29 32 30 33 31 34 32 35 33 36 34 37
REMARK SMILES IDX 35 38 57 43 58 44 59 45 60 46 61 47 62 49 66 50 67 51 68 52
REMARK SMILES IDX 69 53 70 54 71 55 2 56 1 57 3 58 4 59 5 60 6 62 7 63 63 65
REMARK SMILES IDX 64 66 65 67 40 69 41 70 42 71 44 72 43 73 45 74 46 75 47 76
REMARK SMILES IDX 55 77 56 78 48 79 49 80 50 81 54 82 51 83 53 84 52 85
REMARK H PARENT 38 5 27 10 18 17 10 22 22 31 34 39 34 40 35 41 35 42 61 48
REMARK H PARENT 5 61 65 68
REMARK Flexibility Score:  369.900
ROOT
ATOM      1  C   UNL     1       2.937  -1.561   1.627  1.00  0.00     0.117 C 
ENDROOT
BRANCH   1   2
ATOM      2  N   UNL     1       3.696  -1.538   0.376  1.00  0.00    -0.347 N 
ATOM      3  O   UNL     1       3.869  -3.807   0.073  1.00  0.00    -0.273 OA
ATOM      4  C   UNL     1       4.023  -2.667  -0.351  1.00  0.00     0.243 C 
ATOM      5  H   UNL     1       3.965  -0.652  -0.023  1.00  0.00     0.164 HD
BRANCH   4   6
ATOM      6  C   UNL     1       4.755  -2.360  -1.682  1.00  0.00     0.171 C 
BRANCH   6   7
ATOM      7  N   UNL     1       3.838  -1.717  -2.637  1.00  0.00    -0.344 N 
ATOM      8  C   UNL     1       3.949  -1.958  -3.989  1.00  0.00     0.226 C 
ATOM      9  O   UNL     1       4.814  -2.687  -4.461  1.00  0.00    -0.275 OA
ATOM     10  H   UNL     1       3.154  -1.056  -2.291  1.00  0.00     0.164 HD
BRANCH   8  11
ATOM     11  C   UNL     1       2.897  -1.265  -4.837  1.00  0.00     0.109 C 
ATOM     12  C   UNL     1       3.508  -0.802  -6.159  1.00  0.00     0.021 C 
BRANCH  11  13
ATOM     13  C   UNL     1       1.659  -2.173  -4.977  1.00  0.00     0.204 C 
BRANCH  13  14
ATOM     14  N   UNL     1       0.423  -1.484  -4.594  1.00  0.00    -0.340 N 
ATOM     15  C   UNL     1      -0.738  -2.153  -4.273  1.00  0.00     0.243 C 
ATOM     16  O   UNL     1      -0.802  -3.380  -4.226  1.00  0.00    -0.273 OA
ATOM     17  H   UNL     1       0.365  -0.476  -4.759  1.00  0.00     0.164 HD
BRANCH  15  18
ATOM     18  C   UNL     1      -1.963  -1.221  -4.107  1.00  0.00     0.171 C 
BRANCH  18  19
ATOM     19  N   UNL     1      -2.749  -1.339  -5.334  1.00  0.00    -0.343 N 
ATOM     20  C   UNL     1      -2.394  -0.675  -6.493  1.00  0.00     0.242 CG0
ATOM     21  O   UNL     1      -1.481   0.147  -6.509  1.00  0.00    -0.273 OA
ATOM     22  H   UNL     1      -3.581  -1.917  -5.338  1.00  0.00     0.164 HD
ATOM     23  G   UNL     1      -3.297  -0.984  -7.705  1.00  0.00     0.000 G0
ENDBRANCH  18  19
BRANCH  18  24
ATOM     24  C   UNL     1      -2.784  -1.620  -2.874  1.00  0.00     0.038 C 
BRANCH  24  25
ATOM     25  C   UNL     1      -2.199  -1.141  -1.528  1.00  0.00    -0.015 C 
ATOM     26  C   UNL     1      -3.116  -1.457  -0.346  1.00  0.00     0.007 C 
ATOM     27  C   UNL     1      -1.935   0.366  -1.588  1.00  0.00     0.007 C 
ENDBRANCH  24  25
ENDBRANCH  18  24
ENDBRANCH  15  18
ENDBRANCH  13  14
BRANCH  13  28
ATOM     28  C   UNL     1       1.460  -2.707  -6.399  1.00  0.00     0.327 C 
ATOM     29  O   UNL     1       1.917  -3.745  -6.852  1.00  0.00    -0.250 OA
BRANCH  28  30
ATOM     30  O   UNL     1       0.799  -1.846  -7.199  1.00  0.00    -0.480 OA
ATOM     31  H   UNL     1       1.320  -1.018  -7.145  1.00  0.00     0.296 HD
ENDBRANCH  28  30
ENDBRANCH  13  28
ENDBRANCH  11  13
ENDBRANCH   8  11
ENDBRANCH   6   7
BRANCH   6  32
ATOM     32  C   UNL     1       5.965  -1.463  -1.396  1.00  0.00     0.037 C 
BRANCH  32  33
ATOM     33  C   UNL     1       7.024  -2.175  -0.543  1.00  0.00     0.026 C 
BRANCH  33  34
ATOM     34  C   UNL     1       7.587  -3.420  -1.228  1.00  0.00     0.146 C 
BRANCH  34  35
ATOM     35  N   UNL     1       7.730  -4.478  -0.237  1.00  0.00    -0.254 NA
ATOM     36  C   UNL     1       6.902  -5.455  -0.257  1.00  0.00     0.185 C 
ATOM     37  N   UNL     1       7.028  -6.437   0.649  1.00  0.00    -0.370 N 
ATOM     38  N   UNL     1       5.867  -5.668  -1.089  1.00  0.00    -0.370 N 
ATOM     39  H   UNL     1       7.793  -6.354   1.306  1.00  0.00     0.159 HD
ATOM     40  H   UNL     1       6.535  -7.312   0.592  1.00  0.00     0.159 HD
ATOM     41  H   UNL     1       5.203  -6.405  -0.916  1.00  0.00     0.159 HD
ATOM     42  H   UNL     1       5.644  -5.001  -1.811  1.00  0.00     0.159 HD
ENDBRANCH  34  35
ENDBRANCH  33  34
ENDBRANCH  32  33
ENDBRANCH   6  32
ENDBRANCH   4   6
ENDBRANCH   1   2
BRANCH   1  43
ATOM     43  C   UNL     1       1.545  -0.914   1.373  1.00  0.00     0.102 C 
ATOM     44  C   UNL     1       1.346  -0.438  -0.076  1.00  0.00     0.020 C 
BRANCH  43  45
ATOM     45  C   UNL     1       1.235   0.155   2.426  1.00  0.00     0.225 C 
ATOM     46  O   UNL     1       1.576   1.329   2.311  1.00  0.00    -0.275 OA
ATOM     47  N   UNL     1       0.624  -0.301   3.571  1.00  0.00    -0.342 N 
ATOM     48  H   UNL     1       0.217  -1.226   3.587  1.00  0.00     0.164 HD
BRANCH  47  49
ATOM     49  C   UNL     1       0.235   0.614   4.649  1.00  0.00     0.192 C 
BRANCH  49  50
ATOM     50  C   UNL     1       0.430  -0.074   6.002  1.00  0.00     0.047 C 
BRANCH  50  51
ATOM     51  C   UNL     1       1.907  -0.367   6.300  1.00  0.00     0.103 C 
BRANCH  51  52
ATOM     52  C   UNL     1       2.757   0.902   6.285  1.00  0.00     0.226 C 
ATOM     53  O   UNL     1       3.078   1.409   5.209  1.00  0.00    -0.275 OA
BRANCH  52  54
ATOM     54  N   UNL     1       3.064   1.465   7.538  1.00  0.00    -0.311 N 
ATOM     55  C   UNL     1       2.047   2.188   8.312  1.00  0.00     0.153 C 
BRANCH  54  56
ATOM     56  C   UNL     1       4.349   1.352   8.096  1.00  0.00     0.102 C 
ATOM     57  C   UNL     1       4.778   0.315   8.832  1.00  0.00     0.043 C 
BRANCH  56  58
ATOM     58  C   UNL     1       5.393   2.418   7.858  1.00  0.00     0.268 C 
ATOM     59  O   UNL     1       5.406   3.132   6.865  1.00  0.00    -0.268 OA
ATOM     60  N   UNL     1       6.282   2.544   8.898  1.00  0.00    -0.339 N 
ATOM     61  H   UNL     1       6.210   1.906   9.681  1.00  0.00     0.164 HD
BRANCH  60  62
ATOM     62  C   UNL     1       7.337   3.557   8.902  1.00  0.00     0.168 CG0
ATOM     63  C   UNL     1       8.645   2.987   8.366  1.00  0.00     0.041 C 
ATOM     64  G   UNL     1       7.526   4.101  10.333  1.00  0.00     0.000 G0
ENDBRANCH  60  62
ENDBRANCH  56  58
ENDBRANCH  54  56
ENDBRANCH  52  54
ENDBRANCH  51  52
ENDBRANCH  50  51
ENDBRANCH  49  50
BRANCH  49  65
ATOM     65  C   UNL     1      -1.228   1.063   4.511  1.00  0.00     0.326 C 
ATOM     66  O   UNL     1      -1.779   1.378   3.467  1.00  0.00    -0.250 OA
BRANCH  65  67
ATOM     67  O   UNL     1      -1.902   1.153   5.679  1.00  0.00    -0.480 OA
ATOM     68  H   UNL     1      -2.095   2.111   5.762  1.00  0.00     0.296 HD
ENDBRANCH  65  67
ENDBRANCH  49  65
ENDBRANCH  47  49
ENDBRANCH  43  45
ENDBRANCH   1  43
BRANCH   1  69
ATOM     69  C   UNL     1       3.844  -0.959   2.685  1.00  0.00    -0.001 C 
ATOM     70  C   UNL     1       5.168  -1.146   2.828  1.00  0.00     0.001 C 
BRANCH  70  71
ATOM     71  C   UNL     1       6.037  -0.542   3.840  1.00  0.00    -0.055 C 
ATOM     72  C   UNL     1       7.063   0.223   3.411  1.00  0.00    -0.018 C 
ATOM     73  C   UNL     1       5.720  -0.810   5.288  1.00  0.00     0.044 C 
BRANCH  72  74
ATOM     74  C   UNL     1       8.113   0.969   4.222  1.00  0.00     0.038 C 
ATOM     75  C   UNL     1       7.690   2.442   4.263  1.00  0.00     0.015 C 
BRANCH  74  76
ATOM     76  C   UNL     1       9.512   0.708   3.590  1.00  0.00     0.128 C 
BRANCH  76  77
ATOM     77  O   UNL     1      10.247   1.941   3.499  1.00  0.00    -0.381 OA
ATOM     78  C   UNL     1      10.945   2.100   2.271  1.00  0.00     0.195 C 
ENDBRANCH  76  77
BRANCH  76  79
ATOM     79  C   UNL     1      10.317  -0.419   4.285  1.00  0.00     0.068 C 
BRANCH  79  80
ATOM     80  C   UNL     1       9.572  -1.354   5.207  1.00  0.00    -0.045 A 
ATOM     81  C   UNL     1       9.069  -2.577   4.742  1.00  0.00     0.004 A 
ATOM     82  C   UNL     1       9.346  -0.997   6.544  1.00  0.00     0.004 A 
ATOM     83  C   UNL     1       8.369  -3.430   5.598  1.00  0.00     0.000 A 
ATOM     84  C   UNL     1       8.645  -1.850   7.399  1.00  0.00     0.000 A 
ATOM     85  C   UNL     1       8.159  -3.067   6.927  1.00  0.00     0.000 A 
ENDBRANCH  79  80
ENDBRANCH  76  79
ENDBRANCH  74  76
ENDBRANCH  72  74
ENDBRANCH  70  71
ENDBRANCH   1  69
TORSDOF 17
ENDMDL
