MODEL 1
REMARK VINA RESULT:    -7.447      0.000      0.000
REMARK INTER + INTRA:         -20.044
REMARK INTER:                 -15.066
REMARK INTRA:                  -4.978
REMARK UNBOUND:                -4.978
REMARK SMILES CC[C@@H](C)[C@@H](NC(=O)[C@@H](O)Cc1ccc(O)c(Cl)c1)C(=O)N1[C@H](C(=O)NCCCCN=C(N)N)C[C@H]2CC[C@H](OS(=O)(=O)O)C[C@@H]21
REMARK SMILES IDX 22 1 36 2 46 3 35 4 23 5 45 6 37 7 39 8 38 9 20 10 21 11
REMARK SMILES IDX 5 12 6 13 7 14 8 15 9 17 11 18 12 19 17 20 19 21 15 22 14 23
REMARK SMILES IDX 13 24 18 25 16 26 10 28 3 30 4 31 2 32 1 33 24 34 25 35
REMARK SMILES IDX 26 36 27 38 28 39 29 40 30 41 31 42 32 43 33 44 34 45 40 50
REMARK SMILES IDX 41 51 42 52 43 53 44 54
REMARK H PARENT 6 16 16 27 10 29 26 37 33 46 33 47 34 48 34 49 44 55
ROOT
ATOM      1  N   UNL     1     -13.999   5.570  10.079  1.00  0.00    -0.326 N 
ATOM      2  C   UNL     1     -15.322   5.274   8.154  1.00  0.00     0.014 C 
ATOM      3  C   UNL     1     -15.401   5.588   9.650  1.00  0.00     0.091 C 
ATOM      4  C   UNL     1     -14.150   4.307   8.076  1.00  0.00     0.041 C 
ATOM      5  C   UNL     1     -13.144   5.023   8.996  1.00  0.00     0.175 C 
ATOM      6  C   UNL     1     -16.196   6.880   9.831  1.00  0.00     0.059 C 
ATOM      7  C   UNL     1     -16.674   4.848   7.617  1.00  0.00     0.008 C 
ATOM      8  C   UNL     1     -17.292   7.090   8.764  1.00  0.00     0.143 C 
ATOM      9  C   UNL     1     -17.791   5.754   8.176  1.00  0.00     0.034 C 
ENDROOT
BRANCH   1  10
ATOM     10  C   UNL     1     -13.452   5.768  11.335  1.00  0.00     0.246 C 
ATOM     11  O   UNL     1     -13.306   6.922  11.752  1.00  0.00    -0.272 OA
BRANCH  10  12
ATOM     12  C   UNL     1     -13.075   4.537  12.210  1.00  0.00     0.174 C 
BRANCH  12  13
ATOM     13  N   UNL     1     -14.184   3.584  12.235  1.00  0.00    -0.342 N 
ATOM     14  C   UNL     1     -14.216   2.390  11.550  1.00  0.00     0.249 C 
ATOM     15  O   UNL     1     -13.295   1.977  10.857  1.00  0.00    -0.272 OA
ATOM     16  H   UNL     1     -15.076   3.860  12.639  1.00  0.00     0.164 HD
BRANCH  14  17
ATOM     17  C   UNL     1     -15.533   1.615  11.766  1.00  0.00     0.207 C 
BRANCH  17  18
ATOM     18  C   UNL     1     -16.725   2.432  11.259  1.00  0.00     0.077 C 
BRANCH  18  19
ATOM     19  C   UNL     1     -17.155   2.000   9.875  1.00  0.00    -0.043 A 
ATOM     20  C   UNL     1     -16.611   1.097   7.690  1.00  0.00     0.083 A 
ATOM     21  C   UNL     1     -16.222   1.449   8.983  1.00  0.00     0.028 A 
ATOM     22  C   UNL     1     -17.931   1.293   7.281  1.00  0.00     0.134 A 
ATOM     23  C   UNL     1     -18.865   1.837   8.154  1.00  0.00     0.048 A 
ATOM     24  C   UNL     1     -18.478   2.192   9.448  1.00  0.00     0.008 A 
ATOM     25  Cl  UNL     1     -15.450   0.422   6.609  1.00  0.00    -0.080 Cl
BRANCH  22  26
ATOM     26  O   UNL     1     -18.357   0.973   6.020  1.00  0.00    -0.506 OA
ATOM     27  H   UNL     1     -19.150   0.416   6.126  1.00  0.00     0.293 HD
ENDBRANCH  22  26
ENDBRANCH  18  19
ENDBRANCH  17  18
BRANCH  17  28
ATOM     28  O   UNL     1     -15.726   1.300  13.154  1.00  0.00    -0.383 OA
ATOM     29  H   UNL     1     -15.018   0.658  13.389  1.00  0.00     0.211 HD
ENDBRANCH  17  28
ENDBRANCH  14  17
ENDBRANCH  12  13
BRANCH  12  30
ATOM     30  C   UNL     1     -12.604   4.936  13.635  1.00  0.00     0.018 C 
ATOM     31  C   UNL     1     -11.103   4.654  13.813  1.00  0.00     0.010 C 
BRANCH  30  32
ATOM     32  C   UNL     1     -13.410   4.257  14.768  1.00  0.00     0.002 C 
ATOM     33  C   UNL     1     -13.289   4.915  16.137  1.00  0.00     0.004 C 
ENDBRANCH  30  32
ENDBRANCH  12  30
ENDBRANCH  10  12
ENDBRANCH   1  10
BRANCH   5  34
ATOM     34  C   UNL     1     -12.402   6.165   8.252  1.00  0.00     0.242 C 
ATOM     35  O   UNL     1     -12.569   7.352   8.534  1.00  0.00    -0.273 OA
ATOM     36  N   UNL     1     -11.586   5.758   7.220  1.00  0.00    -0.354 N 
ATOM     37  H   UNL     1     -11.581   4.772   6.957  1.00  0.00     0.163 HD
BRANCH  36  38
ATOM     38  C   UNL     1     -10.660   6.659   6.565  1.00  0.00     0.116 C 
BRANCH  38  39
ATOM     39  C   UNL     1     -11.305   7.242   5.310  1.00  0.00     0.023 C 
BRANCH  39  40
ATOM     40  C   UNL     1     -10.955   8.712   5.104  1.00  0.00     0.026 C 
BRANCH  40  41
ATOM     41  C   UNL     1     -11.038   9.479   6.423  1.00  0.00     0.146 C 
BRANCH  41  42
ATOM     42  N   UNL     1     -11.901  10.642   6.263  1.00  0.00    -0.254 NA
ATOM     43  C   UNL     1     -13.151  10.544   6.518  1.00  0.00     0.185 C 
ATOM     44  N   UNL     1     -13.867   9.485   6.940  1.00  0.00    -0.370 N 
ATOM     45  N   UNL     1     -13.930  11.626   6.360  1.00  0.00    -0.370 N 
ATOM     46  H   UNL     1     -14.870   9.482   6.865  1.00  0.00     0.159 HD
ATOM     47  H   UNL     1     -13.432   8.587   7.124  1.00  0.00     0.159 HD
ATOM     48  H   UNL     1     -13.467  12.471   6.052  1.00  0.00     0.159 HD
ATOM     49  H   UNL     1     -14.850  11.698   6.757  1.00  0.00     0.159 HD
ENDBRANCH  41  42
ENDBRANCH  40  41
ENDBRANCH  39  40
ENDBRANCH  38  39
ENDBRANCH  36  38
ENDBRANCH   5  34
BRANCH   8  50
ATOM     50  O   UNL     1     -16.789   7.894   7.697  1.00  0.00    -0.245 OA
BRANCH  50  51
ATOM     51  S   UNL     1     -17.629   9.199   7.209  1.00  0.00     0.397 S 
ATOM     52  O   UNL     1     -18.767   8.737   6.447  1.00  0.00    -0.169 OA
ATOM     53  O   UNL     1     -16.719  10.196   6.687  1.00  0.00    -0.169 OA
BRANCH  51  54
ATOM     54  O   UNL     1     -18.226   9.751   8.597  1.00  0.00    -0.264 OA
ATOM     55  H   UNL     1     -17.590   9.525   9.306  1.00  0.00     0.236 HD
ENDBRANCH  51  54
ENDBRANCH  50  51
ENDBRANCH   8  50
TORSDOF 19
ENDMDL
MODEL 2
REMARK VINA RESULT:    -7.295      5.887     10.186
REMARK INTER + INTRA:         -19.736
REMARK INTER:                 -14.416
REMARK INTRA:                  -5.320
REMARK UNBOUND:                -4.978
REMARK SMILES CC[C@@H](C)[C@@H](NC(=O)[C@@H](O)Cc1ccc(O)c(Cl)c1)C(=O)N1[C@H](C(=O)NCCCCN=C(N)N)C[C@H]2CC[C@H](OS(=O)(=O)O)C[C@@H]21
REMARK SMILES IDX 22 1 36 2 46 3 35 4 23 5 45 6 37 7 39 8 38 9 20 10 21 11
REMARK SMILES IDX 5 12 6 13 7 14 8 15 9 17 11 18 12 19 17 20 19 21 15 22 14 23
REMARK SMILES IDX 13 24 18 25 16 26 10 28 3 30 4 31 2 32 1 33 24 34 25 35
REMARK SMILES IDX 26 36 27 38 28 39 29 40 30 41 31 42 32 43 33 44 34 45 40 50
REMARK SMILES IDX 41 51 42 52 43 53 44 54
REMARK H PARENT 6 16 16 27 10 29 26 37 33 46 33 47 34 48 34 49 44 55
ROOT
ATOM      1  N   UNL     1     -12.222   4.305   5.734  1.00  0.00    -0.326 N 
ATOM      2  C   UNL     1     -13.984   2.832   6.249  1.00  0.00     0.014 C 
ATOM      3  C   UNL     1     -13.203   3.436   5.079  1.00  0.00     0.091 C 
ATOM      4  C   UNL     1     -14.008   3.970   7.258  1.00  0.00     0.041 C 
ATOM      5  C   UNL     1     -12.544   4.438   7.176  1.00  0.00     0.175 C 
ATOM      6  C   UNL     1     -12.689   2.295   4.202  1.00  0.00     0.059 C 
ATOM      7  C   UNL     1     -15.293   2.231   5.775  1.00  0.00     0.008 C 
ATOM      8  C   UNL     1     -13.617   1.061   4.181  1.00  0.00     0.143 C 
ATOM      9  C   UNL     1     -15.085   1.434   4.470  1.00  0.00     0.034 C 
ENDROOT
BRANCH   1  10
ATOM     10  C   UNL     1     -11.253   5.125   5.181  1.00  0.00     0.246 C 
ATOM     11  O   UNL     1     -11.106   6.268   5.627  1.00  0.00    -0.272 OA
BRANCH  10  12
ATOM     12  C   UNL     1     -10.344   4.578   4.043  1.00  0.00     0.174 C 
BRANCH  12  13
ATOM     13  N   UNL     1      -9.269   3.764   4.610  1.00  0.00    -0.342 N 
ATOM     14  C   UNL     1      -8.681   2.686   3.987  1.00  0.00     0.249 C 
ATOM     15  O   UNL     1      -8.979   2.302   2.863  1.00  0.00    -0.272 OA
ATOM     16  H   UNL     1      -9.027   3.864   5.593  1.00  0.00     0.164 HD
BRANCH  14  17
ATOM     17  C   UNL     1      -7.588   2.022   4.852  1.00  0.00     0.207 C 
BRANCH  17  18
ATOM     18  C   UNL     1      -6.226   2.114   4.156  1.00  0.00     0.077 C 
BRANCH  18  19
ATOM     19  C   UNL     1      -5.656   3.513   4.220  1.00  0.00    -0.043 A 
ATOM     20  C   UNL     1      -4.420   5.329   3.190  1.00  0.00     0.083 A 
ATOM     21  C   UNL     1      -4.988   4.057   3.111  1.00  0.00     0.028 A 
ATOM     22  C   UNL     1      -4.513   6.063   4.373  1.00  0.00     0.134 A 
ATOM     23  C   UNL     1      -5.171   5.536   5.478  1.00  0.00     0.048 A 
ATOM     24  C   UNL     1      -5.740   4.263   5.403  1.00  0.00     0.008 A 
ATOM     25  Cl  UNL     1      -3.604   5.980   1.818  1.00  0.00    -0.080 Cl
BRANCH  22  26
ATOM     26  O   UNL     1      -3.963   7.309   4.501  1.00  0.00    -0.506 OA
ATOM     27  H   UNL     1      -3.115   7.292   4.020  1.00  0.00     0.293 HD
ENDBRANCH  22  26
ENDBRANCH  18  19
ENDBRANCH  17  18
BRANCH  17  28
ATOM     28  O   UNL     1      -7.899   0.643   5.111  1.00  0.00    -0.383 OA
ATOM     29  H   UNL     1      -8.343   0.308   4.299  1.00  0.00     0.211 HD
ENDBRANCH  17  28
ENDBRANCH  14  17
ENDBRANCH  12  13
BRANCH  12  30
ATOM     30  C   UNL     1      -9.809   5.699   3.111  1.00  0.00     0.018 C 
ATOM     31  C   UNL     1     -10.067   5.353   1.636  1.00  0.00     0.010 C 
BRANCH  30  32
ATOM     32  C   UNL     1      -8.310   6.023   3.326  1.00  0.00     0.002 C 
ATOM     33  C   UNL     1      -8.026   7.317   4.079  1.00  0.00     0.004 C 
ENDBRANCH  30  32
ENDBRANCH  12  30
ENDBRANCH  10  12
ENDBRANCH   1  10
BRANCH   5  34
ATOM     34  C   UNL     1     -11.609   3.543   8.033  1.00  0.00     0.242 C 
ATOM     35  O   UNL     1     -11.918   2.399   8.368  1.00  0.00    -0.273 OA
ATOM     36  N   UNL     1     -10.435   4.139   8.437  1.00  0.00    -0.354 N 
ATOM     37  H   UNL     1     -10.290   5.128   8.230  1.00  0.00     0.163 HD
BRANCH  36  38
ATOM     38  C   UNL     1      -9.359   3.391   9.053  1.00  0.00     0.116 C 
BRANCH  38  39
ATOM     39  C   UNL     1      -8.079   3.560   8.240  1.00  0.00     0.023 C 
BRANCH  39  40
ATOM     40  C   UNL     1      -7.136   2.370   8.384  1.00  0.00     0.026 C 
BRANCH  40  41
ATOM     41  C   UNL     1      -7.826   1.216   9.110  1.00  0.00     0.146 C 
BRANCH  41  42
ATOM     42  N   UNL     1      -7.850   0.038   8.253  1.00  0.00    -0.254 NA
ATOM     43  C   UNL     1      -8.973  -0.448   7.877  1.00  0.00     0.185 C 
ATOM     44  N   UNL     1     -10.227  -0.041   8.147  1.00  0.00    -0.370 N 
ATOM     45  N   UNL     1      -8.974  -1.537   7.090  1.00  0.00    -0.370 N 
ATOM     46  H   UNL     1     -11.010  -0.652   7.991  1.00  0.00     0.159 HD
ATOM     47  H   UNL     1     -10.409   0.778   8.719  1.00  0.00     0.159 HD
ATOM     48  H   UNL     1      -8.068  -1.904   6.831  1.00  0.00     0.159 HD
ATOM     49  H   UNL     1      -9.781  -1.830   6.568  1.00  0.00     0.159 HD
ENDBRANCH  41  42
ENDBRANCH  40  41
ENDBRANCH  39  40
ENDBRANCH  38  39
ENDBRANCH  36  38
ENDBRANCH   5  34
BRANCH   8  50
ATOM     50  O   UNL     1     -13.190   0.111   5.158  1.00  0.00    -0.245 OA
BRANCH  50  51
ATOM     51  S   UNL     1     -11.916  -0.849   4.841  1.00  0.00     0.397 S 
ATOM     52  O   UNL     1     -12.139  -2.118   5.497  1.00  0.00    -0.169 OA
ATOM     53  O   UNL     1     -10.688  -0.104   5.027  1.00  0.00    -0.169 OA
BRANCH  51  54
ATOM     54  O   UNL     1     -12.092  -1.132   3.268  1.00  0.00    -0.264 OA
ATOM     55  H   UNL     1     -13.005  -0.883   3.021  1.00  0.00     0.236 HD
ENDBRANCH  51  54
ENDBRANCH  50  51
ENDBRANCH   8  50
TORSDOF 19
ENDMDL
MODEL 3
REMARK VINA RESULT:    -7.242      5.166      9.660
REMARK INTER + INTRA:         -19.630
REMARK INTER:                 -15.470
REMARK INTRA:                  -4.160
REMARK UNBOUND:                -4.978
REMARK SMILES CC[C@@H](C)[C@@H](NC(=O)[C@@H](O)Cc1ccc(O)c(Cl)c1)C(=O)N1[C@H](C(=O)NCCCCN=C(N)N)C[C@H]2CC[C@H](OS(=O)(=O)O)C[C@@H]21
REMARK SMILES IDX 22 1 36 2 46 3 35 4 23 5 45 6 37 7 39 8 38 9 20 10 21 11
REMARK SMILES IDX 5 12 6 13 7 14 8 15 9 17 11 18 12 19 17 20 19 21 15 22 14 23
REMARK SMILES IDX 13 24 18 25 16 26 10 28 3 30 4 31 2 32 1 33 24 34 25 35
REMARK SMILES IDX 26 36 27 38 28 39 29 40 30 41 31 42 32 43 33 44 34 45 40 50
REMARK SMILES IDX 41 51 42 52 43 53 44 54
REMARK H PARENT 6 16 16 27 10 29 26 37 33 46 33 47 34 48 34 49 44 55
ROOT
ATOM      1  N   UNL     1      -8.772   5.839   3.526  1.00  0.00    -0.326 N 
ATOM      2  C   UNL     1      -7.298   4.003   3.484  1.00  0.00     0.014 C 
ATOM      3  C   UNL     1      -7.382   5.491   3.838  1.00  0.00     0.091 C 
ATOM      4  C   UNL     1      -8.228   3.891   2.286  1.00  0.00     0.041 C 
ATOM      5  C   UNL     1      -9.420   4.727   2.787  1.00  0.00     0.175 C 
ATOM      6  C   UNL     1      -6.894   5.674   5.274  1.00  0.00     0.059 C 
ATOM      7  C   UNL     1      -5.854   3.560   3.349  1.00  0.00     0.008 C 
ATOM      8  C   UNL     1      -5.804   4.665   5.694  1.00  0.00     0.143 C 
ATOM      9  C   UNL     1      -4.994   4.151   4.486  1.00  0.00     0.034 C 
ENDROOT
BRANCH   1  10
ATOM     10  C   UNL     1      -9.426   7.054   3.627  1.00  0.00     0.246 C 
ATOM     11  O   UNL     1     -10.349   7.307   2.845  1.00  0.00    -0.272 OA
BRANCH  10  12
ATOM     12  C   UNL     1      -9.017   8.056   4.745  1.00  0.00     0.174 C 
BRANCH  12  13
ATOM     13  N   UNL     1     -10.182   8.398   5.560  1.00  0.00    -0.342 N 
ATOM     14  C   UNL     1     -10.633   7.672   6.639  1.00  0.00     0.249 C 
ATOM     15  O   UNL     1     -10.083   6.661   7.059  1.00  0.00    -0.272 OA
ATOM     16  H   UNL     1     -10.827   9.117   5.240  1.00  0.00     0.164 HD
BRANCH  14  17
ATOM     17  C   UNL     1     -11.898   8.281   7.281  1.00  0.00     0.207 C 
BRANCH  17  18
ATOM     18  C   UNL     1     -12.955   8.571   6.210  1.00  0.00     0.077 C 
BRANCH  18  19
ATOM     19  C   UNL     1     -14.325   8.777   6.815  1.00  0.00    -0.043 A 
ATOM     20  C   UNL     1     -16.083   8.070   8.329  1.00  0.00     0.083 A 
ATOM     21  C   UNL     1     -14.799   7.906   7.809  1.00  0.00     0.028 A 
ATOM     22  C   UNL     1     -16.901   9.099   7.861  1.00  0.00     0.134 A 
ATOM     23  C   UNL     1     -16.444   9.968   6.877  1.00  0.00     0.048 A 
ATOM     24  C   UNL     1     -15.160   9.807   6.353  1.00  0.00     0.008 A 
ATOM     25  Cl  UNL     1     -16.648   6.990   9.549  1.00  0.00    -0.080 Cl
BRANCH  22  26
ATOM     26  O   UNL     1     -18.171   9.292   8.333  1.00  0.00    -0.506 OA
ATOM     27  H   UNL     1     -18.503   8.418   8.610  1.00  0.00     0.293 HD
ENDBRANCH  22  26
ENDBRANCH  18  19
ENDBRANCH  17  18
BRANCH  17  28
ATOM     28  O   UNL     1     -11.588   9.494   7.985  1.00  0.00    -0.383 OA
ATOM     29  H   UNL     1     -12.450   9.867   8.278  1.00  0.00     0.211 HD
ENDBRANCH  17  28
ENDBRANCH  14  17
ENDBRANCH  12  13
BRANCH  12  30
ATOM     30  C   UNL     1      -8.293   9.312   4.190  1.00  0.00     0.018 C 
ATOM     31  C   UNL     1      -9.221  10.536   4.223  1.00  0.00     0.010 C 
BRANCH  30  32
ATOM     32  C   UNL     1      -7.716   9.119   2.767  1.00  0.00     0.002 C 
ATOM     33  C   UNL     1      -6.962  10.315   2.201  1.00  0.00     0.004 C 
ENDBRANCH  30  32
ENDBRANCH  12  30
ENDBRANCH  10  12
ENDBRANCH   1  10
BRANCH   5  34
ATOM     34  C   UNL     1     -10.341   3.905   3.727  1.00  0.00     0.242 C 
ATOM     35  O   UNL     1     -10.964   4.421   4.655  1.00  0.00    -0.273 OA
ATOM     36  N   UNL     1     -10.368   2.550   3.482  1.00  0.00    -0.354 N 
ATOM     37  H   UNL     1      -9.738   2.165   2.777  1.00  0.00     0.163 HD
BRANCH  36  38
ATOM     38  C   UNL     1     -11.328   1.669   4.114  1.00  0.00     0.116 C 
BRANCH  38  39
ATOM     39  C   UNL     1     -10.612   0.739   5.092  1.00  0.00     0.023 C 
BRANCH  39  40
ATOM     40  C   UNL     1     -11.367   0.585   6.408  1.00  0.00     0.026 C 
BRANCH  40  41
ATOM     41  C   UNL     1     -11.854   1.942   6.915  1.00  0.00     0.146 C 
BRANCH  41  42
ATOM     42  N   UNL     1     -11.208   2.255   8.183  1.00  0.00    -0.254 NA
ATOM     43  C   UNL     1     -10.179   3.016   8.198  1.00  0.00     0.185 C 
ATOM     44  N   UNL     1      -9.538   3.626   7.184  1.00  0.00    -0.370 N 
ATOM     45  N   UNL     1      -9.595   3.289   9.377  1.00  0.00    -0.370 N 
ATOM     46  H   UNL     1      -8.609   3.990   7.309  1.00  0.00     0.159 HD
ATOM     47  H   UNL     1      -9.856   3.537   6.223  1.00  0.00     0.159 HD
ATOM     48  H   UNL     1     -10.021   2.875  10.195  1.00  0.00     0.159 HD
ATOM     49  H   UNL     1      -8.948   4.048   9.501  1.00  0.00     0.159 HD
ENDBRANCH  41  42
ENDBRANCH  40  41
ENDBRANCH  39  40
ENDBRANCH  38  39
ENDBRANCH  36  38
ENDBRANCH   5  34
BRANCH   8  50
ATOM     50  O   UNL     1      -6.399   3.545   6.350  1.00  0.00    -0.245 OA
BRANCH  50  51
ATOM     51  S   UNL     1      -6.320   3.428   7.970  1.00  0.00     0.397 S 
ATOM     52  O   UNL     1      -6.805   2.120   8.348  1.00  0.00    -0.169 OA
ATOM     53  O   UNL     1      -6.848   4.636   8.570  1.00  0.00    -0.169 OA
BRANCH  51  54
ATOM     54  O   UNL     1      -4.733   3.398   8.228  1.00  0.00    -0.264 OA
ATOM     55  H   UNL     1      -4.457   4.300   8.490  1.00  0.00     0.236 HD
ENDBRANCH  51  54
ENDBRANCH  50  51
ENDBRANCH   8  50
TORSDOF 19
ENDMDL
MODEL 4
REMARK VINA RESULT:    -7.184      4.868      9.516
REMARK INTER + INTRA:         -19.511
REMARK INTER:                 -16.012
REMARK INTRA:                  -3.499
REMARK UNBOUND:                -4.978
REMARK SMILES CC[C@@H](C)[C@@H](NC(=O)[C@@H](O)Cc1ccc(O)c(Cl)c1)C(=O)N1[C@H](C(=O)NCCCCN=C(N)N)C[C@H]2CC[C@H](OS(=O)(=O)O)C[C@@H]21
REMARK SMILES IDX 22 1 36 2 46 3 35 4 23 5 45 6 37 7 39 8 38 9 20 10 21 11
REMARK SMILES IDX 5 12 6 13 7 14 8 15 9 17 11 18 12 19 17 20 19 21 15 22 14 23
REMARK SMILES IDX 13 24 18 25 16 26 10 28 3 30 4 31 2 32 1 33 24 34 25 35
REMARK SMILES IDX 26 36 27 38 28 39 29 40 30 41 31 42 32 43 33 44 34 45 40 50
REMARK SMILES IDX 41 51 42 52 43 53 44 54
REMARK H PARENT 6 16 16 27 10 29 26 37 33 46 33 47 34 48 34 49 44 55
ROOT
ATOM      1  N   UNL     1      -9.029   5.594   3.428  1.00  0.00    -0.326 N 
ATOM      2  C   UNL     1      -7.475   3.826   3.492  1.00  0.00     0.014 C 
ATOM      3  C   UNL     1      -7.615   5.335   3.715  1.00  0.00     0.091 C 
ATOM      4  C   UNL     1      -8.441   3.566   2.347  1.00  0.00     0.041 C 
ATOM      5  C   UNL     1      -9.651   4.393   2.817  1.00  0.00     0.175 C 
ATOM      6  C   UNL     1      -7.086   5.669   5.109  1.00  0.00     0.059 C 
ATOM      7  C   UNL     1      -6.019   3.433   3.341  1.00  0.00     0.008 C 
ATOM      8  C   UNL     1      -5.936   4.749   5.574  1.00  0.00     0.143 C 
ATOM      9  C   UNL     1      -5.147   4.162   4.386  1.00  0.00     0.034 C 
ENDROOT
BRANCH   1  10
ATOM     10  C   UNL     1      -9.734   6.785   3.445  1.00  0.00     0.246 C 
ATOM     11  O   UNL     1     -10.732   6.903   2.726  1.00  0.00    -0.272 OA
BRANCH  10  12
ATOM     12  C   UNL     1      -9.283   7.930   4.398  1.00  0.00     0.174 C 
BRANCH  12  13
ATOM     13  N   UNL     1     -10.384   8.304   5.285  1.00  0.00    -0.342 N 
ATOM     14  C   UNL     1     -10.666   7.702   6.491  1.00  0.00     0.249 C 
ATOM     15  O   UNL     1     -10.001   6.794   6.972  1.00  0.00    -0.272 OA
ATOM     16  H   UNL     1     -11.111   8.931   4.949  1.00  0.00     0.164 HD
BRANCH  14  17
ATOM     17  C   UNL     1     -11.904   8.310   7.184  1.00  0.00     0.207 C 
BRANCH  17  18
ATOM     18  C   UNL     1     -12.990   8.634   6.154  1.00  0.00     0.077 C 
BRANCH  18  19
ATOM     19  C   UNL     1     -14.346   8.808   6.802  1.00  0.00    -0.043 A 
ATOM     20  C   UNL     1     -16.053   8.039   8.345  1.00  0.00     0.083 A 
ATOM     21  C   UNL     1     -14.782   7.905   7.785  1.00  0.00     0.028 A 
ATOM     22  C   UNL     1     -16.894   9.071   7.928  1.00  0.00     0.134 A 
ATOM     23  C   UNL     1     -16.475   9.972   6.956  1.00  0.00     0.048 A 
ATOM     24  C   UNL     1     -15.204   9.839   6.392  1.00  0.00     0.008 A 
ATOM     25  Cl  UNL     1     -16.571   6.919   9.550  1.00  0.00    -0.080 Cl
BRANCH  22  26
ATOM     26  O   UNL     1     -18.152   9.236   8.441  1.00  0.00    -0.506 OA
ATOM     27  H   UNL     1     -18.467   8.351   8.702  1.00  0.00     0.293 HD
ENDBRANCH  22  26
ENDBRANCH  18  19
ENDBRANCH  17  18
BRANCH  17  28
ATOM     28  O   UNL     1     -11.559   9.504   7.905  1.00  0.00    -0.383 OA
ATOM     29  H   UNL     1     -12.408   9.879   8.232  1.00  0.00     0.211 HD
ENDBRANCH  17  28
ENDBRANCH  14  17
ENDBRANCH  12  13
BRANCH  12  30
ATOM     30  C   UNL     1      -8.698   9.149   3.635  1.00  0.00     0.018 C 
ATOM     31  C   UNL     1      -7.281   8.844   3.123  1.00  0.00     0.010 C 
BRANCH  30  32
ATOM     32  C   UNL     1      -8.693  10.457   4.464  1.00  0.00     0.002 C 
ATOM     33  C   UNL     1      -8.028  11.651   3.792  1.00  0.00     0.004 C 
ENDBRANCH  30  32
ENDBRANCH  12  30
ENDBRANCH  10  12
ENDBRANCH   1  10
BRANCH   5  34
ATOM     34  C   UNL     1     -10.500   3.622   3.862  1.00  0.00     0.242 C 
ATOM     35  O   UNL     1     -10.758   2.424   3.745  1.00  0.00    -0.273 OA
ATOM     36  N   UNL     1     -10.988   4.385   4.899  1.00  0.00    -0.354 N 
ATOM     37  H   UNL     1     -10.841   5.395   4.878  1.00  0.00     0.163 HD
BRANCH  36  38
ATOM     38  C   UNL     1     -11.611   3.796   6.066  1.00  0.00     0.116 C 
BRANCH  38  39
ATOM     39  C   UNL     1     -12.778   4.667   6.526  1.00  0.00     0.023 C 
BRANCH  39  40
ATOM     40  C   UNL     1     -13.758   3.907   7.414  1.00  0.00     0.026 C 
BRANCH  40  41
ATOM     41  C   UNL     1     -13.988   2.493   6.881  1.00  0.00     0.146 C 
BRANCH  41  42
ATOM     42  N   UNL     1     -15.052   2.510   5.885  1.00  0.00    -0.254 NA
ATOM     43  C   UNL     1     -14.819   2.075   4.703  1.00  0.00     0.185 C 
ATOM     44  N   UNL     1     -13.691   1.568   4.174  1.00  0.00    -0.370 N 
ATOM     45  N   UNL     1     -15.811   2.103   3.798  1.00  0.00    -0.370 N 
ATOM     46  H   UNL     1     -13.579   1.495   3.177  1.00  0.00     0.159 HD
ATOM     47  H   UNL     1     -12.845   1.461   4.725  1.00  0.00     0.159 HD
ATOM     48  H   UNL     1     -16.700   2.464   4.119  1.00  0.00     0.159 HD
ATOM     49  H   UNL     1     -15.784   1.575   2.945  1.00  0.00     0.159 HD
ENDBRANCH  41  42
ENDBRANCH  40  41
ENDBRANCH  39  40
ENDBRANCH  38  39
ENDBRANCH  36  38
ENDBRANCH   5  34
BRANCH   8  50
ATOM     50  O   UNL     1      -6.457   3.669   6.350  1.00  0.00    -0.245 OA
BRANCH  50  51
ATOM     51  S   UNL     1      -6.332   3.712   7.971  1.00  0.00     0.397 S 
ATOM     52  O   UNL     1      -7.053   2.579   8.505  1.00  0.00    -0.169 OA
ATOM     53  O   UNL     1      -6.578   5.060   8.442  1.00  0.00    -0.169 OA
BRANCH  51  54
ATOM     54  O   UNL     1      -4.774   3.386   8.197  1.00  0.00    -0.264 OA
ATOM     55  H   UNL     1      -4.350   3.328   7.316  1.00  0.00     0.236 HD
ENDBRANCH  51  54
ENDBRANCH  50  51
ENDBRANCH   8  50
TORSDOF 19
ENDMDL
MODEL 5
REMARK VINA RESULT:    -7.167      5.581      9.941
REMARK INTER + INTRA:         -19.477
REMARK INTER:                 -15.116
REMARK INTRA:                  -4.361
REMARK UNBOUND:                -4.978
REMARK SMILES CC[C@@H](C)[C@@H](NC(=O)[C@@H](O)Cc1ccc(O)c(Cl)c1)C(=O)N1[C@H](C(=O)NCCCCN=C(N)N)C[C@H]2CC[C@H](OS(=O)(=O)O)C[C@@H]21
REMARK SMILES IDX 22 1 36 2 46 3 35 4 23 5 45 6 37 7 39 8 38 9 20 10 21 11
REMARK SMILES IDX 5 12 6 13 7 14 8 15 9 17 11 18 12 19 17 20 19 21 15 22 14 23
REMARK SMILES IDX 13 24 18 25 16 26 10 28 3 30 4 31 2 32 1 33 24 34 25 35
REMARK SMILES IDX 26 36 27 38 28 39 29 40 30 41 31 42 32 43 33 44 34 45 40 50
REMARK SMILES IDX 41 51 42 52 43 53 44 54
REMARK H PARENT 6 16 16 27 10 29 26 37 33 46 33 47 34 48 34 49 44 55
ROOT
ATOM      1  N   UNL     1      -8.307   4.586   3.030  1.00  0.00    -0.326 N 
ATOM      2  C   UNL     1      -6.478   3.119   3.245  1.00  0.00     0.014 C 
ATOM      3  C   UNL     1      -6.841   4.593   3.046  1.00  0.00     0.091 C 
ATOM      4  C   UNL     1      -7.576   2.397   2.479  1.00  0.00     0.041 C 
ATOM      5  C   UNL     1      -8.807   3.191   2.955  1.00  0.00     0.175 C 
ATOM      6  C   UNL     1      -6.132   5.415   4.121  1.00  0.00     0.059 C 
ATOM      7  C   UNL     1      -5.028   2.864   2.883  1.00  0.00     0.008 C 
ATOM      8  C   UNL     1      -4.772   4.828   4.555  1.00  0.00     0.143 C 
ATOM      9  C   UNL     1      -4.123   3.983   3.440  1.00  0.00     0.034 C 
ENDROOT
BRANCH   1  10
ATOM     10  C   UNL     1      -9.198   5.633   2.862  1.00  0.00     0.246 C 
ATOM     11  O   UNL     1      -9.837   5.715   1.808  1.00  0.00    -0.272 OA
BRANCH  10  12
ATOM     12  C   UNL     1      -9.406   6.655   4.017  1.00  0.00     0.174 C 
BRANCH  12  13
ATOM     13  N   UNL     1     -10.701   6.429   4.656  1.00  0.00    -0.342 N 
ATOM     14  C   UNL     1     -10.898   6.275   6.010  1.00  0.00     0.249 C 
ATOM     15  O   UNL     1     -10.001   6.340   6.842  1.00  0.00    -0.272 OA
ATOM     16  H   UNL     1     -11.511   6.197   4.086  1.00  0.00     0.164 HD
BRANCH  14  17
ATOM     17  C   UNL     1     -12.379   6.033   6.373  1.00  0.00     0.207 C 
BRANCH  17  18
ATOM     18  C   UNL     1     -12.790   6.910   7.559  1.00  0.00     0.077 C 
BRANCH  18  19
ATOM     19  C   UNL     1     -13.604   8.106   7.118  1.00  0.00    -0.043 A 
ATOM     20  C   UNL     1     -13.747  10.257   6.005  1.00  0.00     0.083 A 
ATOM     21  C   UNL     1     -13.006   9.131   6.368  1.00  0.00     0.028 A 
ATOM     22  C   UNL     1     -15.084  10.367   6.389  1.00  0.00     0.134 A 
ATOM     23  C   UNL     1     -15.688   9.360   7.133  1.00  0.00     0.048 A 
ATOM     24  C   UNL     1     -14.949   8.232   7.499  1.00  0.00     0.008 A 
ATOM     25  Cl  UNL     1     -12.995  11.505   5.083  1.00  0.00    -0.080 Cl
BRANCH  22  26
ATOM     26  O   UNL     1     -15.847  11.456   6.066  1.00  0.00    -0.506 OA
ATOM     27  H   UNL     1     -16.161  11.317   5.153  1.00  0.00     0.293 HD
ENDBRANCH  22  26
ENDBRANCH  18  19
ENDBRANCH  17  18
BRANCH  17  28
ATOM     28  O   UNL     1     -12.613   4.653   6.697  1.00  0.00    -0.383 OA
ATOM     29  H   UNL     1     -12.431   4.565   7.660  1.00  0.00     0.211 HD
ENDBRANCH  17  28
ENDBRANCH  14  17
ENDBRANCH  12  13
BRANCH  12  30
ATOM     30  C   UNL     1      -9.222   8.126   3.556  1.00  0.00     0.018 C 
ATOM     31  C   UNL     1      -7.770   8.386   3.125  1.00  0.00     0.010 C 
BRANCH  30  32
ATOM     32  C   UNL     1      -9.657   9.168   4.615  1.00  0.00     0.002 C 
ATOM     33  C   UNL     1      -9.123  10.578   4.399  1.00  0.00     0.004 C 
ENDBRANCH  30  32
ENDBRANCH  12  30
ENDBRANCH  10  12
ENDBRANCH   1  10
BRANCH   5  34
ATOM     34  C   UNL     1      -9.298   2.707   4.345  1.00  0.00     0.242 C 
ATOM     35  O   UNL     1     -10.198   3.278   4.961  1.00  0.00    -0.273 OA
ATOM     36  N   UNL     1      -8.617   1.628   4.863  1.00  0.00    -0.354 N 
ATOM     37  H   UNL     1      -7.803   1.273   4.361  1.00  0.00     0.163 HD
BRANCH  36  38
ATOM     38  C   UNL     1      -9.076   0.916   6.038  1.00  0.00     0.116 C 
BRANCH  38  39
ATOM     39  C   UNL     1      -7.945   0.058   6.599  1.00  0.00     0.023 C 
BRANCH  39  40
ATOM     40  C   UNL     1      -7.815   0.182   8.113  1.00  0.00     0.026 C 
BRANCH  40  41
ATOM     41  C   UNL     1      -8.960   1.016   8.689  1.00  0.00     0.146 C 
BRANCH  41  42
ATOM     42  N   UNL     1      -8.471   2.340   9.051  1.00  0.00    -0.254 NA
ATOM     43  C   UNL     1      -9.170   3.373   8.764  1.00  0.00     0.185 C 
ATOM     44  N   UNL     1     -10.361   3.468   8.145  1.00  0.00    -0.370 N 
ATOM     45  N   UNL     1      -8.700   4.585   9.103  1.00  0.00    -0.370 N 
ATOM     46  H   UNL     1     -10.675   4.347   7.770  1.00  0.00     0.159 HD
ATOM     47  H   UNL     1     -10.866   2.645   7.833  1.00  0.00     0.159 HD
ATOM     48  H   UNL     1      -7.810   4.603   9.582  1.00  0.00     0.159 HD
ATOM     49  H   UNL     1      -9.279   5.405   9.130  1.00  0.00     0.159 HD
ENDBRANCH  41  42
ENDBRANCH  40  41
ENDBRANCH  39  40
ENDBRANCH  38  39
ENDBRANCH  36  38
ENDBRANCH   5  34
BRANCH   8  50
ATOM     50  O   UNL     1      -4.939   4.005   5.710  1.00  0.00    -0.245 OA
BRANCH  50  51
ATOM     51  S   UNL     1      -5.831   4.544   6.958  1.00  0.00     0.397 S 
ATOM     52  O   UNL     1      -7.213   4.586   6.534  1.00  0.00    -0.169 OA
ATOM     53  O   UNL     1      -5.185   5.694   7.556  1.00  0.00    -0.169 OA
BRANCH  51  54
ATOM     54  O   UNL     1      -5.728   3.321   7.997  1.00  0.00    -0.264 OA
ATOM     55  H   UNL     1      -6.404   3.462   8.691  1.00  0.00     0.236 HD
ENDBRANCH  51  54
ENDBRANCH  50  51
ENDBRANCH   8  50
TORSDOF 19
ENDMDL
MODEL 6
REMARK VINA RESULT:    -7.104      4.325      8.988
REMARK INTER + INTRA:         -19.349
REMARK INTER:                 -15.866
REMARK INTRA:                  -3.483
REMARK UNBOUND:                -4.978
REMARK SMILES CC[C@@H](C)[C@@H](NC(=O)[C@@H](O)Cc1ccc(O)c(Cl)c1)C(=O)N1[C@H](C(=O)NCCCCN=C(N)N)C[C@H]2CC[C@H](OS(=O)(=O)O)C[C@@H]21
REMARK SMILES IDX 22 1 36 2 46 3 35 4 23 5 45 6 37 7 39 8 38 9 20 10 21 11
REMARK SMILES IDX 5 12 6 13 7 14 8 15 9 17 11 18 12 19 17 20 19 21 15 22 14 23
REMARK SMILES IDX 13 24 18 25 16 26 10 28 3 30 4 31 2 32 1 33 24 34 25 35
REMARK SMILES IDX 26 36 27 38 28 39 29 40 30 41 31 42 32 43 33 44 34 45 40 50
REMARK SMILES IDX 41 51 42 52 43 53 44 54
REMARK H PARENT 6 16 16 27 10 29 26 37 33 46 33 47 34 48 34 49 44 55
ROOT
ATOM      1  N   UNL     1     -10.788   5.284   6.768  1.00  0.00    -0.326 N 
ATOM      2  C   UNL     1     -12.693   3.900   6.803  1.00  0.00     0.014 C 
ATOM      3  C   UNL     1     -11.662   4.531   5.863  1.00  0.00     0.091 C 
ATOM      4  C   UNL     1     -12.860   4.963   7.878  1.00  0.00     0.041 C 
ATOM      5  C   UNL     1     -11.387   5.335   8.125  1.00  0.00     0.175 C 
ATOM      6  C   UNL     1     -11.042   3.424   5.012  1.00  0.00     0.059 C 
ATOM      7  C   UNL     1     -13.909   3.424   6.033  1.00  0.00     0.008 C 
ATOM      8  C   UNL     1     -12.009   2.259   4.708  1.00  0.00     0.143 C 
ATOM      9  C   UNL     1     -13.484   2.709   4.732  1.00  0.00     0.034 C 
ENDROOT
BRANCH   1  10
ATOM     10  C   UNL     1      -9.687   6.073   6.485  1.00  0.00     0.246 C 
ATOM     11  O   UNL     1      -8.587   5.762   6.955  1.00  0.00    -0.272 OA
BRANCH  10  12
ATOM     12  C   UNL     1      -9.847   7.308   5.552  1.00  0.00     0.174 C 
BRANCH  12  13
ATOM     13  N   UNL     1     -11.026   8.080   5.943  1.00  0.00    -0.342 N 
ATOM     14  C   UNL     1     -11.084   9.453   6.014  1.00  0.00     0.249 C 
ATOM     15  O   UNL     1     -10.150  10.191   5.726  1.00  0.00    -0.272 OA
ATOM     16  H   UNL     1     -11.824   7.605   6.358  1.00  0.00     0.164 HD
BRANCH  14  17
ATOM     17  C   UNL     1     -12.464   9.969   6.476  1.00  0.00     0.207 C 
BRANCH  17  18
ATOM     18  C   UNL     1     -13.585   9.257   5.712  1.00  0.00     0.077 C 
BRANCH  18  19
ATOM     19  C   UNL     1     -14.857   9.178   6.526  1.00  0.00    -0.043 A 
ATOM     20  C   UNL     1     -16.174   8.132   8.273  1.00  0.00     0.083 A 
ATOM     21  C   UNL     1     -14.981   8.235   7.558  1.00  0.00     0.028 A 
ATOM     22  C   UNL     1     -17.249   8.966   7.963  1.00  0.00     0.134 A 
ATOM     23  C   UNL     1     -17.140   9.905   6.944  1.00  0.00     0.048 A 
ATOM     24  C   UNL     1     -15.947  10.009   6.224  1.00  0.00     0.008 A 
ATOM     25  Cl  UNL     1     -16.308   6.967   9.538  1.00  0.00    -0.080 Cl
BRANCH  22  26
ATOM     26  O   UNL     1     -18.442   8.895   8.630  1.00  0.00    -0.506 OA
ATOM     27  H   UNL     1     -18.290   8.341   9.417  1.00  0.00     0.293 HD
ENDBRANCH  22  26
ENDBRANCH  18  19
ENDBRANCH  17  18
BRANCH  17  28
ATOM     28  O   UNL     1     -12.579  11.387   6.280  1.00  0.00    -0.383 OA
ATOM     29  H   UNL     1     -11.663  11.743   6.327  1.00  0.00     0.211 HD
ENDBRANCH  17  28
ENDBRANCH  14  17
ENDBRANCH  12  13
BRANCH  12  30
ATOM     30  C   UNL     1      -9.863   6.924   4.047  1.00  0.00     0.018 C 
ATOM     31  C   UNL     1      -9.013   7.905   3.225  1.00  0.00     0.010 C 
BRANCH  30  32
ATOM     32  C   UNL     1     -11.287   6.822   3.447  1.00  0.00     0.002 C 
ATOM     33  C   UNL     1     -11.447   5.808   2.321  1.00  0.00     0.004 C 
ENDBRANCH  30  32
ENDBRANCH  12  30
ENDBRANCH  10  12
ENDBRANCH   1  10
BRANCH   5  34
ATOM     34  C   UNL     1     -10.691   4.321   9.071  1.00  0.00     0.242 C 
ATOM     35  O   UNL     1     -10.975   4.235  10.266  1.00  0.00    -0.273 OA
ATOM     36  N   UNL     1      -9.699   3.564   8.491  1.00  0.00    -0.354 N 
ATOM     37  H   UNL     1      -9.427   3.764   7.528  1.00  0.00     0.163 HD
BRANCH  36  38
ATOM     38  C   UNL     1      -9.099   2.429   9.162  1.00  0.00     0.116 C 
BRANCH  38  39
ATOM     39  C   UNL     1      -9.799   1.142   8.731  1.00  0.00     0.023 C 
BRANCH  39  40
ATOM     40  C   UNL     1      -9.009  -0.106   9.110  1.00  0.00     0.026 C 
BRANCH  40  41
ATOM     41  C   UNL     1      -9.882  -1.355   8.998  1.00  0.00     0.146 C 
BRANCH  41  42
ATOM     42  N   UNL     1     -10.938  -1.310  10.000  1.00  0.00    -0.254 NA
ATOM     43  C   UNL     1     -12.135  -1.624   9.674  1.00  0.00     0.185 C 
ATOM     44  N   UNL     1     -12.633  -2.019   8.488  1.00  0.00    -0.370 N 
ATOM     45  N   UNL     1     -13.095  -1.571  10.612  1.00  0.00    -0.370 N 
ATOM     46  H   UNL     1     -13.624  -1.997   8.315  1.00  0.00     0.159 HD
ATOM     47  H   UNL     1     -12.041  -2.127   7.670  1.00  0.00     0.159 HD
ATOM     48  H   UNL     1     -12.802  -1.291  11.538  1.00  0.00     0.159 HD
ATOM     49  H   UNL     1     -13.988  -2.020  10.503  1.00  0.00     0.159 HD
ENDBRANCH  41  42
ENDBRANCH  40  41
ENDBRANCH  39  40
ENDBRANCH  38  39
ENDBRANCH  36  38
ENDBRANCH   5  34
BRANCH   8  50
ATOM     50  O   UNL     1     -11.838   1.216   5.667  1.00  0.00    -0.245 OA
BRANCH  50  51
ATOM     51  S   UNL     1     -11.888  -0.336   5.183  1.00  0.00     0.397 S 
ATOM     52  O   UNL     1     -11.791  -0.358   3.741  1.00  0.00    -0.169 OA
ATOM     53  O   UNL     1     -12.950  -1.030   5.884  1.00  0.00    -0.169 OA
BRANCH  51  54
ATOM     54  O   UNL     1     -10.484  -0.903   5.725  1.00  0.00    -0.264 OA
ATOM     55  H   UNL     1     -10.632  -1.253   6.627  1.00  0.00     0.236 HD
ENDBRANCH  51  54
ENDBRANCH  50  51
ENDBRANCH   8  50
TORSDOF 19
ENDMDL
MODEL 7
REMARK VINA RESULT:    -7.087      4.847      9.139
REMARK INTER + INTRA:         -19.315
REMARK INTER:                 -16.439
REMARK INTRA:                  -2.876
REMARK UNBOUND:                -4.978
REMARK SMILES CC[C@@H](C)[C@@H](NC(=O)[C@@H](O)Cc1ccc(O)c(Cl)c1)C(=O)N1[C@H](C(=O)NCCCCN=C(N)N)C[C@H]2CC[C@H](OS(=O)(=O)O)C[C@@H]21
REMARK SMILES IDX 22 1 36 2 46 3 35 4 23 5 45 6 37 7 39 8 38 9 20 10 21 11
REMARK SMILES IDX 5 12 6 13 7 14 8 15 9 17 11 18 12 19 17 20 19 21 15 22 14 23
REMARK SMILES IDX 13 24 18 25 16 26 10 28 3 30 4 31 2 32 1 33 24 34 25 35
REMARK SMILES IDX 26 36 27 38 28 39 29 40 30 41 31 42 32 43 33 44 34 45 40 50
REMARK SMILES IDX 41 51 42 52 43 53 44 54
REMARK H PARENT 6 16 16 27 10 29 26 37 33 46 33 47 34 48 34 49 44 55
ROOT
ATOM      1  N   UNL     1     -10.341   4.666   7.149  1.00  0.00    -0.326 N 
ATOM      2  C   UNL     1      -9.673   3.306   8.951  1.00  0.00     0.014 C 
ATOM      3  C   UNL     1     -10.893   3.721   8.124  1.00  0.00     0.091 C 
ATOM      4  C   UNL     1      -8.844   4.580   8.988  1.00  0.00     0.041 C 
ATOM      5  C   UNL     1      -8.945   5.013   7.514  1.00  0.00     0.175 C 
ATOM      6  C   UNL     1     -11.575   2.457   7.602  1.00  0.00     0.059 C 
ATOM      7  C   UNL     1     -10.097   2.657  10.254  1.00  0.00     0.008 C 
ATOM      8  C   UNL     1     -11.445   1.244   8.549  1.00  0.00     0.143 C 
ATOM      9  C   UNL     1     -11.263   1.674  10.019  1.00  0.00     0.034 C 
ENDROOT
BRANCH   1  10
ATOM     10  C   UNL     1     -10.976   5.384   6.150  1.00  0.00     0.246 C 
ATOM     11  O   UNL     1     -12.066   4.986   5.725  1.00  0.00    -0.272 OA
BRANCH  10  12
ATOM     12  C   UNL     1     -10.328   6.694   5.617  1.00  0.00     0.174 C 
BRANCH  12  13
ATOM     13  N   UNL     1     -11.289   7.794   5.696  1.00  0.00    -0.342 N 
ATOM     14  C   UNL     1     -11.161   8.898   6.507  1.00  0.00     0.249 C 
ATOM     15  O   UNL     1     -10.202   9.097   7.242  1.00  0.00    -0.272 OA
ATOM     16  H   UNL     1     -12.205   7.694   5.264  1.00  0.00     0.164 HD
BRANCH  14  17
ATOM     17  C   UNL     1     -12.350   9.874   6.377  1.00  0.00     0.207 C 
BRANCH  17  18
ATOM     18  C   UNL     1     -13.506   9.212   5.619  1.00  0.00     0.077 C 
BRANCH  18  19
ATOM     19  C   UNL     1     -14.780   9.206   6.433  1.00  0.00    -0.043 A 
ATOM     20  C   UNL     1     -16.142   8.255   8.200  1.00  0.00     0.083 A 
ATOM     21  C   UNL     1     -14.946   8.291   7.484  1.00  0.00     0.028 A 
ATOM     22  C   UNL     1     -17.179   9.129   7.872  1.00  0.00     0.134 A 
ATOM     23  C   UNL     1     -17.029  10.040   6.833  1.00  0.00     0.048 A 
ATOM     24  C   UNL     1     -15.833  10.077   6.113  1.00  0.00     0.008 A 
ATOM     25  Cl  UNL     1     -16.327   7.123   9.489  1.00  0.00    -0.080 Cl
BRANCH  22  26
ATOM     26  O   UNL     1     -18.375   9.124   8.539  1.00  0.00    -0.506 OA
ATOM     27  H   UNL     1     -19.055   8.857   7.892  1.00  0.00     0.293 HD
ENDBRANCH  22  26
ENDBRANCH  18  19
ENDBRANCH  17  18
BRANCH  17  28
ATOM     28  O   UNL     1     -11.960  11.077   5.694  1.00  0.00    -0.383 OA
ATOM     29  H   UNL     1     -12.125  10.912   4.738  1.00  0.00     0.211 HD
ENDBRANCH  17  28
ENDBRANCH  14  17
ENDBRANCH  12  13
BRANCH  12  30
ATOM     30  C   UNL     1      -9.729   6.531   4.194  1.00  0.00     0.018 C 
ATOM     31  C   UNL     1      -8.691   7.628   3.909  1.00  0.00     0.010 C 
BRANCH  30  32
ATOM     32  C   UNL     1     -10.795   6.502   3.071  1.00  0.00     0.002 C 
ATOM     33  C   UNL     1     -10.386   5.763   1.804  1.00  0.00     0.004 C 
ENDBRANCH  30  32
ENDBRANCH  12  30
ENDBRANCH  10  12
ENDBRANCH   1  10
BRANCH   5  34
ATOM     34  C   UNL     1      -7.935   4.244   6.621  1.00  0.00     0.242 C 
ATOM     35  O   UNL     1      -8.297   3.450   5.752  1.00  0.00    -0.273 OA
ATOM     36  N   UNL     1      -6.608   4.472   6.908  1.00  0.00    -0.354 N 
ATOM     37  H   UNL     1      -6.372   5.047   7.718  1.00  0.00     0.163 HD
BRANCH  36  38
ATOM     38  C   UNL     1      -5.540   4.011   6.045  1.00  0.00     0.116 C 
BRANCH  38  39
ATOM     39  C   UNL     1      -5.140   5.122   5.077  1.00  0.00     0.023 C 
BRANCH  39  40
ATOM     40  C   UNL     1      -4.694   4.582   3.723  1.00  0.00     0.026 C 
BRANCH  40  41
ATOM     41  C   UNL     1      -4.506   3.066   3.778  1.00  0.00     0.146 C 
BRANCH  41  42
ATOM     42  N   UNL     1      -5.055   2.457   2.574  1.00  0.00    -0.254 NA
ATOM     43  C   UNL     1      -6.177   1.843   2.630  1.00  0.00     0.185 C 
ATOM     44  N   UNL     1      -7.004   1.644   3.673  1.00  0.00    -0.370 N 
ATOM     45  N   UNL     1      -6.665   1.285   1.510  1.00  0.00    -0.370 N 
ATOM     46  H   UNL     1      -7.723   0.942   3.631  1.00  0.00     0.159 HD
ATOM     47  H   UNL     1      -6.795   2.011   4.596  1.00  0.00     0.159 HD
ATOM     48  H   UNL     1      -6.107   1.397   0.674  1.00  0.00     0.159 HD
ATOM     49  H   UNL     1      -7.624   1.002   1.416  1.00  0.00     0.159 HD
ENDBRANCH  41  42
ENDBRANCH  40  41
ENDBRANCH  39  40
ENDBRANCH  38  39
ENDBRANCH  36  38
ENDBRANCH   5  34
BRANCH   8  50
ATOM     50  O   UNL     1     -10.325   0.444   8.168  1.00  0.00    -0.245 OA
BRANCH  50  51
ATOM     51  S   UNL     1     -10.572  -1.048   7.570  1.00  0.00     0.397 S 
ATOM     52  O   UNL     1     -11.996  -1.235   7.408  1.00  0.00    -0.169 OA
ATOM     53  O   UNL     1      -9.758  -2.003   8.295  1.00  0.00    -0.169 OA
BRANCH  51  54
ATOM     54  O   UNL     1      -9.974  -0.917   6.083  1.00  0.00    -0.264 OA
ATOM     55  H   UNL     1     -10.526  -0.271   5.596  1.00  0.00     0.236 HD
ENDBRANCH  51  54
ENDBRANCH  50  51
ENDBRANCH   8  50
TORSDOF 19
ENDMDL
MODEL 8
REMARK VINA RESULT:    -7.076      4.856      8.227
REMARK INTER + INTRA:         -19.293
REMARK INTER:                 -16.316
REMARK INTRA:                  -2.976
REMARK UNBOUND:                -4.978
REMARK SMILES CC[C@@H](C)[C@@H](NC(=O)[C@@H](O)Cc1ccc(O)c(Cl)c1)C(=O)N1[C@H](C(=O)NCCCCN=C(N)N)C[C@H]2CC[C@H](OS(=O)(=O)O)C[C@@H]21
REMARK SMILES IDX 22 1 36 2 46 3 35 4 23 5 45 6 37 7 39 8 38 9 20 10 21 11
REMARK SMILES IDX 5 12 6 13 7 14 8 15 9 17 11 18 12 19 17 20 19 21 15 22 14 23
REMARK SMILES IDX 13 24 18 25 16 26 10 28 3 30 4 31 2 32 1 33 24 34 25 35
REMARK SMILES IDX 26 36 27 38 28 39 29 40 30 41 31 42 32 43 33 44 34 45 40 50
REMARK SMILES IDX 41 51 42 52 43 53 44 54
REMARK H PARENT 6 16 16 27 10 29 26 37 33 46 33 47 34 48 34 49 44 55
ROOT
ATOM      1  N   UNL     1     -11.717   5.677   7.795  1.00  0.00    -0.326 N 
ATOM      2  C   UNL     1     -12.793   7.690   8.368  1.00  0.00     0.014 C 
ATOM      3  C   UNL     1     -11.601   7.124   7.593  1.00  0.00     0.091 C 
ATOM      4  C   UNL     1     -12.906   6.741   9.551  1.00  0.00     0.041 C 
ATOM      5  C   UNL     1     -12.739   5.389   8.832  1.00  0.00     0.175 C 
ATOM      6  C   UNL     1     -11.654   7.662   6.164  1.00  0.00     0.059 C 
ATOM      7  C   UNL     1     -12.620   9.175   8.621  1.00  0.00     0.008 C 
ATOM      8  C   UNL     1     -12.265   9.075   6.055  1.00  0.00     0.143 C 
ATOM      9  C   UNL     1     -12.091   9.884   7.356  1.00  0.00     0.034 C 
ENDROOT
BRANCH   1  10
ATOM     10  C   UNL     1     -10.906   4.649   7.345  1.00  0.00     0.246 C 
ATOM     11  O   UNL     1     -10.969   4.310   6.158  1.00  0.00    -0.272 OA
BRANCH  10  12
ATOM     12  C   UNL     1      -9.905   3.975   8.327  1.00  0.00     0.174 C 
BRANCH  12  13
ATOM     13  N   UNL     1      -8.571   3.936   7.731  1.00  0.00    -0.342 N 
ATOM     14  C   UNL     1      -7.487   4.663   8.171  1.00  0.00     0.249 C 
ATOM     15  O   UNL     1      -7.516   5.411   9.140  1.00  0.00    -0.272 OA
ATOM     16  H   UNL     1      -8.434   3.483   6.831  1.00  0.00     0.164 HD
BRANCH  14  17
ATOM     17  C   UNL     1      -6.221   4.418   7.322  1.00  0.00     0.207 C 
BRANCH  17  18
ATOM     18  C   UNL     1      -6.591   3.768   5.985  1.00  0.00     0.077 C 
BRANCH  18  19
ATOM     19  C   UNL     1      -5.633   4.165   4.884  1.00  0.00    -0.043 A 
ATOM     20  C   UNL     1      -4.414   5.878   3.674  1.00  0.00     0.083 A 
ATOM     21  C   UNL     1      -5.258   5.508   4.722  1.00  0.00     0.028 A 
ATOM     22  C   UNL     1      -3.941   4.913   2.784  1.00  0.00     0.134 A 
ATOM     23  C   UNL     1      -4.304   3.579   2.933  1.00  0.00     0.048 A 
ATOM     24  C   UNL     1      -5.151   3.206   3.979  1.00  0.00     0.008 A 
ATOM     25  Cl  UNL     1      -3.964   7.532   3.491  1.00  0.00    -0.080 Cl
BRANCH  22  26
ATOM     26  O   UNL     1      -3.120   5.229   1.736  1.00  0.00    -0.506 OA
ATOM     27  H   UNL     1      -2.406   5.787   2.098  1.00  0.00     0.293 HD
ENDBRANCH  22  26
ENDBRANCH  18  19
ENDBRANCH  17  18
BRANCH  17  28
ATOM     28  O   UNL     1      -5.287   3.577   8.018  1.00  0.00    -0.383 OA
ATOM     29  H   UNL     1      -4.788   3.092   7.323  1.00  0.00     0.211 HD
ENDBRANCH  17  28
ENDBRANCH  14  17
ENDBRANCH  12  13
BRANCH  12  30
ATOM     30  C   UNL     1     -10.383   2.576   8.803  1.00  0.00     0.018 C 
ATOM     31  C   UNL     1     -10.651   2.576  10.317  1.00  0.00     0.010 C 
BRANCH  30  32
ATOM     32  C   UNL     1      -9.410   1.429   8.435  1.00  0.00     0.002 C 
ATOM     33  C   UNL     1      -8.439   1.020   9.536  1.00  0.00     0.004 C 
ENDBRANCH  30  32
ENDBRANCH  12  30
ENDBRANCH  10  12
ENDBRANCH   1  10
BRANCH   5  34
ATOM     34  C   UNL     1     -14.068   4.921   8.180  1.00  0.00     0.242 C 
ATOM     35  O   UNL     1     -14.116   4.469   7.036  1.00  0.00    -0.273 OA
ATOM     36  N   UNL     1     -15.193   5.097   8.953  1.00  0.00    -0.354 N 
ATOM     37  H   UNL     1     -15.106   5.586   9.845  1.00  0.00     0.163 HD
BRANCH  36  38
ATOM     38  C   UNL     1     -16.474   4.524   8.596  1.00  0.00     0.116 C 
BRANCH  38  39
ATOM     39  C   UNL     1     -17.372   5.600   7.988  1.00  0.00     0.023 C 
BRANCH  39  40
ATOM     40  C   UNL     1     -17.347   6.899   8.787  1.00  0.00     0.026 C 
BRANCH  40  41
ATOM     41  C   UNL     1     -16.733   8.030   7.962  1.00  0.00     0.146 C 
BRANCH  41  42
ATOM     42  N   UNL     1     -17.710   8.524   7.000  1.00  0.00    -0.254 NA
ATOM     43  C   UNL     1     -18.123   9.733   7.081  1.00  0.00     0.185 C 
ATOM     44  N   UNL     1     -17.795  10.703   7.954  1.00  0.00    -0.370 N 
ATOM     45  N   UNL     1     -19.027  10.168   6.188  1.00  0.00    -0.370 N 
ATOM     46  H   UNL     1     -18.371  11.522   8.052  1.00  0.00     0.159 HD
ATOM     47  H   UNL     1     -17.113  10.549   8.690  1.00  0.00     0.159 HD
ATOM     48  H   UNL     1     -19.322   9.501   5.488  1.00  0.00     0.159 HD
ATOM     49  H   UNL     1     -19.217  11.142   6.036  1.00  0.00     0.159 HD
ENDBRANCH  41  42
ENDBRANCH  40  41
ENDBRANCH  39  40
ENDBRANCH  38  39
ENDBRANCH  36  38
ENDBRANCH   5  34
BRANCH   8  50
ATOM     50  O   UNL     1     -13.660   8.985   5.761  1.00  0.00    -0.245 OA
BRANCH  50  51
ATOM     51  S   UNL     1     -14.505  10.341   5.456  1.00  0.00     0.397 S 
ATOM     52  O   UNL     1     -13.721  11.165   4.564  1.00  0.00    -0.169 OA
ATOM     53  O   UNL     1     -15.048  10.863   6.693  1.00  0.00    -0.169 OA
BRANCH  51  54
ATOM     54  O   UNL     1     -15.728   9.782   4.574  1.00  0.00    -0.264 OA
ATOM     55  H   UNL     1     -15.511   8.865   4.310  1.00  0.00     0.236 HD
ENDBRANCH  51  54
ENDBRANCH  50  51
ENDBRANCH   8  50
TORSDOF 19
ENDMDL
MODEL 9
REMARK VINA RESULT:    -7.038      3.868      8.512
REMARK INTER + INTRA:         -19.217
REMARK INTER:                 -15.422
REMARK INTRA:                  -3.795
REMARK UNBOUND:                -4.978
REMARK SMILES CC[C@@H](C)[C@@H](NC(=O)[C@@H](O)Cc1ccc(O)c(Cl)c1)C(=O)N1[C@H](C(=O)NCCCCN=C(N)N)C[C@H]2CC[C@H](OS(=O)(=O)O)C[C@@H]21
REMARK SMILES IDX 22 1 36 2 46 3 35 4 23 5 45 6 37 7 39 8 38 9 20 10 21 11
REMARK SMILES IDX 5 12 6 13 7 14 8 15 9 17 11 18 12 19 17 20 19 21 15 22 14 23
REMARK SMILES IDX 13 24 18 25 16 26 10 28 3 30 4 31 2 32 1 33 24 34 25 35
REMARK SMILES IDX 26 36 27 38 28 39 29 40 30 41 31 42 32 43 33 44 34 45 40 50
REMARK SMILES IDX 41 51 42 52 43 53 44 54
REMARK H PARENT 6 16 16 27 10 29 26 37 33 46 33 47 34 48 34 49 44 55
ROOT
ATOM      1  N   UNL     1     -12.476   4.253   7.145  1.00  0.00    -0.326 N 
ATOM      2  C   UNL     1     -14.714   3.812   7.725  1.00  0.00     0.014 C 
ATOM      3  C   UNL     1     -13.737   3.806   6.546  1.00  0.00     0.091 C 
ATOM      4  C   UNL     1     -14.236   4.997   8.550  1.00  0.00     0.041 C 
ATOM      5  C   UNL     1     -12.716   4.753   8.521  1.00  0.00     0.175 C 
ATOM      6  C   UNL     1     -13.778   2.427   5.891  1.00  0.00     0.059 C 
ATOM      7  C   UNL     1     -16.150   3.776   7.238  1.00  0.00     0.008 C 
ATOM      8  C   UNL     1     -15.158   1.740   5.975  1.00  0.00     0.143 C 
ATOM      9  C   UNL     1     -16.308   2.762   6.086  1.00  0.00     0.034 C 
ENDROOT
BRANCH   1  10
ATOM     10  C   UNL     1     -11.239   4.460   6.558  1.00  0.00     0.246 C 
ATOM     11  O   UNL     1     -10.279   3.773   6.922  1.00  0.00    -0.272 OA
BRANCH  10  12
ATOM     12  C   UNL     1     -11.093   5.520   5.428  1.00  0.00     0.174 C 
BRANCH  12  13
ATOM     13  N   UNL     1     -11.787   6.751   5.806  1.00  0.00    -0.342 N 
ATOM     14  C   UNL     1     -11.179   7.968   6.015  1.00  0.00     0.249 C 
ATOM     15  O   UNL     1      -9.978   8.163   5.879  1.00  0.00    -0.272 OA
ATOM     16  H   UNL     1     -12.758   6.710   6.106  1.00  0.00     0.164 HD
BRANCH  14  17
ATOM     17  C   UNL     1     -12.179   9.071   6.421  1.00  0.00     0.207 C 
BRANCH  17  18
ATOM     18  C   UNL     1     -13.422   9.023   5.526  1.00  0.00     0.077 C 
BRANCH  18  19
ATOM     19  C   UNL     1     -14.692   9.244   6.316  1.00  0.00    -0.043 A 
ATOM     20  C   UNL     1     -16.291   8.495   7.980  1.00  0.00     0.083 A 
ATOM     21  C   UNL     1     -15.093   8.313   7.287  1.00  0.00     0.028 A 
ATOM     22  C   UNL     1     -17.094   9.603   7.707  1.00  0.00     0.134 A 
ATOM     23  C   UNL     1     -16.709  10.532   6.748  1.00  0.00     0.048 A 
ATOM     24  C   UNL     1     -15.512  10.352   6.052  1.00  0.00     0.008 A 
ATOM     25  Cl  UNL     1     -16.767   7.340   9.169  1.00  0.00    -0.080 Cl
BRANCH  22  26
ATOM     26  O   UNL     1     -18.282   9.817   8.352  1.00  0.00    -0.506 OA
ATOM     27  H   UNL     1     -18.979   9.424   7.795  1.00  0.00     0.293 HD
ENDBRANCH  22  26
ENDBRANCH  18  19
ENDBRANCH  17  18
BRANCH  17  28
ATOM     28  O   UNL     1     -11.578  10.373   6.331  1.00  0.00    -0.383 OA
ATOM     29  H   UNL     1     -12.209  10.994   6.761  1.00  0.00     0.211 HD
ENDBRANCH  17  28
ENDBRANCH  14  17
ENDBRANCH  12  13
BRANCH  12  30
ATOM     30  C   UNL     1     -11.547   4.985   4.043  1.00  0.00     0.018 C 
ATOM     31  C   UNL     1     -10.834   3.667   3.706  1.00  0.00     0.010 C 
BRANCH  30  32
ATOM     32  C   UNL     1     -11.356   6.003   2.891  1.00  0.00     0.002 C 
ATOM     33  C   UNL     1     -10.277   5.644   1.878  1.00  0.00     0.004 C 
ENDBRANCH  30  32
ENDBRANCH  12  30
ENDBRANCH  10  12
ENDBRANCH   1  10
BRANCH   5  34
ATOM     34  C   UNL     1     -12.285   3.697   9.573  1.00  0.00     0.242 C 
ATOM     35  O   UNL     1     -12.447   3.868  10.781  1.00  0.00    -0.273 OA
ATOM     36  N   UNL     1     -11.661   2.582   9.062  1.00  0.00    -0.354 N 
ATOM     37  H   UNL     1     -11.447   2.552   8.064  1.00  0.00     0.163 HD
BRANCH  36  38
ATOM     38  C   UNL     1     -11.389   1.410   9.868  1.00  0.00     0.116 C 
BRANCH  38  39
ATOM     39  C   UNL     1      -9.881   1.194   9.978  1.00  0.00     0.023 C 
BRANCH  39  40
ATOM     40  C   UNL     1      -9.300   0.506   8.748  1.00  0.00     0.026 C 
BRANCH  40  41
ATOM     41  C   UNL     1      -9.717  -0.964   8.701  1.00  0.00     0.146 C 
BRANCH  41  42
ATOM     42  N   UNL     1     -10.517  -1.211   7.508  1.00  0.00    -0.254 NA
ATOM     43  C   UNL     1     -11.733  -1.591   7.629  1.00  0.00     0.185 C 
ATOM     44  N   UNL     1     -12.463  -1.819   8.736  1.00  0.00    -0.370 N 
ATOM     45  N   UNL     1     -12.452  -1.817   6.517  1.00  0.00    -0.370 N 
ATOM     46  H   UNL     1     -13.319  -2.344   8.687  1.00  0.00     0.159 HD
ATOM     47  H   UNL     1     -12.077  -1.683   9.666  1.00  0.00     0.159 HD
ATOM     48  H   UNL     1     -11.979  -1.660   5.638  1.00  0.00     0.159 HD
ATOM     49  H   UNL     1     -13.454  -1.883   6.521  1.00  0.00     0.159 HD
ENDBRANCH  41  42
ENDBRANCH  40  41
ENDBRANCH  39  40
ENDBRANCH  38  39
ENDBRANCH  36  38
ENDBRANCH   5  34
BRANCH   8  50
ATOM     50  O   UNL     1     -15.208   0.878   7.113  1.00  0.00    -0.245 OA
BRANCH  50  51
ATOM     51  S   UNL     1     -16.257  -0.365   7.133  1.00  0.00     0.397 S 
ATOM     52  O   UNL     1     -16.761  -0.545   5.790  1.00  0.00    -0.169 OA
ATOM     53  O   UNL     1     -17.147  -0.231   8.267  1.00  0.00    -0.169 OA
BRANCH  51  54
ATOM     54  O   UNL     1     -15.287  -1.618   7.408  1.00  0.00    -0.264 OA
ATOM     55  H   UNL     1     -15.629  -2.093   8.193  1.00  0.00     0.236 HD
ENDBRANCH  51  54
ENDBRANCH  50  51
ENDBRANCH   8  50
TORSDOF 19
ENDMDL
MODEL 10
REMARK VINA RESULT:    -6.916      4.019      8.236
REMARK INTER + INTRA:         -18.969
REMARK INTER:                 -13.581
REMARK INTRA:                  -5.388
REMARK UNBOUND:                -4.978
REMARK SMILES CC[C@@H](C)[C@@H](NC(=O)[C@@H](O)Cc1ccc(O)c(Cl)c1)C(=O)N1[C@H](C(=O)NCCCCN=C(N)N)C[C@H]2CC[C@H](OS(=O)(=O)O)C[C@@H]21
REMARK SMILES IDX 22 1 36 2 46 3 35 4 23 5 45 6 37 7 39 8 38 9 20 10 21 11
REMARK SMILES IDX 5 12 6 13 7 14 8 15 9 17 11 18 12 19 17 20 19 21 15 22 14 23
REMARK SMILES IDX 13 24 18 25 16 26 10 28 3 30 4 31 2 32 1 33 24 34 25 35
REMARK SMILES IDX 26 36 27 38 28 39 29 40 30 41 31 42 32 43 33 44 34 45 40 50
REMARK SMILES IDX 41 51 42 52 43 53 44 54
REMARK H PARENT 6 16 16 27 10 29 26 37 33 46 33 47 34 48 34 49 44 55
ROOT
ATOM      1  N   UNL     1     -12.227   2.793   4.997  1.00  0.00    -0.326 N 
ATOM      2  C   UNL     1     -12.445   0.461   5.232  1.00  0.00     0.014 C 
ATOM      3  C   UNL     1     -11.487   1.628   5.489  1.00  0.00     0.091 C 
ATOM      4  C   UNL     1     -13.136   0.873   3.941  1.00  0.00     0.041 C 
ATOM      5  C   UNL     1     -13.432   2.352   4.251  1.00  0.00     0.175 C 
ATOM      6  C   UNL     1     -11.074   1.599   6.959  1.00  0.00     0.059 C 
ATOM      7  C   UNL     1     -11.713  -0.865   5.292  1.00  0.00     0.008 C 
ATOM      8  C   UNL     1     -11.013   0.178   7.560  1.00  0.00     0.143 C 
ATOM      9  C   UNL     1     -10.735  -0.894   6.486  1.00  0.00     0.034 C 
ENDROOT
BRANCH   1  10
ATOM     10  C   UNL     1     -11.856   4.126   4.951  1.00  0.00     0.246 C 
ATOM     11  O   UNL     1     -11.819   4.703   3.859  1.00  0.00    -0.272 OA
BRANCH  10  12
ATOM     12  C   UNL     1     -11.534   4.879   6.275  1.00  0.00     0.174 C 
BRANCH  12  13
ATOM     13  N   UNL     1     -12.717   4.901   7.136  1.00  0.00    -0.342 N 
ATOM     14  C   UNL     1     -12.709   4.681   8.495  1.00  0.00     0.249 C 
ATOM     15  O   UNL     1     -11.694   4.468   9.145  1.00  0.00    -0.272 OA
ATOM     16  H   UNL     1     -13.644   4.910   6.717  1.00  0.00     0.164 HD
BRANCH  14  17
ATOM     17  C   UNL     1     -14.120   4.754   9.118  1.00  0.00     0.207 C 
BRANCH  17  18
ATOM     18  C   UNL     1     -14.391   6.159   9.666  1.00  0.00     0.077 C 
BRANCH  18  19
ATOM     19  C   UNL     1     -15.512   6.847   8.921  1.00  0.00    -0.043 A 
ATOM     20  C   UNL     1     -16.281   8.598   7.429  1.00  0.00     0.083 A 
ATOM     21  C   UNL     1     -15.239   7.935   8.077  1.00  0.00     0.028 A 
ATOM     22  C   UNL     1     -17.599   8.183   7.620  1.00  0.00     0.134 A 
ATOM     23  C   UNL     1     -17.884   7.107   8.453  1.00  0.00     0.048 A 
ATOM     24  C   UNL     1     -16.843   6.441   9.104  1.00  0.00     0.008 A 
ATOM     25  Cl  UNL     1     -15.925   9.933   6.396  1.00  0.00    -0.080 Cl
BRANCH  22  26
ATOM     26  O   UNL     1     -18.655   8.809   7.015  1.00  0.00    -0.506 OA
ATOM     27  H   UNL     1     -18.430   9.756   6.969  1.00  0.00     0.293 HD
ENDBRANCH  22  26
ENDBRANCH  18  19
ENDBRANCH  17  18
BRANCH  17  28
ATOM     28  O   UNL     1     -14.269   3.793  10.174  1.00  0.00    -0.383 OA
ATOM     29  H   UNL     1     -13.361   3.477  10.385  1.00  0.00     0.211 HD
ENDBRANCH  17  28
ENDBRANCH  14  17
ENDBRANCH  12  13
BRANCH  12  30
ATOM     30  C   UNL     1     -10.951   6.297   6.033  1.00  0.00     0.018 C 
ATOM     31  C   UNL     1      -9.549   6.424   6.649  1.00  0.00     0.010 C 
BRANCH  30  32
ATOM     32  C   UNL     1     -11.862   7.439   6.544  1.00  0.00     0.002 C 
ATOM     33  C   UNL     1     -12.576   8.237   5.461  1.00  0.00     0.004 C 
ENDBRANCH  30  32
ENDBRANCH  12  30
ENDBRANCH  10  12
ENDBRANCH   1  10
BRANCH   5  34
ATOM     34  C   UNL     1     -14.707   2.511   5.122  1.00  0.00     0.242 C 
ATOM     35  O   UNL     1     -14.655   2.674   6.341  1.00  0.00    -0.273 OA
ATOM     36  N   UNL     1     -15.898   2.402   4.441  1.00  0.00    -0.354 N 
ATOM     37  H   UNL     1     -15.878   2.147   3.453  1.00  0.00     0.163 HD
BRANCH  36  38
ATOM     38  C   UNL     1     -17.170   2.735   5.049  1.00  0.00     0.116 C 
BRANCH  38  39
ATOM     39  C   UNL     1     -17.872   1.461   5.513  1.00  0.00     0.023 C 
BRANCH  39  40
ATOM     40  C   UNL     1     -18.109   1.441   7.019  1.00  0.00     0.026 C 
BRANCH  40  41
ATOM     41  C   UNL     1     -17.494   0.191   7.648  1.00  0.00     0.146 C 
BRANCH  41  42
ATOM     42  N   UNL     1     -17.225   0.431   9.060  1.00  0.00    -0.254 NA
ATOM     43  C   UNL     1     -16.077   0.867   9.420  1.00  0.00     0.185 C 
ATOM     44  N   UNL     1     -14.994   1.166   8.681  1.00  0.00    -0.370 N 
ATOM     45  N   UNL     1     -15.848   1.078  10.727  1.00  0.00    -0.370 N 
ATOM     46  H   UNL     1     -14.090   1.262   9.111  1.00  0.00     0.159 HD
ATOM     47  H   UNL     1     -14.998   1.077   7.669  1.00  0.00     0.159 HD
ATOM     48  H   UNL     1     -16.617   0.885  11.354  1.00  0.00     0.159 HD
ATOM     49  H   UNL     1     -15.079   1.631  11.062  1.00  0.00     0.159 HD
ENDBRANCH  41  42
ENDBRANCH  40  41
ENDBRANCH  39  40
ENDBRANCH  38  39
ENDBRANCH  36  38
ENDBRANCH   5  34
BRANCH   8  50
ATOM     50  O   UNL     1     -12.248  -0.135   8.204  1.00  0.00    -0.245 OA
BRANCH  50  51
ATOM     51  S   UNL     1     -12.263  -1.189   9.443  1.00  0.00     0.397 S 
ATOM     52  O   UNL     1     -13.390  -0.867  10.289  1.00  0.00    -0.169 OA
ATOM     53  O   UNL     1     -10.925  -1.327   9.980  1.00  0.00    -0.169 OA
BRANCH  51  54
ATOM     54  O   UNL     1     -12.647  -2.567   8.707  1.00  0.00    -0.264 OA
ATOM     55  H   UNL     1     -11.813  -3.039   8.505  1.00  0.00     0.236 HD
ENDBRANCH  51  54
ENDBRANCH  50  51
ENDBRANCH   8  50
TORSDOF 19
ENDMDL
