MODEL 1
REMARK VINA RESULT:    -8.279      0.000      0.000
REMARK INTER + INTRA:         -20.400
REMARK INTER:                 -16.748
REMARK INTRA:                  -3.652
REMARK UNBOUND:                -3.652
REMARK SMILES CC[C@@H](C)[C@@H](NC(=O)[C@@H](O)Cc1ccc(O)c(Cl)c1)C(=O)N1[C@H](C(=O)NCCCCN=C(N)N)C[C@H]2CC[C@H](OS(=O)(=O)O)C[C@@H]21
REMARK SMILES IDX 22 1 36 2 46 3 35 4 23 5 45 6 37 7 39 8 38 9 20 10 21 11
REMARK SMILES IDX 5 12 6 13 7 14 8 15 9 17 11 18 12 19 17 20 19 21 15 22 14 23
REMARK SMILES IDX 13 24 18 25 16 26 10 28 3 30 4 31 2 32 1 33 24 34 25 35
REMARK SMILES IDX 26 36 27 38 28 39 29 40 30 41 31 42 32 43 33 44 34 45 40 50
REMARK SMILES IDX 41 51 42 52 43 53 44 54
REMARK H PARENT 6 16 16 27 10 29 26 37 33 46 33 47 34 48 34 49 44 55
ROOT
ATOM      1  N   UNL     1      -5.450  -4.279   0.852  1.00  0.00    -0.326 N 
ATOM      2  C   UNL     1      -7.327  -2.876   1.072  1.00  0.00     0.014 C 
ATOM      3  C   UNL     1      -6.817  -4.287   1.379  1.00  0.00     0.091 C 
ATOM      4  C   UNL     1      -6.649  -2.555  -0.251  1.00  0.00     0.041 C 
ATOM      5  C   UNL     1      -5.223  -3.055   0.045  1.00  0.00     0.175 C 
ATOM      6  C   UNL     1      -7.018  -4.560   2.869  1.00  0.00     0.059 C 
ATOM      7  C   UNL     1      -8.839  -2.813   1.168  1.00  0.00     0.008 C 
ATOM      8  C   UNL     1      -8.251  -3.849   3.470  1.00  0.00     0.143 C 
ATOM      9  C   UNL     1      -9.338  -3.580   2.410  1.00  0.00     0.034 C 
ENDROOT
BRANCH   1  10
ATOM     10  C   UNL     1      -4.502  -5.288   0.828  1.00  0.00     0.246 C 
ATOM     11  O   UNL     1      -3.767  -5.447   1.808  1.00  0.00    -0.272 OA
BRANCH  10  12
ATOM     12  C   UNL     1      -4.412  -6.226  -0.411  1.00  0.00     0.174 C 
BRANCH  12  13
ATOM     13  N   UNL     1      -4.647  -5.459  -1.635  1.00  0.00    -0.342 N 
ATOM     14  C   UNL     1      -3.711  -5.239  -2.621  1.00  0.00     0.249 C 
ATOM     15  O   UNL     1      -2.573  -5.691  -2.594  1.00  0.00    -0.272 OA
ATOM     16  H   UNL     1      -5.489  -4.896  -1.723  1.00  0.00     0.164 HD
BRANCH  14  17
ATOM     17  C   UNL     1      -4.258  -4.377  -3.778  1.00  0.00     0.207 C 
BRANCH  17  18
ATOM     18  C   UNL     1      -3.294  -3.228  -4.092  1.00  0.00     0.077 C 
BRANCH  18  19
ATOM     19  C   UNL     1      -2.950  -3.169  -5.563  1.00  0.00    -0.043 A 
ATOM     20  C   UNL     1      -1.331  -2.793  -7.330  1.00  0.00     0.083 A 
ATOM     21  C   UNL     1      -1.635  -2.896  -5.972  1.00  0.00     0.028 A 
ATOM     22  C   UNL     1      -2.334  -2.961  -8.285  1.00  0.00     0.134 A 
ATOM     23  C   UNL     1      -3.640  -3.233  -7.894  1.00  0.00     0.048 A 
ATOM     24  C   UNL     1      -3.948  -3.334  -6.536  1.00  0.00     0.008 A 
ATOM     25  Cl  UNL     1       0.290  -2.456  -7.813  1.00  0.00    -0.080 Cl
BRANCH  22  26
ATOM     26  O   UNL     1      -2.086  -2.860  -9.627  1.00  0.00    -0.506 OA
ATOM     27  H   UNL     1      -1.259  -3.349  -9.797  1.00  0.00     0.293 HD
ENDBRANCH  22  26
ENDBRANCH  18  19
ENDBRANCH  17  18
BRANCH  17  28
ATOM     28  O   UNL     1      -5.551  -3.840  -3.458  1.00  0.00    -0.383 OA
ATOM     29  H   UNL     1      -5.569  -2.930  -3.832  1.00  0.00     0.211 HD
ENDBRANCH  17  28
ENDBRANCH  14  17
ENDBRANCH  12  13
BRANCH  12  30
ATOM     30  C   UNL     1      -5.346  -7.461  -0.298  1.00  0.00     0.018 C 
ATOM     31  C   UNL     1      -4.661  -8.717  -0.859  1.00  0.00     0.010 C 
BRANCH  30  32
ATOM     32  C   UNL     1      -6.725  -7.261  -0.972  1.00  0.00     0.002 C 
ATOM     33  C   UNL     1      -7.931  -7.491  -0.070  1.00  0.00     0.004 C 
ENDBRANCH  30  32
ENDBRANCH  12  30
ENDBRANCH  10  12
ENDBRANCH   1  10
BRANCH   5  34
ATOM     34  C   UNL     1      -4.407  -2.008   0.850  1.00  0.00     0.242 C 
ATOM     35  O   UNL     1      -4.178  -0.879   0.418  1.00  0.00    -0.273 OA
ATOM     36  N   UNL     1      -3.912  -2.453   2.056  1.00  0.00    -0.354 N 
ATOM     37  H   UNL     1      -4.033  -3.436   2.305  1.00  0.00     0.163 HD
BRANCH  36  38
ATOM     38  C   UNL     1      -3.319  -1.556   3.026  1.00  0.00     0.116 C 
BRANCH  38  39
ATOM     39  C   UNL     1      -4.371  -1.125   4.045  1.00  0.00     0.023 C 
BRANCH  39  40
ATOM     40  C   UNL     1      -4.267   0.355   4.399  1.00  0.00     0.026 C 
BRANCH  40  41
ATOM     41  C   UNL     1      -5.611   1.055   4.203  1.00  0.00     0.146 C 
BRANCH  41  42
ATOM     42  N   UNL     1      -5.942   1.097   2.784  1.00  0.00    -0.254 NA
ATOM     43  C   UNL     1      -7.111   0.748   2.397  1.00  0.00     0.185 C 
ATOM     44  N   UNL     1      -8.168   0.320   3.111  1.00  0.00    -0.370 N 
ATOM     45  N   UNL     1      -7.394   0.790   1.084  1.00  0.00    -0.370 N 
ATOM     46  H   UNL     1      -8.935  -0.150   2.660  1.00  0.00     0.159 HD
ATOM     47  H   UNL     1      -8.131   0.241   4.122  1.00  0.00     0.159 HD
ATOM     48  H   UNL     1      -6.654   1.110   0.475  1.00  0.00     0.159 HD
ATOM     49  H   UNL     1      -8.334   0.764   0.730  1.00  0.00     0.159 HD
ENDBRANCH  41  42
ENDBRANCH  40  41
ENDBRANCH  39  40
ENDBRANCH  38  39
ENDBRANCH  36  38
ENDBRANCH   5  34
BRANCH   8  50
ATOM     50  O   UNL     1      -7.864  -2.603   4.050  1.00  0.00    -0.245 OA
BRANCH  50  51
ATOM     51  S   UNL     1      -7.903  -2.423   5.666  1.00  0.00     0.397 S 
ATOM     52  O   UNL     1      -8.916  -3.312   6.190  1.00  0.00    -0.169 OA
ATOM     53  O   UNL     1      -7.882  -1.014   5.998  1.00  0.00    -0.169 OA
BRANCH  51  54
ATOM     54  O   UNL     1      -6.493  -3.057   6.108  1.00  0.00    -0.264 OA
ATOM     55  H   UNL     1      -6.679  -3.839   6.667  1.00  0.00     0.236 HD
ENDBRANCH  51  54
ENDBRANCH  50  51
ENDBRANCH   8  50
TORSDOF 19
ENDMDL
MODEL 2
REMARK VINA RESULT:    -8.100      4.418      8.933
REMARK INTER + INTRA:         -20.039
REMARK INTER:                 -18.377
REMARK INTRA:                  -1.662
REMARK UNBOUND:                -3.652
REMARK SMILES CC[C@@H](C)[C@@H](NC(=O)[C@@H](O)Cc1ccc(O)c(Cl)c1)C(=O)N1[C@H](C(=O)NCCCCN=C(N)N)C[C@H]2CC[C@H](OS(=O)(=O)O)C[C@@H]21
REMARK SMILES IDX 22 1 36 2 46 3 35 4 23 5 45 6 37 7 39 8 38 9 20 10 21 11
REMARK SMILES IDX 5 12 6 13 7 14 8 15 9 17 11 18 12 19 17 20 19 21 15 22 14 23
REMARK SMILES IDX 13 24 18 25 16 26 10 28 3 30 4 31 2 32 1 33 24 34 25 35
REMARK SMILES IDX 26 36 27 38 28 39 29 40 30 41 31 42 32 43 33 44 34 45 40 50
REMARK SMILES IDX 41 51 42 52 43 53 44 54
REMARK H PARENT 6 16 16 27 10 29 26 37 33 46 33 47 34 48 34 49 44 55
ROOT
ATOM      1  N   UNL     1      -6.168  -5.856  -0.015  1.00  0.00    -0.326 N 
ATOM      2  C   UNL     1      -4.974  -7.652   0.929  1.00  0.00     0.014 C 
ATOM      3  C   UNL     1      -6.382  -7.070   0.777  1.00  0.00     0.091 C 
ATOM      4  C   UNL     1      -4.105  -6.406   1.020  1.00  0.00     0.041 C 
ATOM      5  C   UNL     1      -4.716  -5.565  -0.116  1.00  0.00     0.175 C 
ATOM      6  C   UNL     1      -7.294  -8.156   0.207  1.00  0.00     0.059 C 
ATOM      7  C   UNL     1      -4.927  -8.674   2.047  1.00  0.00     0.008 C 
ATOM      8  C   UNL     1      -6.904  -9.585   0.641  1.00  0.00     0.143 C 
ATOM      9  C   UNL     1      -6.161  -9.599   1.992  1.00  0.00     0.034 C 
ENDROOT
BRANCH   1  10
ATOM     10  C   UNL     1      -7.078  -4.907  -0.450  1.00  0.00     0.246 C 
ATOM     11  O   UNL     1      -7.604  -5.043  -1.559  1.00  0.00    -0.272 OA
BRANCH  10  12
ATOM     12  C   UNL     1      -7.451  -3.718   0.483  1.00  0.00     0.174 C 
BRANCH  12  13
ATOM     13  N   UNL     1      -6.408  -3.529   1.491  1.00  0.00    -0.342 N 
ATOM     14  C   UNL     1      -5.630  -2.401   1.621  1.00  0.00     0.249 C 
ATOM     15  O   UNL     1      -5.746  -1.407   0.915  1.00  0.00    -0.272 OA
ATOM     16  H   UNL     1      -6.092  -4.322   2.043  1.00  0.00     0.164 HD
BRANCH  14  17
ATOM     17  C   UNL     1      -4.605  -2.513   2.770  1.00  0.00     0.207 C 
BRANCH  17  18
ATOM     18  C   UNL     1      -3.317  -1.763   2.414  1.00  0.00     0.077 C 
BRANCH  18  19
ATOM     19  C   UNL     1      -3.276  -0.388   3.042  1.00  0.00    -0.043 A 
ATOM     20  C   UNL     1      -4.059   1.183   4.716  1.00  0.00     0.083 A 
ATOM     21  C   UNL     1      -4.062  -0.100   4.169  1.00  0.00     0.028 A 
ATOM     22  C   UNL     1      -3.275   2.185   4.143  1.00  0.00     0.134 A 
ATOM     23  C   UNL     1      -2.492   1.914   3.027  1.00  0.00     0.048 A 
ATOM     24  C   UNL     1      -2.494   0.630   2.476  1.00  0.00     0.008 A 
ATOM     25  Cl  UNL     1      -5.032   1.518   6.100  1.00  0.00    -0.080 Cl
BRANCH  22  26
ATOM     26  O   UNL     1      -3.248   3.461   4.637  1.00  0.00    -0.506 OA
ATOM     27  H   UNL     1      -2.351   3.605   4.991  1.00  0.00     0.293 HD
ENDBRANCH  22  26
ENDBRANCH  18  19
ENDBRANCH  17  18
BRANCH  17  28
ATOM     28  O   UNL     1      -4.294  -3.887   3.053  1.00  0.00    -0.383 OA
ATOM     29  H   UNL     1      -4.560  -4.396   2.254  1.00  0.00     0.211 HD
ENDBRANCH  17  28
ENDBRANCH  14  17
ENDBRANCH  12  13
BRANCH  12  30
ATOM     30  C   UNL     1      -8.862  -3.869   1.112  1.00  0.00     0.018 C 
ATOM     31  C   UNL     1      -8.998  -2.991   2.366  1.00  0.00     0.010 C 
BRANCH  30  32
ATOM     32  C   UNL     1      -9.242  -5.332   1.443  1.00  0.00     0.002 C 
ATOM     33  C   UNL     1      -9.111  -5.723   2.910  1.00  0.00     0.004 C 
ENDBRANCH  30  32
ENDBRANCH  12  30
ENDBRANCH  10  12
ENDBRANCH   1  10
BRANCH   5  34
ATOM     34  C   UNL     1      -4.165  -5.990  -1.503  1.00  0.00     0.242 C 
ATOM     35  O   UNL     1      -4.373  -7.105  -1.980  1.00  0.00    -0.273 OA
ATOM     36  N   UNL     1      -3.382  -5.050  -2.135  1.00  0.00    -0.354 N 
ATOM     37  H   UNL     1      -3.147  -4.191  -1.637  1.00  0.00     0.163 HD
BRANCH  36  38
ATOM     38  C   UNL     1      -2.968  -5.190  -3.516  1.00  0.00     0.116 C 
BRANCH  38  39
ATOM     39  C   UNL     1      -3.681  -4.153  -4.380  1.00  0.00     0.023 C 
BRANCH  39  40
ATOM     40  C   UNL     1      -3.729  -4.553  -5.850  1.00  0.00     0.026 C 
BRANCH  40  41
ATOM     41  C   UNL     1      -4.079  -3.351  -6.728  1.00  0.00     0.146 C 
BRANCH  41  42
ATOM     42  N   UNL     1      -3.535  -3.543  -8.066  1.00  0.00    -0.254 NA
ATOM     43  C   UNL     1      -2.547  -2.829  -8.456  1.00  0.00     0.185 C 
ATOM     44  N   UNL     1      -1.868  -1.864  -7.810  1.00  0.00    -0.370 N 
ATOM     45  N   UNL     1      -2.063  -3.019  -9.695  1.00  0.00    -0.370 N 
ATOM     46  H   UNL     1      -1.281  -1.223  -8.316  1.00  0.00     0.159 HD
ATOM     47  H   UNL     1      -2.094  -1.601  -6.856  1.00  0.00     0.159 HD
ATOM     48  H   UNL     1      -2.513  -3.736 -10.247  1.00  0.00     0.159 HD
ATOM     49  H   UNL     1      -1.163  -2.680  -9.985  1.00  0.00     0.159 HD
ENDBRANCH  41  42
ENDBRANCH  40  41
ENDBRANCH  39  40
ENDBRANCH  38  39
ENDBRANCH  36  38
ENDBRANCH   5  34
BRANCH   8  50
ATOM     50  O   UNL     1      -6.063 -10.185  -0.345  1.00  0.00    -0.245 OA
BRANCH  50  51
ATOM     51  S   UNL     1      -6.198 -11.776  -0.656  1.00  0.00     0.397 S 
ATOM     52  O   UNL     1      -5.626 -12.498   0.458  1.00  0.00    -0.169 OA
ATOM     53  O   UNL     1      -5.793 -12.041  -2.021  1.00  0.00    -0.169 OA
BRANCH  51  54
ATOM     54  O   UNL     1      -7.787 -12.004  -0.557  1.00  0.00    -0.264 OA
ATOM     55  H   UNL     1      -8.168 -11.241  -0.075  1.00  0.00     0.236 HD
ENDBRANCH  51  54
ENDBRANCH  50  51
ENDBRANCH   8  50
TORSDOF 19
ENDMDL
MODEL 3
REMARK VINA RESULT:    -7.998      4.083      8.958
REMARK INTER + INTRA:         -19.833
REMARK INTER:                 -17.753
REMARK INTRA:                  -2.080
REMARK UNBOUND:                -3.652
REMARK SMILES CC[C@@H](C)[C@@H](NC(=O)[C@@H](O)Cc1ccc(O)c(Cl)c1)C(=O)N1[C@H](C(=O)NCCCCN=C(N)N)C[C@H]2CC[C@H](OS(=O)(=O)O)C[C@@H]21
REMARK SMILES IDX 22 1 36 2 46 3 35 4 23 5 45 6 37 7 39 8 38 9 20 10 21 11
REMARK SMILES IDX 5 12 6 13 7 14 8 15 9 17 11 18 12 19 17 20 19 21 15 22 14 23
REMARK SMILES IDX 13 24 18 25 16 26 10 28 3 30 4 31 2 32 1 33 24 34 25 35
REMARK SMILES IDX 26 36 27 38 28 39 29 40 30 41 31 42 32 43 33 44 34 45 40 50
REMARK SMILES IDX 41 51 42 52 43 53 44 54
REMARK H PARENT 6 16 16 27 10 29 26 37 33 46 33 47 34 48 34 49 44 55
ROOT
ATOM      1  N   UNL     1      -6.050  -4.254  -0.578  1.00  0.00    -0.326 N 
ATOM      2  C   UNL     1      -4.330  -5.861  -0.533  1.00  0.00     0.014 C 
ATOM      3  C   UNL     1      -5.841  -5.687  -0.353  1.00  0.00     0.091 C 
ATOM      4  C   UNL     1      -3.775  -4.558   0.021  1.00  0.00     0.041 C 
ATOM      5  C   UNL     1      -4.744  -3.552  -0.627  1.00  0.00     0.175 C 
ATOM      6  C   UNL     1      -6.554  -6.677  -1.272  1.00  0.00     0.059 C 
ATOM      7  C   UNL     1      -3.862  -7.178   0.055  1.00  0.00     0.008 C 
ATOM      8  C   UNL     1      -5.775  -7.991  -1.494  1.00  0.00     0.143 C 
ATOM      9  C   UNL     1      -4.838  -8.315  -0.313  1.00  0.00     0.034 C 
ENDROOT
BRANCH   1  10
ATOM     10  C   UNL     1      -7.216  -3.508  -0.529  1.00  0.00     0.246 C 
ATOM     11  O   UNL     1      -7.864  -3.336  -1.567  1.00  0.00    -0.272 OA
BRANCH  10  12
ATOM     12  C   UNL     1      -7.706  -2.941   0.835  1.00  0.00     0.174 C 
BRANCH  12  13
ATOM     13  N   UNL     1      -6.598  -2.909   1.789  1.00  0.00    -0.342 N 
ATOM     14  C   UNL     1      -5.884  -1.783   2.133  1.00  0.00     0.249 C 
ATOM     15  O   UNL     1      -6.120  -0.665   1.693  1.00  0.00    -0.272 OA
ATOM     16  H   UNL     1      -6.189  -3.781   2.115  1.00  0.00     0.164 HD
BRANCH  14  17
ATOM     17  C   UNL     1      -4.764  -2.077   3.153  1.00  0.00     0.207 C 
BRANCH  17  18
ATOM     18  C   UNL     1      -3.446  -1.439   2.701  1.00  0.00     0.077 C 
BRANCH  18  19
ATOM     19  C   UNL     1      -3.309  -0.019   3.201  1.00  0.00    -0.043 A 
ATOM     20  C   UNL     1      -3.902   1.719   4.786  1.00  0.00     0.083 A 
ATOM     21  C   UNL     1      -3.992   0.395   4.355  1.00  0.00     0.028 A 
ATOM     22  C   UNL     1      -3.133   2.636   4.068  1.00  0.00     0.134 A 
ATOM     23  C   UNL     1      -2.451   2.240   2.924  1.00  0.00     0.048 A 
ATOM     24  C   UNL     1      -2.541   0.915   2.489  1.00  0.00     0.008 A 
ATOM     25  Cl  UNL     1      -4.749   2.209   6.206  1.00  0.00    -0.080 Cl
BRANCH  22  26
ATOM     26  O   UNL     1      -3.023   3.947   4.446  1.00  0.00    -0.506 OA
ATOM     27  H   UNL     1      -3.033   3.959   5.421  1.00  0.00     0.293 HD
ENDBRANCH  22  26
ENDBRANCH  18  19
ENDBRANCH  17  18
BRANCH  17  28
ATOM     28  O   UNL     1      -4.576  -3.491   3.322  1.00  0.00    -0.383 OA
ATOM     29  H   UNL     1      -3.743  -3.596   3.836  1.00  0.00     0.211 HD
ENDBRANCH  17  28
ENDBRANCH  14  17
ENDBRANCH  12  13
BRANCH  12  30
ATOM     30  C   UNL     1      -8.943  -3.697   1.389  1.00  0.00     0.018 C 
ATOM     31  C   UNL     1      -9.188  -3.337   2.863  1.00  0.00     0.010 C 
BRANCH  30  32
ATOM     32  C   UNL     1      -8.858  -5.234   1.224  1.00  0.00     0.002 C 
ATOM     33  C   UNL     1      -8.359  -5.994   2.446  1.00  0.00     0.004 C 
ENDBRANCH  30  32
ENDBRANCH  12  30
ENDBRANCH  10  12
ENDBRANCH   1  10
BRANCH   5  34
ATOM     34  C   UNL     1      -4.344  -3.235  -2.093  1.00  0.00     0.242 C 
ATOM     35  O   UNL     1      -3.360  -2.552  -2.373  1.00  0.00    -0.273 OA
ATOM     36  N   UNL     1      -5.199  -3.728  -3.053  1.00  0.00    -0.354 N 
ATOM     37  H   UNL     1      -6.063  -4.184  -2.755  1.00  0.00     0.163 HD
BRANCH  36  38
ATOM     38  C   UNL     1      -4.870  -3.714  -4.463  1.00  0.00     0.116 C 
BRANCH  38  39
ATOM     39  C   UNL     1      -3.658  -4.605  -4.721  1.00  0.00     0.023 C 
BRANCH  39  40
ATOM     40  C   UNL     1      -3.312  -4.705  -6.203  1.00  0.00     0.026 C 
BRANCH  40  41
ATOM     41  C   UNL     1      -3.258  -3.317  -6.842  1.00  0.00     0.146 C 
BRANCH  41  42
ATOM     42  N   UNL     1      -2.193  -2.534  -6.228  1.00  0.00    -0.254 NA
ATOM     43  C   UNL     1      -1.315  -1.970  -6.969  1.00  0.00     0.185 C 
ATOM     44  N   UNL     1      -1.186  -1.966  -8.309  1.00  0.00    -0.370 N 
ATOM     45  N   UNL     1      -0.339  -1.256  -6.384  1.00  0.00    -0.370 N 
ATOM     46  H   UNL     1      -0.320  -1.691  -8.740  1.00  0.00     0.159 HD
ATOM     47  H   UNL     1      -1.849  -2.447  -8.909  1.00  0.00     0.159 HD
ATOM     48  H   UNL     1      -0.368  -1.201  -5.375  1.00  0.00     0.159 HD
ATOM     49  H   UNL     1       0.233  -0.602  -6.888  1.00  0.00     0.159 HD
ENDBRANCH  41  42
ENDBRANCH  40  41
ENDBRANCH  39  40
ENDBRANCH  38  39
ENDBRANCH  36  38
ENDBRANCH   5  34
BRANCH   8  50
ATOM     50  O   UNL     1      -4.991  -7.902  -2.684  1.00  0.00    -0.245 OA
BRANCH  50  51
ATOM     51  S   UNL     1      -4.373  -9.255  -3.342  1.00  0.00     0.397 S 
ATOM     52  O   UNL     1      -5.091 -10.385  -2.796  1.00  0.00    -0.169 OA
ATOM     53  O   UNL     1      -2.927  -9.190  -3.318  1.00  0.00    -0.169 OA
BRANCH  51  54
ATOM     54  O   UNL     1      -4.850  -9.131  -4.873  1.00  0.00    -0.264 OA
ATOM     55  H   UNL     1      -5.689  -9.627  -4.965  1.00  0.00     0.236 HD
ENDBRANCH  51  54
ENDBRANCH  50  51
ENDBRANCH   8  50
TORSDOF 19
ENDMDL
MODEL 4
REMARK VINA RESULT:    -7.852      9.408     13.558
REMARK INTER + INTRA:         -19.537
REMARK INTER:                 -15.352
REMARK INTRA:                  -4.185
REMARK UNBOUND:                -3.652
REMARK SMILES CC[C@@H](C)[C@@H](NC(=O)[C@@H](O)Cc1ccc(O)c(Cl)c1)C(=O)N1[C@H](C(=O)NCCCCN=C(N)N)C[C@H]2CC[C@H](OS(=O)(=O)O)C[C@@H]21
REMARK SMILES IDX 22 1 36 2 46 3 35 4 23 5 45 6 37 7 39 8 38 9 20 10 21 11
REMARK SMILES IDX 5 12 6 13 7 14 8 15 9 17 11 18 12 19 17 20 19 21 15 22 14 23
REMARK SMILES IDX 13 24 18 25 16 26 10 28 3 30 4 31 2 32 1 33 24 34 25 35
REMARK SMILES IDX 26 36 27 38 28 39 29 40 30 41 31 42 32 43 33 44 34 45 40 50
REMARK SMILES IDX 41 51 42 52 43 53 44 54
REMARK H PARENT 6 16 16 27 10 29 26 37 33 46 33 47 34 48 34 49 44 55
ROOT
ATOM      1  N   UNL     1       3.481  -3.823  -7.825  1.00  0.00    -0.326 N 
ATOM      2  C   UNL     1       2.445  -1.735  -7.493  1.00  0.00     0.014 C 
ATOM      3  C   UNL     1       3.592  -2.421  -8.239  1.00  0.00     0.091 C 
ATOM      4  C   UNL     1       2.391  -2.504  -6.181  1.00  0.00     0.041 C 
ATOM      5  C   UNL     1       2.514  -3.946  -6.706  1.00  0.00     0.175 C 
ATOM      6  C   UNL     1       3.466  -2.093  -9.726  1.00  0.00     0.059 C 
ATOM      7  C   UNL     1       2.638  -0.232  -7.465  1.00  0.00     0.008 C 
ATOM      8  C   UNL     1       2.856  -0.702 -10.005  1.00  0.00     0.143 C 
ATOM      9  C   UNL     1       3.102   0.282  -8.844  1.00  0.00     0.034 C 
ENDROOT
BRANCH   1  10
ATOM     10  C   UNL     1       4.262  -4.914  -8.165  1.00  0.00     0.246 C 
ATOM     11  O   UNL     1       3.990  -5.555  -9.185  1.00  0.00    -0.272 OA
BRANCH  10  12
ATOM     12  C   UNL     1       5.489  -5.283  -7.281  1.00  0.00     0.174 C 
BRANCH  12  13
ATOM     13  N   UNL     1       6.550  -4.292  -7.461  1.00  0.00    -0.342 N 
ATOM     14  C   UNL     1       6.802  -3.241  -6.608  1.00  0.00     0.249 C 
ATOM     15  O   UNL     1       6.175  -3.034  -5.577  1.00  0.00    -0.272 OA
ATOM     16  H   UNL     1       7.048  -4.243  -8.346  1.00  0.00     0.164 HD
BRANCH  14  17
ATOM     17  C   UNL     1       7.978  -2.360  -7.081  1.00  0.00     0.207 C 
BRANCH  17  18
ATOM     18  C   UNL     1       8.128  -2.439  -8.604  1.00  0.00     0.077 C 
BRANCH  18  19
ATOM     19  C   UNL     1       7.976  -1.083  -9.255  1.00  0.00    -0.043 A 
ATOM     20  C   UNL     1       8.901   0.736 -10.566  1.00  0.00     0.083 A 
ATOM     21  C   UNL     1       9.026  -0.537 -10.008  1.00  0.00     0.028 A 
ATOM     22  C   UNL     1       7.730   1.470 -10.374  1.00  0.00     0.134 A 
ATOM     23  C   UNL     1       6.682   0.942  -9.630  1.00  0.00     0.048 A 
ATOM     24  C   UNL     1       6.805  -0.331  -9.069  1.00  0.00     0.008 A 
ATOM     25  Cl  UNL     1      10.203   1.390 -11.489  1.00  0.00    -0.080 Cl
BRANCH  22  26
ATOM     26  O   UNL     1       7.565   2.726 -10.893  1.00  0.00    -0.506 OA
ATOM     27  H   UNL     1       8.024   3.341 -10.290  1.00  0.00     0.293 HD
ENDBRANCH  22  26
ENDBRANCH  18  19
ENDBRANCH  17  18
BRANCH  17  28
ATOM     28  O   UNL     1       9.209  -2.763  -6.459  1.00  0.00    -0.383 OA
ATOM     29  H   UNL     1       9.756  -1.948  -6.387  1.00  0.00     0.211 HD
ENDBRANCH  17  28
ENDBRANCH  14  17
ENDBRANCH  12  13
BRANCH  12  30
ATOM     30  C   UNL     1       5.987  -6.734  -7.521  1.00  0.00     0.018 C 
ATOM     31  C   UNL     1       6.628  -7.309  -6.249  1.00  0.00     0.010 C 
BRANCH  30  32
ATOM     32  C   UNL     1       6.963  -6.866  -8.716  1.00  0.00     0.002 C 
ATOM     33  C   UNL     1       6.696  -8.041  -9.648  1.00  0.00     0.004 C 
ENDBRANCH  30  32
ENDBRANCH  12  30
ENDBRANCH  10  12
ENDBRANCH   1  10
BRANCH   5  34
ATOM     34  C   UNL     1       1.151  -4.488  -7.214  1.00  0.00     0.242 C 
ATOM     35  O   UNL     1       0.818  -4.426  -8.397  1.00  0.00    -0.273 OA
ATOM     36  N   UNL     1       0.321  -4.992  -6.238  1.00  0.00    -0.354 N 
ATOM     37  H   UNL     1       0.603  -4.907  -5.261  1.00  0.00     0.163 HD
BRANCH  36  38
ATOM     38  C   UNL     1      -0.886  -5.729  -6.554  1.00  0.00     0.116 C 
BRANCH  38  39
ATOM     39  C   UNL     1      -2.004  -5.326  -5.596  1.00  0.00     0.023 C 
BRANCH  39  40
ATOM     40  C   UNL     1      -1.839  -3.904  -5.072  1.00  0.00     0.026 C 
BRANCH  40  41
ATOM     41  C   UNL     1      -2.560  -2.905  -5.976  1.00  0.00     0.146 C 
BRANCH  41  42
ATOM     42  N   UNL     1      -1.643  -2.411  -6.995  1.00  0.00    -0.254 NA
ATOM     43  C   UNL     1      -2.062  -2.233  -8.191  1.00  0.00     0.185 C 
ATOM     44  N   UNL     1      -3.284  -2.430  -8.719  1.00  0.00    -0.370 N 
ATOM     45  N   UNL     1      -1.199  -1.781  -9.116  1.00  0.00    -0.370 N 
ATOM     46  H   UNL     1      -3.409  -2.484  -9.715  1.00  0.00     0.159 HD
ATOM     47  H   UNL     1      -4.061  -2.758  -8.154  1.00  0.00     0.159 HD
ATOM     48  H   UNL     1      -0.257  -1.597  -8.799  1.00  0.00     0.159 HD
ATOM     49  H   UNL     1      -1.496  -1.395  -9.995  1.00  0.00     0.159 HD
ENDBRANCH  41  42
ENDBRANCH  40  41
ENDBRANCH  39  40
ENDBRANCH  38  39
ENDBRANCH  36  38
ENDBRANCH   5  34
BRANCH   8  50
ATOM     50  O   UNL     1       1.448  -0.817 -10.211  1.00  0.00    -0.245 OA
BRANCH  50  51
ATOM     51  S   UNL     1       0.808  -0.387 -11.643  1.00  0.00     0.397 S 
ATOM     52  O   UNL     1      -0.218  -1.348 -11.980  1.00  0.00    -0.169 OA
ATOM     53  O   UNL     1       1.870  -0.054 -12.570  1.00  0.00    -0.169 OA
BRANCH  51  54
ATOM     54  O   UNL     1       0.031   0.970 -11.270  1.00  0.00    -0.264 OA
ATOM     55  H   UNL     1       0.364   1.676 -11.860  1.00  0.00     0.236 HD
ENDBRANCH  51  54
ENDBRANCH  50  51
ENDBRANCH   8  50
TORSDOF 19
ENDMDL
MODEL 5
REMARK VINA RESULT:    -7.843      8.442     12.406
REMARK INTER + INTRA:         -19.520
REMARK INTER:                 -15.010
REMARK INTRA:                  -4.510
REMARK UNBOUND:                -3.652
REMARK SMILES CC[C@@H](C)[C@@H](NC(=O)[C@@H](O)Cc1ccc(O)c(Cl)c1)C(=O)N1[C@H](C(=O)NCCCCN=C(N)N)C[C@H]2CC[C@H](OS(=O)(=O)O)C[C@@H]21
REMARK SMILES IDX 22 1 36 2 46 3 35 4 23 5 45 6 37 7 39 8 38 9 20 10 21 11
REMARK SMILES IDX 5 12 6 13 7 14 8 15 9 17 11 18 12 19 17 20 19 21 15 22 14 23
REMARK SMILES IDX 13 24 18 25 16 26 10 28 3 30 4 31 2 32 1 33 24 34 25 35
REMARK SMILES IDX 26 36 27 38 28 39 29 40 30 41 31 42 32 43 33 44 34 45 40 50
REMARK SMILES IDX 41 51 42 52 43 53 44 54
REMARK H PARENT 6 16 16 27 10 29 26 37 33 46 33 47 34 48 34 49 44 55
ROOT
ATOM      1  N   UNL     1       0.350  -3.921  -9.448  1.00  0.00    -0.326 N 
ATOM      2  C   UNL     1       0.994  -4.656  -7.306  1.00  0.00     0.014 C 
ATOM      3  C   UNL     1       0.245  -3.538  -8.037  1.00  0.00     0.091 C 
ATOM      4  C   UNL     1       2.108  -5.006  -8.281  1.00  0.00     0.041 C 
ATOM      5  C   UNL     1       1.315  -5.038  -9.601  1.00  0.00     0.175 C 
ATOM      6  C   UNL     1      -1.148  -3.410  -7.424  1.00  0.00     0.059 C 
ATOM      7  C   UNL     1       1.347  -4.237  -5.893  1.00  0.00     0.008 C 
ATOM      8  C   UNL     1      -1.199  -3.753  -5.919  1.00  0.00     0.143 C 
ATOM      9  C   UNL     1       0.157  -3.516  -5.225  1.00  0.00     0.034 C 
ENDROOT
BRANCH   1  10
ATOM     10  C   UNL     1      -0.123  -3.279 -10.580  1.00  0.00     0.246 C 
ATOM     11  O   UNL     1      -1.341  -3.230 -10.778  1.00  0.00    -0.272 OA
BRANCH  10  12
ATOM     12  C   UNL     1       0.883  -2.599 -11.553  1.00  0.00     0.174 C 
BRANCH  12  13
ATOM     13  N   UNL     1       2.015  -2.056 -10.802  1.00  0.00    -0.342 N 
ATOM     14  C   UNL     1       3.332  -2.406 -10.994  1.00  0.00     0.249 C 
ATOM     15  O   UNL     1       3.709  -3.201 -11.847  1.00  0.00    -0.272 OA
ATOM     16  H   UNL     1       1.845  -1.508  -9.962  1.00  0.00     0.164 HD
BRANCH  14  17
ATOM     17  C   UNL     1       4.290  -1.672 -10.032  1.00  0.00     0.207 C 
BRANCH  17  18
ATOM     18  C   UNL     1       3.499  -0.812  -9.041  1.00  0.00     0.077 C 
BRANCH  18  19
ATOM     19  C   UNL     1       3.695  -1.275  -7.615  1.00  0.00    -0.043 A 
ATOM     20  C   UNL     1       4.698  -2.801  -6.018  1.00  0.00     0.083 A 
ATOM     21  C   UNL     1       4.557  -2.345  -7.329  1.00  0.00     0.028 A 
ATOM     22  C   UNL     1       3.979  -2.195  -4.987  1.00  0.00     0.134 A 
ATOM     23  C   UNL     1       3.121  -1.134  -5.256  1.00  0.00     0.048 A 
ATOM     24  C   UNL     1       2.977  -0.676  -6.568  1.00  0.00     0.008 A 
ATOM     25  Cl  UNL     1       5.762  -4.117  -5.687  1.00  0.00    -0.080 Cl
BRANCH  22  26
ATOM     26  O   UNL     1       4.076  -2.614  -3.688  1.00  0.00    -0.506 OA
ATOM     27  H   UNL     1       5.021  -2.577  -3.451  1.00  0.00     0.293 HD
ENDBRANCH  22  26
ENDBRANCH  18  19
ENDBRANCH  17  18
BRANCH  17  28
ATOM     28  O   UNL     1       5.212  -0.841 -10.755  1.00  0.00    -0.383 OA
ATOM     29  H   UNL     1       6.050  -0.850 -10.238  1.00  0.00     0.211 HD
ENDBRANCH  17  28
ENDBRANCH  14  17
ENDBRANCH  12  13
BRANCH  12  30
ATOM     30  C   UNL     1       0.212  -1.535 -12.463  1.00  0.00     0.018 C 
ATOM     31  C   UNL     1      -0.040  -2.101 -13.870  1.00  0.00     0.010 C 
BRANCH  30  32
ATOM     32  C   UNL     1       1.004  -0.209 -12.557  1.00  0.00     0.002 C 
ATOM     33  C   UNL     1       1.948  -0.097 -13.747  1.00  0.00     0.004 C 
ENDBRANCH  30  32
ENDBRANCH  12  30
ENDBRANCH  10  12
ENDBRANCH   1  10
BRANCH   5  34
ATOM     34  C   UNL     1       0.570  -6.387  -9.787  1.00  0.00     0.242 C 
ATOM     35  O   UNL     1      -0.657  -6.459  -9.838  1.00  0.00    -0.273 OA
ATOM     36  N   UNL     1       1.379  -7.501  -9.836  1.00  0.00    -0.354 N 
ATOM     37  H   UNL     1       2.380  -7.389  -9.668  1.00  0.00     0.163 HD
BRANCH  36  38
ATOM     38  C   UNL     1       0.877  -8.804 -10.219  1.00  0.00     0.116 C 
BRANCH  38  39
ATOM     39  C   UNL     1       0.208  -9.474  -9.021  1.00  0.00     0.023 C 
BRANCH  39  40
ATOM     40  C   UNL     1       1.192  -9.771  -7.894  1.00  0.00     0.026 C 
BRANCH  40  41
ATOM     41  C   UNL     1       0.449 -10.101  -6.599  1.00  0.00     0.146 C 
BRANCH  41  42
ATOM     42  N   UNL     1      -0.988  -9.996  -6.815  1.00  0.00    -0.254 NA
ATOM     43  C   UNL     1      -1.739  -9.556  -5.877  1.00  0.00     0.185 C 
ATOM     44  N   UNL     1      -1.421  -9.141  -4.637  1.00  0.00    -0.370 N 
ATOM     45  N   UNL     1      -3.062  -9.472  -6.094  1.00  0.00    -0.370 N 
ATOM     46  H   UNL     1      -2.129  -9.055  -3.928  1.00  0.00     0.159 HD
ATOM     47  H   UNL     1      -0.460  -9.126  -4.310  1.00  0.00     0.159 HD
ATOM     48  H   UNL     1      -3.385  -9.758  -7.008  1.00  0.00     0.159 HD
ATOM     49  H   UNL     1      -3.675  -8.928  -5.514  1.00  0.00     0.159 HD
ENDBRANCH  41  42
ENDBRANCH  40  41
ENDBRANCH  39  40
ENDBRANCH  38  39
ENDBRANCH  36  38
ENDBRANCH   5  34
BRANCH   8  50
ATOM     50  O   UNL     1      -1.567  -5.121  -5.741  1.00  0.00    -0.245 OA
BRANCH  50  51
ATOM     51  S   UNL     1      -2.417  -5.559  -4.425  1.00  0.00     0.397 S 
ATOM     52  O   UNL     1      -3.290  -6.648  -4.799  1.00  0.00    -0.169 OA
ATOM     53  O   UNL     1      -2.920  -4.377  -3.756  1.00  0.00    -0.169 OA
BRANCH  51  54
ATOM     54  O   UNL     1      -1.279  -6.209  -3.493  1.00  0.00    -0.264 OA
ATOM     55  H   UNL     1      -0.457  -5.693  -3.621  1.00  0.00     0.236 HD
ENDBRANCH  51  54
ENDBRANCH  50  51
ENDBRANCH   8  50
TORSDOF 19
ENDMDL
MODEL 6
REMARK VINA RESULT:    -7.762      8.608     11.990
REMARK INTER + INTRA:         -19.355
REMARK INTER:                 -15.191
REMARK INTRA:                  -4.164
REMARK UNBOUND:                -3.652
REMARK SMILES CC[C@@H](C)[C@@H](NC(=O)[C@@H](O)Cc1ccc(O)c(Cl)c1)C(=O)N1[C@H](C(=O)NCCCCN=C(N)N)C[C@H]2CC[C@H](OS(=O)(=O)O)C[C@@H]21
REMARK SMILES IDX 22 1 36 2 46 3 35 4 23 5 45 6 37 7 39 8 38 9 20 10 21 11
REMARK SMILES IDX 5 12 6 13 7 14 8 15 9 17 11 18 12 19 17 20 19 21 15 22 14 23
REMARK SMILES IDX 13 24 18 25 16 26 10 28 3 30 4 31 2 32 1 33 24 34 25 35
REMARK SMILES IDX 26 36 27 38 28 39 29 40 30 41 31 42 32 43 33 44 34 45 40 50
REMARK SMILES IDX 41 51 42 52 43 53 44 54
REMARK H PARENT 6 16 16 27 10 29 26 37 33 46 33 47 34 48 34 49 44 55
ROOT
ATOM      1  N   UNL     1       1.427  -7.023  -8.609  1.00  0.00    -0.326 N 
ATOM      2  C   UNL     1       0.871  -5.055  -9.776  1.00  0.00     0.014 C 
ATOM      3  C   UNL     1       0.296  -6.392  -9.296  1.00  0.00     0.091 C 
ATOM      4  C   UNL     1       2.313  -5.410 -10.105  1.00  0.00     0.041 C 
ATOM      5  C   UNL     1       2.672  -6.261  -8.874  1.00  0.00     0.175 C 
ATOM      6  C   UNL     1      -0.974  -6.112  -8.495  1.00  0.00     0.059 C 
ATOM      7  C   UNL     1      -0.008  -4.442 -10.848  1.00  0.00     0.008 C 
ATOM      8  C   UNL     1      -1.752  -4.869  -8.979  1.00  0.00     0.143 C 
ATOM      9  C   UNL     1      -1.499  -4.571 -10.470  1.00  0.00     0.034 C 
ENDROOT
BRANCH   1  10
ATOM     10  C   UNL     1       1.510  -8.257  -7.986  1.00  0.00     0.246 C 
ATOM     11  O   UNL     1       1.625  -8.303  -6.757  1.00  0.00    -0.272 OA
BRANCH  10  12
ATOM     12  C   UNL     1       1.414  -9.555  -8.839  1.00  0.00     0.174 C 
BRANCH  12  13
ATOM     13  N   UNL     1       0.316 -10.390  -8.354  1.00  0.00    -0.342 N 
ATOM     14  C   UNL     1      -0.619 -11.009  -9.154  1.00  0.00     0.249 C 
ATOM     15  O   UNL     1      -0.617 -10.949 -10.377  1.00  0.00    -0.272 OA
ATOM     16  H   UNL     1       0.094 -10.404  -7.362  1.00  0.00     0.164 HD
BRANCH  14  17
ATOM     17  C   UNL     1      -1.662 -11.806  -8.343  1.00  0.00     0.207 C 
BRANCH  17  18
ATOM     18  C   UNL     1      -1.337 -11.747  -6.847  1.00  0.00     0.077 C 
BRANCH  18  19
ATOM     19  C   UNL     1      -2.331 -10.898  -6.088  1.00  0.00    -0.043 A 
ATOM     20  C   UNL     1      -3.212  -8.718  -5.493  1.00  0.00     0.083 A 
ATOM     21  C   UNL     1      -2.326  -9.502  -6.232  1.00  0.00     0.028 A 
ATOM     22  C   UNL     1      -4.106  -9.321  -4.607  1.00  0.00     0.134 A 
ATOM     23  C   UNL     1      -4.123 -10.702  -4.455  1.00  0.00     0.048 A 
ATOM     24  C   UNL     1      -3.235 -11.490  -5.192  1.00  0.00     0.008 A 
ATOM     25  Cl  UNL     1      -3.190  -7.004  -5.683  1.00  0.00    -0.080 Cl
BRANCH  22  26
ATOM     26  O   UNL     1      -4.987  -8.593  -3.854  1.00  0.00    -0.506 OA
ATOM     27  H   UNL     1      -5.697  -9.204  -3.584  1.00  0.00     0.293 HD
ENDBRANCH  22  26
ENDBRANCH  18  19
ENDBRANCH  17  18
BRANCH  17  28
ATOM     28  O   UNL     1      -1.708 -13.178  -8.767  1.00  0.00    -0.383 OA
ATOM     29  H   UNL     1      -1.013 -13.646  -8.251  1.00  0.00     0.211 HD
ENDBRANCH  17  28
ENDBRANCH  14  17
ENDBRANCH  12  13
BRANCH  12  30
ATOM     30  C   UNL     1       2.759 -10.327  -8.910  1.00  0.00     0.018 C 
ATOM     31  C   UNL     1       2.986 -10.900 -10.318  1.00  0.00     0.010 C 
BRANCH  30  32
ATOM     32  C   UNL     1       2.888 -11.449  -7.852  1.00  0.00     0.002 C 
ATOM     33  C   UNL     1       3.353 -12.798  -8.385  1.00  0.00     0.004 C 
ENDBRANCH  30  32
ENDBRANCH  12  30
ENDBRANCH  10  12
ENDBRANCH   1  10
BRANCH   5  34
ATOM     34  C   UNL     1       3.046  -5.376  -7.655  1.00  0.00     0.242 C 
ATOM     35  O   UNL     1       2.196  -4.899  -6.903  1.00  0.00    -0.273 OA
ATOM     36  N   UNL     1       4.390  -5.118  -7.509  1.00  0.00    -0.354 N 
ATOM     37  H   UNL     1       5.034  -5.442  -8.232  1.00  0.00     0.163 HD
BRANCH  36  38
ATOM     38  C   UNL     1       4.933  -4.497  -6.318  1.00  0.00     0.116 C 
BRANCH  38  39
ATOM     39  C   UNL     1       5.321  -3.051  -6.619  1.00  0.00     0.023 C 
BRANCH  39  40
ATOM     40  C   UNL     1       4.404  -2.047  -5.929  1.00  0.00     0.026 C 
BRANCH  40  41
ATOM     41  C   UNL     1       3.657  -1.199  -6.958  1.00  0.00     0.146 C 
BRANCH  41  42
ATOM     42  N   UNL     1       2.405  -0.720  -6.387  1.00  0.00    -0.254 NA
ATOM     43  C   UNL     1       1.294  -1.193  -6.811  1.00  0.00     0.185 C 
ATOM     44  N   UNL     1       1.052  -2.120  -7.756  1.00  0.00    -0.370 N 
ATOM     45  N   UNL     1       0.151  -0.736  -6.275  1.00  0.00    -0.370 N 
ATOM     46  H   UNL     1       0.135  -2.217  -8.157  1.00  0.00     0.159 HD
ATOM     47  H   UNL     1       1.806  -2.581  -8.255  1.00  0.00     0.159 HD
ATOM     48  H   UNL     1       0.244  -0.040  -5.547  1.00  0.00     0.159 HD
ATOM     49  H   UNL     1      -0.727  -1.213  -6.376  1.00  0.00     0.159 HD
ENDBRANCH  41  42
ENDBRANCH  40  41
ENDBRANCH  39  40
ENDBRANCH  38  39
ENDBRANCH  36  38
ENDBRANCH   5  34
BRANCH   8  50
ATOM     50  O   UNL     1      -1.370  -3.724  -8.216  1.00  0.00    -0.245 OA
BRANCH  50  51
ATOM     51  S   UNL     1      -2.506  -2.660  -7.742  1.00  0.00     0.397 S 
ATOM     52  O   UNL     1      -2.282  -2.362  -6.345  1.00  0.00    -0.169 OA
ATOM     53  O   UNL     1      -3.802  -3.082  -8.230  1.00  0.00    -0.169 OA
BRANCH  51  54
ATOM     54  O   UNL     1      -2.080  -1.334  -8.546  1.00  0.00    -0.264 OA
ATOM     55  H   UNL     1      -1.188  -1.486  -8.920  1.00  0.00     0.236 HD
ENDBRANCH  51  54
ENDBRANCH  50  51
ENDBRANCH   8  50
TORSDOF 19
ENDMDL
MODEL 7
REMARK VINA RESULT:    -7.732      8.572     14.187
REMARK INTER + INTRA:         -19.294
REMARK INTER:                 -16.982
REMARK INTRA:                  -2.312
REMARK UNBOUND:                -3.652
REMARK SMILES CC[C@@H](C)[C@@H](NC(=O)[C@@H](O)Cc1ccc(O)c(Cl)c1)C(=O)N1[C@H](C(=O)NCCCCN=C(N)N)C[C@H]2CC[C@H](OS(=O)(=O)O)C[C@@H]21
REMARK SMILES IDX 22 1 36 2 46 3 35 4 23 5 45 6 37 7 39 8 38 9 20 10 21 11
REMARK SMILES IDX 5 12 6 13 7 14 8 15 9 17 11 18 12 19 17 20 19 21 15 22 14 23
REMARK SMILES IDX 13 24 18 25 16 26 10 28 3 30 4 31 2 32 1 33 24 34 25 35
REMARK SMILES IDX 26 36 27 38 28 39 29 40 30 41 31 42 32 43 33 44 34 45 40 50
REMARK SMILES IDX 41 51 42 52 43 53 44 54
REMARK H PARENT 6 16 16 27 10 29 26 37 33 46 33 47 34 48 34 49 44 55
ROOT
ATOM      1  N   UNL     1       3.061  -2.255 -10.097  1.00  0.00    -0.326 N 
ATOM      2  C   UNL     1       3.577  -0.637  -8.466  1.00  0.00     0.014 C 
ATOM      3  C   UNL     1       2.607  -1.777  -8.787  1.00  0.00     0.091 C 
ATOM      4  C   UNL     1       3.848  -0.032  -9.835  1.00  0.00     0.041 C 
ATOM      5  C   UNL     1       4.059  -1.314 -10.662  1.00  0.00     0.175 C 
ATOM      6  C   UNL     1       2.611  -2.759  -7.617  1.00  0.00     0.059 C 
ATOM      7  C   UNL     1       3.031   0.244  -7.359  1.00  0.00     0.008 C 
ATOM      8  C   UNL     1       2.864  -2.092  -6.247  1.00  0.00     0.143 C 
ATOM      9  C   UNL     1       2.421  -0.615  -6.232  1.00  0.00     0.034 C 
ENDROOT
BRANCH   1  10
ATOM     10  C   UNL     1       2.553  -3.262 -10.899  1.00  0.00     0.246 C 
ATOM     11  O   UNL     1       3.236  -4.272 -11.101  1.00  0.00    -0.272 OA
BRANCH  10  12
ATOM     12  C   UNL     1       1.121  -3.122 -11.493  1.00  0.00     0.174 C 
BRANCH  12  13
ATOM     13  N   UNL     1       0.199  -4.012 -10.787  1.00  0.00    -0.342 N 
ATOM     14  C   UNL     1      -0.840  -3.598  -9.984  1.00  0.00     0.249 C 
ATOM     15  O   UNL     1      -1.127  -2.423  -9.792  1.00  0.00    -0.272 OA
ATOM     16  H   UNL     1       0.407  -5.005 -10.726  1.00  0.00     0.164 HD
BRANCH  14  17
ATOM     17  C   UNL     1      -1.621  -4.777  -9.366  1.00  0.00     0.207 C 
BRANCH  17  18
ATOM     18  C   UNL     1      -1.137  -5.050  -7.939  1.00  0.00     0.077 C 
BRANCH  18  19
ATOM     19  C   UNL     1      -2.194  -4.710  -6.912  1.00  0.00    -0.043 A 
ATOM     20  C   UNL     1      -3.206  -5.071  -4.737  1.00  0.00     0.083 A 
ATOM     21  C   UNL     1      -2.200  -5.351  -5.663  1.00  0.00     0.028 A 
ATOM     22  C   UNL     1      -4.209  -4.154  -5.052  1.00  0.00     0.134 A 
ATOM     23  C   UNL     1      -4.215  -3.512  -6.285  1.00  0.00     0.048 A 
ATOM     24  C   UNL     1      -3.211  -3.792  -7.215  1.00  0.00     0.008 A 
ATOM     25  Cl  UNL     1      -3.197  -5.869  -3.208  1.00  0.00    -0.080 Cl
BRANCH  22  26
ATOM     26  O   UNL     1      -5.222  -3.855  -4.180  1.00  0.00    -0.506 OA
ATOM     27  H   UNL     1      -4.938  -4.170  -3.302  1.00  0.00     0.293 HD
ENDBRANCH  22  26
ENDBRANCH  18  19
ENDBRANCH  17  18
BRANCH  17  28
ATOM     28  O   UNL     1      -1.471  -5.967 -10.156  1.00  0.00    -0.383 OA
ATOM     29  H   UNL     1      -0.623  -5.865 -10.644  1.00  0.00     0.211 HD
ENDBRANCH  17  28
ENDBRANCH  14  17
ENDBRANCH  12  13
BRANCH  12  30
ATOM     30  C   UNL     1       1.086  -3.331 -13.031  1.00  0.00     0.018 C 
ATOM     31  C   UNL     1       2.224  -2.555 -13.713  1.00  0.00     0.010 C 
BRANCH  30  32
ATOM     32  C   UNL     1      -0.271  -2.962 -13.677  1.00  0.00     0.002 C 
ATOM     33  C   UNL     1      -0.360  -1.553 -14.247  1.00  0.00     0.004 C 
ENDBRANCH  30  32
ENDBRANCH  12  30
ENDBRANCH  10  12
ENDBRANCH   1  10
BRANCH   5  34
ATOM     34  C   UNL     1       5.497  -1.872 -10.495  1.00  0.00     0.242 C 
ATOM     35  O   UNL     1       5.719  -2.999 -10.052  1.00  0.00    -0.273 OA
ATOM     36  N   UNL     1       6.507  -0.997 -10.827  1.00  0.00    -0.354 N 
ATOM     37  H   UNL     1       6.264  -0.036 -11.073  1.00  0.00     0.163 HD
BRANCH  36  38
ATOM     38  C   UNL     1       7.889  -1.416 -10.937  1.00  0.00     0.116 C 
BRANCH  38  39
ATOM     39  C   UNL     1       8.785  -0.464 -10.149  1.00  0.00     0.023 C 
BRANCH  39  40
ATOM     40  C   UNL     1       7.990   0.615  -9.421  1.00  0.00     0.026 C 
BRANCH  40  41
ATOM     41  C   UNL     1       8.097   1.953 -10.153  1.00  0.00     0.146 C 
BRANCH  41  42
ATOM     42  N   UNL     1       9.381   2.575  -9.856  1.00  0.00    -0.254 NA
ATOM     43  C   UNL     1       9.706   3.667 -10.440  1.00  0.00     0.185 C 
ATOM     44  N   UNL     1       9.029   4.400 -11.343  1.00  0.00    -0.370 N 
ATOM     45  N   UNL     1      10.895   4.222 -10.156  1.00  0.00    -0.370 N 
ATOM     46  H   UNL     1       9.500   5.095 -11.897  1.00  0.00     0.159 HD
ATOM     47  H   UNL     1       8.103   4.131 -11.662  1.00  0.00     0.159 HD
ATOM     48  H   UNL     1      11.465   3.737  -9.476  1.00  0.00     0.159 HD
ATOM     49  H   UNL     1      11.119   5.175 -10.381  1.00  0.00     0.159 HD
ENDBRANCH  41  42
ENDBRANCH  40  41
ENDBRANCH  39  40
ENDBRANCH  38  39
ENDBRANCH  36  38
ENDBRANCH   5  34
BRANCH   8  50
ATOM     50  O   UNL     1       4.252  -2.152  -5.922  1.00  0.00    -0.245 OA
BRANCH  50  51
ATOM     51  S   UNL     1       4.727  -2.911  -4.564  1.00  0.00     0.397 S 
ATOM     52  O   UNL     1       5.502  -1.978  -3.778  1.00  0.00    -0.169 OA
ATOM     53  O   UNL     1       5.230  -4.229  -4.893  1.00  0.00    -0.169 OA
BRANCH  51  54
ATOM     54  O   UNL     1       3.335  -3.094  -3.778  1.00  0.00    -0.264 OA
ATOM     55  H   UNL     1       3.173  -2.277  -3.264  1.00  0.00     0.236 HD
ENDBRANCH  51  54
ENDBRANCH  50  51
ENDBRANCH   8  50
TORSDOF 19
ENDMDL
MODEL 8
REMARK VINA RESULT:    -7.714      8.132     11.504
REMARK INTER + INTRA:         -19.257
REMARK INTER:                 -15.019
REMARK INTRA:                  -4.238
REMARK UNBOUND:                -3.652
REMARK SMILES CC[C@@H](C)[C@@H](NC(=O)[C@@H](O)Cc1ccc(O)c(Cl)c1)C(=O)N1[C@H](C(=O)NCCCCN=C(N)N)C[C@H]2CC[C@H](OS(=O)(=O)O)C[C@@H]21
REMARK SMILES IDX 22 1 36 2 46 3 35 4 23 5 45 6 37 7 39 8 38 9 20 10 21 11
REMARK SMILES IDX 5 12 6 13 7 14 8 15 9 17 11 18 12 19 17 20 19 21 15 22 14 23
REMARK SMILES IDX 13 24 18 25 16 26 10 28 3 30 4 31 2 32 1 33 24 34 25 35
REMARK SMILES IDX 26 36 27 38 28 39 29 40 30 41 31 42 32 43 33 44 34 45 40 50
REMARK SMILES IDX 41 51 42 52 43 53 44 54
REMARK H PARENT 6 16 16 27 10 29 26 37 33 46 33 47 34 48 34 49 44 55
ROOT
ATOM      1  N   UNL     1      -1.140  -3.730  -9.645  1.00  0.00    -0.326 N 
ATOM      2  C   UNL     1      -2.141  -3.355  -7.547  1.00  0.00     0.014 C 
ATOM      3  C   UNL     1      -2.007  -4.393  -8.666  1.00  0.00     0.091 C 
ATOM      4  C   UNL     1      -2.130  -2.039  -8.308  1.00  0.00     0.041 C 
ATOM      5  C   UNL     1      -0.971  -2.300  -9.288  1.00  0.00     0.175 C 
ATOM      6  C   UNL     1      -1.532  -5.708  -8.050  1.00  0.00     0.059 C 
ATOM      7  C   UNL     1      -3.313  -3.682  -6.643  1.00  0.00     0.008 C 
ATOM      8  C   UNL     1      -2.032  -5.935  -6.607  1.00  0.00     0.143 C 
ATOM      9  C   UNL     1      -3.354  -5.192  -6.329  1.00  0.00     0.034 C 
ENDROOT
BRANCH   1  10
ATOM     10  C   UNL     1      -0.685  -4.177 -10.874  1.00  0.00     0.246 C 
ATOM     11  O   UNL     1      -1.494  -4.322 -11.797  1.00  0.00    -0.272 OA
BRANCH  10  12
ATOM     12  C   UNL     1       0.834  -4.446 -11.078  1.00  0.00     0.174 C 
BRANCH  12  13
ATOM     13  N   UNL     1       1.503  -4.535  -9.781  1.00  0.00    -0.342 N 
ATOM     14  C   UNL     1       2.000  -5.693  -9.226  1.00  0.00     0.249 C 
ATOM     15  O   UNL     1       1.959  -6.786  -9.777  1.00  0.00    -0.272 OA
ATOM     16  H   UNL     1       1.472  -3.744  -9.142  1.00  0.00     0.164 HD
BRANCH  14  17
ATOM     17  C   UNL     1       2.635  -5.463  -7.838  1.00  0.00     0.207 C 
BRANCH  17  18
ATOM     18  C   UNL     1       3.593  -6.607  -7.491  1.00  0.00     0.077 C 
BRANCH  18  19
ATOM     19  C   UNL     1       4.926  -6.093  -6.995  1.00  0.00    -0.043 A 
ATOM     20  C   UNL     1       6.363  -4.244  -6.363  1.00  0.00     0.083 A 
ATOM     21  C   UNL     1       5.117  -4.720  -6.774  1.00  0.00     0.028 A 
ATOM     22  C   UNL     1       7.422  -5.131  -6.173  1.00  0.00     0.134 A 
ATOM     23  C   UNL     1       7.247  -6.493  -6.388  1.00  0.00     0.048 A 
ATOM     24  C   UNL     1       6.002  -6.973  -6.801  1.00  0.00     0.008 A 
ATOM     25  Cl  UNL     1       6.579  -2.553  -6.097  1.00  0.00    -0.080 Cl
BRANCH  22  26
ATOM     26  O   UNL     1       8.664  -4.710  -5.781  1.00  0.00    -0.506 OA
ATOM     27  H   UNL     1       8.611  -4.535  -4.823  1.00  0.00     0.293 HD
ENDBRANCH  22  26
ENDBRANCH  18  19
ENDBRANCH  17  18
BRANCH  17  28
ATOM     28  O   UNL     1       1.628  -5.361  -6.819  1.00  0.00    -0.383 OA
ATOM     29  H   UNL     1       2.099  -5.454  -5.960  1.00  0.00     0.211 HD
ENDBRANCH  17  28
ENDBRANCH  14  17
ENDBRANCH  12  13
BRANCH  12  30
ATOM     30  C   UNL     1       1.504  -3.411 -12.021  1.00  0.00     0.018 C 
ATOM     31  C   UNL     1       0.460  -2.445 -12.603  1.00  0.00     0.010 C 
BRANCH  30  32
ATOM     32  C   UNL     1       2.329  -4.054 -13.163  1.00  0.00     0.002 C 
ATOM     33  C   UNL     1       3.575  -4.809 -12.721  1.00  0.00     0.004 C 
ENDBRANCH  30  32
ENDBRANCH  12  30
ENDBRANCH  10  12
ENDBRANCH   1  10
BRANCH   5  34
ATOM     34  C   UNL     1       0.409  -2.059  -8.619  1.00  0.00     0.242 C 
ATOM     35  O   UNL     1       0.737  -2.614  -7.571  1.00  0.00    -0.273 OA
ATOM     36  N   UNL     1       1.214  -1.140  -9.253  1.00  0.00    -0.354 N 
ATOM     37  H   UNL     1       0.839  -0.625 -10.051  1.00  0.00     0.163 HD
BRANCH  36  38
ATOM     38  C   UNL     1       2.605  -0.954  -8.895  1.00  0.00     0.116 C 
BRANCH  38  39
ATOM     39  C   UNL     1       2.718   0.077  -7.774  1.00  0.00     0.023 C 
BRANCH  39  40
ATOM     40  C   UNL     1       3.300  -0.514  -6.495  1.00  0.00     0.026 C 
BRANCH  40  41
ATOM     41  C   UNL     1       2.236  -0.592  -5.401  1.00  0.00     0.146 C 
BRANCH  41  42
ATOM     42  N   UNL     1       2.676  -1.500  -4.349  1.00  0.00    -0.254 NA
ATOM     43  C   UNL     1       2.019  -2.575  -4.124  1.00  0.00     0.185 C 
ATOM     44  N   UNL     1       0.916  -3.056  -4.726  1.00  0.00    -0.370 N 
ATOM     45  N   UNL     1       2.439  -3.396  -3.148  1.00  0.00    -0.370 N 
ATOM     46  H   UNL     1       0.369  -3.780  -4.291  1.00  0.00     0.159 HD
ATOM     47  H   UNL     1       0.472  -2.567  -5.497  1.00  0.00     0.159 HD
ATOM     48  H   UNL     1       3.271  -3.111  -2.649  1.00  0.00     0.159 HD
ATOM     49  H   UNL     1       2.131  -4.349  -3.068  1.00  0.00     0.159 HD
ENDBRANCH  41  42
ENDBRANCH  40  41
ENDBRANCH  39  40
ENDBRANCH  38  39
ENDBRANCH  36  38
ENDBRANCH   5  34
BRANCH   8  50
ATOM     50  O   UNL     1      -1.052  -5.483  -5.672  1.00  0.00    -0.245 OA
BRANCH  50  51
ATOM     51  S   UNL     1      -0.811  -6.317  -4.296  1.00  0.00     0.397 S 
ATOM     52  O   UNL     1      -0.457  -7.672  -4.652  1.00  0.00    -0.169 OA
ATOM     53  O   UNL     1      -1.879  -6.031  -3.361  1.00  0.00    -0.169 OA
BRANCH  51  54
ATOM     54  O   UNL     1       0.536  -5.646  -3.730  1.00  0.00    -0.264 OA
ATOM     55  H   UNL     1       0.821  -4.962  -4.370  1.00  0.00     0.236 HD
ENDBRANCH  51  54
ENDBRANCH  50  51
ENDBRANCH   8  50
TORSDOF 19
ENDMDL
MODEL 9
REMARK VINA RESULT:    -7.469      8.709     12.122
REMARK INTER + INTRA:         -18.763
REMARK INTER:                 -15.027
REMARK INTRA:                  -3.736
REMARK UNBOUND:                -3.652
REMARK SMILES CC[C@@H](C)[C@@H](NC(=O)[C@@H](O)Cc1ccc(O)c(Cl)c1)C(=O)N1[C@H](C(=O)NCCCCN=C(N)N)C[C@H]2CC[C@H](OS(=O)(=O)O)C[C@@H]21
REMARK SMILES IDX 22 1 36 2 46 3 35 4 23 5 45 6 37 7 39 8 38 9 20 10 21 11
REMARK SMILES IDX 5 12 6 13 7 14 8 15 9 17 11 18 12 19 17 20 19 21 15 22 14 23
REMARK SMILES IDX 13 24 18 25 16 26 10 28 3 30 4 31 2 32 1 33 24 34 25 35
REMARK SMILES IDX 26 36 27 38 28 39 29 40 30 41 31 42 32 43 33 44 34 45 40 50
REMARK SMILES IDX 41 51 42 52 43 53 44 54
REMARK H PARENT 6 16 16 27 10 29 26 37 33 46 33 47 34 48 34 49 44 55
ROOT
ATOM      1  N   UNL     1      -0.549  -5.134  -8.120  1.00  0.00    -0.326 N 
ATOM      2  C   UNL     1       0.195  -6.144  -6.127  1.00  0.00     0.014 C 
ATOM      3  C   UNL     1      -1.024  -5.483  -6.778  1.00  0.00     0.091 C 
ATOM      4  C   UNL     1       1.357  -5.366  -6.727  1.00  0.00     0.041 C 
ATOM      5  C   UNL     1       0.921  -5.319  -8.203  1.00  0.00     0.175 C 
ATOM      6  C   UNL     1      -2.212  -6.434  -6.654  1.00  0.00     0.059 C 
ATOM      7  C   UNL     1       0.040  -6.204  -4.621  1.00  0.00     0.008 C 
ATOM      8  C   UNL     1      -2.179  -7.308  -5.381  1.00  0.00     0.143 C 
ATOM      9  C   UNL     1      -1.391  -6.637  -4.238  1.00  0.00     0.034 C 
ENDROOT
BRANCH   1  10
ATOM     10  C   UNL     1      -1.208  -4.496  -9.157  1.00  0.00     0.246 C 
ATOM     11  O   UNL     1      -1.831  -5.174  -9.981  1.00  0.00    -0.272 OA
BRANCH  10  12
ATOM     12  C   UNL     1      -1.187  -2.942  -9.237  1.00  0.00     0.174 C 
BRANCH  12  13
ATOM     13  N   UNL     1       0.193  -2.459  -9.191  1.00  0.00    -0.342 N 
ATOM     14  C   UNL     1       0.744  -1.556 -10.073  1.00  0.00     0.249 C 
ATOM     15  O   UNL     1       0.122  -1.030 -10.988  1.00  0.00    -0.272 OA
ATOM     16  H   UNL     1       0.868  -2.921  -8.588  1.00  0.00     0.164 HD
BRANCH  14  17
ATOM     17  C   UNL     1       2.228  -1.259  -9.771  1.00  0.00     0.207 C 
BRANCH  17  18
ATOM     18  C   UNL     1       2.351  -0.265  -8.612  1.00  0.00     0.077 C 
BRANCH  18  19
ATOM     19  C   UNL     1       2.725  -0.954  -7.319  1.00  0.00    -0.043 A 
ATOM     20  C   UNL     1       3.977  -2.657  -6.129  1.00  0.00     0.083 A 
ATOM     21  C   UNL     1       3.671  -1.991  -7.316  1.00  0.00     0.028 A 
ATOM     22  C   UNL     1       3.342  -2.294  -4.941  1.00  0.00     0.134 A 
ATOM     23  C   UNL     1       2.403  -1.268  -4.929  1.00  0.00     0.048 A 
ATOM     24  C   UNL     1       2.093  -0.601  -6.116  1.00  0.00     0.008 A 
ATOM     25  Cl  UNL     1       5.141  -3.929  -6.146  1.00  0.00    -0.080 Cl
BRANCH  22  26
ATOM     26  O   UNL     1       3.601  -2.925  -3.754  1.00  0.00    -0.506 OA
ATOM     27  H   UNL     1       4.515  -3.262  -3.810  1.00  0.00     0.293 HD
ENDBRANCH  22  26
ENDBRANCH  18  19
ENDBRANCH  17  18
BRANCH  17  28
ATOM     28  O   UNL     1       2.895  -0.728 -10.928  1.00  0.00    -0.383 OA
ATOM     29  H   UNL     1       3.321   0.110 -10.635  1.00  0.00     0.211 HD
ENDBRANCH  17  28
ENDBRANCH  14  17
ENDBRANCH  12  13
BRANCH  12  30
ATOM     30  C   UNL     1      -2.085  -2.273  -8.162  1.00  0.00     0.018 C 
ATOM     31  C   UNL     1      -1.320  -2.104  -6.840  1.00  0.00     0.010 C 
BRANCH  30  32
ATOM     32  C   UNL     1      -3.418  -3.020  -7.914  1.00  0.00     0.002 C 
ATOM     33  C   UNL     1      -3.830  -3.148  -6.453  1.00  0.00     0.004 C 
ENDBRANCH  30  32
ENDBRANCH  12  30
ENDBRANCH  10  12
ENDBRANCH   1  10
BRANCH   5  34
ATOM     34  C   UNL     1       1.269  -6.638  -8.944  1.00  0.00     0.242 C 
ATOM     35  O   UNL     1       0.424  -7.290  -9.558  1.00  0.00    -0.273 OA
ATOM     36  N   UNL     1       2.576  -7.053  -8.820  1.00  0.00    -0.354 N 
ATOM     37  H   UNL     1       3.199  -6.534  -8.199  1.00  0.00     0.163 HD
BRANCH  36  38
ATOM     38  C   UNL     1       3.123  -8.133  -9.614  1.00  0.00     0.116 C 
BRANCH  38  39
ATOM     39  C   UNL     1       3.407  -9.339  -8.723  1.00  0.00     0.023 C 
BRANCH  39  40
ATOM     40  C   UNL     1       2.132 -10.044  -8.271  1.00  0.00     0.026 C 
BRANCH  40  41
ATOM     41  C   UNL     1       1.819 -11.232  -9.180  1.00  0.00     0.146 C 
BRANCH  41  42
ATOM     42  N   UNL     1       0.879 -10.826 -10.217  1.00  0.00    -0.254 NA
ATOM     43  C   UNL     1      -0.370 -11.056 -10.064  1.00  0.00     0.185 C 
ATOM     44  N   UNL     1      -1.023 -11.648  -9.047  1.00  0.00    -0.370 N 
ATOM     45  N   UNL     1      -1.220 -10.678 -11.033  1.00  0.00    -0.370 N 
ATOM     46  H   UNL     1      -1.965 -11.981  -9.166  1.00  0.00     0.159 HD
ATOM     47  H   UNL     1      -0.534 -11.984  -8.223  1.00  0.00     0.159 HD
ATOM     48  H   UNL     1      -0.810 -10.215 -11.833  1.00  0.00     0.159 HD
ATOM     49  H   UNL     1      -2.211 -10.606 -10.890  1.00  0.00     0.159 HD
ENDBRANCH  41  42
ENDBRANCH  40  41
ENDBRANCH  39  40
ENDBRANCH  38  39
ENDBRANCH  36  38
ENDBRANCH   5  34
BRANCH   8  50
ATOM     50  O   UNL     1      -1.574  -8.569  -5.669  1.00  0.00    -0.245 OA
BRANCH  50  51
ATOM     51  S   UNL     1      -2.415  -9.939  -5.414  1.00  0.00     0.397 S 
ATOM     52  O   UNL     1      -2.674 -10.046  -3.996  1.00  0.00    -0.169 OA
ATOM     53  O   UNL     1      -1.813 -11.024  -6.161  1.00  0.00    -0.169 OA
BRANCH  51  54
ATOM     54  O   UNL     1      -3.831  -9.595  -6.094  1.00  0.00    -0.264 OA
ATOM     55  H   UNL     1      -4.367  -9.108  -5.436  1.00  0.00     0.236 HD
ENDBRANCH  51  54
ENDBRANCH  50  51
ENDBRANCH   8  50
TORSDOF 19
ENDMDL
MODEL 10
REMARK VINA RESULT:    -7.399      9.585     13.044
REMARK INTER + INTRA:         -18.621
REMARK INTER:                 -14.920
REMARK INTRA:                  -3.701
REMARK UNBOUND:                -3.652
REMARK SMILES CC[C@@H](C)[C@@H](NC(=O)[C@@H](O)Cc1ccc(O)c(Cl)c1)C(=O)N1[C@H](C(=O)NCCCCN=C(N)N)C[C@H]2CC[C@H](OS(=O)(=O)O)C[C@@H]21
REMARK SMILES IDX 22 1 36 2 46 3 35 4 23 5 45 6 37 7 39 8 38 9 20 10 21 11
REMARK SMILES IDX 5 12 6 13 7 14 8 15 9 17 11 18 12 19 17 20 19 21 15 22 14 23
REMARK SMILES IDX 13 24 18 25 16 26 10 28 3 30 4 31 2 32 1 33 24 34 25 35
REMARK SMILES IDX 26 36 27 38 28 39 29 40 30 41 31 42 32 43 33 44 34 45 40 50
REMARK SMILES IDX 41 51 42 52 43 53 44 54
REMARK H PARENT 6 16 16 27 10 29 26 37 33 46 33 47 34 48 34 49 44 55
ROOT
ATOM      1  N   UNL     1       1.915  -6.702  -9.047  1.00  0.00    -0.326 N 
ATOM      2  C   UNL     1       1.150  -4.731 -10.083  1.00  0.00     0.014 C 
ATOM      3  C   UNL     1       0.720  -6.147  -9.689  1.00  0.00     0.091 C 
ATOM      4  C   UNL     1       2.618  -4.913 -10.438  1.00  0.00     0.041 C 
ATOM      5  C   UNL     1       3.074  -5.801  -9.266  1.00  0.00     0.175 C 
ATOM      6  C   UNL     1      -0.565  -6.050  -8.868  1.00  0.00     0.059 C 
ATOM      7  C   UNL     1       0.204  -4.142 -11.110  1.00  0.00     0.008 C 
ATOM      8  C   UNL     1      -1.470  -4.865  -9.268  1.00  0.00     0.143 C 
ATOM      9  C   UNL     1      -1.262  -4.448 -10.738  1.00  0.00     0.034 C 
ENDROOT
BRANCH   1  10
ATOM     10  C   UNL     1       2.130  -7.958  -8.505  1.00  0.00     0.246 C 
ATOM     11  O   UNL     1       2.043  -8.108  -7.282  1.00  0.00    -0.272 OA
BRANCH  10  12
ATOM     12  C   UNL     1       2.432  -9.158  -9.449  1.00  0.00     0.174 C 
BRANCH  12  13
ATOM     13  N   UNL     1       1.333 -10.122  -9.398  1.00  0.00    -0.342 N 
ATOM     14  C   UNL     1       0.745 -10.709 -10.495  1.00  0.00     0.249 C 
ATOM     15  O   UNL     1       1.102 -10.507 -11.650  1.00  0.00    -0.272 OA
ATOM     16  H   UNL     1       0.831 -10.267  -8.525  1.00  0.00     0.164 HD
BRANCH  14  17
ATOM     17  C   UNL     1      -0.402 -11.669 -10.115  1.00  0.00     0.207 C 
BRANCH  17  18
ATOM     18  C   UNL     1      -0.024 -13.115 -10.452  1.00  0.00     0.077 C 
BRANCH  18  19
ATOM     19  C   UNL     1       0.900 -13.712  -9.415  1.00  0.00    -0.043 A 
ATOM     20  C   UNL     1       2.945 -14.887  -8.848  1.00  0.00     0.083 A 
ATOM     21  C   UNL     1       2.117 -14.294  -9.802  1.00  0.00     0.028 A 
ATOM     22  C   UNL     1       2.563 -14.905  -7.506  1.00  0.00     0.134 A 
ATOM     23  C   UNL     1       1.360 -14.332  -7.109  1.00  0.00     0.048 A 
ATOM     24  C   UNL     1       0.529 -13.739  -8.062  1.00  0.00     0.008 A 
ATOM     25  Cl  UNL     1       4.436 -15.597  -9.343  1.00  0.00    -0.080 Cl
BRANCH  22  26
ATOM     26  O   UNL     1       3.336 -15.484  -6.536  1.00  0.00    -0.506 OA
ATOM     27  H   UNL     1       3.895 -14.777  -6.164  1.00  0.00     0.293 HD
ENDBRANCH  22  26
ENDBRANCH  18  19
ENDBRANCH  17  18
BRANCH  17  28
ATOM     28  O   UNL     1      -1.616 -11.322 -10.799  1.00  0.00    -0.383 OA
ATOM     29  H   UNL     1      -2.350 -11.556 -10.186  1.00  0.00     0.211 HD
ENDBRANCH  17  28
ENDBRANCH  14  17
ENDBRANCH  12  13
BRANCH  12  30
ATOM     30  C   UNL     1       3.809  -9.814  -9.162  1.00  0.00     0.018 C 
ATOM     31  C   UNL     1       4.619  -9.974 -10.458  1.00  0.00     0.010 C 
BRANCH  30  32
ATOM     32  C   UNL     1       3.709 -11.173  -8.427  1.00  0.00     0.002 C 
ATOM     33  C   UNL     1       5.029 -11.907  -8.232  1.00  0.00     0.004 C 
ENDBRANCH  30  32
ENDBRANCH  12  30
ENDBRANCH  10  12
ENDBRANCH   1  10
BRANCH   5  34
ATOM     34  C   UNL     1       3.367  -4.962  -7.993  1.00  0.00     0.242 C 
ATOM     35  O   UNL     1       2.732  -5.108  -6.948  1.00  0.00    -0.273 OA
ATOM     36  N   UNL     1       4.348  -4.007  -8.134  1.00  0.00    -0.354 N 
ATOM     37  H   UNL     1       4.754  -3.852  -9.058  1.00  0.00     0.163 HD
BRANCH  36  38
ATOM     38  C   UNL     1       4.896  -3.288  -7.003  1.00  0.00     0.116 C 
BRANCH  38  39
ATOM     39  C   UNL     1       4.874  -1.787  -7.282  1.00  0.00     0.023 C 
BRANCH  39  40
ATOM     40  C   UNL     1       3.464  -1.261  -7.528  1.00  0.00     0.026 C 
BRANCH  40  41
ATOM     41  C   UNL     1       2.722  -1.059  -6.206  1.00  0.00     0.146 C 
BRANCH  41  42
ATOM     42  N   UNL     1       1.613  -2.000  -6.115  1.00  0.00    -0.254 NA
ATOM     43  C   UNL     1       1.316  -2.521  -4.984  1.00  0.00     0.185 C 
ATOM     44  N   UNL     1       1.881  -2.346  -3.776  1.00  0.00    -0.370 N 
ATOM     45  N   UNL     1       0.293  -3.389  -4.922  1.00  0.00    -0.370 N 
ATOM     46  H   UNL     1       1.707  -2.997  -3.029  1.00  0.00     0.159 HD
ATOM     47  H   UNL     1       2.661  -1.711  -3.639  1.00  0.00     0.159 HD
ATOM     48  H   UNL     1      -0.194  -3.571  -5.790  1.00  0.00     0.159 HD
ATOM     49  H   UNL     1      -0.146  -3.651  -4.058  1.00  0.00     0.159 HD
ENDBRANCH  41  42
ENDBRANCH  40  41
ENDBRANCH  39  40
ENDBRANCH  38  39
ENDBRANCH  36  38
ENDBRANCH   5  34
BRANCH   8  50
ATOM     50  O   UNL     1      -1.200  -3.738  -8.434  1.00  0.00    -0.245 OA
BRANCH  50  51
ATOM     51  S   UNL     1      -2.433  -2.825  -7.894  1.00  0.00     0.397 S 
ATOM     52  O   UNL     1      -2.493  -1.631  -8.707  1.00  0.00    -0.169 OA
ATOM     53  O   UNL     1      -2.391  -2.757  -6.448  1.00  0.00    -0.169 OA
BRANCH  51  54
ATOM     54  O   UNL     1      -3.711  -3.706  -8.312  1.00  0.00    -0.264 OA
ATOM     55  H   UNL     1      -3.860  -4.369  -7.608  1.00  0.00     0.236 HD
ENDBRANCH  51  54
ENDBRANCH  50  51
ENDBRANCH   8  50
TORSDOF 19
ENDMDL
