MODEL 1
REMARK VINA RESULT:    -7.379      0.000      0.000
REMARK INTER + INTRA:         -22.421
REMARK INTER:                 -18.378
REMARK INTRA:                  -4.043
REMARK UNBOUND:                -4.043
REMARK SMILES CCCCCCC[C@H](N)[C@H](O)C(=O)N[C@H](C)C(=O)N(C)[C@H](CC(C)C)C(=O)N[C@@H](Cc1ccc(O)cc1)C(=O)N[C@@H](Cc1ccc(O)cc1)C(=O)O
REMARK SMILES IDX 18 1 17 2 15 3 16 4 14 5 12 6 13 7 10 9 11 10 8 12 9 13 7 16
REMARK SMILES IDX 6 17 5 18 4 19 3 20 2 21 1 22 19 23 20 24 21 25 22 26 23 27
REMARK SMILES IDX 24 28 25 29 26 30 27 31 28 32 29 34 30 35 31 36 32 37 37 38
REMARK SMILES IDX 33 39 36 40 34 41 35 42 38 44 39 45 40 46 41 48 42 49 43 50
REMARK SMILES IDX 44 51 49 52 45 53 48 54 46 55 47 56 50 58 51 59 52 60
REMARK H PARENT 14 8 11 11 9 14 9 15 28 33 35 43 40 47 47 57 52 61
ROOT
ATOM      1  O   UNL     1       7.400   9.420  -3.364  1.00  0.00    -0.272 OA
ATOM      2  C   UNL     1       8.298   9.614  -2.531  1.00  0.00     0.245 C 
ENDROOT
BRANCH   2   3
ATOM      3  C   UNL     1       8.566  11.063  -2.055  1.00  0.00     0.168 C 
ATOM      4  C   UNL     1       9.549  11.766  -2.985  1.00  0.00     0.041 C 
BRANCH   3   5
ATOM      5  N   UNL     1       7.372  11.861  -1.824  1.00  0.00    -0.342 N 
ATOM      6  C   UNL     1       7.078  12.389  -0.585  1.00  0.00     0.251 C 
ATOM      7  O   UNL     1       7.764  12.196   0.413  1.00  0.00    -0.272 OA
ATOM      8  H   UNL     1       6.708  12.060  -2.568  1.00  0.00     0.164 HD
BRANCH   6   9
ATOM      9  C   UNL     1       5.849  13.312  -0.608  1.00  0.00     0.219 C 
BRANCH   9  10
ATOM     10  O   UNL     1       5.624  13.900  -1.895  1.00  0.00    -0.382 OA
ATOM     11  H   UNL     1       4.670  14.133  -1.880  1.00  0.00     0.211 HD
ENDBRANCH   9  10
BRANCH   9  12
ATOM     12  C   UNL     1       4.561  12.625  -0.085  1.00  0.00     0.089 C 
BRANCH  12  13
ATOM     13  N   UNL     1       4.520  11.243  -0.614  1.00  0.00    -0.325 NA
ATOM     14  H   UNL     1       3.785  11.175  -1.320  1.00  0.00     0.119 HD
ATOM     15  H   UNL     1       4.230  10.610   0.135  1.00  0.00     0.119 HD
ENDBRANCH  12  13
BRANCH  12  16
ATOM     16  C   UNL     1       4.376  12.611   1.452  1.00  0.00     0.022 C 
BRANCH  16  17
ATOM     17  C   UNL     1       4.568  11.294   2.215  1.00  0.00     0.002 C 
BRANCH  17  18
ATOM     18  C   UNL     1       3.277  10.623   2.678  1.00  0.00     0.000 C 
BRANCH  18  19
ATOM     19  C   UNL     1       3.100  10.591   4.202  1.00  0.00    -0.000 C 
BRANCH  19  20
ATOM     20  C   UNL     1       2.060   9.591   4.715  1.00  0.00    -0.000 C 
BRANCH  20  21
ATOM     21  C   UNL     1       0.702  10.235   5.006  1.00  0.00    -0.003 C 
ATOM     22  C   UNL     1       0.851  11.705   5.366  1.00  0.00     0.004 C 
ENDBRANCH  20  21
ENDBRANCH  19  20
ENDBRANCH  18  19
ENDBRANCH  17  18
ENDBRANCH  16  17
ENDBRANCH  12  16
ENDBRANCH   9  12
ENDBRANCH   6   9
ENDBRANCH   3   5
ENDBRANCH   2   3
BRANCH   2  23
ATOM     23  N   UNL     1       8.957   8.533  -1.955  1.00  0.00    -0.332 N 
ATOM     24  C   UNL     1      10.139   7.893  -2.514  1.00  0.00     0.147 C 
BRANCH  23  25
ATOM     25  C   UNL     1       8.548   8.032  -0.614  1.00  0.00     0.174 C 
BRANCH  25  26
ATOM     26  C   UNL     1       9.099   6.621  -0.305  1.00  0.00     0.038 C 
BRANCH  26  27
ATOM     27  C   UNL     1      10.019   6.483   0.929  1.00  0.00    -0.015 C 
ATOM     28  C   UNL     1      11.416   7.051   0.683  1.00  0.00     0.007 C 
ATOM     29  C   UNL     1       9.417   7.070   2.203  1.00  0.00     0.007 C 
ENDBRANCH  26  27
ENDBRANCH  25  26
BRANCH  25  30
ATOM     30  C   UNL     1       7.016   8.152  -0.447  1.00  0.00     0.243 C 
ATOM     31  O   UNL     1       6.508   8.952   0.337  1.00  0.00    -0.273 OA
ATOM     32  N   UNL     1       6.266   7.304  -1.222  1.00  0.00    -0.342 N 
ATOM     33  H   UNL     1       6.753   6.771  -1.947  1.00  0.00     0.164 HD
BRANCH  32  34
ATOM     34  C   UNL     1       4.802   7.259  -1.175  1.00  0.00     0.175 C 
BRANCH  34  35
ATOM     35  C   UNL     1       4.263   7.912   0.107  1.00  0.00     0.070 C 
BRANCH  35  36
ATOM     36  C   UNL     1       3.292   7.024   0.852  1.00  0.00    -0.045 A 
ATOM     37  C   UNL     1       3.354   6.934   2.250  1.00  0.00     0.007 A 
ATOM     38  C   UNL     1       2.337   6.266   0.162  1.00  0.00     0.007 A 
ATOM     39  C   UNL     1       2.471   6.107   2.945  1.00  0.00     0.046 A 
ATOM     40  C   UNL     1       1.454   5.436   0.857  1.00  0.00     0.046 A 
ATOM     41  C   UNL     1       1.528   5.366   2.244  1.00  0.00     0.115 A 
BRANCH  41  42
ATOM     42  O   UNL     1       0.686   4.568   2.960  1.00  0.00    -0.508 OA
ATOM     43  H   UNL     1       0.097   5.138   3.482  1.00  0.00     0.293 HD
ENDBRANCH  41  42
ENDBRANCH  35  36
ENDBRANCH  34  35
BRANCH  34  44
ATOM     44  C   UNL     1       4.261   7.950  -2.447  1.00  0.00     0.243 C 
ATOM     45  O   UNL     1       3.923   9.129  -2.505  1.00  0.00    -0.273 OA
ATOM     46  N   UNL     1       4.064   7.084  -3.501  1.00  0.00    -0.341 N 
ATOM     47  H   UNL     1       4.249   6.093  -3.367  1.00  0.00     0.164 HD
BRANCH  46  48
ATOM     48  C   UNL     1       3.496   7.495  -4.787  1.00  0.00     0.196 C 
BRANCH  48  49
ATOM     49  C   UNL     1       3.872   6.509  -5.906  1.00  0.00     0.072 C 
BRANCH  49  50
ATOM     50  C   UNL     1       4.476   7.198  -7.109  1.00  0.00    -0.045 A 
ATOM     51  C   UNL     1       4.975   6.434  -8.174  1.00  0.00     0.007 A 
ATOM     52  C   UNL     1       4.567   8.594  -7.170  1.00  0.00     0.007 A 
ATOM     53  C   UNL     1       5.546   7.058  -9.283  1.00  0.00     0.046 A 
ATOM     54  C   UNL     1       5.141   9.219  -8.280  1.00  0.00     0.046 A 
ATOM     55  C   UNL     1       5.625   8.445  -9.328  1.00  0.00     0.115 A 
BRANCH  55  56
ATOM     56  O   UNL     1       6.193   9.015 -10.429  1.00  0.00    -0.508 OA
ATOM     57  H   UNL     1       5.780   8.632 -11.219  1.00  0.00     0.293 HD
ENDBRANCH  55  56
ENDBRANCH  49  50
ENDBRANCH  48  49
BRANCH  48  58
ATOM     58  C   UNL     1       1.968   7.568  -4.657  1.00  0.00     0.326 C 
ATOM     59  O   UNL     1       1.253   6.878  -3.950  1.00  0.00    -0.250 OA
BRANCH  58  60
ATOM     60  O   UNL     1       1.405   8.533  -5.427  1.00  0.00    -0.480 OA
ATOM     61  H   UNL     1       0.513   8.645  -5.033  1.00  0.00     0.296 HD
ENDBRANCH  58  60
ENDBRANCH  48  58
ENDBRANCH  46  48
ENDBRANCH  34  44
ENDBRANCH  32  34
ENDBRANCH  25  30
ENDBRANCH  23  25
ENDBRANCH   2  23
TORSDOF 28
ENDMDL
MODEL 2
REMARK VINA RESULT:    -7.252      1.545      2.863
REMARK INTER + INTRA:         -22.105
REMARK INTER:                 -18.924
REMARK INTRA:                  -3.181
REMARK UNBOUND:                -4.043
REMARK SMILES CCCCCCC[C@H](N)[C@H](O)C(=O)N[C@H](C)C(=O)N(C)[C@H](CC(C)C)C(=O)N[C@@H](Cc1ccc(O)cc1)C(=O)N[C@@H](Cc1ccc(O)cc1)C(=O)O
REMARK SMILES IDX 18 1 17 2 15 3 16 4 14 5 12 6 13 7 10 9 11 10 8 12 9 13 7 16
REMARK SMILES IDX 6 17 5 18 4 19 3 20 2 21 1 22 19 23 20 24 21 25 22 26 23 27
REMARK SMILES IDX 24 28 25 29 26 30 27 31 28 32 29 34 30 35 31 36 32 37 37 38
REMARK SMILES IDX 33 39 36 40 34 41 35 42 38 44 39 45 40 46 41 48 42 49 43 50
REMARK SMILES IDX 44 51 49 52 45 53 48 54 46 55 47 56 50 58 51 59 52 60
REMARK H PARENT 14 8 11 11 9 14 9 15 28 33 35 43 40 47 47 57 52 61
ROOT
ATOM      1  O   UNL     1       4.904  11.127  -1.806  1.00  0.00    -0.272 OA
ATOM      2  C   UNL     1       5.975  11.437  -1.263  1.00  0.00     0.245 C 
ENDROOT
BRANCH   2   3
ATOM      3  C   UNL     1       5.930  12.272   0.041  1.00  0.00     0.168 C 
ATOM      4  C   UNL     1       5.230  13.606  -0.195  1.00  0.00     0.041 C 
BRANCH   3   5
ATOM      5  N   UNL     1       5.390  11.573   1.196  1.00  0.00    -0.342 N 
ATOM      6  C   UNL     1       6.042  11.561   2.411  1.00  0.00     0.251 C 
ATOM      7  O   UNL     1       7.131  12.094   2.599  1.00  0.00    -0.272 OA
ATOM      8  H   UNL     1       4.509  11.065   1.152  1.00  0.00     0.164 HD
BRANCH   6   9
ATOM      9  C   UNL     1       5.221  10.886   3.521  1.00  0.00     0.219 C 
BRANCH   9  10
ATOM     10  O   UNL     1       6.030  10.109   4.412  1.00  0.00    -0.382 OA
ATOM     11  H   UNL     1       6.569  10.783   4.882  1.00  0.00     0.211 HD
ENDBRANCH   9  10
BRANCH   9  12
ATOM     12  C   UNL     1       4.330  11.880   4.310  1.00  0.00     0.089 C 
BRANCH  12  13
ATOM     13  N   UNL     1       4.462  13.219   3.691  1.00  0.00    -0.325 NA
ATOM     14  H   UNL     1       4.771  13.112   2.723  1.00  0.00     0.119 HD
ATOM     15  H   UNL     1       5.217  13.726   4.158  1.00  0.00     0.119 HD
ENDBRANCH  12  13
BRANCH  12  16
ATOM     16  C   UNL     1       2.836  11.498   4.437  1.00  0.00     0.022 C 
BRANCH  16  17
ATOM     17  C   UNL     1       2.331  10.219   3.754  1.00  0.00     0.002 C 
BRANCH  17  18
ATOM     18  C   UNL     1       1.170   9.525   4.462  1.00  0.00     0.000 C 
BRANCH  18  19
ATOM     19  C   UNL     1       0.153  10.490   5.087  1.00  0.00    -0.000 C 
BRANCH  19  20
ATOM     20  C   UNL     1      -1.198  10.565   4.370  1.00  0.00    -0.000 C 
BRANCH  20  21
ATOM     21  C   UNL     1      -2.382  10.249   5.287  1.00  0.00    -0.003 C 
ATOM     22  C   UNL     1      -2.150   8.966   6.070  1.00  0.00     0.004 C 
ENDBRANCH  20  21
ENDBRANCH  19  20
ENDBRANCH  18  19
ENDBRANCH  17  18
ENDBRANCH  16  17
ENDBRANCH  12  16
ENDBRANCH   9  12
ENDBRANCH   6   9
ENDBRANCH   3   5
ENDBRANCH   2   3
BRANCH   2  23
ATOM     23  N   UNL     1       7.175  10.935  -1.755  1.00  0.00    -0.332 N 
ATOM     24  C   UNL     1       8.066  11.656  -2.652  1.00  0.00     0.147 C 
BRANCH  23  25
ATOM     25  C   UNL     1       7.697   9.627  -1.271  1.00  0.00     0.174 C 
BRANCH  25  26
ATOM     26  C   UNL     1       8.585   8.910  -2.315  1.00  0.00     0.038 C 
BRANCH  26  27
ATOM     27  C   UNL     1       9.750   8.053  -1.772  1.00  0.00    -0.015 C 
ATOM     28  C   UNL     1       9.275   6.718  -1.198  1.00  0.00     0.007 C 
ATOM     29  C   UNL     1      10.867   7.833  -2.788  1.00  0.00     0.007 C 
ENDBRANCH  26  27
ENDBRANCH  25  26
BRANCH  25  30
ATOM     30  C   UNL     1       6.536   8.756  -0.738  1.00  0.00     0.243 C 
ATOM     31  O   UNL     1       6.375   8.554   0.465  1.00  0.00    -0.273 OA
ATOM     32  N   UNL     1       5.709   8.221  -1.692  1.00  0.00    -0.342 N 
ATOM     33  H   UNL     1       5.823   8.549  -2.655  1.00  0.00     0.164 HD
BRANCH  32  34
ATOM     34  C   UNL     1       4.575   7.350  -1.373  1.00  0.00     0.175 C 
BRANCH  34  35
ATOM     35  C   UNL     1       3.570   8.056  -0.450  1.00  0.00     0.070 C 
BRANCH  35  36
ATOM     36  C   UNL     1       2.879   7.103   0.499  1.00  0.00    -0.045 A 
ATOM     37  C   UNL     1       3.206   7.112   1.864  1.00  0.00     0.007 A 
ATOM     38  C   UNL     1       1.925   6.189   0.033  1.00  0.00     0.007 A 
ATOM     39  C   UNL     1       2.584   6.227   2.745  1.00  0.00     0.046 A 
ATOM     40  C   UNL     1       1.302   5.302   0.915  1.00  0.00     0.046 A 
ATOM     41  C   UNL     1       1.637   5.331   2.265  1.00  0.00     0.115 A 
BRANCH  41  42
ATOM     42  O   UNL     1       1.055   4.482   3.159  1.00  0.00    -0.508 OA
ATOM     43  H   UNL     1       1.691   4.307   3.872  1.00  0.00     0.293 HD
ENDBRANCH  41  42
ENDBRANCH  35  36
ENDBRANCH  34  35
BRANCH  34  44
ATOM     44  C   UNL     1       3.925   6.904  -2.702  1.00  0.00     0.243 C 
ATOM     45  O   UNL     1       3.657   5.740  -2.987  1.00  0.00    -0.273 OA
ATOM     46  N   UNL     1       3.786   7.927  -3.615  1.00  0.00    -0.341 N 
ATOM     47  H   UNL     1       4.131   8.853  -3.376  1.00  0.00     0.164 HD
BRANCH  46  48
ATOM     48  C   UNL     1       3.258   7.734  -4.968  1.00  0.00     0.196 C 
BRANCH  48  49
ATOM     49  C   UNL     1       3.942   6.550  -5.672  1.00  0.00     0.072 C 
BRANCH  49  50
ATOM     50  C   UNL     1       4.481   6.916  -7.036  1.00  0.00    -0.045 A 
ATOM     51  C   UNL     1       4.804   8.250  -7.325  1.00  0.00     0.007 A 
ATOM     52  C   UNL     1       4.646   5.944  -8.031  1.00  0.00     0.007 A 
ATOM     53  C   UNL     1       5.289   8.603  -8.584  1.00  0.00     0.046 A 
ATOM     54  C   UNL     1       5.132   6.297  -9.292  1.00  0.00     0.046 A 
ATOM     55  C   UNL     1       5.450   7.625  -9.557  1.00  0.00     0.115 A 
BRANCH  55  56
ATOM     56  O   UNL     1       5.926   8.011 -10.776  1.00  0.00    -0.508 OA
ATOM     57  H   UNL     1       5.224   7.882 -11.433  1.00  0.00     0.293 HD
ENDBRANCH  55  56
ENDBRANCH  49  50
ENDBRANCH  48  49
BRANCH  48  58
ATOM     58  C   UNL     1       1.747   7.479  -4.882  1.00  0.00     0.326 C 
ATOM     59  O   UNL     1       1.004   7.746  -3.952  1.00  0.00    -0.250 OA
BRANCH  58  60
ATOM     60  O   UNL     1       1.231   6.904  -5.998  1.00  0.00    -0.480 OA
ATOM     61  H   UNL     1       1.369   7.587  -6.689  1.00  0.00     0.296 HD
ENDBRANCH  58  60
ENDBRANCH  48  58
ENDBRANCH  46  48
ENDBRANCH  34  44
ENDBRANCH  32  34
ENDBRANCH  25  30
ENDBRANCH  23  25
ENDBRANCH   2  23
TORSDOF 28
ENDMDL
MODEL 3
REMARK VINA RESULT:    -7.223      1.311      4.932
REMARK INTER + INTRA:         -22.032
REMARK INTER:                 -17.997
REMARK INTRA:                  -4.035
REMARK UNBOUND:                -4.043
REMARK SMILES CCCCCCC[C@H](N)[C@H](O)C(=O)N[C@H](C)C(=O)N(C)[C@H](CC(C)C)C(=O)N[C@@H](Cc1ccc(O)cc1)C(=O)N[C@@H](Cc1ccc(O)cc1)C(=O)O
REMARK SMILES IDX 18 1 17 2 15 3 16 4 14 5 12 6 13 7 10 9 11 10 8 12 9 13 7 16
REMARK SMILES IDX 6 17 5 18 4 19 3 20 2 21 1 22 19 23 20 24 21 25 22 26 23 27
REMARK SMILES IDX 24 28 25 29 26 30 27 31 28 32 29 34 30 35 31 36 32 37 37 38
REMARK SMILES IDX 33 39 36 40 34 41 35 42 38 44 39 45 40 46 41 48 42 49 43 50
REMARK SMILES IDX 44 51 49 52 45 53 48 54 46 55 47 56 50 58 51 59 52 60
REMARK H PARENT 14 8 11 11 9 14 9 15 28 33 35 43 40 47 47 57 52 61
ROOT
ATOM      1  O   UNL     1       3.326  12.308   0.036  1.00  0.00    -0.272 OA
ATOM      2  C   UNL     1       4.489  11.914   0.205  1.00  0.00     0.245 C 
ENDROOT
BRANCH   2   3
ATOM      3  C   UNL     1       5.602  12.472  -0.717  1.00  0.00     0.168 C 
ATOM      4  C   UNL     1       6.028  13.866  -0.270  1.00  0.00     0.041 C 
BRANCH   3   5
ATOM      5  N   UNL     1       6.743  11.589  -0.901  1.00  0.00    -0.342 N 
ATOM      6  C   UNL     1       7.557  11.673  -2.011  1.00  0.00     0.251 C 
ATOM      7  O   UNL     1       7.362  12.455  -2.935  1.00  0.00    -0.272 OA
ATOM      8  H   UNL     1       6.984  10.875  -0.217  1.00  0.00     0.164 HD
BRANCH   6   9
ATOM      9  C   UNL     1       8.778  10.743  -1.924  1.00  0.00     0.219 C 
BRANCH   9  10
ATOM     10  O   UNL     1       9.612  11.030  -0.795  1.00  0.00    -0.382 OA
ATOM     11  H   UNL     1       9.253  11.878  -0.452  1.00  0.00     0.211 HD
ENDBRANCH   9  10
BRANCH   9  12
ATOM     12  C   UNL     1       8.402   9.239  -1.963  1.00  0.00     0.089 C 
BRANCH  12  13
ATOM     13  N   UNL     1       7.204   9.078  -2.818  1.00  0.00    -0.325 NA
ATOM     14  H   UNL     1       6.742   8.196  -2.587  1.00  0.00     0.119 HD
ATOM     15  H   UNL     1       7.502   8.977  -3.791  1.00  0.00     0.119 HD
ENDBRANCH  12  13
BRANCH  12  16
ATOM     16  C   UNL     1       9.519   8.272  -2.426  1.00  0.00     0.022 C 
BRANCH  16  17
ATOM     17  C   UNL     1       9.625   6.887  -1.775  1.00  0.00     0.002 C 
BRANCH  17  18
ATOM     18  C   UNL     1       9.117   6.810  -0.337  1.00  0.00     0.000 C 
BRANCH  18  19
ATOM     19  C   UNL     1      10.000   5.966   0.593  1.00  0.00    -0.000 C 
BRANCH  19  20
ATOM     20  C   UNL     1      11.202   6.702   1.192  1.00  0.00    -0.000 C 
BRANCH  20  21
ATOM     21  C   UNL     1      11.018   8.222   1.227  1.00  0.00    -0.003 C 
ATOM     22  C   UNL     1      12.108   8.931   0.438  1.00  0.00     0.004 C 
ENDBRANCH  20  21
ENDBRANCH  19  20
ENDBRANCH  18  19
ENDBRANCH  17  18
ENDBRANCH  16  17
ENDBRANCH  12  16
ENDBRANCH   9  12
ENDBRANCH   6   9
ENDBRANCH   3   5
ENDBRANCH   2   3
BRANCH   2  23
ATOM     23  N   UNL     1       4.794  11.085   1.280  1.00  0.00    -0.332 N 
ATOM     24  C   UNL     1       5.601  11.481   2.425  1.00  0.00     0.147 C 
BRANCH  23  25
ATOM     25  C   UNL     1       4.182   9.732   1.383  1.00  0.00     0.174 C 
BRANCH  25  26
ATOM     26  C   UNL     1       4.283   9.132   2.805  1.00  0.00     0.038 C 
BRANCH  26  27
ATOM     27  C   UNL     1       2.985   9.090   3.641  1.00  0.00    -0.015 C 
ATOM     28  C   UNL     1       3.172   8.368   4.975  1.00  0.00     0.007 C 
ATOM     29  C   UNL     1       2.357  10.464   3.857  1.00  0.00     0.007 C 
ENDBRANCH  26  27
ENDBRANCH  25  26
BRANCH  25  30
ATOM     30  C   UNL     1       4.743   8.809   0.277  1.00  0.00     0.243 C 
ATOM     31  O   UNL     1       5.942   8.775   0.005  1.00  0.00    -0.273 OA
ATOM     32  N   UNL     1       3.817   8.041  -0.381  1.00  0.00    -0.342 N 
ATOM     33  H   UNL     1       2.866   8.020  -0.005  1.00  0.00     0.164 HD
BRANCH  32  34
ATOM     34  C   UNL     1       4.164   7.129  -1.475  1.00  0.00     0.175 C 
BRANCH  34  35
ATOM     35  C   UNL     1       3.351   5.827  -1.395  1.00  0.00     0.070 C 
BRANCH  35  36
ATOM     36  C   UNL     1       2.429   5.786  -0.198  1.00  0.00    -0.045 A 
ATOM     37  C   UNL     1       2.941   6.003   1.090  1.00  0.00     0.007 A 
ATOM     38  C   UNL     1       1.064   5.509  -0.351  1.00  0.00     0.007 A 
ATOM     39  C   UNL     1       2.100   5.953   2.203  1.00  0.00     0.046 A 
ATOM     40  C   UNL     1       0.222   5.457   0.762  1.00  0.00     0.046 A 
ATOM     41  C   UNL     1       0.748   5.682   2.030  1.00  0.00     0.115 A 
BRANCH  41  42
ATOM     42  O   UNL     1      -0.039   5.639   3.143  1.00  0.00    -0.508 OA
ATOM     43  H   UNL     1      -0.197   6.550   3.439  1.00  0.00     0.293 HD
ENDBRANCH  41  42
ENDBRANCH  35  36
ENDBRANCH  34  35
BRANCH  34  44
ATOM     44  C   UNL     1       3.933   7.873  -2.809  1.00  0.00     0.243 C 
ATOM     45  O   UNL     1       3.879   9.094  -2.922  1.00  0.00    -0.273 OA
ATOM     46  N   UNL     1       3.660   7.031  -3.866  1.00  0.00    -0.341 N 
ATOM     47  H   UNL     1       3.600   6.030  -3.698  1.00  0.00     0.164 HD
BRANCH  46  48
ATOM     48  C   UNL     1       3.341   7.508  -5.214  1.00  0.00     0.196 C 
BRANCH  48  49
ATOM     49  C   UNL     1       3.851   6.532  -6.288  1.00  0.00     0.072 C 
BRANCH  49  50
ATOM     50  C   UNL     1       4.519   7.238  -7.446  1.00  0.00    -0.045 A 
ATOM     51  C   UNL     1       4.970   6.499  -8.549  1.00  0.00     0.007 A 
ATOM     52  C   UNL     1       4.715   8.625  -7.428  1.00  0.00     0.007 A 
ATOM     53  C   UNL     1       5.600   7.138  -9.618  1.00  0.00     0.046 A 
ATOM     54  C   UNL     1       5.347   9.264  -8.498  1.00  0.00     0.046 A 
ATOM     55  C   UNL     1       5.783   8.515  -9.584  1.00  0.00     0.115 A 
BRANCH  55  56
ATOM     56  O   UNL     1       6.404   9.101 -10.647  1.00  0.00    -0.508 OA
ATOM     57  H   UNL     1       6.972   8.439 -11.073  1.00  0.00     0.293 HD
ENDBRANCH  55  56
ENDBRANCH  49  50
ENDBRANCH  48  49
BRANCH  48  58
ATOM     58  C   UNL     1       1.820   7.665  -5.342  1.00  0.00     0.326 C 
ATOM     59  O   UNL     1       0.960   6.923  -4.895  1.00  0.00    -0.250 OA
BRANCH  58  60
ATOM     60  O   UNL     1       1.446   8.776  -6.025  1.00  0.00    -0.480 OA
ATOM     61  H   UNL     1       2.040   8.772  -6.807  1.00  0.00     0.296 HD
ENDBRANCH  58  60
ENDBRANCH  48  58
ENDBRANCH  46  48
ENDBRANCH  34  44
ENDBRANCH  32  34
ENDBRANCH  25  30
ENDBRANCH  23  25
ENDBRANCH   2  23
TORSDOF 28
ENDMDL
MODEL 4
REMARK VINA RESULT:    -6.945      1.179      2.060
REMARK INTER + INTRA:         -21.342
REMARK INTER:                 -18.556
REMARK INTRA:                  -2.786
REMARK UNBOUND:                -4.043
REMARK SMILES CCCCCCC[C@H](N)[C@H](O)C(=O)N[C@H](C)C(=O)N(C)[C@H](CC(C)C)C(=O)N[C@@H](Cc1ccc(O)cc1)C(=O)N[C@@H](Cc1ccc(O)cc1)C(=O)O
REMARK SMILES IDX 18 1 17 2 15 3 16 4 14 5 12 6 13 7 10 9 11 10 8 12 9 13 7 16
REMARK SMILES IDX 6 17 5 18 4 19 3 20 2 21 1 22 19 23 20 24 21 25 22 26 23 27
REMARK SMILES IDX 24 28 25 29 26 30 27 31 28 32 29 34 30 35 31 36 32 37 37 38
REMARK SMILES IDX 33 39 36 40 34 41 35 42 38 44 39 45 40 46 41 48 42 49 43 50
REMARK SMILES IDX 44 51 49 52 45 53 48 54 46 55 47 56 50 58 51 59 52 60
REMARK H PARENT 14 8 11 11 9 14 9 15 28 33 35 43 40 47 47 57 52 61
ROOT
ATOM      1  O   UNL     1       6.903   8.459   1.543  1.00  0.00    -0.272 OA
ATOM      2  C   UNL     1       7.939   8.798   0.952  1.00  0.00     0.245 C 
ENDROOT
BRANCH   2   3
ATOM      3  C   UNL     1       8.543  10.191   1.255  1.00  0.00     0.168 C 
ATOM      4  C   UNL     1       9.829  10.408   0.465  1.00  0.00     0.041 C 
BRANCH   3   5
ATOM      5  N   UNL     1       7.619  11.304   1.104  1.00  0.00    -0.342 N 
ATOM      6  C   UNL     1       7.396  11.904  -0.118  1.00  0.00     0.251 C 
ATOM      7  O   UNL     1       7.979  11.580  -1.147  1.00  0.00    -0.272 OA
ATOM      8  H   UNL     1       7.103  11.684   1.894  1.00  0.00     0.164 HD
BRANCH   6   9
ATOM      9  C   UNL     1       6.279  12.959  -0.067  1.00  0.00     0.219 C 
BRANCH   9  10
ATOM     10  O   UNL     1       6.654  14.190  -0.696  1.00  0.00    -0.382 OA
ATOM     11  H   UNL     1       6.364  14.071  -1.628  1.00  0.00     0.211 HD
ENDBRANCH   9  10
BRANCH   9  12
ATOM     12  C   UNL     1       4.928  12.443  -0.626  1.00  0.00     0.089 C 
BRANCH  12  13
ATOM     13  N   UNL     1       5.190  11.733  -1.900  1.00  0.00    -0.325 NA
ATOM     14  H   UNL     1       4.422  11.085  -2.087  1.00  0.00     0.119 HD
ATOM     15  H   UNL     1       6.016  11.142  -1.785  1.00  0.00     0.119 HD
ENDBRANCH  12  13
BRANCH  12  16
ATOM     16  C   UNL     1       4.100  11.544   0.323  1.00  0.00     0.022 C 
BRANCH  16  17
ATOM     17  C   UNL     1       4.242  11.729   1.840  1.00  0.00     0.002 C 
BRANCH  17  18
ATOM     18  C   UNL     1       3.798  10.533   2.680  1.00  0.00     0.000 C 
BRANCH  18  19
ATOM     19  C   UNL     1       2.552  10.799   3.535  1.00  0.00    -0.000 C 
BRANCH  19  20
ATOM     20  C   UNL     1       2.117   9.634   4.429  1.00  0.00    -0.000 C 
BRANCH  20  21
ATOM     21  C   UNL     1       0.698   9.146   4.128  1.00  0.00    -0.003 C 
ATOM     22  C   UNL     1       0.321   7.962   5.006  1.00  0.00     0.004 C 
ENDBRANCH  20  21
ENDBRANCH  19  20
ENDBRANCH  18  19
ENDBRANCH  17  18
ENDBRANCH  16  17
ENDBRANCH  12  16
ENDBRANCH   9  12
ENDBRANCH   6   9
ENDBRANCH   3   5
ENDBRANCH   2   3
BRANCH   2  23
ATOM     23  N   UNL     1       8.599   7.890   0.130  1.00  0.00    -0.332 N 
ATOM     24  C   UNL     1       9.663   7.000   0.571  1.00  0.00     0.147 C 
BRANCH  23  25
ATOM     25  C   UNL     1       8.150   7.683  -1.274  1.00  0.00     0.174 C 
BRANCH  25  26
ATOM     26  C   UNL     1       9.043   8.413  -2.305  1.00  0.00     0.038 C 
BRANCH  26  27
ATOM     27  C   UNL     1      10.487   7.891  -2.475  1.00  0.00    -0.015 C 
ATOM     28  C   UNL     1      10.670   7.084  -3.760  1.00  0.00     0.007 C 
ATOM     29  C   UNL     1      11.544   8.988  -2.375  1.00  0.00     0.007 C 
ENDBRANCH  26  27
ENDBRANCH  25  26
BRANCH  25  30
ATOM     30  C   UNL     1       6.647   8.016  -1.406  1.00  0.00     0.243 C 
ATOM     31  O   UNL     1       6.254   9.147  -1.690  1.00  0.00    -0.273 OA
ATOM     32  N   UNL     1       5.786   6.973  -1.181  1.00  0.00    -0.342 N 
ATOM     33  H   UNL     1       6.189   6.037  -1.091  1.00  0.00     0.164 HD
BRANCH  32  34
ATOM     34  C   UNL     1       4.328   7.111  -1.237  1.00  0.00     0.175 C 
BRANCH  34  35
ATOM     35  C   UNL     1       3.788   7.844   0.001  1.00  0.00     0.070 C 
BRANCH  35  36
ATOM     36  C   UNL     1       3.037   6.929   0.942  1.00  0.00    -0.045 A 
ATOM     37  C   UNL     1       1.977   6.145   0.461  1.00  0.00     0.007 A 
ATOM     38  C   UNL     1       3.369   6.867   2.302  1.00  0.00     0.007 A 
ATOM     39  C   UNL     1       1.270   5.308   1.324  1.00  0.00     0.046 A 
ATOM     40  C   UNL     1       2.660   6.030   3.167  1.00  0.00     0.046 A 
ATOM     41  C   UNL     1       1.616   5.256   2.669  1.00  0.00     0.115 A 
BRANCH  41  42
ATOM     42  O   UNL     1       0.898   4.428   3.479  1.00  0.00    -0.508 OA
ATOM     43  H   UNL     1       1.512   3.804   3.898  1.00  0.00     0.293 HD
ENDBRANCH  41  42
ENDBRANCH  35  36
ENDBRANCH  34  35
BRANCH  34  44
ATOM     44  C   UNL     1       3.966   7.846  -2.547  1.00  0.00     0.243 C 
ATOM     45  O   UNL     1       3.696   9.042  -2.620  1.00  0.00    -0.273 OA
ATOM     46  N   UNL     1       3.842   7.004  -3.632  1.00  0.00    -0.341 N 
ATOM     47  H   UNL     1       3.961   6.003  -3.497  1.00  0.00     0.164 HD
BRANCH  46  48
ATOM     48  C   UNL     1       3.440   7.461  -4.964  1.00  0.00     0.196 C 
BRANCH  48  49
ATOM     49  C   UNL     1       3.909   6.485  -6.056  1.00  0.00     0.072 C 
BRANCH  49  50
ATOM     50  C   UNL     1       4.527   7.190  -7.242  1.00  0.00    -0.045 A 
ATOM     51  C   UNL     1       4.937   6.450  -8.360  1.00  0.00     0.007 A 
ATOM     52  C   UNL     1       4.720   8.577  -7.235  1.00  0.00     0.007 A 
ATOM     53  C   UNL     1       5.521   7.088  -9.454  1.00  0.00     0.046 A 
ATOM     54  C   UNL     1       5.306   9.216  -8.330  1.00  0.00     0.046 A 
ATOM     55  C   UNL     1       5.701   8.465  -9.431  1.00  0.00     0.115 A 
BRANCH  55  56
ATOM     56  O   UNL     1       6.277   9.051 -10.520  1.00  0.00    -0.508 OA
ATOM     57  H   UNL     1       6.050   9.994 -10.516  1.00  0.00     0.293 HD
ENDBRANCH  55  56
ENDBRANCH  49  50
ENDBRANCH  48  49
BRANCH  48  58
ATOM     58  C   UNL     1       1.911   7.589  -5.009  1.00  0.00     0.326 C 
ATOM     59  O   UNL     1       1.106   7.100  -4.233  1.00  0.00    -0.250 OA
BRANCH  58  60
ATOM     60  O   UNL     1       1.461   8.350  -6.038  1.00  0.00    -0.480 OA
ATOM     61  H   UNL     1       1.134   7.687  -6.683  1.00  0.00     0.296 HD
ENDBRANCH  58  60
ENDBRANCH  48  58
ENDBRANCH  46  48
ENDBRANCH  34  44
ENDBRANCH  32  34
ENDBRANCH  25  30
ENDBRANCH  23  25
ENDBRANCH   2  23
TORSDOF 28
ENDMDL
MODEL 5
REMARK VINA RESULT:    -6.859      1.716      3.192
REMARK INTER + INTRA:         -21.125
REMARK INTER:                 -17.298
REMARK INTRA:                  -3.827
REMARK UNBOUND:                -4.043
REMARK SMILES CCCCCCC[C@H](N)[C@H](O)C(=O)N[C@H](C)C(=O)N(C)[C@H](CC(C)C)C(=O)N[C@@H](Cc1ccc(O)cc1)C(=O)N[C@@H](Cc1ccc(O)cc1)C(=O)O
REMARK SMILES IDX 18 1 17 2 15 3 16 4 14 5 12 6 13 7 10 9 11 10 8 12 9 13 7 16
REMARK SMILES IDX 6 17 5 18 4 19 3 20 2 21 1 22 19 23 20 24 21 25 22 26 23 27
REMARK SMILES IDX 24 28 25 29 26 30 27 31 28 32 29 34 30 35 31 36 32 37 37 38
REMARK SMILES IDX 33 39 36 40 34 41 35 42 38 44 39 45 40 46 41 48 42 49 43 50
REMARK SMILES IDX 44 51 49 52 45 53 48 54 46 55 47 56 50 58 51 59 52 60
REMARK H PARENT 14 8 11 11 9 14 9 15 28 33 35 43 40 47 47 57 52 61
ROOT
ATOM      1  O   UNL     1       4.846  11.432  -1.596  1.00  0.00    -0.272 OA
ATOM      2  C   UNL     1       5.933  11.488  -1.001  1.00  0.00     0.245 C 
ENDROOT
BRANCH   2   3
ATOM      3  C   UNL     1       5.945  11.947   0.478  1.00  0.00     0.168 C 
ATOM      4  C   UNL     1       5.380  13.357   0.613  1.00  0.00     0.041 C 
BRANCH   3   5
ATOM      5  N   UNL     1       5.320  11.021   1.410  1.00  0.00    -0.342 N 
ATOM      6  C   UNL     1       5.808  10.832   2.686  1.00  0.00     0.251 C 
ATOM      7  O   UNL     1       6.813  11.388   3.115  1.00  0.00    -0.272 OA
ATOM      8  H   UNL     1       4.499  10.477   1.156  1.00  0.00     0.164 HD
BRANCH   6   9
ATOM      9  C   UNL     1       4.909   9.921   3.537  1.00  0.00     0.219 C 
BRANCH   9  10
ATOM     10  O   UNL     1       5.641   9.201   4.537  1.00  0.00    -0.382 OA
ATOM     11  H   UNL     1       5.826   9.882   5.221  1.00  0.00     0.211 HD
ENDBRANCH   9  10
BRANCH   9  12
ATOM     12  C   UNL     1       3.705  10.669   4.167  1.00  0.00     0.089 C 
BRANCH  12  13
ATOM     13  N   UNL     1       3.883  12.120   3.933  1.00  0.00    -0.325 NA
ATOM     14  H   UNL     1       4.874  12.318   3.789  1.00  0.00     0.119 HD
ATOM     15  H   UNL     1       3.631  12.626   4.786  1.00  0.00     0.119 HD
ENDBRANCH  12  13
BRANCH  12  16
ATOM     16  C   UNL     1       2.303  10.221   3.688  1.00  0.00     0.022 C 
BRANCH  16  17
ATOM     17  C   UNL     1       1.313   9.646   4.710  1.00  0.00     0.002 C 
BRANCH  17  18
ATOM     18  C   UNL     1       1.945   9.138   6.004  1.00  0.00     0.000 C 
BRANCH  18  19
ATOM     19  C   UNL     1       1.199   7.958   6.642  1.00  0.00    -0.000 C 
BRANCH  19  20
ATOM     20  C   UNL     1       1.530   6.585   6.051  1.00  0.00    -0.000 C 
BRANCH  20  21
ATOM     21  C   UNL     1       2.723   5.910   6.734  1.00  0.00    -0.003 C 
ATOM     22  C   UNL     1       3.978   6.009   5.882  1.00  0.00     0.004 C 
ENDBRANCH  20  21
ENDBRANCH  19  20
ENDBRANCH  18  19
ENDBRANCH  17  18
ENDBRANCH  16  17
ENDBRANCH  12  16
ENDBRANCH   9  12
ENDBRANCH   6   9
ENDBRANCH   3   5
ENDBRANCH   2   3
BRANCH   2  23
ATOM     23  N   UNL     1       7.090  11.030  -1.622  1.00  0.00    -0.332 N 
ATOM     24  C   UNL     1       7.874  11.798  -2.578  1.00  0.00     0.147 C 
BRANCH  23  25
ATOM     25  C   UNL     1       7.684   9.722  -1.232  1.00  0.00     0.174 C 
BRANCH  25  26
ATOM     26  C   UNL     1       8.633   9.146  -2.309  1.00  0.00     0.038 C 
BRANCH  26  27
ATOM     27  C   UNL     1       9.467   7.906  -1.917  1.00  0.00    -0.015 C 
ATOM     28  C   UNL     1      10.447   7.490  -3.013  1.00  0.00     0.007 C 
ATOM     29  C   UNL     1      10.189   8.058  -0.580  1.00  0.00     0.007 C 
ENDBRANCH  26  27
ENDBRANCH  25  26
BRANCH  25  30
ATOM     30  C   UNL     1       6.572   8.742  -0.794  1.00  0.00     0.243 C 
ATOM     31  O   UNL     1       6.527   8.275   0.343  1.00  0.00    -0.273 OA
ATOM     32  N   UNL     1       5.648   8.425  -1.757  1.00  0.00    -0.342 N 
ATOM     33  H   UNL     1       5.671   8.960  -2.629  1.00  0.00     0.164 HD
BRANCH  32  34
ATOM     34  C   UNL     1       4.541   7.492  -1.529  1.00  0.00     0.175 C 
BRANCH  34  35
ATOM     35  C   UNL     1       3.435   8.134  -0.678  1.00  0.00     0.070 C 
BRANCH  35  36
ATOM     36  C   UNL     1       2.827   7.170   0.315  1.00  0.00    -0.045 A 
ATOM     37  C   UNL     1       1.916   6.195  -0.121  1.00  0.00     0.007 A 
ATOM     38  C   UNL     1       3.142   7.247   1.678  1.00  0.00     0.007 A 
ATOM     39  C   UNL     1       1.339   5.310   0.790  1.00  0.00     0.046 A 
ATOM     40  C   UNL     1       2.564   6.361   2.590  1.00  0.00     0.046 A 
ATOM     41  C   UNL     1       1.668   5.399   2.137  1.00  0.00     0.115 A 
BRANCH  41  42
ATOM     42  O   UNL     1       1.080   4.517   2.994  1.00  0.00    -0.508 OA
ATOM     43  H   UNL     1       0.391   4.033   2.509  1.00  0.00     0.293 HD
ENDBRANCH  41  42
ENDBRANCH  35  36
ENDBRANCH  34  35
BRANCH  34  44
ATOM     44  C   UNL     1       4.015   7.030  -2.907  1.00  0.00     0.243 C 
ATOM     45  O   UNL     1       3.929   5.856  -3.258  1.00  0.00    -0.273 OA
ATOM     46  N   UNL     1       3.764   8.070  -3.776  1.00  0.00    -0.341 N 
ATOM     47  H   UNL     1       3.961   9.022  -3.477  1.00  0.00     0.164 HD
BRANCH  46  48
ATOM     48  C   UNL     1       3.322   7.876  -5.159  1.00  0.00     0.196 C 
BRANCH  48  49
ATOM     49  C   UNL     1       4.056   6.698  -5.821  1.00  0.00     0.072 C 
BRANCH  49  50
ATOM     50  C   UNL     1       4.549   7.027  -7.212  1.00  0.00    -0.045 A 
ATOM     51  C   UNL     1       4.694   6.006  -8.162  1.00  0.00     0.007 A 
ATOM     52  C   UNL     1       4.888   8.340  -7.565  1.00  0.00     0.007 A 
ATOM     53  C   UNL     1       5.160   6.296  -9.444  1.00  0.00     0.046 A 
ATOM     54  C   UNL     1       5.356   8.630  -8.848  1.00  0.00     0.046 A 
ATOM     55  C   UNL     1       5.487   7.604  -9.778  1.00  0.00     0.115 A 
BRANCH  55  56
ATOM     56  O   UNL     1       5.942   7.845 -11.041  1.00  0.00    -0.508 OA
ATOM     57  H   UNL     1       5.461   7.267 -11.654  1.00  0.00     0.293 HD
ENDBRANCH  55  56
ENDBRANCH  49  50
ENDBRANCH  48  49
BRANCH  48  58
ATOM     58  C   UNL     1       1.810   7.611  -5.168  1.00  0.00     0.326 C 
ATOM     59  O   UNL     1       1.097   7.433  -6.142  1.00  0.00    -0.250 OA
BRANCH  58  60
ATOM     60  O   UNL     1       1.261   7.567  -3.928  1.00  0.00    -0.480 OA
ATOM     61  H   UNL     1       2.043   7.515  -3.336  1.00  0.00     0.296 HD
ENDBRANCH  58  60
ENDBRANCH  48  58
ENDBRANCH  46  48
ENDBRANCH  34  44
ENDBRANCH  32  34
ENDBRANCH  25  30
ENDBRANCH  23  25
ENDBRANCH   2  23
TORSDOF 28
ENDMDL
MODEL 6
REMARK VINA RESULT:    -6.832      1.841      6.012
REMARK INTER + INTRA:         -21.058
REMARK INTER:                 -17.653
REMARK INTRA:                  -3.405
REMARK UNBOUND:                -4.043
REMARK SMILES CCCCCCC[C@H](N)[C@H](O)C(=O)N[C@H](C)C(=O)N(C)[C@H](CC(C)C)C(=O)N[C@@H](Cc1ccc(O)cc1)C(=O)N[C@@H](Cc1ccc(O)cc1)C(=O)O
REMARK SMILES IDX 18 1 17 2 15 3 16 4 14 5 12 6 13 7 10 9 11 10 8 12 9 13 7 16
REMARK SMILES IDX 6 17 5 18 4 19 3 20 2 21 1 22 19 23 20 24 21 25 22 26 23 27
REMARK SMILES IDX 24 28 25 29 26 30 27 31 28 32 29 34 30 35 31 36 32 37 37 38
REMARK SMILES IDX 33 39 36 40 34 41 35 42 38 44 39 45 40 46 41 48 42 49 43 50
REMARK SMILES IDX 44 51 49 52 45 53 48 54 46 55 47 56 50 58 51 59 52 60
REMARK H PARENT 14 8 11 11 9 14 9 15 28 33 35 43 40 47 47 57 52 61
ROOT
ATOM      1  O   UNL     1       5.160  12.660  -1.476  1.00  0.00    -0.272 OA
ATOM      2  C   UNL     1       5.944  11.814  -1.021  1.00  0.00     0.245 C 
ENDROOT
BRANCH   2   3
ATOM      3  C   UNL     1       6.931  11.120  -1.992  1.00  0.00     0.168 C 
ATOM      4  C   UNL     1       7.879  12.137  -2.618  1.00  0.00     0.041 C 
BRANCH   3   5
ATOM      5  N   UNL     1       7.648   9.986  -1.428  1.00  0.00    -0.342 N 
ATOM      6  C   UNL     1       8.913  10.116  -0.897  1.00  0.00     0.251 C 
ATOM      7  O   UNL     1       9.541  11.170  -0.895  1.00  0.00    -0.272 OA
ATOM      8  H   UNL     1       7.242   9.054  -1.405  1.00  0.00     0.164 HD
BRANCH   6   9
ATOM      9  C   UNL     1       9.414   8.824  -0.232  1.00  0.00     0.219 C 
BRANCH   9  10
ATOM     10  O   UNL     1       8.784   8.571   1.029  1.00  0.00    -0.382 OA
ATOM     11  H   UNL     1       8.968   7.620   1.192  1.00  0.00     0.211 HD
ENDBRANCH   9  10
BRANCH   9  12
ATOM     12  C   UNL     1       9.312   7.584  -1.158  1.00  0.00     0.089 C 
BRANCH  12  13
ATOM     13  N   UNL     1       7.915   7.094  -1.130  1.00  0.00    -0.325 NA
ATOM     14  H   UNL     1       7.610   7.006  -0.159  1.00  0.00     0.119 HD
ATOM     15  H   UNL     1       7.891   6.142  -1.505  1.00  0.00     0.119 HD
ENDBRANCH  12  13
BRANCH  12  16
ATOM     16  C   UNL     1       9.774   7.790  -2.621  1.00  0.00     0.022 C 
BRANCH  16  17
ATOM     17  C   UNL     1      11.263   7.637  -2.963  1.00  0.00     0.002 C 
BRANCH  17  18
ATOM     18  C   UNL     1      12.090   8.914  -2.826  1.00  0.00     0.000 C 
BRANCH  18  19
ATOM     19  C   UNL     1      13.423   8.879  -3.585  1.00  0.00    -0.000 C 
BRANCH  19  20
ATOM     20  C   UNL     1      13.432   8.005  -4.843  1.00  0.00    -0.000 C 
BRANCH  20  21
ATOM     21  C   UNL     1      14.436   8.480  -5.896  1.00  0.00    -0.003 C 
ATOM     22  C   UNL     1      13.841   9.566  -6.779  1.00  0.00     0.004 C 
ENDBRANCH  20  21
ENDBRANCH  19  20
ENDBRANCH  18  19
ENDBRANCH  17  18
ENDBRANCH  16  17
ENDBRANCH  12  16
ENDBRANCH   9  12
ENDBRANCH   6   9
ENDBRANCH   3   5
ENDBRANCH   2   3
BRANCH   2  23
ATOM     23  N   UNL     1       6.009  11.593   0.351  1.00  0.00    -0.332 N 
ATOM     24  C   UNL     1       6.945  12.251   1.250  1.00  0.00     0.147 C 
BRANCH  23  25
ATOM     25  C   UNL     1       4.999  10.729   1.021  1.00  0.00     0.174 C 
BRANCH  25  26
ATOM     26  C   UNL     1       5.069  10.806   2.564  1.00  0.00     0.038 C 
BRANCH  26  27
ATOM     27  C   UNL     1       4.182   9.819   3.356  1.00  0.00    -0.015 C 
ATOM     28  C   UNL     1       4.691   9.588   4.778  1.00  0.00     0.007 C 
ATOM     29  C   UNL     1       2.706  10.207   3.370  1.00  0.00     0.007 C 
ENDBRANCH  26  27
ENDBRANCH  25  26
BRANCH  25  30
ATOM     30  C   UNL     1       5.079   9.288   0.466  1.00  0.00     0.243 C 
ATOM     31  O   UNL     1       6.058   8.569   0.664  1.00  0.00    -0.273 OA
ATOM     32  N   UNL     1       3.995   8.871  -0.262  1.00  0.00    -0.342 N 
ATOM     33  H   UNL     1       3.165   9.471  -0.262  1.00  0.00     0.164 HD
BRANCH  32  34
ATOM     34  C   UNL     1       3.908   7.548  -0.886  1.00  0.00     0.175 C 
BRANCH  34  35
ATOM     35  C   UNL     1       2.525   6.916  -0.666  1.00  0.00     0.070 C 
BRANCH  35  36
ATOM     36  C   UNL     1       2.332   6.407   0.744  1.00  0.00    -0.045 A 
ATOM     37  C   UNL     1       1.238   5.583   1.050  1.00  0.00     0.007 A 
ATOM     38  C   UNL     1       3.222   6.765   1.766  1.00  0.00     0.007 A 
ATOM     39  C   UNL     1       1.044   5.120   2.352  1.00  0.00     0.046 A 
ATOM     40  C   UNL     1       3.028   6.303   3.070  1.00  0.00     0.046 A 
ATOM     41  C   UNL     1       1.940   5.483   3.350  1.00  0.00     0.115 A 
BRANCH  41  42
ATOM     42  O   UNL     1       1.713   5.011   4.609  1.00  0.00    -0.508 OA
ATOM     43  H   UNL     1       0.756   4.876   4.716  1.00  0.00     0.293 HD
ENDBRANCH  41  42
ENDBRANCH  35  36
ENDBRANCH  34  35
BRANCH  34  44
ATOM     44  C   UNL     1       4.240   7.704  -2.387  1.00  0.00     0.243 C 
ATOM     45  O   UNL     1       5.324   8.083  -2.823  1.00  0.00    -0.273 OA
ATOM     46  N   UNL     1       3.154   7.502  -3.213  1.00  0.00    -0.341 N 
ATOM     47  H   UNL     1       2.248   7.304  -2.797  1.00  0.00     0.164 HD
BRANCH  46  48
ATOM     48  C   UNL     1       3.208   7.661  -4.668  1.00  0.00     0.196 C 
BRANCH  48  49
ATOM     49  C   UNL     1       4.084   6.577  -5.318  1.00  0.00     0.072 C 
BRANCH  49  50
ATOM     50  C   UNL     1       4.553   6.961  -6.703  1.00  0.00    -0.045 A 
ATOM     51  C   UNL     1       4.859   5.963  -7.639  1.00  0.00     0.007 A 
ATOM     52  C   UNL     1       4.708   8.306  -7.065  1.00  0.00     0.007 A 
ATOM     53  C   UNL     1       5.304   6.305  -8.916  1.00  0.00     0.046 A 
ATOM     54  C   UNL     1       5.156   8.648  -8.343  1.00  0.00     0.046 A 
ATOM     55  C   UNL     1       5.449   7.643  -9.259  1.00  0.00     0.115 A 
BRANCH  55  56
ATOM     56  O   UNL     1       5.889   7.935 -10.516  1.00  0.00    -0.508 OA
ATOM     57  H   UNL     1       6.643   7.358 -10.718  1.00  0.00     0.293 HD
ENDBRANCH  55  56
ENDBRANCH  49  50
ENDBRANCH  48  49
BRANCH  48  58
ATOM     58  C   UNL     1       1.783   7.577  -5.232  1.00  0.00     0.326 C 
ATOM     59  O   UNL     1       1.416   7.868  -6.359  1.00  0.00    -0.250 OA
BRANCH  58  60
ATOM     60  O   UNL     1       0.874   7.109  -4.340  1.00  0.00    -0.480 OA
ATOM     61  H   UNL     1       1.128   7.556  -3.503  1.00  0.00     0.296 HD
ENDBRANCH  58  60
ENDBRANCH  48  58
ENDBRANCH  46  48
ENDBRANCH  34  44
ENDBRANCH  32  34
ENDBRANCH  25  30
ENDBRANCH  23  25
ENDBRANCH   2  23
TORSDOF 28
ENDMDL
MODEL 7
REMARK VINA RESULT:    -6.706      2.196      4.146
REMARK INTER + INTRA:         -20.747
REMARK INTER:                 -16.843
REMARK INTRA:                  -3.903
REMARK UNBOUND:                -4.043
REMARK SMILES CCCCCCC[C@H](N)[C@H](O)C(=O)N[C@H](C)C(=O)N(C)[C@H](CC(C)C)C(=O)N[C@@H](Cc1ccc(O)cc1)C(=O)N[C@@H](Cc1ccc(O)cc1)C(=O)O
REMARK SMILES IDX 18 1 17 2 15 3 16 4 14 5 12 6 13 7 10 9 11 10 8 12 9 13 7 16
REMARK SMILES IDX 6 17 5 18 4 19 3 20 2 21 1 22 19 23 20 24 21 25 22 26 23 27
REMARK SMILES IDX 24 28 25 29 26 30 27 31 28 32 29 34 30 35 31 36 32 37 37 38
REMARK SMILES IDX 33 39 36 40 34 41 35 42 38 44 39 45 40 46 41 48 42 49 43 50
REMARK SMILES IDX 44 51 49 52 45 53 48 54 46 55 47 56 50 58 51 59 52 60
REMARK H PARENT 14 8 11 11 9 14 9 15 28 33 35 43 40 47 47 57 52 61
ROOT
ATOM      1  O   UNL     1       6.644   8.730   1.832  1.00  0.00    -0.272 OA
ATOM      2  C   UNL     1       6.205   9.876   1.657  1.00  0.00     0.245 C 
ENDROOT
BRANCH   2   3
ATOM      3  C   UNL     1       5.122  10.411   2.627  1.00  0.00     0.168 C 
ATOM      4  C   UNL     1       3.866  10.819   1.866  1.00  0.00     0.041 C 
BRANCH   3   5
ATOM      5  N   UNL     1       4.817   9.532   3.746  1.00  0.00    -0.342 N 
ATOM      6  C   UNL     1       5.451   9.657   4.964  1.00  0.00     0.251 C 
ATOM      7  O   UNL     1       6.338  10.476   5.184  1.00  0.00    -0.272 OA
ATOM      8  H   UNL     1       4.123   8.792   3.672  1.00  0.00     0.164 HD
BRANCH   6   9
ATOM      9  C   UNL     1       4.870   8.721   6.035  1.00  0.00     0.219 C 
BRANCH   9  10
ATOM     10  O   UNL     1       5.884   8.097   6.833  1.00  0.00    -0.382 OA
ATOM     11  H   UNL     1       6.056   8.754   7.543  1.00  0.00     0.211 HD
ENDBRANCH   9  10
BRANCH   9  12
ATOM     12  C   UNL     1       3.808   9.408   6.933  1.00  0.00     0.089 C 
BRANCH  12  13
ATOM     13  N   UNL     1       3.918  10.873   6.749  1.00  0.00    -0.325 NA
ATOM     14  H   UNL     1       3.505  11.345   7.556  1.00  0.00     0.119 HD
ATOM     15  H   UNL     1       3.340  11.151   5.952  1.00  0.00     0.119 HD
ENDBRANCH  12  13
BRANCH  12  16
ATOM     16  C   UNL     1       2.344   8.953   6.720  1.00  0.00     0.022 C 
BRANCH  16  17
ATOM     17  C   UNL     1       2.008   8.052   5.524  1.00  0.00     0.002 C 
BRANCH  17  18
ATOM     18  C   UNL     1       1.159   8.711   4.439  1.00  0.00     0.000 C 
BRANCH  18  19
ATOM     19  C   UNL     1       1.142  10.244   4.505  1.00  0.00    -0.000 C 
BRANCH  19  20
ATOM     20  C   UNL     1      -0.251  10.879   4.516  1.00  0.00    -0.000 C 
BRANCH  20  21
ATOM     21  C   UNL     1      -1.213  10.198   5.494  1.00  0.00    -0.003 C 
ATOM     22  C   UNL     1      -2.647  10.252   4.990  1.00  0.00     0.004 C 
ENDBRANCH  20  21
ENDBRANCH  19  20
ENDBRANCH  18  19
ENDBRANCH  17  18
ENDBRANCH  16  17
ENDBRANCH  12  16
ENDBRANCH   9  12
ENDBRANCH   6   9
ENDBRANCH   3   5
ENDBRANCH   2   3
BRANCH   2  23
ATOM     23  N   UNL     1       6.768  10.696   0.685  1.00  0.00    -0.332 N 
ATOM     24  C   UNL     1       7.292  12.031   0.934  1.00  0.00     0.147 C 
BRANCH  23  25
ATOM     25  C   UNL     1       6.989  10.183  -0.695  1.00  0.00     0.174 C 
BRANCH  25  26
ATOM     26  C   UNL     1       7.626  11.235  -1.634  1.00  0.00     0.038 C 
BRANCH  26  27
ATOM     27  C   UNL     1       8.697  10.730  -2.626  1.00  0.00    -0.015 C 
ATOM     28  C   UNL     1       9.886  11.684  -2.738  1.00  0.00     0.007 C 
ATOM     29  C   UNL     1       9.173   9.309  -2.335  1.00  0.00     0.007 C 
ENDBRANCH  26  27
ENDBRANCH  25  26
BRANCH  25  30
ATOM     30  C   UNL     1       5.684   9.565  -1.248  1.00  0.00     0.243 C 
ATOM     31  O   UNL     1       4.745  10.263  -1.629  1.00  0.00    -0.273 OA
ATOM     32  N   UNL     1       5.643   8.195  -1.279  1.00  0.00    -0.342 N 
ATOM     33  H   UNL     1       6.511   7.691  -1.080  1.00  0.00     0.164 HD
BRANCH  32  34
ATOM     34  C   UNL     1       4.478   7.438  -1.745  1.00  0.00     0.175 C 
BRANCH  34  35
ATOM     35  C   UNL     1       3.184   7.946  -1.092  1.00  0.00     0.070 C 
BRANCH  35  36
ATOM     36  C   UNL     1       2.687   7.036   0.008  1.00  0.00    -0.045 A 
ATOM     37  C   UNL     1       1.683   6.093  -0.260  1.00  0.00     0.007 A 
ATOM     38  C   UNL     1       3.201   7.133   1.308  1.00  0.00     0.007 A 
ATOM     39  C   UNL     1       1.209   5.259   0.752  1.00  0.00     0.046 A 
ATOM     40  C   UNL     1       2.725   6.299   2.323  1.00  0.00     0.046 A 
ATOM     41  C   UNL     1       1.734   5.367   2.034  1.00  0.00     0.115 A 
BRANCH  41  42
ATOM     42  O   UNL     1       1.241   4.535   2.995  1.00  0.00    -0.508 OA
ATOM     43  H   UNL     1       0.477   4.968   3.411  1.00  0.00     0.293 HD
ENDBRANCH  41  42
ENDBRANCH  35  36
ENDBRANCH  34  35
BRANCH  34  44
ATOM     44  C   UNL     1       4.427   7.540  -3.286  1.00  0.00     0.243 C 
ATOM     45  O   UNL     1       5.376   7.871  -3.992  1.00  0.00    -0.273 OA
ATOM     46  N   UNL     1       3.164   7.351  -3.806  1.00  0.00    -0.341 N 
ATOM     47  H   UNL     1       2.386   7.195  -3.170  1.00  0.00     0.164 HD
BRANCH  46  48
ATOM     48  C   UNL     1       2.855   7.466  -5.233  1.00  0.00     0.196 C 
BRANCH  48  49
ATOM     49  C   UNL     1       3.709   6.501  -6.071  1.00  0.00     0.072 C 
BRANCH  49  50
ATOM     50  C   UNL     1       4.393   7.187  -7.232  1.00  0.00    -0.045 A 
ATOM     51  C   UNL     1       4.899   6.424  -8.295  1.00  0.00     0.007 A 
ATOM     52  C   UNL     1       4.551   8.578  -7.256  1.00  0.00     0.007 A 
ATOM     53  C   UNL     1       5.544   7.045  -9.365  1.00  0.00     0.046 A 
ATOM     54  C   UNL     1       5.198   9.200  -8.326  1.00  0.00     0.046 A 
ATOM     55  C   UNL     1       5.688   8.427  -9.373  1.00  0.00     0.115 A 
BRANCH  55  56
ATOM     56  O   UNL     1       6.326   8.995 -10.436  1.00  0.00    -0.508 OA
ATOM     57  H   UNL     1       6.736   9.823 -10.140  1.00  0.00     0.293 HD
ENDBRANCH  55  56
ENDBRANCH  49  50
ENDBRANCH  48  49
BRANCH  48  58
ATOM     58  C   UNL     1       1.367   7.156  -5.449  1.00  0.00     0.326 C 
ATOM     59  O   UNL     1       0.559   6.791  -4.610  1.00  0.00    -0.250 OA
BRANCH  58  60
ATOM     60  O   UNL     1       0.956   7.339  -6.729  1.00  0.00    -0.480 OA
ATOM     61  H   UNL     1       1.650   6.888  -7.256  1.00  0.00     0.296 HD
ENDBRANCH  58  60
ENDBRANCH  48  58
ENDBRANCH  46  48
ENDBRANCH  34  44
ENDBRANCH  32  34
ENDBRANCH  25  30
ENDBRANCH  23  25
ENDBRANCH   2  23
TORSDOF 28
ENDMDL
MODEL 8
REMARK VINA RESULT:    -6.637      4.292      7.893
REMARK INTER + INTRA:         -20.573
REMARK INTER:                 -18.142
REMARK INTRA:                  -2.431
REMARK UNBOUND:                -4.043
REMARK SMILES CCCCCCC[C@H](N)[C@H](O)C(=O)N[C@H](C)C(=O)N(C)[C@H](CC(C)C)C(=O)N[C@@H](Cc1ccc(O)cc1)C(=O)N[C@@H](Cc1ccc(O)cc1)C(=O)O
REMARK SMILES IDX 18 1 17 2 15 3 16 4 14 5 12 6 13 7 10 9 11 10 8 12 9 13 7 16
REMARK SMILES IDX 6 17 5 18 4 19 3 20 2 21 1 22 19 23 20 24 21 25 22 26 23 27
REMARK SMILES IDX 24 28 25 29 26 30 27 31 28 32 29 34 30 35 31 36 32 37 37 38
REMARK SMILES IDX 33 39 36 40 34 41 35 42 38 44 39 45 40 46 41 48 42 49 43 50
REMARK SMILES IDX 44 51 49 52 45 53 48 54 46 55 47 56 50 58 51 59 52 60
REMARK H PARENT 14 8 11 11 9 14 9 15 28 33 35 43 40 47 47 57 52 61
ROOT
ATOM      1  O   UNL     1       1.309   9.332   4.188  1.00  0.00    -0.272 OA
ATOM      2  C   UNL     1       2.408   8.961   4.626  1.00  0.00     0.245 C 
ENDROOT
BRANCH   2   3
ATOM      3  C   UNL     1       2.610   8.896   6.160  1.00  0.00     0.168 C 
ATOM      4  C   UNL     1       2.595  10.294   6.769  1.00  0.00     0.041 C 
BRANCH   3   5
ATOM      5  N   UNL     1       1.709   7.991   6.857  1.00  0.00    -0.342 N 
ATOM      6  C   UNL     1       2.177   6.974   7.662  1.00  0.00     0.251 C 
ATOM      7  O   UNL     1       3.369   6.729   7.818  1.00  0.00    -0.272 OA
ATOM      8  H   UNL     1       0.698   8.074   6.777  1.00  0.00     0.164 HD
BRANCH   6   9
ATOM      9  C   UNL     1       1.051   6.239   8.406  1.00  0.00     0.219 C 
BRANCH   9  10
ATOM     10  O   UNL     1       1.517   5.080   9.108  1.00  0.00    -0.382 OA
ATOM     11  H   UNL     1       0.874   4.981   9.844  1.00  0.00     0.211 HD
ENDBRANCH   9  10
BRANCH   9  12
ATOM     12  C   UNL     1       0.240   7.165   9.350  1.00  0.00     0.089 C 
BRANCH  12  13
ATOM     13  N   UNL     1      -0.827   7.820   8.559  1.00  0.00    -0.325 NA
ATOM     14  H   UNL     1      -0.402   8.338   7.788  1.00  0.00     0.119 HD
ATOM     15  H   UNL     1      -1.280   8.530   9.139  1.00  0.00     0.119 HD
ENDBRANCH  12  13
BRANCH  12  16
ATOM     16  C   UNL     1      -0.367   6.490  10.604  1.00  0.00     0.022 C 
BRANCH  16  17
ATOM     17  C   UNL     1       0.258   6.769  11.978  1.00  0.00     0.002 C 
BRANCH  17  18
ATOM     18  C   UNL     1      -0.741   7.097  13.086  1.00  0.00     0.000 C 
BRANCH  18  19
ATOM     19  C   UNL     1      -2.135   7.484  12.575  1.00  0.00    -0.000 C 
BRANCH  19  20
ATOM     20  C   UNL     1      -2.916   8.443  13.479  1.00  0.00    -0.000 C 
BRANCH  20  21
ATOM     21  C   UNL     1      -3.251   9.772  12.797  1.00  0.00    -0.003 C 
ATOM     22  C   UNL     1      -1.990  10.515  12.382  1.00  0.00     0.004 C 
ENDBRANCH  20  21
ENDBRANCH  19  20
ENDBRANCH  18  19
ENDBRANCH  17  18
ENDBRANCH  16  17
ENDBRANCH  12  16
ENDBRANCH   9  12
ENDBRANCH   6   9
ENDBRANCH   3   5
ENDBRANCH   2   3
BRANCH   2  23
ATOM     23  N   UNL     1       3.386   8.500   3.751  1.00  0.00    -0.332 N 
ATOM     24  C   UNL     1       4.817   8.552   4.010  1.00  0.00     0.147 C 
BRANCH  23  25
ATOM     25  C   UNL     1       3.001   7.783   2.504  1.00  0.00     0.174 C 
BRANCH  25  26
ATOM     26  C   UNL     1       3.245   6.258   2.587  1.00  0.00     0.038 C 
BRANCH  26  27
ATOM     27  C   UNL     1       2.012   5.364   2.844  1.00  0.00    -0.015 C 
ATOM     28  C   UNL     1       2.043   4.710   4.226  1.00  0.00     0.007 C 
ATOM     29  C   UNL     1       0.684   6.082   2.619  1.00  0.00     0.007 C 
ENDBRANCH  26  27
ENDBRANCH  25  26
BRANCH  25  30
ATOM     30  C   UNL     1       3.662   8.454   1.279  1.00  0.00     0.243 C 
ATOM     31  O   UNL     1       3.830   9.671   1.215  1.00  0.00    -0.273 OA
ATOM     32  N   UNL     1       4.042   7.605   0.271  1.00  0.00    -0.342 N 
ATOM     33  H   UNL     1       3.999   6.600   0.457  1.00  0.00     0.164 HD
BRANCH  32  34
ATOM     34  C   UNL     1       4.658   8.066  -0.976  1.00  0.00     0.175 C 
BRANCH  34  35
ATOM     35  C   UNL     1       6.161   7.747  -1.007  1.00  0.00     0.070 C 
BRANCH  35  36
ATOM     36  C   UNL     1       6.987   8.878  -1.575  1.00  0.00    -0.045 A 
ATOM     37  C   UNL     1       6.446  10.170  -1.657  1.00  0.00     0.007 A 
ATOM     38  C   UNL     1       8.287   8.653  -2.047  1.00  0.00     0.007 A 
ATOM     39  C   UNL     1       7.196  11.218  -2.192  1.00  0.00     0.046 A 
ATOM     40  C   UNL     1       9.038   9.701  -2.584  1.00  0.00     0.046 A 
ATOM     41  C   UNL     1       8.485  10.976  -2.651  1.00  0.00     0.115 A 
BRANCH  41  42
ATOM     42  O   UNL     1       9.183  12.026  -3.169  1.00  0.00    -0.508 OA
ATOM     43  H   UNL     1       8.563  12.592  -3.658  1.00  0.00     0.293 HD
ENDBRANCH  41  42
ENDBRANCH  35  36
ENDBRANCH  34  35
BRANCH  34  44
ATOM     44  C   UNL     1       3.904   7.409  -2.154  1.00  0.00     0.243 C 
ATOM     45  O   UNL     1       3.653   6.210  -2.236  1.00  0.00    -0.273 OA
ATOM     46  N   UNL     1       3.644   8.280  -3.192  1.00  0.00    -0.341 N 
ATOM     47  H   UNL     1       3.975   9.239  -3.127  1.00  0.00     0.164 HD
BRANCH  46  48
ATOM     48  C   UNL     1       3.000   7.872  -4.443  1.00  0.00     0.196 C 
BRANCH  48  49
ATOM     49  C   UNL     1       3.742   6.695  -5.097  1.00  0.00     0.072 C 
BRANCH  49  50
ATOM     50  C   UNL     1       4.309   7.046  -6.454  1.00  0.00    -0.045 A 
ATOM     51  C   UNL     1       4.920   6.054  -7.234  1.00  0.00     0.007 A 
ATOM     52  C   UNL     1       4.253   8.359  -6.940  1.00  0.00     0.007 A 
ATOM     53  C   UNL     1       5.458   6.369  -8.482  1.00  0.00     0.046 A 
ATOM     54  C   UNL     1       4.793   8.674  -8.189  1.00  0.00     0.046 A 
ATOM     55  C   UNL     1       5.391   7.675  -8.950  1.00  0.00     0.115 A 
BRANCH  55  56
ATOM     56  O   UNL     1       5.930   7.942 -10.174  1.00  0.00    -0.508 OA
ATOM     57  H   UNL     1       6.113   8.894 -10.227  1.00  0.00     0.293 HD
ENDBRANCH  55  56
ENDBRANCH  49  50
ENDBRANCH  48  49
BRANCH  48  58
ATOM     58  C   UNL     1       1.549   7.467  -4.149  1.00  0.00     0.326 C 
ATOM     59  O   UNL     1       0.856   7.828  -3.211  1.00  0.00    -0.250 OA
BRANCH  58  60
ATOM     60  O   UNL     1       1.025   6.622  -5.072  1.00  0.00    -0.480 OA
ATOM     61  H   UNL     1       1.762   5.997  -5.250  1.00  0.00     0.296 HD
ENDBRANCH  58  60
ENDBRANCH  48  58
ENDBRANCH  46  48
ENDBRANCH  34  44
ENDBRANCH  32  34
ENDBRANCH  25  30
ENDBRANCH  23  25
ENDBRANCH   2  23
TORSDOF 28
ENDMDL
MODEL 9
REMARK VINA RESULT:    -6.618      2.077      6.085
REMARK INTER + INTRA:         -20.526
REMARK INTER:                 -14.880
REMARK INTRA:                  -5.646
REMARK UNBOUND:                -4.043
REMARK SMILES CCCCCCC[C@H](N)[C@H](O)C(=O)N[C@H](C)C(=O)N(C)[C@H](CC(C)C)C(=O)N[C@@H](Cc1ccc(O)cc1)C(=O)N[C@@H](Cc1ccc(O)cc1)C(=O)O
REMARK SMILES IDX 18 1 17 2 15 3 16 4 14 5 12 6 13 7 10 9 11 10 8 12 9 13 7 16
REMARK SMILES IDX 6 17 5 18 4 19 3 20 2 21 1 22 19 23 20 24 21 25 22 26 23 27
REMARK SMILES IDX 24 28 25 29 26 30 27 31 28 32 29 34 30 35 31 36 32 37 37 38
REMARK SMILES IDX 33 39 36 40 34 41 35 42 38 44 39 45 40 46 41 48 42 49 43 50
REMARK SMILES IDX 44 51 49 52 45 53 48 54 46 55 47 56 50 58 51 59 52 60
REMARK H PARENT 14 8 11 11 9 14 9 15 28 33 35 43 40 47 47 57 52 61
ROOT
ATOM      1  O   UNL     1       4.908   7.347   4.104  1.00  0.00    -0.272 OA
ATOM      2  C   UNL     1       4.363   8.461   4.100  1.00  0.00     0.245 C 
ENDROOT
BRANCH   2   3
ATOM      3  C   UNL     1       5.135   9.666   4.692  1.00  0.00     0.168 C 
ATOM      4  C   UNL     1       6.247   9.193   5.622  1.00  0.00     0.041 C 
BRANCH   3   5
ATOM      5  N   UNL     1       5.621  10.622   3.709  1.00  0.00    -0.342 N 
ATOM      6  C   UNL     1       5.464  11.982   3.876  1.00  0.00     0.251 C 
ATOM      7  O   UNL     1       4.875  12.483   4.828  1.00  0.00    -0.272 OA
ATOM      8  H   UNL     1       6.096  10.324   2.860  1.00  0.00     0.164 HD
BRANCH   6   9
ATOM      9  C   UNL     1       6.179  12.801   2.789  1.00  0.00     0.219 C 
BRANCH   9  10
ATOM     10  O   UNL     1       7.492  12.308   2.499  1.00  0.00    -0.382 OA
ATOM     11  H   UNL     1       7.478  12.172   1.526  1.00  0.00     0.211 HD
ENDBRANCH   9  10
BRANCH   9  12
ATOM     12  C   UNL     1       5.345  12.946   1.489  1.00  0.00     0.089 C 
BRANCH  12  13
ATOM     13  N   UNL     1       3.909  12.937   1.851  1.00  0.00    -0.325 NA
ATOM     14  H   UNL     1       3.492  13.832   1.591  1.00  0.00     0.119 HD
ATOM     15  H   UNL     1       3.825  12.888   2.869  1.00  0.00     0.119 HD
ENDBRANCH  12  13
BRANCH  12  16
ATOM     16  C   UNL     1       5.665  14.181   0.613  1.00  0.00     0.022 C 
BRANCH  16  17
ATOM     17  C   UNL     1       6.714  14.055  -0.501  1.00  0.00     0.002 C 
BRANCH  17  18
ATOM     18  C   UNL     1       6.427  12.971  -1.537  1.00  0.00     0.000 C 
BRANCH  18  19
ATOM     19  C   UNL     1       7.237  11.684  -1.335  1.00  0.00    -0.000 C 
BRANCH  19  20
ATOM     20  C   UNL     1       7.678  10.984  -2.624  1.00  0.00    -0.000 C 
BRANCH  20  21
ATOM     21  C   UNL     1       9.171  10.647  -2.643  1.00  0.00    -0.003 C 
ATOM     22  C   UNL     1       9.992  11.728  -1.955  1.00  0.00     0.004 C 
ENDBRANCH  20  21
ENDBRANCH  19  20
ENDBRANCH  18  19
ENDBRANCH  17  18
ENDBRANCH  16  17
ENDBRANCH  12  16
ENDBRANCH   9  12
ENDBRANCH   6   9
ENDBRANCH   3   5
ENDBRANCH   2   3
BRANCH   2  23
ATOM     23  N   UNL     1       3.137   8.634   3.465  1.00  0.00    -0.332 N 
ATOM     24  C   UNL     1       2.028   9.406   4.006  1.00  0.00     0.147 C 
BRANCH  23  25
ATOM     25  C   UNL     1       2.929   8.121   2.083  1.00  0.00     0.174 C 
BRANCH  25  26
ATOM     26  C   UNL     1       2.885   6.576   2.014  1.00  0.00     0.038 C 
BRANCH  26  27
ATOM     27  C   UNL     1       1.505   5.906   2.195  1.00  0.00    -0.015 C 
ATOM     28  C   UNL     1       0.985   5.280   0.901  1.00  0.00     0.007 C 
ATOM     29  C   UNL     1       1.467   4.892   3.335  1.00  0.00     0.007 C 
ENDBRANCH  26  27
ENDBRANCH  25  26
BRANCH  25  30
ATOM     30  C   UNL     1       3.956   8.757   1.119  1.00  0.00     0.243 C 
ATOM     31  O   UNL     1       4.230   9.956   1.159  1.00  0.00    -0.273 OA
ATOM     32  N   UNL     1       4.533   7.901   0.217  1.00  0.00    -0.342 N 
ATOM     33  H   UNL     1       4.362   6.899   0.338  1.00  0.00     0.164 HD
BRANCH  32  34
ATOM     34  C   UNL     1       5.507   8.333  -0.789  1.00  0.00     0.175 C 
BRANCH  34  35
ATOM     35  C   UNL     1       6.583   7.261  -1.022  1.00  0.00     0.070 C 
BRANCH  35  36
ATOM     36  C   UNL     1       7.960   7.710  -0.588  1.00  0.00    -0.045 A 
ATOM     37  C   UNL     1       8.097   8.674   0.422  1.00  0.00     0.007 A 
ATOM     38  C   UNL     1       9.110   7.194  -1.198  1.00  0.00     0.007 A 
ATOM     39  C   UNL     1       9.363   9.105   0.820  1.00  0.00     0.046 A 
ATOM     40  C   UNL     1      10.378   7.626  -0.802  1.00  0.00     0.046 A 
ATOM     41  C   UNL     1      10.492   8.578   0.206  1.00  0.00     0.115 A 
BRANCH  41  42
ATOM     42  O   UNL     1      11.710   9.028   0.621  1.00  0.00    -0.508 OA
ATOM     43  H   UNL     1      12.354   8.308   0.515  1.00  0.00     0.293 HD
ENDBRANCH  41  42
ENDBRANCH  35  36
ENDBRANCH  34  35
BRANCH  34  44
ATOM     44  C   UNL     1       4.737   8.669  -2.086  1.00  0.00     0.243 C 
ATOM     45  O   UNL     1       4.336   9.791  -2.384  1.00  0.00    -0.273 OA
ATOM     46  N   UNL     1       4.417   7.559  -2.839  1.00  0.00    -0.341 N 
ATOM     47  H   UNL     1       4.670   6.637  -2.491  1.00  0.00     0.164 HD
BRANCH  46  48
ATOM     48  C   UNL     1       3.633   7.622  -4.074  1.00  0.00     0.196 C 
BRANCH  48  49
ATOM     49  C   UNL     1       3.966   6.447  -5.009  1.00  0.00     0.072 C 
BRANCH  49  50
ATOM     50  C   UNL     1       4.459   6.904  -6.364  1.00  0.00    -0.045 A 
ATOM     51  C   UNL     1       5.052   5.983  -7.239  1.00  0.00     0.007 A 
ATOM     52  C   UNL     1       4.351   8.245  -6.755  1.00  0.00     0.007 A 
ATOM     53  C   UNL     1       5.522   6.395  -8.486  1.00  0.00     0.046 A 
ATOM     54  C   UNL     1       4.823   8.658  -8.003  1.00  0.00     0.046 A 
ATOM     55  C   UNL     1       5.404   7.728  -8.859  1.00  0.00     0.115 A 
BRANCH  55  56
ATOM     56  O   UNL     1       5.877   8.091 -10.085  1.00  0.00    -0.508 OA
ATOM     57  H   UNL     1       5.287   7.722 -10.762  1.00  0.00     0.293 HD
ENDBRANCH  55  56
ENDBRANCH  49  50
ENDBRANCH  48  49
BRANCH  48  58
ATOM     58  C   UNL     1       2.140   7.589  -3.719  1.00  0.00     0.326 C 
ATOM     59  O   UNL     1       1.643   7.325  -2.636  1.00  0.00    -0.250 OA
BRANCH  58  60
ATOM     60  O   UNL     1       1.329   7.910  -4.759  1.00  0.00    -0.480 OA
ATOM     61  H   UNL     1       1.354   8.892  -4.770  1.00  0.00     0.296 HD
ENDBRANCH  58  60
ENDBRANCH  48  58
ENDBRANCH  46  48
ENDBRANCH  34  44
ENDBRANCH  32  34
ENDBRANCH  25  30
ENDBRANCH  23  25
ENDBRANCH   2  23
TORSDOF 28
ENDMDL
MODEL 10
REMARK VINA RESULT:    -6.593      3.103      6.774
REMARK INTER + INTRA:         -20.465
REMARK INTER:                 -15.224
REMARK INTRA:                  -5.241
REMARK UNBOUND:                -4.043
REMARK SMILES CCCCCCC[C@H](N)[C@H](O)C(=O)N[C@H](C)C(=O)N(C)[C@H](CC(C)C)C(=O)N[C@@H](Cc1ccc(O)cc1)C(=O)N[C@@H](Cc1ccc(O)cc1)C(=O)O
REMARK SMILES IDX 18 1 17 2 15 3 16 4 14 5 12 6 13 7 10 9 11 10 8 12 9 13 7 16
REMARK SMILES IDX 6 17 5 18 4 19 3 20 2 21 1 22 19 23 20 24 21 25 22 26 23 27
REMARK SMILES IDX 24 28 25 29 26 30 27 31 28 32 29 34 30 35 31 36 32 37 37 38
REMARK SMILES IDX 33 39 36 40 34 41 35 42 38 44 39 45 40 46 41 48 42 49 43 50
REMARK SMILES IDX 44 51 49 52 45 53 48 54 46 55 47 56 50 58 51 59 52 60
REMARK H PARENT 14 8 11 11 9 14 9 15 28 33 35 43 40 47 47 57 52 61
ROOT
ATOM      1  O   UNL     1       4.980   7.319   3.184  1.00  0.00    -0.272 OA
ATOM      2  C   UNL     1       5.234   8.512   3.408  1.00  0.00     0.245 C 
ENDROOT
BRANCH   2   3
ATOM      3  C   UNL     1       4.059   9.475   3.713  1.00  0.00     0.168 C 
ATOM      4  C   UNL     1       4.067  10.660   2.753  1.00  0.00     0.041 C 
BRANCH   3   5
ATOM      5  N   UNL     1       2.751   8.842   3.781  1.00  0.00    -0.342 N 
ATOM      6  C   UNL     1       2.079   8.686   4.975  1.00  0.00     0.251 C 
ATOM      7  O   UNL     1       2.539   9.026   6.060  1.00  0.00    -0.272 OA
ATOM      8  H   UNL     1       2.283   8.488   2.950  1.00  0.00     0.164 HD
BRANCH   6   9
ATOM      9  C   UNL     1       0.660   8.124   4.789  1.00  0.00     0.219 C 
BRANCH   9  10
ATOM     10  O   UNL     1      -0.081   8.817   3.778  1.00  0.00    -0.382 OA
ATOM     11  H   UNL     1       0.436   9.641   3.636  1.00  0.00     0.211 HD
ENDBRANCH   9  10
BRANCH   9  12
ATOM     12  C   UNL     1       0.640   6.594   4.535  1.00  0.00     0.089 C 
BRANCH  12  13
ATOM     13  N   UNL     1       0.898   6.356   3.096  1.00  0.00    -0.325 NA
ATOM     14  H   UNL     1       0.066   5.943   2.670  1.00  0.00     0.119 HD
ATOM     15  H   UNL     1       1.626   5.644   3.004  1.00  0.00     0.119 HD
ENDBRANCH  12  13
BRANCH  12  16
ATOM     16  C   UNL     1       1.612   5.751   5.395  1.00  0.00     0.022 C 
BRANCH  16  17
ATOM     17  C   UNL     1       2.743   4.977   4.704  1.00  0.00     0.002 C 
BRANCH  17  18
ATOM     18  C   UNL     1       2.601   3.457   4.743  1.00  0.00     0.000 C 
BRANCH  18  19
ATOM     19  C   UNL     1       3.525   2.769   5.757  1.00  0.00    -0.000 C 
BRANCH  19  20
ATOM     20  C   UNL     1       3.968   1.353   5.377  1.00  0.00    -0.000 C 
BRANCH  20  21
ATOM     21  C   UNL     1       5.426   1.063   5.742  1.00  0.00    -0.003 C 
ATOM     22  C   UNL     1       6.143   0.330   4.619  1.00  0.00     0.004 C 
ENDBRANCH  20  21
ENDBRANCH  19  20
ENDBRANCH  18  19
ENDBRANCH  17  18
ENDBRANCH  16  17
ENDBRANCH  12  16
ENDBRANCH   9  12
ENDBRANCH   6   9
ENDBRANCH   3   5
ENDBRANCH   2   3
BRANCH   2  23
ATOM     23  N   UNL     1       6.555   8.936   3.503  1.00  0.00    -0.332 N 
ATOM     24  C   UNL     1       7.137   9.569   4.678  1.00  0.00     0.147 C 
BRANCH  23  25
ATOM     25  C   UNL     1       7.519   8.640   2.409  1.00  0.00     0.174 C 
BRANCH  25  26
ATOM     26  C   UNL     1       8.993   8.828   2.837  1.00  0.00     0.038 C 
BRANCH  26  27
ATOM     27  C   UNL     1      10.076   8.296   1.872  1.00  0.00    -0.015 C 
ATOM     28  C   UNL     1      11.484   8.406   2.457  1.00  0.00     0.007 C 
ATOM     29  C   UNL     1       9.808   6.876   1.381  1.00  0.00     0.007 C 
ENDBRANCH  26  27
ENDBRANCH  25  26
BRANCH  25  30
ATOM     30  C   UNL     1       7.137   9.428   1.135  1.00  0.00     0.243 C 
ATOM     31  O   UNL     1       7.240  10.652   1.073  1.00  0.00    -0.273 OA
ATOM     32  N   UNL     1       6.672   8.674   0.088  1.00  0.00    -0.342 N 
ATOM     33  H   UNL     1       6.749   7.657   0.166  1.00  0.00     0.164 HD
BRANCH  32  34
ATOM     34  C   UNL     1       6.238   9.254  -1.186  1.00  0.00     0.175 C 
BRANCH  34  35
ATOM     35  C   UNL     1       6.981   8.618  -2.371  1.00  0.00     0.070 C 
BRANCH  35  36
ATOM     36  C   UNL     1       8.477   8.827  -2.304  1.00  0.00    -0.045 A 
ATOM     37  C   UNL     1       9.007  10.125  -2.364  1.00  0.00     0.007 A 
ATOM     38  C   UNL     1       9.352   7.737  -2.204  1.00  0.00     0.007 A 
ATOM     39  C   UNL     1      10.387  10.327  -2.316  1.00  0.00     0.046 A 
ATOM     40  C   UNL     1      10.733   7.939  -2.158  1.00  0.00     0.046 A 
ATOM     41  C   UNL     1      11.238   9.234  -2.213  1.00  0.00     0.115 A 
BRANCH  41  42
ATOM     42  O   UNL     1      12.580   9.475  -2.172  1.00  0.00    -0.508 OA
ATOM     43  H   UNL     1      12.771  10.229  -2.754  1.00  0.00     0.293 HD
ENDBRANCH  41  42
ENDBRANCH  35  36
ENDBRANCH  34  35
BRANCH  34  44
ATOM     44  C   UNL     1       4.707   9.070  -1.299  1.00  0.00     0.243 C 
ATOM     45  O   UNL     1       3.894   9.989  -1.261  1.00  0.00    -0.273 OA
ATOM     46  N   UNL     1       4.313   7.749  -1.317  1.00  0.00    -0.341 N 
ATOM     47  H   UNL     1       5.018   7.022  -1.228  1.00  0.00     0.164 HD
BRANCH  46  48
ATOM     48  C   UNL     1       2.911   7.327  -1.351  1.00  0.00     0.196 C 
BRANCH  48  49
ATOM     49  C   UNL     1       2.646   6.358  -2.515  1.00  0.00     0.072 C 
BRANCH  49  50
ATOM     50  C   UNL     1       2.949   6.972  -3.863  1.00  0.00    -0.045 A 
ATOM     51  C   UNL     1       1.985   7.764  -4.504  1.00  0.00     0.007 A 
ATOM     52  C   UNL     1       4.177   6.746  -4.498  1.00  0.00     0.007 A 
ATOM     53  C   UNL     1       2.248   8.324  -5.754  1.00  0.00     0.046 A 
ATOM     54  C   UNL     1       4.440   7.306  -5.750  1.00  0.00     0.046 A 
ATOM     55  C   UNL     1       3.473   8.092  -6.367  1.00  0.00     0.115 A 
BRANCH  55  56
ATOM     56  O   UNL     1       3.691   8.657  -7.589  1.00  0.00    -0.508 OA
ATOM     57  H   UNL     1       2.960   8.406  -8.176  1.00  0.00     0.293 HD
ENDBRANCH  55  56
ENDBRANCH  49  50
ENDBRANCH  48  49
BRANCH  48  58
ATOM     58  C   UNL     1       2.563   6.642  -0.022  1.00  0.00     0.326 C 
ATOM     59  O   UNL     1       2.022   5.559   0.132  1.00  0.00    -0.250 OA
BRANCH  58  60
ATOM     60  O   UNL     1       2.932   7.359   1.069  1.00  0.00    -0.480 OA
ATOM     61  H   UNL     1       2.717   8.283   0.816  1.00  0.00     0.296 HD
ENDBRANCH  58  60
ENDBRANCH  48  58
ENDBRANCH  46  48
ENDBRANCH  34  44
ENDBRANCH  32  34
ENDBRANCH  25  30
ENDBRANCH  23  25
ENDBRANCH   2  23
TORSDOF 28
ENDMDL
MODEL 11
REMARK VINA RESULT:    -6.580      2.302      7.335
REMARK INTER + INTRA:         -20.431
REMARK INTER:                 -14.358
REMARK INTRA:                  -6.073
REMARK UNBOUND:                -4.043
REMARK SMILES CCCCCCC[C@H](N)[C@H](O)C(=O)N[C@H](C)C(=O)N(C)[C@H](CC(C)C)C(=O)N[C@@H](Cc1ccc(O)cc1)C(=O)N[C@@H](Cc1ccc(O)cc1)C(=O)O
REMARK SMILES IDX 18 1 17 2 15 3 16 4 14 5 12 6 13 7 10 9 11 10 8 12 9 13 7 16
REMARK SMILES IDX 6 17 5 18 4 19 3 20 2 21 1 22 19 23 20 24 21 25 22 26 23 27
REMARK SMILES IDX 24 28 25 29 26 30 27 31 28 32 29 34 30 35 31 36 32 37 37 38
REMARK SMILES IDX 33 39 36 40 34 41 35 42 38 44 39 45 40 46 41 48 42 49 43 50
REMARK SMILES IDX 44 51 49 52 45 53 48 54 46 55 47 56 50 58 51 59 52 60
REMARK H PARENT 14 8 11 11 9 14 9 15 28 33 35 43 40 47 47 57 52 61
ROOT
ATOM      1  O   UNL     1       6.088  13.463  -1.586  1.00  0.00    -0.272 OA
ATOM      2  C   UNL     1       6.946  12.747  -1.047  1.00  0.00     0.245 C 
ENDROOT
BRANCH   2   3
ATOM      3  C   UNL     1       7.368  13.065   0.409  1.00  0.00     0.168 C 
ATOM      4  C   UNL     1       8.134  14.382   0.475  1.00  0.00     0.041 C 
BRANCH   3   5
ATOM      5  N   UNL     1       6.289  13.016   1.383  1.00  0.00    -0.342 N 
ATOM      6  C   UNL     1       6.147  11.960   2.259  1.00  0.00     0.251 C 
ATOM      7  O   UNL     1       6.880  10.977   2.259  1.00  0.00    -0.272 OA
ATOM      8  H   UNL     1       5.597  13.758   1.454  1.00  0.00     0.164 HD
BRANCH   6   9
ATOM      9  C   UNL     1       5.027  12.189   3.287  1.00  0.00     0.219 C 
BRANCH   9  10
ATOM     10  O   UNL     1       5.055  13.505   3.851  1.00  0.00    -0.382 OA
ATOM     11  H   UNL     1       5.439  13.366   4.745  1.00  0.00     0.211 HD
ENDBRANCH   9  10
BRANCH   9  12
ATOM     12  C   UNL     1       3.616  11.855   2.736  1.00  0.00     0.089 C 
BRANCH  12  13
ATOM     13  N   UNL     1       3.771  11.241   1.397  1.00  0.00    -0.325 NA
ATOM     14  H   UNL     1       2.960  11.480   0.823  1.00  0.00     0.119 HD
ATOM     15  H   UNL     1       3.738  10.224   1.494  1.00  0.00     0.119 HD
ENDBRANCH  12  13
BRANCH  12  16
ATOM     16  C   UNL     1       2.732  10.957   3.634  1.00  0.00     0.022 C 
BRANCH  16  17
ATOM     17  C   UNL     1       3.156  10.707   5.088  1.00  0.00     0.002 C 
BRANCH  17  18
ATOM     18  C   UNL     1       2.041  10.862   6.120  1.00  0.00     0.000 C 
BRANCH  18  19
ATOM     19  C   UNL     1       0.890  11.770   5.665  1.00  0.00    -0.000 C 
BRANCH  19  20
ATOM     20  C   UNL     1      -0.500  11.130   5.712  1.00  0.00    -0.000 C 
BRANCH  20  21
ATOM     21  C   UNL     1      -0.930  10.531   4.370  1.00  0.00    -0.003 C 
ATOM     22  C   UNL     1      -2.424  10.248   4.343  1.00  0.00     0.004 C 
ENDBRANCH  20  21
ENDBRANCH  19  20
ENDBRANCH  18  19
ENDBRANCH  17  18
ENDBRANCH  16  17
ENDBRANCH  12  16
ENDBRANCH   9  12
ENDBRANCH   6   9
ENDBRANCH   3   5
ENDBRANCH   2   3
BRANCH   2  23
ATOM     23  N   UNL     1       7.418  11.615  -1.703  1.00  0.00    -0.332 N 
ATOM     24  C   UNL     1       8.167  11.635  -2.951  1.00  0.00     0.147 C 
BRANCH  23  25
ATOM     25  C   UNL     1       7.287  10.273  -1.072  1.00  0.00     0.174 C 
BRANCH  25  26
ATOM     26  C   UNL     1       8.318   9.252  -1.610  1.00  0.00     0.038 C 
BRANCH  26  27
ATOM     27  C   UNL     1       9.411   8.777  -0.627  1.00  0.00    -0.015 C 
ATOM     28  C   UNL     1       8.850   8.448   0.756  1.00  0.00     0.007 C 
ATOM     29  C   UNL     1      10.243   7.613  -1.160  1.00  0.00     0.007 C 
ENDBRANCH  26  27
ENDBRANCH  25  26
BRANCH  25  30
ATOM     30  C   UNL     1       5.824   9.784  -1.161  1.00  0.00     0.243 C 
ATOM     31  O   UNL     1       4.996  10.337  -1.883  1.00  0.00    -0.273 OA
ATOM     32  N   UNL     1       5.511   8.701  -0.380  1.00  0.00    -0.342 N 
ATOM     33  H   UNL     1       6.283   8.212   0.081  1.00  0.00     0.164 HD
BRANCH  32  34
ATOM     34  C   UNL     1       4.168   8.119  -0.316  1.00  0.00     0.175 C 
BRANCH  34  35
ATOM     35  C   UNL     1       4.073   6.840  -1.162  1.00  0.00     0.070 C 
BRANCH  35  36
ATOM     36  C   UNL     1       3.325   7.051  -2.459  1.00  0.00    -0.045 A 
ATOM     37  C   UNL     1       4.034   7.205  -3.660  1.00  0.00     0.007 A 
ATOM     38  C   UNL     1       1.926   7.119  -2.480  1.00  0.00     0.007 A 
ATOM     39  C   UNL     1       3.354   7.414  -4.860  1.00  0.00     0.046 A 
ATOM     40  C   UNL     1       1.244   7.330  -3.681  1.00  0.00     0.046 A 
ATOM     41  C   UNL     1       1.966   7.475  -4.862  1.00  0.00     0.115 A 
BRANCH  41  42
ATOM     42  O   UNL     1       1.340   7.684  -6.055  1.00  0.00    -0.508 OA
ATOM     43  H   UNL     1       0.473   7.245  -6.025  1.00  0.00     0.293 HD
ENDBRANCH  41  42
ENDBRANCH  35  36
ENDBRANCH  34  35
BRANCH  34  44
ATOM     44  C   UNL     1       3.830   7.856   1.169  1.00  0.00     0.243 C 
ATOM     45  O   UNL     1       4.492   8.272   2.115  1.00  0.00    -0.273 OA
ATOM     46  N   UNL     1       2.774   6.988   1.346  1.00  0.00    -0.341 N 
ATOM     47  H   UNL     1       2.330   6.576   0.528  1.00  0.00     0.164 HD
BRANCH  46  48
ATOM     48  C   UNL     1       2.314   6.536   2.661  1.00  0.00     0.196 C 
BRANCH  48  49
ATOM     49  C   UNL     1       1.408   7.585   3.328  1.00  0.00     0.072 C 
BRANCH  49  50
ATOM     50  C   UNL     1       1.321   7.408   4.827  1.00  0.00    -0.045 A 
ATOM     51  C   UNL     1       0.068   7.394   5.458  1.00  0.00     0.007 A 
ATOM     52  C   UNL     1       2.478   7.280   5.606  1.00  0.00     0.007 A 
ATOM     53  C   UNL     1      -0.024   7.245   6.842  1.00  0.00     0.046 A 
ATOM     54  C   UNL     1       2.386   7.132   6.992  1.00  0.00     0.046 A 
ATOM     55  C   UNL     1       1.134   7.115   7.598  1.00  0.00     0.115 A 
BRANCH  55  56
ATOM     56  O   UNL     1       1.001   6.974   8.948  1.00  0.00    -0.508 OA
ATOM     57  H   UNL     1       1.407   6.133   9.209  1.00  0.00     0.293 HD
ENDBRANCH  55  56
ENDBRANCH  49  50
ENDBRANCH  48  49
BRANCH  48  58
ATOM     58  C   UNL     1       1.541   5.220   2.494  1.00  0.00     0.326 C 
ATOM     59  O   UNL     1       0.707   4.955   1.644  1.00  0.00    -0.250 OA
BRANCH  58  60
ATOM     60  O   UNL     1       1.872   4.278   3.413  1.00  0.00    -0.480 OA
ATOM     61  H   UNL     1       2.799   4.053   3.183  1.00  0.00     0.296 HD
ENDBRANCH  58  60
ENDBRANCH  48  58
ENDBRANCH  46  48
ENDBRANCH  34  44
ENDBRANCH  32  34
ENDBRANCH  25  30
ENDBRANCH  23  25
ENDBRANCH   2  23
TORSDOF 28
ENDMDL
MODEL 12
REMARK VINA RESULT:    -6.498      2.162      8.145
REMARK INTER + INTRA:         -20.227
REMARK INTER:                 -16.576
REMARK INTRA:                  -3.651
REMARK UNBOUND:                -4.043
REMARK SMILES CCCCCCC[C@H](N)[C@H](O)C(=O)N[C@H](C)C(=O)N(C)[C@H](CC(C)C)C(=O)N[C@@H](Cc1ccc(O)cc1)C(=O)N[C@@H](Cc1ccc(O)cc1)C(=O)O
REMARK SMILES IDX 18 1 17 2 15 3 16 4 14 5 12 6 13 7 10 9 11 10 8 12 9 13 7 16
REMARK SMILES IDX 6 17 5 18 4 19 3 20 2 21 1 22 19 23 20 24 21 25 22 26 23 27
REMARK SMILES IDX 24 28 25 29 26 30 27 31 28 32 29 34 30 35 31 36 32 37 37 38
REMARK SMILES IDX 33 39 36 40 34 41 35 42 38 44 39 45 40 46 41 48 42 49 43 50
REMARK SMILES IDX 44 51 49 52 45 53 48 54 46 55 47 56 50 58 51 59 52 60
REMARK H PARENT 14 8 11 11 9 14 9 15 28 33 35 43 40 47 47 57 52 61
ROOT
ATOM      1  O   UNL     1       6.607  11.986   0.036  1.00  0.00    -0.272 OA
ATOM      2  C   UNL     1       7.192  11.035  -0.501  1.00  0.00     0.245 C 
ENDROOT
BRANCH   2   3
ATOM      3  C   UNL     1       6.717  10.567  -1.900  1.00  0.00     0.168 C 
ATOM      4  C   UNL     1       7.812   9.776  -2.607  1.00  0.00     0.041 C 
BRANCH   3   5
ATOM      5  N   UNL     1       5.446   9.859  -1.908  1.00  0.00    -0.342 N 
ATOM      6  C   UNL     1       5.379   8.482  -1.885  1.00  0.00     0.251 C 
ATOM      7  O   UNL     1       6.368   7.757  -1.897  1.00  0.00    -0.272 OA
ATOM      8  H   UNL     1       4.558  10.354  -1.933  1.00  0.00     0.164 HD
BRANCH   6   9
ATOM      9  C   UNL     1       3.940   7.959  -1.755  1.00  0.00     0.219 C 
BRANCH   9  10
ATOM     10  O   UNL     1       2.971   9.014  -1.700  1.00  0.00    -0.382 OA
ATOM     11  H   UNL     1       2.186   8.629  -2.148  1.00  0.00     0.211 HD
ENDBRANCH   9  10
BRANCH   9  12
ATOM     12  C   UNL     1       3.567   6.925  -2.848  1.00  0.00     0.089 C 
BRANCH  12  13
ATOM     13  N   UNL     1       4.085   5.601  -2.435  1.00  0.00    -0.325 NA
ATOM     14  H   UNL     1       3.971   4.940  -3.206  1.00  0.00     0.119 HD
ATOM     15  H   UNL     1       3.497   5.235  -1.682  1.00  0.00     0.119 HD
ENDBRANCH  12  13
BRANCH  12  16
ATOM     16  C   UNL     1       2.063   6.821  -3.199  1.00  0.00     0.022 C 
BRANCH  16  17
ATOM     17  C   UNL     1       1.602   7.172  -4.620  1.00  0.00     0.002 C 
BRANCH  17  18
ATOM     18  C   UNL     1       2.508   8.145  -5.371  1.00  0.00     0.000 C 
BRANCH  18  19
ATOM     19  C   UNL     1       3.351   7.490  -6.473  1.00  0.00    -0.000 C 
BRANCH  19  20
ATOM     20  C   UNL     1       4.114   8.466  -7.374  1.00  0.00    -0.000 C 
BRANCH  20  21
ATOM     21  C   UNL     1       4.976   7.762  -8.425  1.00  0.00    -0.003 C 
ATOM     22  C   UNL     1       5.971   8.722  -9.060  1.00  0.00     0.004 C 
ENDBRANCH  20  21
ENDBRANCH  19  20
ENDBRANCH  18  19
ENDBRANCH  17  18
ENDBRANCH  16  17
ENDBRANCH  12  16
ENDBRANCH   9  12
ENDBRANCH   6   9
ENDBRANCH   3   5
ENDBRANCH   2   3
BRANCH   2  23
ATOM     23  N   UNL     1       8.325  10.490   0.093  1.00  0.00    -0.332 N 
ATOM     24  C   UNL     1       9.670  11.029  -0.042  1.00  0.00     0.147 C 
BRANCH  23  25
ATOM     25  C   UNL     1       8.201   9.350   1.043  1.00  0.00     0.174 C 
BRANCH  25  26
ATOM     26  C   UNL     1       8.513   7.984   0.388  1.00  0.00     0.038 C 
BRANCH  26  27
ATOM     27  C   UNL     1       9.969   7.477   0.488  1.00  0.00    -0.015 C 
ATOM     28  C   UNL     1      10.060   6.074   1.088  1.00  0.00     0.007 C 
ATOM     29  C   UNL     1      10.728   7.545  -0.835  1.00  0.00     0.007 C 
ENDBRANCH  26  27
ENDBRANCH  25  26
BRANCH  25  30
ATOM     30  C   UNL     1       6.829   9.398   1.755  1.00  0.00     0.243 C 
ATOM     31  O   UNL     1       6.635  10.105   2.743  1.00  0.00    -0.273 OA
ATOM     32  N   UNL     1       5.853   8.599   1.218  1.00  0.00    -0.342 N 
ATOM     33  H   UNL     1       6.049   8.152   0.319  1.00  0.00     0.164 HD
BRANCH  32  34
ATOM     34  C   UNL     1       4.503   8.497   1.778  1.00  0.00     0.175 C 
BRANCH  34  35
ATOM     35  C   UNL     1       4.526   7.882   3.185  1.00  0.00     0.070 C 
BRANCH  35  36
ATOM     36  C   UNL     1       3.505   6.780   3.359  1.00  0.00    -0.045 A 
ATOM     37  C   UNL     1       3.438   6.069   4.567  1.00  0.00     0.007 A 
ATOM     38  C   UNL     1       2.632   6.438   2.318  1.00  0.00     0.007 A 
ATOM     39  C   UNL     1       2.509   5.042   4.732  1.00  0.00     0.046 A 
ATOM     40  C   UNL     1       1.702   5.409   2.482  1.00  0.00     0.046 A 
ATOM     41  C   UNL     1       1.648   4.721   3.690  1.00  0.00     0.115 A 
BRANCH  41  42
ATOM     42  O   UNL     1       0.757   3.708   3.891  1.00  0.00    -0.508 OA
ATOM     43  H   UNL     1      -0.056   3.917   3.401  1.00  0.00     0.293 HD
ENDBRANCH  41  42
ENDBRANCH  35  36
ENDBRANCH  34  35
BRANCH  34  44
ATOM     44  C   UNL     1       3.875   9.909   1.775  1.00  0.00     0.243 C 
ATOM     45  O   UNL     1       3.724  10.599   0.771  1.00  0.00    -0.273 OA
ATOM     46  N   UNL     1       3.611  10.394   3.038  1.00  0.00    -0.341 N 
ATOM     47  H   UNL     1       3.862   9.831   3.847  1.00  0.00     0.164 HD
BRANCH  46  48
ATOM     48  C   UNL     1       3.078  11.735   3.291  1.00  0.00     0.196 C 
BRANCH  48  49
ATOM     49  C   UNL     1       2.383  11.812   4.661  1.00  0.00     0.072 C 
BRANCH  49  50
ATOM     50  C   UNL     1       1.424  10.667   4.892  1.00  0.00    -0.045 A 
ATOM     51  C   UNL     1       0.117  10.737   4.390  1.00  0.00     0.007 A 
ATOM     52  C   UNL     1       1.814   9.536   5.622  1.00  0.00     0.007 A 
ATOM     53  C   UNL     1      -0.781   9.692   4.608  1.00  0.00     0.046 A 
ATOM     54  C   UNL     1       0.915   8.491   5.842  1.00  0.00     0.046 A 
ATOM     55  C   UNL     1      -0.376   8.577   5.331  1.00  0.00     0.115 A 
BRANCH  55  56
ATOM     56  O   UNL     1      -1.284   7.579   5.524  1.00  0.00    -0.508 OA
ATOM     57  H   UNL     1      -1.758   7.431   4.690  1.00  0.00     0.293 HD
ENDBRANCH  55  56
ENDBRANCH  49  50
ENDBRANCH  48  49
BRANCH  48  58
ATOM     58  C   UNL     1       4.231  12.748   3.241  1.00  0.00     0.326 C 
ATOM     59  O   UNL     1       4.787  13.282   4.187  1.00  0.00    -0.250 OA
BRANCH  58  60
ATOM     60  O   UNL     1       4.646  13.033   1.981  1.00  0.00    -0.480 OA
ATOM     61  H   UNL     1       3.956  13.649   1.650  1.00  0.00     0.296 HD
ENDBRANCH  58  60
ENDBRANCH  48  58
ENDBRANCH  46  48
ENDBRANCH  34  44
ENDBRANCH  32  34
ENDBRANCH  25  30
ENDBRANCH  23  25
ENDBRANCH   2  23
TORSDOF 28
ENDMDL
MODEL 13
REMARK VINA RESULT:    -6.444      1.898      3.178
REMARK INTER + INTRA:         -20.094
REMARK INTER:                 -16.665
REMARK INTRA:                  -3.428
REMARK UNBOUND:                -4.043
REMARK SMILES CCCCCCC[C@H](N)[C@H](O)C(=O)N[C@H](C)C(=O)N(C)[C@H](CC(C)C)C(=O)N[C@@H](Cc1ccc(O)cc1)C(=O)N[C@@H](Cc1ccc(O)cc1)C(=O)O
REMARK SMILES IDX 18 1 17 2 15 3 16 4 14 5 12 6 13 7 10 9 11 10 8 12 9 13 7 16
REMARK SMILES IDX 6 17 5 18 4 19 3 20 2 21 1 22 19 23 20 24 21 25 22 26 23 27
REMARK SMILES IDX 24 28 25 29 26 30 27 31 28 32 29 34 30 35 31 36 32 37 37 38
REMARK SMILES IDX 33 39 36 40 34 41 35 42 38 44 39 45 40 46 41 48 42 49 43 50
REMARK SMILES IDX 44 51 49 52 45 53 48 54 46 55 47 56 50 58 51 59 52 60
REMARK H PARENT 14 8 11 11 9 14 9 15 28 33 35 43 40 47 47 57 52 61
ROOT
ATOM      1  O   UNL     1       8.136   8.284   1.782  1.00  0.00    -0.272 OA
ATOM      2  C   UNL     1       8.283   9.391   1.242  1.00  0.00     0.245 C 
ENDROOT
BRANCH   2   3
ATOM      3  C   UNL     1       8.325  10.653   2.139  1.00  0.00     0.168 C 
ATOM      4  C   UNL     1       9.316  11.674   1.591  1.00  0.00     0.041 C 
BRANCH   3   5
ATOM      5  N   UNL     1       7.027  11.251   2.413  1.00  0.00    -0.342 N 
ATOM      6  C   UNL     1       6.212  10.789   3.425  1.00  0.00     0.251 C 
ATOM      7  O   UNL     1       6.492   9.827   4.133  1.00  0.00    -0.272 OA
ATOM      8  H   UNL     1       6.671  12.033   1.869  1.00  0.00     0.164 HD
BRANCH   6   9
ATOM      9  C   UNL     1       4.960  11.658   3.623  1.00  0.00     0.219 C 
BRANCH   9  10
ATOM     10  O   UNL     1       5.243  13.061   3.541  1.00  0.00    -0.382 OA
ATOM     11  H   UNL     1       4.863  13.422   4.371  1.00  0.00     0.211 HD
ENDBRANCH   9  10
BRANCH   9  12
ATOM     12  C   UNL     1       3.795  11.274   2.675  1.00  0.00     0.089 C 
BRANCH  12  13
ATOM     13  N   UNL     1       4.342  10.452   1.571  1.00  0.00    -0.325 NA
ATOM     14  H   UNL     1       5.074   9.842   1.938  1.00  0.00     0.119 HD
ATOM     15  H   UNL     1       4.816  11.066   0.905  1.00  0.00     0.119 HD
ENDBRANCH  12  13
BRANCH  12  16
ATOM     16  C   UNL     1       2.595  10.550   3.332  1.00  0.00     0.022 C 
BRANCH  16  17
ATOM     17  C   UNL     1       2.759   9.963   4.741  1.00  0.00     0.002 C 
BRANCH  17  18
ATOM     18  C   UNL     1       1.476   9.902   5.567  1.00  0.00     0.000 C 
BRANCH  18  19
ATOM     19  C   UNL     1       0.360   9.065   4.927  1.00  0.00    -0.000 C 
BRANCH  19  20
ATOM     20  C   UNL     1      -0.621   8.427   5.915  1.00  0.00    -0.000 C 
BRANCH  20  21
ATOM     21  C   UNL     1      -2.024   9.035   5.843  1.00  0.00    -0.003 C 
ATOM     22  C   UNL     1      -2.002  10.405   5.183  1.00  0.00     0.004 C 
ENDBRANCH  20  21
ENDBRANCH  19  20
ENDBRANCH  18  19
ENDBRANCH  17  18
ENDBRANCH  16  17
ENDBRANCH  12  16
ENDBRANCH   9  12
ENDBRANCH   6   9
ENDBRANCH   3   5
ENDBRANCH   2   3
BRANCH   2  23
ATOM     23  N   UNL     1       8.527   9.470  -0.125  1.00  0.00    -0.332 N 
ATOM     24  C   UNL     1       9.838   9.327  -0.739  1.00  0.00     0.147 C 
BRANCH  23  25
ATOM     25  C   UNL     1       7.394   9.586  -1.084  1.00  0.00     0.174 C 
BRANCH  25  26
ATOM     26  C   UNL     1       6.587  10.893  -0.907  1.00  0.00     0.038 C 
BRANCH  26  27
ATOM     27  C   UNL     1       7.257  12.201  -1.386  1.00  0.00    -0.015 C 
ATOM     28  C   UNL     1       8.040  12.014  -2.685  1.00  0.00     0.007 C 
ATOM     29  C   UNL     1       6.285  13.372  -1.508  1.00  0.00     0.007 C 
ENDBRANCH  26  27
ENDBRANCH  25  26
BRANCH  25  30
ATOM     30  C   UNL     1       6.526   8.308  -1.040  1.00  0.00     0.243 C 
ATOM     31  O   UNL     1       7.016   7.185  -1.147  1.00  0.00    -0.273 OA
ATOM     32  N   UNL     1       5.180   8.511  -0.879  1.00  0.00    -0.342 N 
ATOM     33  H   UNL     1       4.867   9.459  -0.656  1.00  0.00     0.164 HD
BRANCH  32  34
ATOM     34  C   UNL     1       4.203   7.419  -0.842  1.00  0.00     0.175 C 
BRANCH  34  35
ATOM     35  C   UNL     1       2.934   7.830  -0.079  1.00  0.00     0.070 C 
BRANCH  35  36
ATOM     36  C   UNL     1       2.693   6.984   1.152  1.00  0.00    -0.045 A 
ATOM     37  C   UNL     1       3.508   7.143   2.283  1.00  0.00     0.007 A 
ATOM     38  C   UNL     1       1.676   6.021   1.174  1.00  0.00     0.007 A 
ATOM     39  C   UNL     1       3.302   6.358   3.418  1.00  0.00     0.046 A 
ATOM     40  C   UNL     1       1.469   5.234   2.310  1.00  0.00     0.046 A 
ATOM     41  C   UNL     1       2.284   5.411   3.423  1.00  0.00     0.115 A 
BRANCH  41  42
ATOM     42  O   UNL     1       2.118   4.663   4.550  1.00  0.00    -0.508 OA
ATOM     43  H   UNL     1       1.467   5.108   5.118  1.00  0.00     0.293 HD
ENDBRANCH  41  42
ENDBRANCH  35  36
ENDBRANCH  34  35
BRANCH  34  44
ATOM     44  C   UNL     1       3.892   7.005  -2.298  1.00  0.00     0.243 C 
ATOM     45  O   UNL     1       3.930   5.850  -2.714  1.00  0.00    -0.273 OA
ATOM     46  N   UNL     1       3.690   8.076  -3.142  1.00  0.00    -0.341 N 
ATOM     47  H   UNL     1       3.784   9.019  -2.774  1.00  0.00     0.164 HD
BRANCH  46  48
ATOM     48  C   UNL     1       3.447   7.935  -4.579  1.00  0.00     0.196 C 
BRANCH  48  49
ATOM     49  C   UNL     1       4.134   6.680  -5.143  1.00  0.00     0.072 C 
BRANCH  49  50
ATOM     50  C   UNL     1       4.515   6.829  -6.598  1.00  0.00    -0.045 A 
ATOM     51  C   UNL     1       4.647   5.691  -7.407  1.00  0.00     0.007 A 
ATOM     52  C   UNL     1       4.762   8.092  -7.153  1.00  0.00     0.007 A 
ATOM     53  C   UNL     1       5.011   5.816  -8.748  1.00  0.00     0.046 A 
ATOM     54  C   UNL     1       5.128   8.216  -8.495  1.00  0.00     0.046 A 
ATOM     55  C   UNL     1       5.248   7.076  -9.282  1.00  0.00     0.115 A 
BRANCH  55  56
ATOM     56  O   UNL     1       5.604   7.155 -10.596  1.00  0.00    -0.508 OA
ATOM     57  H   UNL     1       4.806   7.039 -11.136  1.00  0.00     0.293 HD
ENDBRANCH  55  56
ENDBRANCH  49  50
ENDBRANCH  48  49
BRANCH  48  58
ATOM     58  C   UNL     1       1.934   7.847  -4.823  1.00  0.00     0.326 C 
ATOM     59  O   UNL     1       1.141   7.090  -4.286  1.00  0.00    -0.250 OA
BRANCH  58  60
ATOM     60  O   UNL     1       1.480   8.740  -5.738  1.00  0.00    -0.480 OA
ATOM     61  H   UNL     1       2.174   8.725  -6.432  1.00  0.00     0.296 HD
ENDBRANCH  58  60
ENDBRANCH  48  58
ENDBRANCH  46  48
ENDBRANCH  34  44
ENDBRANCH  32  34
ENDBRANCH  25  30
ENDBRANCH  23  25
ENDBRANCH   2  23
TORSDOF 28
ENDMDL
MODEL 14
REMARK VINA RESULT:    -6.442      5.464     12.659
REMARK INTER + INTRA:         -20.088
REMARK INTER:                 -17.211
REMARK INTRA:                  -2.877
REMARK UNBOUND:                -4.043
REMARK SMILES CCCCCCC[C@H](N)[C@H](O)C(=O)N[C@H](C)C(=O)N(C)[C@H](CC(C)C)C(=O)N[C@@H](Cc1ccc(O)cc1)C(=O)N[C@@H](Cc1ccc(O)cc1)C(=O)O
REMARK SMILES IDX 18 1 17 2 15 3 16 4 14 5 12 6 13 7 10 9 11 10 8 12 9 13 7 16
REMARK SMILES IDX 6 17 5 18 4 19 3 20 2 21 1 22 19 23 20 24 21 25 22 26 23 27
REMARK SMILES IDX 24 28 25 29 26 30 27 31 28 32 29 34 30 35 31 36 32 37 37 38
REMARK SMILES IDX 33 39 36 40 34 41 35 42 38 44 39 45 40 46 41 48 42 49 43 50
REMARK SMILES IDX 44 51 49 52 45 53 48 54 46 55 47 56 50 58 51 59 52 60
REMARK H PARENT 14 8 11 11 9 14 9 15 28 33 35 43 40 47 47 57 52 61
ROOT
ATOM      1  O   UNL     1       3.813   6.810   3.304  1.00  0.00    -0.272 OA
ATOM      2  C   UNL     1       3.024   7.280   2.471  1.00  0.00     0.245 C 
ENDROOT
BRANCH   2   3
ATOM      3  C   UNL     1       3.603   7.990   1.221  1.00  0.00     0.168 C 
ATOM      4  C   UNL     1       5.023   8.478   1.484  1.00  0.00     0.041 C 
BRANCH   3   5
ATOM      5  N   UNL     1       3.512   7.225  -0.013  1.00  0.00    -0.342 N 
ATOM      6  C   UNL     1       3.515   7.835  -1.249  1.00  0.00     0.251 C 
ATOM      7  O   UNL     1       3.550   9.052  -1.403  1.00  0.00    -0.272 OA
ATOM      8  H   UNL     1       3.443   6.210  -0.011  1.00  0.00     0.164 HD
BRANCH   6   9
ATOM      9  C   UNL     1       3.555   6.828  -2.409  1.00  0.00     0.219 C 
BRANCH   9  10
ATOM     10  O   UNL     1       4.155   5.581  -2.037  1.00  0.00    -0.382 OA
ATOM     11  H   UNL     1       3.388   4.973  -1.950  1.00  0.00     0.211 HD
ENDBRANCH   9  10
BRANCH   9  12
ATOM     12  C   UNL     1       2.169   6.598  -3.066  1.00  0.00     0.089 C 
BRANCH  12  13
ATOM     13  N   UNL     1       1.148   6.542  -1.994  1.00  0.00    -0.325 NA
ATOM     14  H   UNL     1       0.244   6.298  -2.403  1.00  0.00     0.119 HD
ATOM     15  H   UNL     1       1.021   7.480  -1.608  1.00  0.00     0.119 HD
ENDBRANCH  12  13
BRANCH  12  16
ATOM     16  C   UNL     1       1.751   7.626  -4.144  1.00  0.00     0.022 C 
BRANCH  16  17
ATOM     17  C   UNL     1       2.827   8.233  -5.055  1.00  0.00     0.002 C 
BRANCH  17  18
ATOM     18  C   UNL     1       3.174   7.400  -6.286  1.00  0.00     0.000 C 
BRANCH  18  19
ATOM     19  C   UNL     1       4.329   6.412  -6.067  1.00  0.00    -0.000 C 
BRANCH  19  20
ATOM     20  C   UNL     1       5.336   6.324  -7.218  1.00  0.00    -0.000 C 
BRANCH  20  21
ATOM     21  C   UNL     1       4.834   6.983  -8.505  1.00  0.00    -0.003 C 
ATOM     22  C   UNL     1       5.059   6.085  -9.712  1.00  0.00     0.004 C 
ENDBRANCH  20  21
ENDBRANCH  19  20
ENDBRANCH  18  19
ENDBRANCH  17  18
ENDBRANCH  16  17
ENDBRANCH  12  16
ENDBRANCH   9  12
ENDBRANCH   6   9
ENDBRANCH   3   5
ENDBRANCH   2   3
BRANCH   2  23
ATOM     23  N   UNL     1       1.657   7.060   2.605  1.00  0.00    -0.332 N 
ATOM     24  C   UNL     1       0.909   6.046   1.877  1.00  0.00     0.147 C 
BRANCH  23  25
ATOM     25  C   UNL     1       0.876   7.796   3.635  1.00  0.00     0.174 C 
BRANCH  25  26
ATOM     26  C   UNL     1       1.475   9.182   3.970  1.00  0.00     0.038 C 
BRANCH  26  27
ATOM     27  C   UNL     1       0.494  10.269   4.464  1.00  0.00    -0.015 C 
ATOM     28  C   UNL     1      -0.963   9.812   4.403  1.00  0.00     0.007 C 
ATOM     29  C   UNL     1       0.831  10.804   5.854  1.00  0.00     0.007 C 
ENDBRANCH  26  27
ENDBRANCH  25  26
BRANCH  25  30
ATOM     30  C   UNL     1       0.653   6.900   4.875  1.00  0.00     0.243 C 
ATOM     31  O   UNL     1      -0.363   6.220   5.012  1.00  0.00    -0.273 OA
ATOM     32  N   UNL     1       1.656   6.920   5.810  1.00  0.00    -0.342 N 
ATOM     33  H   UNL     1       2.527   7.397   5.560  1.00  0.00     0.164 HD
BRANCH  32  34
ATOM     34  C   UNL     1       1.604   6.156   7.059  1.00  0.00     0.175 C 
BRANCH  34  35
ATOM     35  C   UNL     1       3.003   5.684   7.484  1.00  0.00     0.070 C 
BRANCH  35  36
ATOM     36  C   UNL     1       3.346   4.312   6.948  1.00  0.00    -0.045 A 
ATOM     37  C   UNL     1       4.092   3.419   7.732  1.00  0.00     0.007 A 
ATOM     38  C   UNL     1       2.947   3.922   5.663  1.00  0.00     0.007 A 
ATOM     39  C   UNL     1       4.425   2.156   7.240  1.00  0.00     0.046 A 
ATOM     40  C   UNL     1       3.281   2.659   5.170  1.00  0.00     0.046 A 
ATOM     41  C   UNL     1       4.017   1.786   5.965  1.00  0.00     0.115 A 
BRANCH  41  42
ATOM     42  O   UNL     1       4.366   0.545   5.521  1.00  0.00    -0.508 OA
ATOM     43  H   UNL     1       3.552   0.042   5.352  1.00  0.00     0.293 HD
ENDBRANCH  41  42
ENDBRANCH  35  36
ENDBRANCH  34  35
BRANCH  34  44
ATOM     44  C   UNL     1       0.942   7.043   8.136  1.00  0.00     0.243 C 
ATOM     45  O   UNL     1       0.236   8.018   7.894  1.00  0.00    -0.273 OA
ATOM     46  N   UNL     1       1.321   6.721   9.422  1.00  0.00    -0.341 N 
ATOM     47  H   UNL     1       2.001   5.978   9.565  1.00  0.00     0.164 HD
BRANCH  46  48
ATOM     48  C   UNL     1       0.877   7.464  10.604  1.00  0.00     0.196 C 
BRANCH  48  49
ATOM     49  C   UNL     1       0.004   6.590  11.519  1.00  0.00     0.072 C 
BRANCH  49  50
ATOM     50  C   UNL     1      -1.142   7.358  12.138  1.00  0.00    -0.045 A 
ATOM     51  C   UNL     1      -1.447   8.648  11.678  1.00  0.00     0.007 A 
ATOM     52  C   UNL     1      -1.896   6.811  13.183  1.00  0.00     0.007 A 
ATOM     53  C   UNL     1      -2.493   9.372  12.250  1.00  0.00     0.046 A 
ATOM     54  C   UNL     1      -2.943   7.536  13.757  1.00  0.00     0.046 A 
ATOM     55  C   UNL     1      -3.233   8.811  13.284  1.00  0.00     0.115 A 
BRANCH  55  56
ATOM     56  O   UNL     1      -4.246   9.552  13.817  1.00  0.00    -0.508 OA
ATOM     57  H   UNL     1      -4.407  10.313  13.236  1.00  0.00     0.293 HD
ENDBRANCH  55  56
ENDBRANCH  49  50
ENDBRANCH  48  49
BRANCH  48  58
ATOM     58  C   UNL     1       2.109   7.951  11.379  1.00  0.00     0.326 C 
ATOM     59  O   UNL     1       2.222   8.068  12.588  1.00  0.00    -0.250 OA
BRANCH  58  60
ATOM     60  O   UNL     1       3.163   8.259  10.582  1.00  0.00    -0.480 OA
ATOM     61  H   UNL     1       3.853   7.618  10.862  1.00  0.00     0.296 HD
ENDBRANCH  58  60
ENDBRANCH  48  58
ENDBRANCH  46  48
ENDBRANCH  34  44
ENDBRANCH  32  34
ENDBRANCH  25  30
ENDBRANCH  23  25
ENDBRANCH   2  23
TORSDOF 28
ENDMDL
MODEL 15
REMARK VINA RESULT:    -6.438      2.562      6.411
REMARK INTER + INTRA:         -20.077
REMARK INTER:                 -15.033
REMARK INTRA:                  -5.044
REMARK UNBOUND:                -4.043
REMARK SMILES CCCCCCC[C@H](N)[C@H](O)C(=O)N[C@H](C)C(=O)N(C)[C@H](CC(C)C)C(=O)N[C@@H](Cc1ccc(O)cc1)C(=O)N[C@@H](Cc1ccc(O)cc1)C(=O)O
REMARK SMILES IDX 18 1 17 2 15 3 16 4 14 5 12 6 13 7 10 9 11 10 8 12 9 13 7 16
REMARK SMILES IDX 6 17 5 18 4 19 3 20 2 21 1 22 19 23 20 24 21 25 22 26 23 27
REMARK SMILES IDX 24 28 25 29 26 30 27 31 28 32 29 34 30 35 31 36 32 37 37 38
REMARK SMILES IDX 33 39 36 40 34 41 35 42 38 44 39 45 40 46 41 48 42 49 43 50
REMARK SMILES IDX 44 51 49 52 45 53 48 54 46 55 47 56 50 58 51 59 52 60
REMARK H PARENT 14 8 11 11 9 14 9 15 28 33 35 43 40 47 47 57 52 61
ROOT
ATOM      1  O   UNL     1       3.993   9.676   0.660  1.00  0.00    -0.272 OA
ATOM      2  C   UNL     1       4.676  10.031   1.632  1.00  0.00     0.245 C 
ENDROOT
BRANCH   2   3
ATOM      3  C   UNL     1       6.215  10.104   1.470  1.00  0.00     0.168 C 
ATOM      4  C   UNL     1       6.884   8.886   2.096  1.00  0.00     0.041 C 
BRANCH   3   5
ATOM      5  N   UNL     1       6.675  10.336   0.110  1.00  0.00    -0.342 N 
ATOM      6  C   UNL     1       6.758  11.605  -0.425  1.00  0.00     0.251 C 
ATOM      7  O   UNL     1       6.416  12.616   0.179  1.00  0.00    -0.272 OA
ATOM      8  H   UNL     1       6.954   9.571  -0.500  1.00  0.00     0.164 HD
BRANCH   6   9
ATOM      9  C   UNL     1       7.403  11.621  -1.820  1.00  0.00     0.219 C 
BRANCH   9  10
ATOM     10  O   UNL     1       6.936  12.705  -2.632  1.00  0.00    -0.382 OA
ATOM     11  H   UNL     1       6.724  12.277  -3.490  1.00  0.00     0.211 HD
ENDBRANCH   9  10
BRANCH   9  12
ATOM     12  C   UNL     1       8.953  11.596  -1.774  1.00  0.00     0.089 C 
BRANCH  12  13
ATOM     13  N   UNL     1       9.378  11.550  -0.357  1.00  0.00    -0.325 NA
ATOM     14  H   UNL     1       8.621  11.162   0.209  1.00  0.00     0.119 HD
ATOM     15  H   UNL     1       9.501  12.507  -0.017  1.00  0.00     0.119 HD
ENDBRANCH  12  13
BRANCH  12  16
ATOM     16  C   UNL     1       9.636  10.458  -2.571  1.00  0.00     0.022 C 
BRANCH  16  17
ATOM     17  C   UNL     1       8.995   9.063  -2.580  1.00  0.00     0.002 C 
BRANCH  17  18
ATOM     18  C   UNL     1       9.981   7.902  -2.691  1.00  0.00     0.000 C 
BRANCH  18  19
ATOM     19  C   UNL     1      11.082   7.913  -1.623  1.00  0.00    -0.000 C 
BRANCH  19  20
ATOM     20  C   UNL     1      10.600   7.677  -0.189  1.00  0.00    -0.000 C 
BRANCH  20  21
ATOM     21  C   UNL     1       9.747   6.414  -0.044  1.00  0.00    -0.003 C 
ATOM     22  C   UNL     1      10.013   5.714   1.280  1.00  0.00     0.004 C 
ENDBRANCH  20  21
ENDBRANCH  19  20
ENDBRANCH  18  19
ENDBRANCH  17  18
ENDBRANCH  16  17
ENDBRANCH  12  16
ENDBRANCH   9  12
ENDBRANCH   6   9
ENDBRANCH   3   5
ENDBRANCH   2   3
BRANCH   2  23
ATOM     23  N   UNL     1       4.053  10.469   2.796  1.00  0.00    -0.332 N 
ATOM     24  C   UNL     1       4.305  11.752   3.435  1.00  0.00     0.147 C 
BRANCH  23  25
ATOM     25  C   UNL     1       2.958   9.668   3.409  1.00  0.00     0.174 C 
BRANCH  25  26
ATOM     26  C   UNL     1       2.699  10.035   4.889  1.00  0.00     0.038 C 
BRANCH  26  27
ATOM     27  C   UNL     1       1.233  10.305   5.297  1.00  0.00    -0.015 C 
ATOM     28  C   UNL     1       0.972  11.781   5.596  1.00  0.00     0.007 C 
ATOM     29  C   UNL     1       0.215   9.773   4.292  1.00  0.00     0.007 C 
ENDBRANCH  26  27
ENDBRANCH  25  26
BRANCH  25  30
ATOM     30  C   UNL     1       3.208   8.160   3.178  1.00  0.00     0.243 C 
ATOM     31  O   UNL     1       4.160   7.573   3.689  1.00  0.00    -0.273 OA
ATOM     32  N   UNL     1       2.305   7.527   2.363  1.00  0.00    -0.342 N 
ATOM     33  H   UNL     1       1.466   8.047   2.092  1.00  0.00     0.164 HD
BRANCH  32  34
ATOM     34  C   UNL     1       2.399   6.108   2.011  1.00  0.00     0.175 C 
BRANCH  34  35
ATOM     35  C   UNL     1       1.306   5.285   2.710  1.00  0.00     0.070 C 
BRANCH  35  36
ATOM     36  C   UNL     1       1.248   5.536   4.200  1.00  0.00    -0.045 A 
ATOM     37  C   UNL     1       0.123   6.156   4.764  1.00  0.00     0.007 A 
ATOM     38  C   UNL     1       2.317   5.178   5.032  1.00  0.00     0.007 A 
ATOM     39  C   UNL     1       0.065   6.405   6.135  1.00  0.00     0.046 A 
ATOM     40  C   UNL     1       2.261   5.428   6.405  1.00  0.00     0.046 A 
ATOM     41  C   UNL     1       1.134   6.039   6.945  1.00  0.00     0.115 A 
BRANCH  41  42
ATOM     42  O   UNL     1       1.040   6.302   8.279  1.00  0.00    -0.508 OA
ATOM     43  H   UNL     1       1.921   6.194   8.674  1.00  0.00     0.293 HD
ENDBRANCH  41  42
ENDBRANCH  35  36
ENDBRANCH  34  35
BRANCH  34  44
ATOM     44  C   UNL     1       2.316   5.989   0.473  1.00  0.00     0.243 C 
ATOM     45  O   UNL     1       1.736   5.086  -0.123  1.00  0.00    -0.273 OA
ATOM     46  N   UNL     1       3.072   6.931  -0.192  1.00  0.00    -0.341 N 
ATOM     47  H   UNL     1       3.630   7.588   0.348  1.00  0.00     0.164 HD
BRANCH  46  48
ATOM     48  C   UNL     1       3.204   6.976  -1.650  1.00  0.00     0.196 C 
BRANCH  48  49
ATOM     49  C   UNL     1       2.158   7.913  -2.278  1.00  0.00     0.072 C 
BRANCH  49  50
ATOM     50  C   UNL     1       1.564   7.353  -3.550  1.00  0.00    -0.045 A 
ATOM     51  C   UNL     1       2.086   7.737  -4.794  1.00  0.00     0.007 A 
ATOM     52  C   UNL     1       0.481   6.466  -3.510  1.00  0.00     0.007 A 
ATOM     53  C   UNL     1       1.537   7.237  -5.975  1.00  0.00     0.046 A 
ATOM     54  C   UNL     1      -0.070   5.966  -4.693  1.00  0.00     0.046 A 
ATOM     55  C   UNL     1       0.465   6.355  -5.916  1.00  0.00     0.115 A 
BRANCH  55  56
ATOM     56  O   UNL     1      -0.044   5.891  -7.093  1.00  0.00    -0.508 OA
ATOM     57  H   UNL     1      -0.277   6.652  -7.647  1.00  0.00     0.293 HD
ENDBRANCH  55  56
ENDBRANCH  49  50
ENDBRANCH  48  49
BRANCH  48  58
ATOM     58  C   UNL     1       4.614   7.464  -2.009  1.00  0.00     0.326 C 
ATOM     59  O   UNL     1       5.040   7.739  -3.119  1.00  0.00    -0.250 OA
BRANCH  58  60
ATOM     60  O   UNL     1       5.431   7.598  -0.934  1.00  0.00    -0.480 OA
ATOM     61  H   UNL     1       6.055   8.303  -1.211  1.00  0.00     0.296 HD
ENDBRANCH  58  60
ENDBRANCH  48  58
ENDBRANCH  46  48
ENDBRANCH  34  44
ENDBRANCH  32  34
ENDBRANCH  25  30
ENDBRANCH  23  25
ENDBRANCH   2  23
TORSDOF 28
ENDMDL
MODEL 16
REMARK VINA RESULT:    -6.353      2.095      5.562
REMARK INTER + INTRA:         -19.867
REMARK INTER:                 -16.402
REMARK INTRA:                  -3.465
REMARK UNBOUND:                -4.043
REMARK SMILES CCCCCCC[C@H](N)[C@H](O)C(=O)N[C@H](C)C(=O)N(C)[C@H](CC(C)C)C(=O)N[C@@H](Cc1ccc(O)cc1)C(=O)N[C@@H](Cc1ccc(O)cc1)C(=O)O
REMARK SMILES IDX 18 1 17 2 15 3 16 4 14 5 12 6 13 7 10 9 11 10 8 12 9 13 7 16
REMARK SMILES IDX 6 17 5 18 4 19 3 20 2 21 1 22 19 23 20 24 21 25 22 26 23 27
REMARK SMILES IDX 24 28 25 29 26 30 27 31 28 32 29 34 30 35 31 36 32 37 37 38
REMARK SMILES IDX 33 39 36 40 34 41 35 42 38 44 39 45 40 46 41 48 42 49 43 50
REMARK SMILES IDX 44 51 49 52 45 53 48 54 46 55 47 56 50 58 51 59 52 60
REMARK H PARENT 14 8 11 11 9 14 9 15 28 33 35 43 40 47 47 57 52 61
ROOT
ATOM      1  O   UNL     1       3.606  10.757   2.723  1.00  0.00    -0.272 OA
ATOM      2  C   UNL     1       4.677  11.383   2.711  1.00  0.00     0.245 C 
ENDROOT
BRANCH   2   3
ATOM      3  C   UNL     1       5.597  11.301   3.955  1.00  0.00     0.168 C 
ATOM      4  C   UNL     1       4.882  11.831   5.193  1.00  0.00     0.041 C 
BRANCH   3   5
ATOM      5  N   UNL     1       6.191   9.994   4.190  1.00  0.00    -0.342 N 
ATOM      6  C   UNL     1       7.553   9.791   4.121  1.00  0.00     0.251 C 
ATOM      7  O   UNL     1       8.354  10.670   3.820  1.00  0.00    -0.272 OA
ATOM      8  H   UNL     1       5.624   9.180   4.414  1.00  0.00     0.164 HD
BRANCH   6   9
ATOM      9  C   UNL     1       7.964   8.372   4.545  1.00  0.00     0.219 C 
BRANCH   9  10
ATOM     10  O   UNL     1       6.945   7.400   4.284  1.00  0.00    -0.382 OA
ATOM     11  H   UNL     1       7.269   6.595   4.745  1.00  0.00     0.211 HD
ENDBRANCH   9  10
BRANCH   9  12
ATOM     12  C   UNL     1       9.320   7.924   3.939  1.00  0.00     0.089 C 
BRANCH  12  13
ATOM     13  N   UNL     1      10.154   7.360   5.025  1.00  0.00    -0.325 NA
ATOM     14  H   UNL     1      10.305   8.076   5.739  1.00  0.00     0.119 HD
ATOM     15  H   UNL     1      11.084   7.153   4.655  1.00  0.00     0.119 HD
ENDBRANCH  12  13
BRANCH  12  16
ATOM     16  C   UNL     1       9.239   6.926   2.759  1.00  0.00     0.022 C 
BRANCH  16  17
ATOM     17  C   UNL     1      10.119   7.157   1.524  1.00  0.00     0.002 C 
BRANCH  17  18
ATOM     18  C   UNL     1      10.006   6.086   0.441  1.00  0.00     0.000 C 
BRANCH  18  19
ATOM     19  C   UNL     1       9.071   6.464  -0.716  1.00  0.00    -0.000 C 
BRANCH  19  20
ATOM     20  C   UNL     1       8.855   7.967  -0.912  1.00  0.00    -0.000 C 
BRANCH  20  21
ATOM     21  C   UNL     1       9.338   8.469  -2.276  1.00  0.00    -0.003 C 
ATOM     22  C   UNL     1      10.433   7.577  -2.839  1.00  0.00     0.004 C 
ENDBRANCH  20  21
ENDBRANCH  19  20
ENDBRANCH  18  19
ENDBRANCH  17  18
ENDBRANCH  16  17
ENDBRANCH  12  16
ENDBRANCH   9  12
ENDBRANCH   6   9
ENDBRANCH   3   5
ENDBRANCH   2   3
BRANCH   2  23
ATOM     23  N   UNL     1       5.086  12.038   1.555  1.00  0.00    -0.332 N 
ATOM     24  C   UNL     1       4.926  13.464   1.313  1.00  0.00     0.147 C 
BRANCH  23  25
ATOM     25  C   UNL     1       5.857  11.308   0.511  1.00  0.00     0.174 C 
BRANCH  25  26
ATOM     26  C   UNL     1       6.571  12.255  -0.482  1.00  0.00     0.038 C 
BRANCH  26  27
ATOM     27  C   UNL     1       7.863  11.728  -1.146  1.00  0.00    -0.015 C 
ATOM     28  C   UNL     1       7.837  11.867  -2.668  1.00  0.00     0.007 C 
ATOM     29  C   UNL     1       9.136  12.345  -0.572  1.00  0.00     0.007 C 
ENDBRANCH  26  27
ENDBRANCH  25  26
BRANCH  25  30
ATOM     30  C   UNL     1       4.959  10.252  -0.173  1.00  0.00     0.243 C 
ATOM     31  O   UNL     1       3.924  10.562  -0.762  1.00  0.00    -0.273 OA
ATOM     32  N   UNL     1       5.388   8.954  -0.074  1.00  0.00    -0.342 N 
ATOM     33  H   UNL     1       6.325   8.792   0.306  1.00  0.00     0.164 HD
BRANCH  32  34
ATOM     34  C   UNL     1       4.651   7.820  -0.637  1.00  0.00     0.175 C 
BRANCH  34  35
ATOM     35  C   UNL     1       3.182   7.828  -0.184  1.00  0.00     0.070 C 
BRANCH  35  36
ATOM     36  C   UNL     1       2.962   7.059   1.099  1.00  0.00    -0.045 A 
ATOM     37  C   UNL     1       1.993   6.045   1.151  1.00  0.00     0.007 A 
ATOM     38  C   UNL     1       3.698   7.358   2.252  1.00  0.00     0.007 A 
ATOM     39  C   UNL     1       1.772   5.339   2.334  1.00  0.00     0.046 A 
ATOM     40  C   UNL     1       3.477   6.652   3.437  1.00  0.00     0.046 A 
ATOM     41  C   UNL     1       2.516   5.647   3.467  1.00  0.00     0.115 A 
BRANCH  41  42
ATOM     42  O   UNL     1       2.268   4.936   4.603  1.00  0.00    -0.508 OA
ATOM     43  H   UNL     1       1.977   4.045   4.347  1.00  0.00     0.293 HD
ENDBRANCH  41  42
ENDBRANCH  35  36
ENDBRANCH  34  35
BRANCH  34  44
ATOM     44  C   UNL     1       4.781   7.881  -2.176  1.00  0.00     0.243 C 
ATOM     45  O   UNL     1       5.781   8.270  -2.772  1.00  0.00    -0.273 OA
ATOM     46  N   UNL     1       3.610   7.578  -2.838  1.00  0.00    -0.341 N 
ATOM     47  H   UNL     1       2.774   7.375  -2.295  1.00  0.00     0.164 HD
BRANCH  46  48
ATOM     48  C   UNL     1       3.470   7.634  -4.295  1.00  0.00     0.196 C 
BRANCH  48  49
ATOM     49  C   UNL     1       4.131   6.420  -4.968  1.00  0.00     0.072 C 
BRANCH  49  50
ATOM     50  C   UNL     1       4.510   6.687  -6.407  1.00  0.00    -0.045 A 
ATOM     51  C   UNL     1       4.870   5.621  -7.244  1.00  0.00     0.007 A 
ATOM     52  C   UNL     1       4.529   7.991  -6.917  1.00  0.00     0.007 A 
ATOM     53  C   UNL     1       5.235   5.857  -8.570  1.00  0.00     0.046 A 
ATOM     54  C   UNL     1       4.896   8.227  -8.244  1.00  0.00     0.046 A 
ATOM     55  C   UNL     1       5.245   7.157  -9.060  1.00  0.00     0.115 A 
BRANCH  55  56
ATOM     56  O   UNL     1       5.609   7.345 -10.360  1.00  0.00    -0.508 OA
ATOM     57  H   UNL     1       4.832   7.652 -10.854  1.00  0.00     0.293 HD
ENDBRANCH  55  56
ENDBRANCH  49  50
ENDBRANCH  48  49
BRANCH  48  58
ATOM     58  C   UNL     1       1.978   7.672  -4.652  1.00  0.00     0.326 C 
ATOM     59  O   UNL     1       1.391   8.536  -5.283  1.00  0.00    -0.250 OA
BRANCH  58  60
ATOM     60  O   UNL     1       1.286   6.595  -4.203  1.00  0.00    -0.480 OA
ATOM     61  H   UNL     1       1.363   6.668  -3.227  1.00  0.00     0.296 HD
ENDBRANCH  58  60
ENDBRANCH  48  58
ENDBRANCH  46  48
ENDBRANCH  34  44
ENDBRANCH  32  34
ENDBRANCH  25  30
ENDBRANCH  23  25
ENDBRANCH   2  23
TORSDOF 28
ENDMDL
MODEL 17
REMARK VINA RESULT:    -6.353      1.885      3.057
REMARK INTER + INTRA:         -19.866
REMARK INTER:                 -16.494
REMARK INTRA:                  -3.372
REMARK UNBOUND:                -4.043
REMARK SMILES CCCCCCC[C@H](N)[C@H](O)C(=O)N[C@H](C)C(=O)N(C)[C@H](CC(C)C)C(=O)N[C@@H](Cc1ccc(O)cc1)C(=O)N[C@@H](Cc1ccc(O)cc1)C(=O)O
REMARK SMILES IDX 18 1 17 2 15 3 16 4 14 5 12 6 13 7 10 9 11 10 8 12 9 13 7 16
REMARK SMILES IDX 6 17 5 18 4 19 3 20 2 21 1 22 19 23 20 24 21 25 22 26 23 27
REMARK SMILES IDX 24 28 25 29 26 30 27 31 28 32 29 34 30 35 31 36 32 37 37 38
REMARK SMILES IDX 33 39 36 40 34 41 35 42 38 44 39 45 40 46 41 48 42 49 43 50
REMARK SMILES IDX 44 51 49 52 45 53 48 54 46 55 47 56 50 58 51 59 52 60
REMARK H PARENT 14 8 11 11 9 14 9 15 28 33 35 43 40 47 47 57 52 61
ROOT
ATOM      1  O   UNL     1       6.266  12.065  -0.030  1.00  0.00    -0.272 OA
ATOM      2  C   UNL     1       7.425  11.677  -0.238  1.00  0.00     0.245 C 
ENDROOT
BRANCH   2   3
ATOM      3  C   UNL     1       8.506  11.966   0.832  1.00  0.00     0.168 C 
ATOM      4  C   UNL     1       9.031  13.392   0.701  1.00  0.00     0.041 C 
BRANCH   3   5
ATOM      5  N   UNL     1       8.112  11.657   2.198  1.00  0.00    -0.342 N 
ATOM      6  C   UNL     1       8.451  10.465   2.802  1.00  0.00     0.251 C 
ATOM      7  O   UNL     1       9.065   9.569   2.232  1.00  0.00    -0.272 OA
ATOM      8  H   UNL     1       7.570  12.309   2.760  1.00  0.00     0.164 HD
BRANCH   6   9
ATOM      9  C   UNL     1       8.055  10.416   4.286  1.00  0.00     0.219 C 
BRANCH   9  10
ATOM     10  O   UNL     1       8.794  11.347   5.086  1.00  0.00    -0.382 OA
ATOM     11  H   UNL     1       8.264  11.414   5.911  1.00  0.00     0.211 HD
ENDBRANCH   9  10
BRANCH   9  12
ATOM     12  C   UNL     1       6.530  10.582   4.515  1.00  0.00     0.089 C 
BRANCH  12  13
ATOM     13  N   UNL     1       6.212  12.029   4.517  1.00  0.00    -0.325 NA
ATOM     14  H   UNL     1       7.066  12.560   4.700  1.00  0.00     0.119 HD
ATOM     15  H   UNL     1       5.597  12.232   5.308  1.00  0.00     0.119 HD
ENDBRANCH  12  13
BRANCH  12  16
ATOM     16  C   UNL     1       5.610   9.837   3.518  1.00  0.00     0.022 C 
BRANCH  16  17
ATOM     17  C   UNL     1       4.628  10.647   2.660  1.00  0.00     0.002 C 
BRANCH  17  18
ATOM     18  C   UNL     1       3.180  10.626   3.144  1.00  0.00     0.000 C 
BRANCH  18  19
ATOM     19  C   UNL     1       2.576  12.019   3.369  1.00  0.00    -0.000 C 
BRANCH  19  20
ATOM     20  C   UNL     1       3.309  13.166   2.666  1.00  0.00    -0.000 C 
BRANCH  20  21
ATOM     21  C   UNL     1       2.607  13.632   1.388  1.00  0.00    -0.003 C 
ATOM     22  C   UNL     1       3.607  14.125   0.354  1.00  0.00     0.004 C 
ENDBRANCH  20  21
ENDBRANCH  19  20
ENDBRANCH  18  19
ENDBRANCH  17  18
ENDBRANCH  16  17
ENDBRANCH  12  16
ENDBRANCH   9  12
ENDBRANCH   6   9
ENDBRANCH   3   5
ENDBRANCH   2   3
BRANCH   2  23
ATOM     23  N   UNL     1       7.706  10.894  -1.353  1.00  0.00    -0.332 N 
ATOM     24  C   UNL     1       7.756  11.391  -2.720  1.00  0.00     0.147 C 
BRANCH  23  25
ATOM     25  C   UNL     1       8.113   9.472  -1.188  1.00  0.00     0.174 C 
BRANCH  25  26
ATOM     26  C   UNL     1       8.817   8.897  -2.440  1.00  0.00     0.038 C 
BRANCH  26  27
ATOM     27  C   UNL     1      10.130   8.117  -2.209  1.00  0.00    -0.015 C 
ATOM     28  C   UNL     1      11.336   9.041  -2.040  1.00  0.00     0.007 C 
ATOM     29  C   UNL     1      10.051   7.122  -1.054  1.00  0.00     0.007 C 
ENDBRANCH  26  27
ENDBRANCH  25  26
BRANCH  25  30
ATOM     30  C   UNL     1       6.910   8.627  -0.708  1.00  0.00     0.243 C 
ATOM     31  O   UNL     1       6.760   8.323   0.474  1.00  0.00    -0.273 OA
ATOM     32  N   UNL     1       6.032   8.236  -1.686  1.00  0.00    -0.342 N 
ATOM     33  H   UNL     1       6.148   8.644  -2.617  1.00  0.00     0.164 HD
BRANCH  32  34
ATOM     34  C   UNL     1       4.852   7.409  -1.420  1.00  0.00     0.175 C 
BRANCH  34  35
ATOM     35  C   UNL     1       3.852   8.139  -0.510  1.00  0.00     0.070 C 
BRANCH  35  36
ATOM     36  C   UNL     1       3.119   7.201   0.423  1.00  0.00    -0.045 A 
ATOM     37  C   UNL     1       2.153   6.319  -0.086  1.00  0.00     0.007 A 
ATOM     38  C   UNL     1       3.371   7.214   1.801  1.00  0.00     0.007 A 
ATOM     39  C   UNL     1       1.461   5.460   0.768  1.00  0.00     0.046 A 
ATOM     40  C   UNL     1       2.678   6.355   2.657  1.00  0.00     0.046 A 
ATOM     41  C   UNL     1       1.729   5.484   2.132  1.00  0.00     0.115 A 
BRANCH  41  42
ATOM     42  O   UNL     1       1.029   4.631   2.932  1.00  0.00    -0.508 OA
ATOM     43  H   UNL     1       1.649   3.979   3.298  1.00  0.00     0.293 HD
ENDBRANCH  41  42
ENDBRANCH  35  36
ENDBRANCH  34  35
BRANCH  34  44
ATOM     44  C   UNL     1       4.222   7.024  -2.777  1.00  0.00     0.243 C 
ATOM     45  O   UNL     1       4.012   5.870  -3.142  1.00  0.00    -0.273 OA
ATOM     46  N   UNL     1       4.029   8.099  -3.618  1.00  0.00    -0.341 N 
ATOM     47  H   UNL     1       4.328   9.023  -3.315  1.00  0.00     0.164 HD
BRANCH  46  48
ATOM     48  C   UNL     1       3.508   7.973  -4.981  1.00  0.00     0.196 C 
BRANCH  48  49
ATOM     49  C   UNL     1       4.031   6.699  -5.665  1.00  0.00     0.072 C 
BRANCH  49  50
ATOM     50  C   UNL     1       4.496   6.948  -7.082  1.00  0.00    -0.045 A 
ATOM     51  C   UNL     1       4.670   5.868  -7.960  1.00  0.00     0.007 A 
ATOM     52  C   UNL     1       4.777   8.244  -7.531  1.00  0.00     0.007 A 
ATOM     53  C   UNL     1       5.110   6.084  -9.266  1.00  0.00     0.046 A 
ATOM     54  C   UNL     1       5.219   8.460  -8.839  1.00  0.00     0.046 A 
ATOM     55  C   UNL     1       5.381   7.377  -9.696  1.00  0.00     0.115 A 
BRANCH  55  56
ATOM     56  O   UNL     1       5.811   7.546 -10.979  1.00  0.00    -0.508 OA
ATOM     57  H   UNL     1       5.828   6.677 -11.412  1.00  0.00     0.293 HD
ENDBRANCH  55  56
ENDBRANCH  49  50
ENDBRANCH  48  49
BRANCH  48  58
ATOM     58  C   UNL     1       1.975   7.937  -4.928  1.00  0.00     0.326 C 
ATOM     59  O   UNL     1       1.277   7.448  -4.055  1.00  0.00    -0.250 OA
BRANCH  58  60
ATOM     60  O   UNL     1       1.382   8.541  -5.989  1.00  0.00    -0.480 OA
ATOM     61  H   UNL     1       1.396   9.492  -5.744  1.00  0.00     0.296 HD
ENDBRANCH  58  60
ENDBRANCH  48  58
ENDBRANCH  46  48
ENDBRANCH  34  44
ENDBRANCH  32  34
ENDBRANCH  25  30
ENDBRANCH  23  25
ENDBRANCH   2  23
TORSDOF 28
ENDMDL
MODEL 18
REMARK VINA RESULT:    -6.325      2.910      9.176
REMARK INTER + INTRA:         -19.797
REMARK INTER:                 -15.391
REMARK INTRA:                  -4.406
REMARK UNBOUND:                -4.043
REMARK SMILES CCCCCCC[C@H](N)[C@H](O)C(=O)N[C@H](C)C(=O)N(C)[C@H](CC(C)C)C(=O)N[C@@H](Cc1ccc(O)cc1)C(=O)N[C@@H](Cc1ccc(O)cc1)C(=O)O
REMARK SMILES IDX 18 1 17 2 15 3 16 4 14 5 12 6 13 7 10 9 11 10 8 12 9 13 7 16
REMARK SMILES IDX 6 17 5 18 4 19 3 20 2 21 1 22 19 23 20 24 21 25 22 26 23 27
REMARK SMILES IDX 24 28 25 29 26 30 27 31 28 32 29 34 30 35 31 36 32 37 37 38
REMARK SMILES IDX 33 39 36 40 34 41 35 42 38 44 39 45 40 46 41 48 42 49 43 50
REMARK SMILES IDX 44 51 49 52 45 53 48 54 46 55 47 56 50 58 51 59 52 60
REMARK H PARENT 14 8 11 11 9 14 9 15 28 33 35 43 40 47 47 57 52 61
ROOT
ATOM      1  O   UNL     1       3.909   7.151   0.905  1.00  0.00    -0.272 OA
ATOM      2  C   UNL     1       3.150   6.674   0.048  1.00  0.00     0.245 C 
ENDROOT
BRANCH   2   3
ATOM      3  C   UNL     1       1.739   6.207   0.484  1.00  0.00     0.168 C 
ATOM      4  C   UNL     1       1.078   5.381  -0.613  1.00  0.00     0.041 C 
BRANCH   3   5
ATOM      5  N   UNL     1       1.690   5.535   1.773  1.00  0.00    -0.342 N 
ATOM      6  C   UNL     1       1.311   6.193   2.924  1.00  0.00     0.251 C 
ATOM      7  O   UNL     1       1.031   7.386   2.959  1.00  0.00    -0.272 OA
ATOM      8  H   UNL     1       1.934   4.552   1.875  1.00  0.00     0.164 HD
BRANCH   6   9
ATOM      9  C   UNL     1       1.194   5.253   4.135  1.00  0.00     0.219 C 
BRANCH   9  10
ATOM     10  O   UNL     1       1.272   3.870   3.771  1.00  0.00    -0.382 OA
ATOM     11  H   UNL     1       0.331   3.590   3.724  1.00  0.00     0.211 HD
ENDBRANCH   9  10
BRANCH   9  12
ATOM     12  C   UNL     1       2.207   5.584   5.262  1.00  0.00     0.089 C 
BRANCH  12  13
ATOM     13  N   UNL     1       3.435   6.132   4.641  1.00  0.00    -0.325 NA
ATOM     14  H   UNL     1       3.458   7.144   4.778  1.00  0.00     0.119 HD
ATOM     15  H   UNL     1       3.380   6.001   3.628  1.00  0.00     0.119 HD
ENDBRANCH  12  13
BRANCH  12  16
ATOM     16  C   UNL     1       1.701   6.538   6.370  1.00  0.00     0.022 C 
BRANCH  16  17
ATOM     17  C   UNL     1       0.191   6.650   6.627  1.00  0.00     0.002 C 
BRANCH  17  18
ATOM     18  C   UNL     1      -0.421   8.008   6.290  1.00  0.00     0.000 C 
BRANCH  18  19
ATOM     19  C   UNL     1       0.606   9.071   5.876  1.00  0.00    -0.000 C 
BRANCH  19  20
ATOM     20  C   UNL     1       0.054  10.205   5.008  1.00  0.00    -0.000 C 
BRANCH  20  21
ATOM     21  C   UNL     1      -1.371  10.613   5.390  1.00  0.00    -0.003 C 
ATOM     22  C   UNL     1      -2.362  10.262   4.290  1.00  0.00     0.004 C 
ENDBRANCH  20  21
ENDBRANCH  19  20
ENDBRANCH  18  19
ENDBRANCH  17  18
ENDBRANCH  16  17
ENDBRANCH  12  16
ENDBRANCH   9  12
ENDBRANCH   6   9
ENDBRANCH   3   5
ENDBRANCH   2   3
BRANCH   2  23
ATOM     23  N   UNL     1       3.524   6.678  -1.292  1.00  0.00    -0.332 N 
ATOM     24  C   UNL     1       3.914   5.495  -2.044  1.00  0.00     0.147 C 
BRANCH  23  25
ATOM     25  C   UNL     1       3.421   7.926  -2.097  1.00  0.00     0.174 C 
BRANCH  25  26
ATOM     26  C   UNL     1       3.352   7.657  -3.618  1.00  0.00     0.038 C 
BRANCH  26  27
ATOM     27  C   UNL     1       1.982   7.858  -4.304  1.00  0.00    -0.015 C 
ATOM     28  C   UNL     1       2.102   7.997  -5.821  1.00  0.00     0.007 C 
ATOM     29  C   UNL     1       0.959   6.785  -3.942  1.00  0.00     0.007 C 
ENDBRANCH  26  27
ENDBRANCH  25  26
BRANCH  25  30
ATOM     30  C   UNL     1       4.537   8.915  -1.690  1.00  0.00     0.243 C 
ATOM     31  O   UNL     1       4.375  10.134  -1.737  1.00  0.00    -0.273 OA
ATOM     32  N   UNL     1       5.716   8.345  -1.283  1.00  0.00    -0.342 N 
ATOM     33  H   UNL     1       5.727   7.333  -1.137  1.00  0.00     0.164 HD
BRANCH  32  34
ATOM     34  C   UNL     1       6.891   9.127  -0.888  1.00  0.00     0.175 C 
BRANCH  34  35
ATOM     35  C   UNL     1       7.372  10.031  -2.034  1.00  0.00     0.070 C 
BRANCH  35  36
ATOM     36  C   UNL     1       8.873  10.001  -2.210  1.00  0.00    -0.045 A 
ATOM     37  C   UNL     1       9.577  11.193  -2.436  1.00  0.00     0.007 A 
ATOM     38  C   UNL     1       9.577   8.790  -2.176  1.00  0.00     0.007 A 
ATOM     39  C   UNL     1      10.961  11.174  -2.614  1.00  0.00     0.046 A 
ATOM     40  C   UNL     1      10.963   8.770  -2.355  1.00  0.00     0.046 A 
ATOM     41  C   UNL     1      11.642   9.964  -2.572  1.00  0.00     0.115 A 
BRANCH  41  42
ATOM     42  O   UNL     1      12.994   9.988  -2.753  1.00  0.00    -0.508 OA
ATOM     43  H   UNL     1      13.242   9.219  -3.292  1.00  0.00     0.293 HD
ENDBRANCH  41  42
ENDBRANCH  35  36
ENDBRANCH  34  35
BRANCH  34  44
ATOM     44  C   UNL     1       6.521   9.941   0.373  1.00  0.00     0.243 C 
ATOM     45  O   UNL     1       6.707  11.148   0.498  1.00  0.00    -0.273 OA
ATOM     46  N   UNL     1       6.075   9.161   1.418  1.00  0.00    -0.341 N 
ATOM     47  H   UNL     1       6.049   8.151   1.305  1.00  0.00     0.164 HD
BRANCH  46  48
ATOM     48  C   UNL     1       5.730   9.700   2.736  1.00  0.00     0.196 C 
BRANCH  48  49
ATOM     49  C   UNL     1       4.227   9.552   3.026  1.00  0.00     0.072 C 
BRANCH  49  50
ATOM     50  C   UNL     1       3.645  10.765   3.716  1.00  0.00    -0.045 A 
ATOM     51  C   UNL     1       3.037  11.776   2.958  1.00  0.00     0.007 A 
ATOM     52  C   UNL     1       3.722  10.909   5.107  1.00  0.00     0.007 A 
ATOM     53  C   UNL     1       2.509  12.906   3.582  1.00  0.00     0.046 A 
ATOM     54  C   UNL     1       3.194  12.041   5.732  1.00  0.00     0.046 A 
ATOM     55  C   UNL     1       2.591  13.030   4.964  1.00  0.00     0.115 A 
BRANCH  55  56
ATOM     56  O   UNL     1       2.064  14.151   5.535  1.00  0.00    -0.508 OA
ATOM     57  H   UNL     1       2.058  14.859   4.871  1.00  0.00     0.293 HD
ENDBRANCH  55  56
ENDBRANCH  49  50
ENDBRANCH  48  49
BRANCH  48  58
ATOM     58  C   UNL     1       6.537   8.954   3.807  1.00  0.00     0.326 C 
ATOM     59  O   UNL     1       7.520   9.357   4.407  1.00  0.00    -0.250 OA
BRANCH  58  60
ATOM     60  O   UNL     1       6.050   7.719   4.089  1.00  0.00    -0.480 OA
ATOM     61  H   UNL     1       6.100   7.674   5.069  1.00  0.00     0.296 HD
ENDBRANCH  58  60
ENDBRANCH  48  58
ENDBRANCH  46  48
ENDBRANCH  34  44
ENDBRANCH  32  34
ENDBRANCH  25  30
ENDBRANCH  23  25
ENDBRANCH   2  23
TORSDOF 28
ENDMDL
MODEL 19
REMARK VINA RESULT:    -6.309      2.872      8.440
REMARK INTER + INTRA:         -19.758
REMARK INTER:                 -14.837
REMARK INTRA:                  -4.920
REMARK UNBOUND:                -4.043
REMARK SMILES CCCCCCC[C@H](N)[C@H](O)C(=O)N[C@H](C)C(=O)N(C)[C@H](CC(C)C)C(=O)N[C@@H](Cc1ccc(O)cc1)C(=O)N[C@@H](Cc1ccc(O)cc1)C(=O)O
REMARK SMILES IDX 18 1 17 2 15 3 16 4 14 5 12 6 13 7 10 9 11 10 8 12 9 13 7 16
REMARK SMILES IDX 6 17 5 18 4 19 3 20 2 21 1 22 19 23 20 24 21 25 22 26 23 27
REMARK SMILES IDX 24 28 25 29 26 30 27 31 28 32 29 34 30 35 31 36 32 37 37 38
REMARK SMILES IDX 33 39 36 40 34 41 35 42 38 44 39 45 40 46 41 48 42 49 43 50
REMARK SMILES IDX 44 51 49 52 45 53 48 54 46 55 47 56 50 58 51 59 52 60
REMARK H PARENT 14 8 11 11 9 14 9 15 28 33 35 43 40 47 47 57 52 61
ROOT
ATOM      1  O   UNL     1       7.074   8.809   2.316  1.00  0.00    -0.272 OA
ATOM      2  C   UNL     1       7.633   9.830   1.889  1.00  0.00     0.245 C 
ENDROOT
BRANCH   2   3
ATOM      3  C   UNL     1       9.139  10.033   2.193  1.00  0.00     0.168 C 
ATOM      4  C   UNL     1       9.736   8.782   2.827  1.00  0.00     0.041 C 
BRANCH   3   5
ATOM      5  N   UNL     1       9.932  10.502   1.067  1.00  0.00    -0.342 N 
ATOM      6  C   UNL     1      10.679  11.658   1.134  1.00  0.00     0.251 C 
ATOM      7  O   UNL     1      10.702  12.393   2.116  1.00  0.00    -0.272 OA
ATOM      8  H   UNL     1       9.964   9.994   0.186  1.00  0.00     0.164 HD
BRANCH   6   9
ATOM      9  C   UNL     1      11.545  11.880  -0.117  1.00  0.00     0.219 C 
BRANCH   9  10
ATOM     10  O   UNL     1      11.674  13.265  -0.461  1.00  0.00    -0.382 OA
ATOM     11  H   UNL     1      10.788  13.499  -0.813  1.00  0.00     0.211 HD
ENDBRANCH   9  10
BRANCH   9  12
ATOM     12  C   UNL     1      12.937  11.204  -0.021  1.00  0.00     0.089 C 
BRANCH  12  13
ATOM     13  N   UNL     1      12.970  10.371   1.203  1.00  0.00    -0.325 NA
ATOM     14  H   UNL     1      13.531   9.536   1.026  1.00  0.00     0.119 HD
ATOM     15  H   UNL     1      12.027  10.024   1.391  1.00  0.00     0.119 HD
ENDBRANCH  12  13
BRANCH  12  16
ATOM     16  C   UNL     1      13.368  10.364  -1.248  1.00  0.00     0.022 C 
BRANCH  16  17
ATOM     17  C   UNL     1      12.814   8.942  -1.411  1.00  0.00     0.002 C 
BRANCH  17  18
ATOM     18  C   UNL     1      11.757   8.784  -2.501  1.00  0.00     0.000 C 
BRANCH  18  19
ATOM     19  C   UNL     1      10.713   7.699  -2.205  1.00  0.00    -0.000 C 
BRANCH  19  20
ATOM     20  C   UNL     1      10.169   7.692  -0.774  1.00  0.00    -0.000 C 
BRANCH  20  21
ATOM     21  C   UNL     1       9.388   6.420  -0.434  1.00  0.00    -0.003 C 
ATOM     22  C   UNL     1       9.965   5.725   0.789  1.00  0.00     0.004 C 
ENDBRANCH  20  21
ENDBRANCH  19  20
ENDBRANCH  18  19
ENDBRANCH  17  18
ENDBRANCH  16  17
ENDBRANCH  12  16
ENDBRANCH   9  12
ENDBRANCH   6   9
ENDBRANCH   3   5
ENDBRANCH   2   3
BRANCH   2  23
ATOM     23  N   UNL     1       6.944  10.703   1.053  1.00  0.00    -0.332 N 
ATOM     24  C   UNL     1       6.725  12.114   1.333  1.00  0.00     0.147 C 
BRANCH  23  25
ATOM     25  C   UNL     1       6.481  10.251  -0.288  1.00  0.00     0.174 C 
BRANCH  25  26
ATOM     26  C   UNL     1       6.766  11.284  -1.403  1.00  0.00     0.038 C 
BRANCH  26  27
ATOM     27  C   UNL     1       7.557  10.786  -2.633  1.00  0.00    -0.015 C 
ATOM     28  C   UNL     1       8.997  11.296  -2.648  1.00  0.00     0.007 C 
ATOM     29  C   UNL     1       7.522   9.269  -2.804  1.00  0.00     0.007 C 
ENDBRANCH  26  27
ENDBRANCH  25  26
BRANCH  25  30
ATOM     30  C   UNL     1       5.003   9.804  -0.217  1.00  0.00     0.243 C 
ATOM     31  O   UNL     1       4.099  10.464  -0.728  1.00  0.00    -0.273 OA
ATOM     32  N   UNL     1       4.769   8.632   0.454  1.00  0.00    -0.342 N 
ATOM     33  H   UNL     1       5.580   8.071   0.726  1.00  0.00     0.164 HD
BRANCH  32  34
ATOM     34  C   UNL     1       3.428   8.070   0.643  1.00  0.00     0.175 C 
BRANCH  34  35
ATOM     35  C   UNL     1       3.307   6.683  -0.007  1.00  0.00     0.070 C 
BRANCH  35  36
ATOM     36  C   UNL     1       2.680   6.736  -1.382  1.00  0.00    -0.045 A 
ATOM     37  C   UNL     1       3.468   7.046  -2.501  1.00  0.00     0.007 A 
ATOM     38  C   UNL     1       1.310   6.499  -1.558  1.00  0.00     0.007 A 
ATOM     39  C   UNL     1       2.896   7.110  -3.772  1.00  0.00     0.046 A 
ATOM     40  C   UNL     1       0.737   6.564  -2.830  1.00  0.00     0.046 A 
ATOM     41  C   UNL     1       1.537   6.868  -3.927  1.00  0.00     0.115 A 
BRANCH  41  42
ATOM     42  O   UNL     1       1.017   6.944  -5.185  1.00  0.00    -0.508 OA
ATOM     43  H   UNL     1       0.241   6.360  -5.230  1.00  0.00     0.293 HD
ENDBRANCH  41  42
ENDBRANCH  35  36
ENDBRANCH  34  35
BRANCH  34  44
ATOM     44  C   UNL     1       3.139   8.024   2.161  1.00  0.00     0.243 C 
ATOM     45  O   UNL     1       3.592   8.819   2.978  1.00  0.00    -0.273 OA
ATOM     46  N   UNL     1       2.417   6.914   2.548  1.00  0.00    -0.341 N 
ATOM     47  H   UNL     1       2.163   6.221   1.848  1.00  0.00     0.164 HD
BRANCH  46  48
ATOM     48  C   UNL     1       2.079   6.619   3.942  1.00  0.00     0.196 C 
BRANCH  48  49
ATOM     49  C   UNL     1       0.648   7.070   4.280  1.00  0.00     0.072 C 
BRANCH  49  50
ATOM     50  C   UNL     1       0.591   8.497   4.777  1.00  0.00    -0.045 A 
ATOM     51  C   UNL     1       1.523   8.946   5.723  1.00  0.00     0.007 A 
ATOM     52  C   UNL     1      -0.397   9.379   4.321  1.00  0.00     0.007 A 
ATOM     53  C   UNL     1       1.471  10.256   6.199  1.00  0.00     0.046 A 
ATOM     54  C   UNL     1      -0.450  10.691   4.799  1.00  0.00     0.046 A 
ATOM     55  C   UNL     1       0.487  11.118   5.734  1.00  0.00     0.115 A 
BRANCH  55  56
ATOM     56  O   UNL     1       0.469  12.390   6.225  1.00  0.00    -0.508 OA
ATOM     57  H   UNL     1       1.385  12.704   6.293  1.00  0.00     0.293 HD
ENDBRANCH  55  56
ENDBRANCH  49  50
ENDBRANCH  48  49
BRANCH  48  58
ATOM     58  C   UNL     1       2.212   5.108   4.178  1.00  0.00     0.326 C 
ATOM     59  O   UNL     1       2.863   4.550   5.046  1.00  0.00    -0.250 OA
BRANCH  58  60
ATOM     60  O   UNL     1       1.494   4.359   3.304  1.00  0.00    -0.480 OA
ATOM     61  H   UNL     1       0.623   4.267   3.747  1.00  0.00     0.296 HD
ENDBRANCH  58  60
ENDBRANCH  48  58
ENDBRANCH  46  48
ENDBRANCH  34  44
ENDBRANCH  32  34
ENDBRANCH  25  30
ENDBRANCH  23  25
ENDBRANCH   2  23
TORSDOF 28
ENDMDL
MODEL 20
REMARK VINA RESULT:    -6.254      2.779      7.749
REMARK INTER + INTRA:         -19.619
REMARK INTER:                 -15.781
REMARK INTRA:                  -3.839
REMARK UNBOUND:                -4.043
REMARK SMILES CCCCCCC[C@H](N)[C@H](O)C(=O)N[C@H](C)C(=O)N(C)[C@H](CC(C)C)C(=O)N[C@@H](Cc1ccc(O)cc1)C(=O)N[C@@H](Cc1ccc(O)cc1)C(=O)O
REMARK SMILES IDX 18 1 17 2 15 3 16 4 14 5 12 6 13 7 10 9 11 10 8 12 9 13 7 16
REMARK SMILES IDX 6 17 5 18 4 19 3 20 2 21 1 22 19 23 20 24 21 25 22 26 23 27
REMARK SMILES IDX 24 28 25 29 26 30 27 31 28 32 29 34 30 35 31 36 32 37 37 38
REMARK SMILES IDX 33 39 36 40 34 41 35 42 38 44 39 45 40 46 41 48 42 49 43 50
REMARK SMILES IDX 44 51 49 52 45 53 48 54 46 55 47 56 50 58 51 59 52 60
REMARK H PARENT 14 8 11 11 9 14 9 15 28 33 35 43 40 47 47 57 52 61
ROOT
ATOM      1  O   UNL     1       6.600  12.102   0.355  1.00  0.00    -0.272 OA
ATOM      2  C   UNL     1       7.321  11.356  -0.324  1.00  0.00     0.245 C 
ENDROOT
BRANCH   2   3
ATOM      3  C   UNL     1       6.979  11.157  -1.822  1.00  0.00     0.168 C 
ATOM      4  C   UNL     1       8.174  10.589  -2.579  1.00  0.00     0.041 C 
BRANCH   3   5
ATOM      5  N   UNL     1       5.765  10.398  -2.076  1.00  0.00    -0.342 N 
ATOM      6  C   UNL     1       5.762   9.019  -2.107  1.00  0.00     0.251 C 
ATOM      7  O   UNL     1       6.771   8.337  -1.966  1.00  0.00    -0.272 OA
ATOM      8  H   UNL     1       4.871  10.855  -2.242  1.00  0.00     0.164 HD
BRANCH   6   9
ATOM      9  C   UNL     1       4.349   8.431  -2.249  1.00  0.00     0.219 C 
BRANCH   9  10
ATOM     10  O   UNL     1       3.607   9.028  -3.320  1.00  0.00    -0.382 OA
ATOM     11  H   UNL     1       2.746   8.555  -3.296  1.00  0.00     0.211 HD
ENDBRANCH   9  10
BRANCH   9  12
ATOM     12  C   UNL     1       4.342   6.885  -2.369  1.00  0.00     0.089 C 
BRANCH  12  13
ATOM     13  N   UNL     1       4.810   6.314  -1.085  1.00  0.00    -0.325 NA
ATOM     14  H   UNL     1       5.524   5.608  -1.271  1.00  0.00     0.119 HD
ATOM     15  H   UNL     1       4.038   5.805  -0.648  1.00  0.00     0.119 HD
ENDBRANCH  12  13
BRANCH  12  16
ATOM     16  C   UNL     1       2.994   6.242  -2.776  1.00  0.00     0.022 C 
BRANCH  16  17
ATOM     17  C   UNL     1       1.771   6.432  -1.869  1.00  0.00     0.002 C 
BRANCH  17  18
ATOM     18  C   UNL     1       0.494   6.856  -2.589  1.00  0.00     0.000 C 
BRANCH  18  19
ATOM     19  C   UNL     1       0.416   6.391  -4.049  1.00  0.00    -0.000 C 
BRANCH  19  20
ATOM     20  C   UNL     1      -0.842   5.597  -4.412  1.00  0.00    -0.000 C 
BRANCH  20  21
ATOM     21  C   UNL     1      -0.906   5.220  -5.895  1.00  0.00    -0.003 C 
ATOM     22  C   UNL     1       0.175   5.929  -6.695  1.00  0.00     0.004 C 
ENDBRANCH  20  21
ENDBRANCH  19  20
ENDBRANCH  18  19
ENDBRANCH  17  18
ENDBRANCH  16  17
ENDBRANCH  12  16
ENDBRANCH   9  12
ENDBRANCH   6   9
ENDBRANCH   3   5
ENDBRANCH   2   3
BRANCH   2  23
ATOM     23  N   UNL     1       8.476  10.814   0.228  1.00  0.00    -0.332 N 
ATOM     24  C   UNL     1       9.795  11.424   0.148  1.00  0.00     0.147 C 
BRANCH  23  25
ATOM     25  C   UNL     1       8.402   9.591   1.075  1.00  0.00     0.174 C 
BRANCH  25  26
ATOM     26  C   UNL     1       8.831   8.310   0.322  1.00  0.00     0.038 C 
BRANCH  26  27
ATOM     27  C   UNL     1      10.076   7.567   0.856  1.00  0.00    -0.015 C 
ATOM     28  C   UNL     1       9.954   6.050   0.721  1.00  0.00     0.007 C 
ATOM     29  C   UNL     1      11.385   8.058   0.244  1.00  0.00     0.007 C 
ENDBRANCH  26  27
ENDBRANCH  25  26
BRANCH  25  30
ATOM     30  C   UNL     1       7.009   9.486   1.737  1.00  0.00     0.243 C 
ATOM     31  O   UNL     1       6.764  10.011   2.822  1.00  0.00    -0.273 OA
ATOM     32  N   UNL     1       6.073   8.767   1.039  1.00  0.00    -0.342 N 
ATOM     33  H   UNL     1       6.309   8.484   0.084  1.00  0.00     0.164 HD
BRANCH  32  34
ATOM     34  C   UNL     1       4.710   8.541   1.525  1.00  0.00     0.175 C 
BRANCH  34  35
ATOM     35  C   UNL     1       4.714   7.937   2.938  1.00  0.00     0.070 C 
BRANCH  35  36
ATOM     36  C   UNL     1       3.659   6.869   3.121  1.00  0.00    -0.045 A 
ATOM     37  C   UNL     1       2.754   6.592   2.085  1.00  0.00     0.007 A 
ATOM     38  C   UNL     1       3.554   6.161   4.326  1.00  0.00     0.007 A 
ATOM     39  C   UNL     1       1.769   5.618   2.249  1.00  0.00     0.046 A 
ATOM     40  C   UNL     1       2.566   5.187   4.491  1.00  0.00     0.046 A 
ATOM     41  C   UNL     1       1.683   4.923   3.450  1.00  0.00     0.115 A 
BRANCH  41  42
ATOM     42  O   UNL     1       0.704   3.982   3.571  1.00  0.00    -0.508 OA
ATOM     43  H   UNL     1       0.862   3.291   2.906  1.00  0.00     0.293 HD
ENDBRANCH  41  42
ENDBRANCH  35  36
ENDBRANCH  34  35
BRANCH  34  44
ATOM     44  C   UNL     1       3.953   9.887   1.475  1.00  0.00     0.243 C 
ATOM     45  O   UNL     1       3.754  10.533   0.450  1.00  0.00    -0.273 OA
ATOM     46  N   UNL     1       3.625  10.379   2.721  1.00  0.00    -0.341 N 
ATOM     47  H   UNL     1       3.916   9.864   3.548  1.00  0.00     0.164 HD
BRANCH  46  48
ATOM     48  C   UNL     1       2.966  11.670   2.929  1.00  0.00     0.196 C 
BRANCH  48  49
ATOM     49  C   UNL     1       2.413  11.792   4.359  1.00  0.00     0.072 C 
BRANCH  49  50
ATOM     50  C   UNL     1       1.410  10.710   4.689  1.00  0.00    -0.045 A 
ATOM     51  C   UNL     1       1.852   9.479   5.196  1.00  0.00     0.007 A 
ATOM     52  C   UNL     1       0.040  10.908   4.477  1.00  0.00     0.007 A 
ATOM     53  C   UNL     1       0.937   8.468   5.492  1.00  0.00     0.046 A 
ATOM     54  C   UNL     1      -0.876   9.895   4.772  1.00  0.00     0.046 A 
ATOM     55  C   UNL     1      -0.419   8.683   5.278  1.00  0.00     0.115 A 
BRANCH  55  56
ATOM     56  O   UNL     1      -1.279   7.669   5.578  1.00  0.00    -0.508 OA
ATOM     57  H   UNL     1      -0.819   6.826   5.439  1.00  0.00     0.293 HD
ENDBRANCH  55  56
ENDBRANCH  49  50
ENDBRANCH  48  49
BRANCH  48  58
ATOM     58  C   UNL     1       3.978  12.795   2.671  1.00  0.00     0.326 C 
ATOM     59  O   UNL     1       3.763  13.877   2.148  1.00  0.00    -0.250 OA
BRANCH  58  60
ATOM     60  O   UNL     1       5.231  12.506   3.103  1.00  0.00    -0.480 OA
ATOM     61  H   UNL     1       5.308  11.540   2.943  1.00  0.00     0.296 HD
ENDBRANCH  58  60
ENDBRANCH  48  58
ENDBRANCH  46  48
ENDBRANCH  34  44
ENDBRANCH  32  34
ENDBRANCH  25  30
ENDBRANCH  23  25
ENDBRANCH   2  23
TORSDOF 28
ENDMDL
MODEL 21
REMARK VINA RESULT:    -6.250      2.180      4.032
REMARK INTER + INTRA:         -19.609
REMARK INTER:                 -16.252
REMARK INTRA:                  -3.356
REMARK UNBOUND:                -4.043
REMARK SMILES CCCCCCC[C@H](N)[C@H](O)C(=O)N[C@H](C)C(=O)N(C)[C@H](CC(C)C)C(=O)N[C@@H](Cc1ccc(O)cc1)C(=O)N[C@@H](Cc1ccc(O)cc1)C(=O)O
REMARK SMILES IDX 18 1 17 2 15 3 16 4 14 5 12 6 13 7 10 9 11 10 8 12 9 13 7 16
REMARK SMILES IDX 6 17 5 18 4 19 3 20 2 21 1 22 19 23 20 24 21 25 22 26 23 27
REMARK SMILES IDX 24 28 25 29 26 30 27 31 28 32 29 34 30 35 31 36 32 37 37 38
REMARK SMILES IDX 33 39 36 40 34 41 35 42 38 44 39 45 40 46 41 48 42 49 43 50
REMARK SMILES IDX 44 51 49 52 45 53 48 54 46 55 47 56 50 58 51 59 52 60
REMARK H PARENT 14 8 11 11 9 14 9 15 28 33 35 43 40 47 47 57 52 61
ROOT
ATOM      1  O   UNL     1       6.251  10.888   2.354  1.00  0.00    -0.272 OA
ATOM      2  C   UNL     1       5.821  11.789   1.618  1.00  0.00     0.245 C 
ENDROOT
BRANCH   2   3
ATOM      3  C   UNL     1       4.578  12.591   2.076  1.00  0.00     0.168 C 
ATOM      4  C   UNL     1       3.609  12.796   0.917  1.00  0.00     0.041 C 
BRANCH   3   5
ATOM      5  N   UNL     1       3.909  12.061   3.254  1.00  0.00    -0.342 N 
ATOM      6  C   UNL     1       4.244  12.470   4.528  1.00  0.00     0.251 C 
ATOM      7  O   UNL     1       5.145  13.267   4.766  1.00  0.00    -0.272 OA
ATOM      8  H   UNL     1       3.168  11.367   3.184  1.00  0.00     0.164 HD
BRANCH   6   9
ATOM      9  C   UNL     1       3.314  11.887   5.603  1.00  0.00     0.219 C 
BRANCH   9  10
ATOM     10  O   UNL     1       1.943  12.253   5.405  1.00  0.00    -0.382 OA
ATOM     11  H   UNL     1       1.463  11.398   5.479  1.00  0.00     0.211 HD
ENDBRANCH   9  10
BRANCH   9  12
ATOM     12  C   UNL     1       3.457  10.351   5.765  1.00  0.00     0.089 C 
BRANCH  12  13
ATOM     13  N   UNL     1       4.769   9.943   5.212  1.00  0.00    -0.325 NA
ATOM     14  H   UNL     1       5.284  10.776   4.921  1.00  0.00     0.119 HD
ATOM     15  H   UNL     1       4.614   9.411   4.353  1.00  0.00     0.119 HD
ENDBRANCH  12  13
BRANCH  12  16
ATOM     16  C   UNL     1       3.292   9.803   7.203  1.00  0.00     0.022 C 
BRANCH  16  17
ATOM     17  C   UNL     1       2.869   8.341   7.400  1.00  0.00     0.002 C 
BRANCH  17  18
ATOM     18  C   UNL     1       1.390   8.136   7.724  1.00  0.00     0.000 C 
BRANCH  18  19
ATOM     19  C   UNL     1       0.447   8.437   6.551  1.00  0.00    -0.000 C 
BRANCH  19  20
ATOM     20  C   UNL     1       0.885   7.865   5.201  1.00  0.00    -0.000 C 
BRANCH  20  21
ATOM     21  C   UNL     1       0.351   8.664   4.009  1.00  0.00    -0.003 C 
ATOM     22  C   UNL     1      -0.386   9.913   4.465  1.00  0.00     0.004 C 
ENDBRANCH  20  21
ENDBRANCH  19  20
ENDBRANCH  18  19
ENDBRANCH  17  18
ENDBRANCH  16  17
ENDBRANCH  12  16
ENDBRANCH   9  12
ENDBRANCH   6   9
ENDBRANCH   3   5
ENDBRANCH   2   3
BRANCH   2  23
ATOM     23  N   UNL     1       6.523  12.143   0.470  1.00  0.00    -0.332 N 
ATOM     24  C   UNL     1       6.990  13.488   0.170  1.00  0.00     0.147 C 
BRANCH  23  25
ATOM     25  C   UNL     1       6.962  11.097  -0.494  1.00  0.00     0.174 C 
BRANCH  25  26
ATOM     26  C   UNL     1       7.770  11.673  -1.681  1.00  0.00     0.038 C 
BRANCH  26  27
ATOM     27  C   UNL     1       9.096  10.964  -2.035  1.00  0.00    -0.015 C 
ATOM     28  C   UNL     1       8.875   9.558  -2.592  1.00  0.00     0.007 C 
ATOM     29  C   UNL     1       9.989  11.777  -2.968  1.00  0.00     0.007 C 
ENDBRANCH  26  27
ENDBRANCH  25  26
BRANCH  25  30
ATOM     30  C   UNL     1       5.757  10.231  -0.925  1.00  0.00     0.243 C 
ATOM     31  O   UNL     1       4.790  10.710  -1.516  1.00  0.00    -0.273 OA
ATOM     32  N   UNL     1       5.835   8.901  -0.600  1.00  0.00    -0.342 N 
ATOM     33  H   UNL     1       6.727   8.554  -0.238  1.00  0.00     0.164 HD
BRANCH  32  34
ATOM     34  C   UNL     1       4.775   7.937  -0.905  1.00  0.00     0.175 C 
BRANCH  34  35
ATOM     35  C   UNL     1       3.444   8.346  -0.255  1.00  0.00     0.070 C 
BRANCH  35  36
ATOM     36  C   UNL     1       2.900   7.288   0.679  1.00  0.00    -0.045 A 
ATOM     37  C   UNL     1       3.377   7.202   1.995  1.00  0.00     0.007 A 
ATOM     38  C   UNL     1       1.935   6.371   0.242  1.00  0.00     0.007 A 
ATOM     39  C   UNL     1       2.891   6.220   2.860  1.00  0.00     0.046 A 
ATOM     40  C   UNL     1       1.449   5.387   1.107  1.00  0.00     0.046 A 
ATOM     41  C   UNL     1       1.931   5.322   2.410  1.00  0.00     0.115 A 
BRANCH  41  42
ATOM     42  O   UNL     1       1.485   4.377   3.285  1.00  0.00    -0.508 OA
ATOM     43  H   UNL     1       2.225   4.122   3.861  1.00  0.00     0.293 HD
ENDBRANCH  41  42
ENDBRANCH  35  36
ENDBRANCH  34  35
BRANCH  34  44
ATOM     44  C   UNL     1       4.656   7.826  -2.442  1.00  0.00     0.243 C 
ATOM     45  O   UNL     1       5.591   7.983  -3.223  1.00  0.00    -0.273 OA
ATOM     46  N   UNL     1       3.360   7.658  -2.882  1.00  0.00    -0.341 N 
ATOM     47  H   UNL     1       2.605   7.650  -2.201  1.00  0.00     0.164 HD
BRANCH  46  48
ATOM     48  C   UNL     1       2.992   7.595  -4.298  1.00  0.00     0.196 C 
BRANCH  48  49
ATOM     49  C   UNL     1       3.780   6.497  -5.033  1.00  0.00     0.072 C 
BRANCH  49  50
ATOM     50  C   UNL     1       4.338   6.969  -6.356  1.00  0.00    -0.045 A 
ATOM     51  C   UNL     1       5.024   6.070  -7.186  1.00  0.00     0.007 A 
ATOM     52  C   UNL     1       4.201   8.303  -6.762  1.00  0.00     0.007 A 
ATOM     53  C   UNL     1       5.555   6.497  -8.403  1.00  0.00     0.046 A 
ATOM     54  C   UNL     1       4.734   8.730  -7.980  1.00  0.00     0.046 A 
ATOM     55  C   UNL     1       5.406   7.823  -8.791  1.00  0.00     0.115 A 
BRANCH  55  56
ATOM     56  O   UNL     1       5.942   8.200  -9.987  1.00  0.00    -0.508 OA
ATOM     57  H   UNL     1       6.896   8.023  -9.964  1.00  0.00     0.293 HD
ENDBRANCH  55  56
ENDBRANCH  49  50
ENDBRANCH  48  49
BRANCH  48  58
ATOM     58  C   UNL     1       1.488   7.312  -4.410  1.00  0.00     0.326 C 
ATOM     59  O   UNL     1       0.640   7.463  -3.545  1.00  0.00    -0.250 OA
BRANCH  58  60
ATOM     60  O   UNL     1       1.112   6.859  -5.633  1.00  0.00    -0.480 OA
ATOM     61  H   UNL     1       1.671   7.379  -6.249  1.00  0.00     0.296 HD
ENDBRANCH  58  60
ENDBRANCH  48  58
ENDBRANCH  46  48
ENDBRANCH  34  44
ENDBRANCH  32  34
ENDBRANCH  25  30
ENDBRANCH  23  25
ENDBRANCH   2  23
TORSDOF 28
ENDMDL
MODEL 22
REMARK VINA RESULT:    -6.210      2.651      8.740
REMARK INTER + INTRA:         -19.509
REMARK INTER:                 -15.989
REMARK INTRA:                  -3.521
REMARK UNBOUND:                -4.043
REMARK SMILES CCCCCCC[C@H](N)[C@H](O)C(=O)N[C@H](C)C(=O)N(C)[C@H](CC(C)C)C(=O)N[C@@H](Cc1ccc(O)cc1)C(=O)N[C@@H](Cc1ccc(O)cc1)C(=O)O
REMARK SMILES IDX 18 1 17 2 15 3 16 4 14 5 12 6 13 7 10 9 11 10 8 12 9 13 7 16
REMARK SMILES IDX 6 17 5 18 4 19 3 20 2 21 1 22 19 23 20 24 21 25 22 26 23 27
REMARK SMILES IDX 24 28 25 29 26 30 27 31 28 32 29 34 30 35 31 36 32 37 37 38
REMARK SMILES IDX 33 39 36 40 34 41 35 42 38 44 39 45 40 46 41 48 42 49 43 50
REMARK SMILES IDX 44 51 49 52 45 53 48 54 46 55 47 56 50 58 51 59 52 60
REMARK H PARENT 14 8 11 11 9 14 9 15 28 33 35 43 40 47 47 57 52 61
ROOT
ATOM      1  O   UNL     1       4.136  10.408  -0.955  1.00  0.00    -0.272 OA
ATOM      2  C   UNL     1       5.326  10.061  -0.965  1.00  0.00     0.245 C 
ENDROOT
BRANCH   2   3
ATOM      3  C   UNL     1       5.944   9.570  -2.298  1.00  0.00     0.168 C 
ATOM      4  C   UNL     1       7.408   9.187  -2.108  1.00  0.00     0.041 C 
BRANCH   3   5
ATOM      5  N   UNL     1       5.192   8.522  -2.970  1.00  0.00    -0.342 N 
ATOM      6  C   UNL     1       4.776   7.386  -2.309  1.00  0.00     0.251 C 
ATOM      7  O   UNL     1       5.038   7.153  -1.134  1.00  0.00    -0.272 OA
ATOM      8  H   UNL     1       4.945   8.587  -3.955  1.00  0.00     0.164 HD
BRANCH   6   9
ATOM      9  C   UNL     1       3.879   6.488  -3.177  1.00  0.00     0.219 C 
BRANCH   9  10
ATOM     10  O   UNL     1       3.931   5.111  -2.785  1.00  0.00    -0.382 OA
ATOM     11  H   UNL     1       3.000   4.811  -2.872  1.00  0.00     0.211 HD
ENDBRANCH   9  10
BRANCH   9  12
ATOM     12  C   UNL     1       2.411   6.984  -3.252  1.00  0.00     0.089 C 
BRANCH  12  13
ATOM     13  N   UNL     1       2.300   8.234  -2.465  1.00  0.00    -0.325 NA
ATOM     14  H   UNL     1       3.053   8.869  -2.734  1.00  0.00     0.119 HD
ATOM     15  H   UNL     1       2.470   8.021  -1.479  1.00  0.00     0.119 HD
ENDBRANCH  12  13
BRANCH  12  16
ATOM     16  C   UNL     1       1.840   7.199  -4.674  1.00  0.00     0.022 C 
BRANCH  16  17
ATOM     17  C   UNL     1       2.157   8.504  -5.417  1.00  0.00     0.002 C 
BRANCH  17  18
ATOM     18  C   UNL     1       2.907   8.329  -6.736  1.00  0.00     0.000 C 
BRANCH  18  19
ATOM     19  C   UNL     1       4.372   7.902  -6.569  1.00  0.00    -0.000 C 
BRANCH  19  20
ATOM     20  C   UNL     1       5.014   7.284  -7.814  1.00  0.00    -0.000 C 
BRANCH  20  21
ATOM     21  C   UNL     1       4.738   5.784  -7.949  1.00  0.00    -0.003 C 
ATOM     22  C   UNL     1       5.409   5.205  -9.185  1.00  0.00     0.004 C 
ENDBRANCH  20  21
ENDBRANCH  19  20
ENDBRANCH  18  19
ENDBRANCH  17  18
ENDBRANCH  16  17
ENDBRANCH  12  16
ENDBRANCH   9  12
ENDBRANCH   6   9
ENDBRANCH   3   5
ENDBRANCH   2   3
BRANCH   2  23
ATOM     23  N   UNL     1       6.109  10.232   0.172  1.00  0.00    -0.332 N 
ATOM     24  C   UNL     1       7.260   9.409   0.512  1.00  0.00     0.147 C 
BRANCH  23  25
ATOM     25  C   UNL     1       5.880  11.392   1.075  1.00  0.00     0.174 C 
BRANCH  25  26
ATOM     26  C   UNL     1       7.124  12.300   1.218  1.00  0.00     0.038 C 
BRANCH  26  27
ATOM     27  C   UNL     1       7.430  13.258   0.045  1.00  0.00    -0.015 C 
ATOM     28  C   UNL     1       8.465  12.685  -0.922  1.00  0.00     0.007 C 
ATOM     29  C   UNL     1       6.183  13.712  -0.710  1.00  0.00     0.007 C 
ENDBRANCH  26  27
ENDBRANCH  25  26
BRANCH  25  30
ATOM     30  C   UNL     1       5.304  10.909   2.426  1.00  0.00     0.243 C 
ATOM     31  O   UNL     1       5.772  11.280   3.502  1.00  0.00    -0.273 OA
ATOM     32  N   UNL     1       4.248  10.038   2.344  1.00  0.00    -0.342 N 
ATOM     33  H   UNL     1       3.828   9.889   1.423  1.00  0.00     0.164 HD
BRANCH  32  34
ATOM     34  C   UNL     1       3.595   9.457   3.520  1.00  0.00     0.175 C 
BRANCH  34  35
ATOM     35  C   UNL     1       2.152   9.964   3.666  1.00  0.00     0.070 C 
BRANCH  35  36
ATOM     36  C   UNL     1       1.436   9.359   4.852  1.00  0.00    -0.045 A 
ATOM     37  C   UNL     1       0.075   9.032   4.759  1.00  0.00     0.007 A 
ATOM     38  C   UNL     1       2.109   9.137   6.061  1.00  0.00     0.007 A 
ATOM     39  C   UNL     1      -0.597   8.486   5.852  1.00  0.00     0.046 A 
ATOM     40  C   UNL     1       1.436   8.591   7.157  1.00  0.00     0.046 A 
ATOM     41  C   UNL     1       0.088   8.269   7.041  1.00  0.00     0.115 A 
BRANCH  41  42
ATOM     42  O   UNL     1      -0.606   7.736   8.087  1.00  0.00    -0.508 OA
ATOM     43  H   UNL     1      -0.114   6.967   8.419  1.00  0.00     0.293 HD
ENDBRANCH  41  42
ENDBRANCH  35  36
ENDBRANCH  34  35
BRANCH  34  44
ATOM     44  C   UNL     1       3.656   7.918   3.389  1.00  0.00     0.243 C 
ATOM     45  O   UNL     1       4.625   7.233   3.702  1.00  0.00    -0.273 OA
ATOM     46  N   UNL     1       2.555   7.378   2.758  1.00  0.00    -0.341 N 
ATOM     47  H   UNL     1       1.829   8.000   2.411  1.00  0.00     0.164 HD
BRANCH  46  48
ATOM     48  C   UNL     1       2.418   5.950   2.460  1.00  0.00     0.196 C 
BRANCH  48  49
ATOM     49  C   UNL     1       1.514   5.248   3.487  1.00  0.00     0.072 C 
BRANCH  49  50
ATOM     50  C   UNL     1       2.297   4.601   4.606  1.00  0.00    -0.045 A 
ATOM     51  C   UNL     1       2.656   3.248   4.517  1.00  0.00     0.007 A 
ATOM     52  C   UNL     1       2.657   5.328   5.749  1.00  0.00     0.007 A 
ATOM     53  C   UNL     1       3.368   2.636   5.549  1.00  0.00     0.046 A 
ATOM     54  C   UNL     1       3.369   4.715   6.783  1.00  0.00     0.046 A 
ATOM     55  C   UNL     1       3.719   3.374   6.673  1.00  0.00     0.115 A 
BRANCH  55  56
ATOM     56  O   UNL     1       4.413   2.738   7.661  1.00  0.00    -0.508 OA
ATOM     57  H   UNL     1       5.081   3.351   8.008  1.00  0.00     0.293 HD
ENDBRANCH  55  56
ENDBRANCH  49  50
ENDBRANCH  48  49
BRANCH  48  58
ATOM     58  C   UNL     1       1.823   5.788   1.055  1.00  0.00     0.326 C 
ATOM     59  O   UNL     1       0.918   5.042   0.717  1.00  0.00    -0.250 OA
BRANCH  58  60
ATOM     60  O   UNL     1       2.394   6.598   0.128  1.00  0.00    -0.480 OA
ATOM     61  H   UNL     1       1.698   7.267  -0.048  1.00  0.00     0.296 HD
ENDBRANCH  58  60
ENDBRANCH  48  58
ENDBRANCH  46  48
ENDBRANCH  34  44
ENDBRANCH  32  34
ENDBRANCH  25  30
ENDBRANCH  23  25
ENDBRANCH   2  23
TORSDOF 28
ENDMDL
MODEL 23
REMARK VINA RESULT:    -6.194      6.785     11.683
REMARK INTER + INTRA:         -19.470
REMARK INTER:                 -15.995
REMARK INTRA:                  -3.475
REMARK UNBOUND:                -4.043
REMARK SMILES CCCCCCC[C@H](N)[C@H](O)C(=O)N[C@H](C)C(=O)N(C)[C@H](CC(C)C)C(=O)N[C@@H](Cc1ccc(O)cc1)C(=O)N[C@@H](Cc1ccc(O)cc1)C(=O)O
REMARK SMILES IDX 18 1 17 2 15 3 16 4 14 5 12 6 13 7 10 9 11 10 8 12 9 13 7 16
REMARK SMILES IDX 6 17 5 18 4 19 3 20 2 21 1 22 19 23 20 24 21 25 22 26 23 27
REMARK SMILES IDX 24 28 25 29 26 30 27 31 28 32 29 34 30 35 31 36 32 37 37 38
REMARK SMILES IDX 33 39 36 40 34 41 35 42 38 44 39 45 40 46 41 48 42 49 43 50
REMARK SMILES IDX 44 51 49 52 45 53 48 54 46 55 47 56 50 58 51 59 52 60
REMARK H PARENT 14 8 11 11 9 14 9 15 28 33 35 43 40 47 47 57 52 61
ROOT
ATOM      1  O   UNL     1       1.636   4.917   9.081  1.00  0.00    -0.272 OA
ATOM      2  C   UNL     1       2.795   5.333   9.221  1.00  0.00     0.245 C 
ENDROOT
BRANCH   2   3
ATOM      3  C   UNL     1       3.037   6.560  10.136  1.00  0.00     0.168 C 
ATOM      4  C   UNL     1       3.562   7.742   9.330  1.00  0.00     0.041 C 
BRANCH   3   5
ATOM      5  N   UNL     1       1.904   6.933  10.969  1.00  0.00    -0.342 N 
ATOM      6  C   UNL     1       1.781   6.492  12.270  1.00  0.00     0.251 C 
ATOM      7  O   UNL     1       2.580   5.731  12.805  1.00  0.00    -0.272 OA
ATOM      8  H   UNL     1       1.159   7.533  10.624  1.00  0.00     0.164 HD
BRANCH   6   9
ATOM      9  C   UNL     1       0.586   7.125  13.001  1.00  0.00     0.219 C 
BRANCH   9  10
ATOM     10  O   UNL     1       0.779   8.518  13.274  1.00  0.00    -0.382 OA
ATOM     11  H   UNL     1      -0.084   8.922  13.038  1.00  0.00     0.211 HD
ENDBRANCH   9  10
BRANCH   9  12
ATOM     12  C   UNL     1      -0.765   6.888  12.278  1.00  0.00     0.089 C 
BRANCH  12  13
ATOM     13  N   UNL     1      -1.702   6.253  13.234  1.00  0.00    -0.325 NA
ATOM     14  H   UNL     1      -1.459   5.266  13.337  1.00  0.00     0.119 HD
ATOM     15  H   UNL     1      -2.641   6.255  12.828  1.00  0.00     0.119 HD
ENDBRANCH  12  13
BRANCH  12  16
ATOM     16  C   UNL     1      -1.421   8.136  11.641  1.00  0.00     0.022 C 
BRANCH  16  17
ATOM     17  C   UNL     1      -2.671   8.740  12.296  1.00  0.00     0.002 C 
BRANCH  17  18
ATOM     18  C   UNL     1      -2.391   9.772  13.386  1.00  0.00     0.000 C 
BRANCH  18  19
ATOM     19  C   UNL     1      -3.313   9.656  14.608  1.00  0.00    -0.000 C 
BRANCH  19  20
ATOM     20  C   UNL     1      -4.709   9.097  14.318  1.00  0.00    -0.000 C 
BRANCH  20  21
ATOM     21  C   UNL     1      -5.226   8.172  15.423  1.00  0.00    -0.003 C 
ATOM     22  C   UNL     1      -4.592   6.793  15.334  1.00  0.00     0.004 C 
ENDBRANCH  20  21
ENDBRANCH  19  20
ENDBRANCH  18  19
ENDBRANCH  17  18
ENDBRANCH  16  17
ENDBRANCH  12  16
ENDBRANCH   9  12
ENDBRANCH   6   9
ENDBRANCH   3   5
ENDBRANCH   2   3
BRANCH   2  23
ATOM     23  N   UNL     1       3.859   4.631   8.664  1.00  0.00    -0.332 N 
ATOM     24  C   UNL     1       5.056   4.232   9.389  1.00  0.00     0.147 C 
BRANCH  23  25
ATOM     25  C   UNL     1       3.771   4.118   7.269  1.00  0.00     0.174 C 
BRANCH  25  26
ATOM     26  C   UNL     1       4.992   3.258   6.866  1.00  0.00     0.038 C 
BRANCH  26  27
ATOM     27  C   UNL     1       4.713   1.796   6.453  1.00  0.00    -0.015 C 
ATOM     28  C   UNL     1       3.715   1.694   5.301  1.00  0.00     0.007 C 
ATOM     29  C   UNL     1       5.979   1.001   6.139  1.00  0.00     0.007 C 
ENDBRANCH  26  27
ENDBRANCH  25  26
BRANCH  25  30
ATOM     30  C   UNL     1       3.479   5.280   6.292  1.00  0.00     0.243 C 
ATOM     31  O   UNL     1       4.347   6.087   5.964  1.00  0.00    -0.273 OA
ATOM     32  N   UNL     1       2.193   5.352   5.824  1.00  0.00    -0.342 N 
ATOM     33  H   UNL     1       1.569   4.567   6.029  1.00  0.00     0.164 HD
BRANCH  32  34
ATOM     34  C   UNL     1       1.729   6.401   4.912  1.00  0.00     0.175 C 
BRANCH  34  35
ATOM     35  C   UNL     1       0.768   5.838   3.854  1.00  0.00     0.070 C 
BRANCH  35  36
ATOM     36  C   UNL     1       1.308   5.964   2.447  1.00  0.00    -0.045 A 
ATOM     37  C   UNL     1       0.673   5.296   1.389  1.00  0.00     0.007 A 
ATOM     38  C   UNL     1       2.455   6.724   2.183  1.00  0.00     0.007 A 
ATOM     39  C   UNL     1       1.172   5.395   0.090  1.00  0.00     0.046 A 
ATOM     40  C   UNL     1       2.956   6.823   0.882  1.00  0.00     0.046 A 
ATOM     41  C   UNL     1       2.308   6.158  -0.153  1.00  0.00     0.115 A 
BRANCH  41  42
ATOM     42  O   UNL     1       2.765   6.226  -1.436  1.00  0.00    -0.508 OA
ATOM     43  H   UNL     1       3.521   6.836  -1.458  1.00  0.00     0.293 HD
ENDBRANCH  41  42
ENDBRANCH  35  36
ENDBRANCH  34  35
BRANCH  34  44
ATOM     44  C   UNL     1       1.068   7.513   5.758  1.00  0.00     0.243 C 
ATOM     45  O   UNL     1       0.993   7.500   6.984  1.00  0.00    -0.273 OA
ATOM     46  N   UNL     1       0.443   8.481   5.001  1.00  0.00    -0.341 N 
ATOM     47  H   UNL     1       0.433   8.386   3.988  1.00  0.00     0.164 HD
BRANCH  46  48
ATOM     48  C   UNL     1      -0.308   9.597   5.580  1.00  0.00     0.196 C 
BRANCH  48  49
ATOM     49  C   UNL     1      -0.227  10.848   4.690  1.00  0.00     0.072 C 
BRANCH  49  50
ATOM     50  C   UNL     1       1.042  11.639   4.911  1.00  0.00    -0.045 A 
ATOM     51  C   UNL     1       1.181  12.430   6.061  1.00  0.00     0.007 A 
ATOM     52  C   UNL     1       2.081  11.613   3.973  1.00  0.00     0.007 A 
ATOM     53  C   UNL     1       2.342  13.175   6.270  1.00  0.00     0.046 A 
ATOM     54  C   UNL     1       3.243  12.359   4.181  1.00  0.00     0.046 A 
ATOM     55  C   UNL     1       3.364  13.134   5.330  1.00  0.00     0.115 A 
BRANCH  55  56
ATOM     56  O   UNL     1       4.481  13.877   5.571  1.00  0.00    -0.508 OA
ATOM     57  H   UNL     1       4.938  13.503   6.341  1.00  0.00     0.293 HD
ENDBRANCH  55  56
ENDBRANCH  49  50
ENDBRANCH  48  49
BRANCH  48  58
ATOM     58  C   UNL     1      -1.775   9.178   5.748  1.00  0.00     0.326 C 
ATOM     59  O   UNL     1      -2.746   9.911   5.848  1.00  0.00    -0.250 OA
BRANCH  58  60
ATOM     60  O   UNL     1      -1.955   7.834   5.767  1.00  0.00    -0.480 OA
ATOM     61  H   UNL     1      -1.112   7.498   6.141  1.00  0.00     0.296 HD
ENDBRANCH  58  60
ENDBRANCH  48  58
ENDBRANCH  46  48
ENDBRANCH  34  44
ENDBRANCH  32  34
ENDBRANCH  25  30
ENDBRANCH  23  25
ENDBRANCH   2  23
TORSDOF 28
ENDMDL
MODEL 24
REMARK VINA RESULT:    -6.179      3.699      7.670
REMARK INTER + INTRA:         -19.434
REMARK INTER:                 -13.970
REMARK INTRA:                  -5.464
REMARK UNBOUND:                -4.043
REMARK SMILES CCCCCCC[C@H](N)[C@H](O)C(=O)N[C@H](C)C(=O)N(C)[C@H](CC(C)C)C(=O)N[C@@H](Cc1ccc(O)cc1)C(=O)N[C@@H](Cc1ccc(O)cc1)C(=O)O
REMARK SMILES IDX 18 1 17 2 15 3 16 4 14 5 12 6 13 7 10 9 11 10 8 12 9 13 7 16
REMARK SMILES IDX 6 17 5 18 4 19 3 20 2 21 1 22 19 23 20 24 21 25 22 26 23 27
REMARK SMILES IDX 24 28 25 29 26 30 27 31 28 32 29 34 30 35 31 36 32 37 37 38
REMARK SMILES IDX 33 39 36 40 34 41 35 42 38 44 39 45 40 46 41 48 42 49 43 50
REMARK SMILES IDX 44 51 49 52 45 53 48 54 46 55 47 56 50 58 51 59 52 60
REMARK H PARENT 14 8 11 11 9 14 9 15 28 33 35 43 40 47 47 57 52 61
ROOT
ATOM      1  O   UNL     1       3.701   4.073   6.705  1.00  0.00    -0.272 OA
ATOM      2  C   UNL     1       3.418   5.273   6.844  1.00  0.00     0.245 C 
ENDROOT
BRANCH   2   3
ATOM      3  C   UNL     1       1.925   5.677   6.925  1.00  0.00     0.168 C 
ATOM      4  C   UNL     1       1.465   5.763   8.376  1.00  0.00     0.041 C 
BRANCH   3   5
ATOM      5  N   UNL     1       1.574   6.872   6.173  1.00  0.00    -0.342 N 
ATOM      6  C   UNL     1       0.387   6.972   5.478  1.00  0.00     0.251 C 
ATOM      7  O   UNL     1      -0.433   6.063   5.405  1.00  0.00    -0.272 OA
ATOM      8  H   UNL     1       2.191   7.679   6.130  1.00  0.00     0.164 HD
BRANCH   6   9
ATOM      9  C   UNL     1       0.165   8.371   4.879  1.00  0.00     0.219 C 
BRANCH   9  10
ATOM     10  O   UNL     1       0.138   8.361   3.447  1.00  0.00    -0.382 OA
ATOM     11  H   UNL     1       1.088   8.386   3.198  1.00  0.00     0.211 HD
ENDBRANCH   9  10
BRANCH   9  12
ATOM     12  C   UNL     1      -1.088   9.085   5.449  1.00  0.00     0.089 C 
BRANCH  12  13
ATOM     13  N   UNL     1      -1.280   8.646   6.850  1.00  0.00    -0.325 NA
ATOM     14  H   UNL     1      -2.211   8.236   6.950  1.00  0.00     0.119 HD
ATOM     15  H   UNL     1      -1.285   9.469   7.457  1.00  0.00     0.119 HD
ENDBRANCH  12  13
BRANCH  12  16
ATOM     16  C   UNL     1      -1.082  10.630   5.372  1.00  0.00     0.022 C 
BRANCH  16  17
ATOM     17  C   UNL     1       0.194  11.350   4.912  1.00  0.00     0.002 C 
BRANCH  17  18
ATOM     18  C   UNL     1       1.009  11.994   6.031  1.00  0.00     0.000 C 
BRANCH  18  19
ATOM     19  C   UNL     1       2.008  13.053   5.545  1.00  0.00    -0.000 C 
BRANCH  19  20
ATOM     20  C   UNL     1       3.457  12.572   5.424  1.00  0.00    -0.000 C 
BRANCH  20  21
ATOM     21  C   UNL     1       4.283  12.833   6.687  1.00  0.00    -0.003 C 
ATOM     22  C   UNL     1       4.761  11.532   7.314  1.00  0.00     0.004 C 
ENDBRANCH  20  21
ENDBRANCH  19  20
ENDBRANCH  18  19
ENDBRANCH  17  18
ENDBRANCH  16  17
ENDBRANCH  12  16
ENDBRANCH   9  12
ENDBRANCH   6   9
ENDBRANCH   3   5
ENDBRANCH   2   3
BRANCH   2  23
ATOM     23  N   UNL     1       4.428   6.207   7.045  1.00  0.00    -0.332 N 
ATOM     24  C   UNL     1       4.674   6.900   8.300  1.00  0.00     0.147 C 
BRANCH  23  25
ATOM     25  C   UNL     1       5.434   6.467   5.978  1.00  0.00     0.174 C 
BRANCH  25  26
ATOM     26  C   UNL     1       6.859   6.692   6.535  1.00  0.00     0.038 C 
BRANCH  26  27
ATOM     27  C   UNL     1       7.955   5.706   6.072  1.00  0.00    -0.015 C 
ATOM     28  C   UNL     1       9.331   6.365   5.979  1.00  0.00     0.007 C 
ATOM     29  C   UNL     1       8.024   4.434   6.913  1.00  0.00     0.007 C 
ENDBRANCH  26  27
ENDBRANCH  25  26
BRANCH  25  30
ATOM     30  C   UNL     1       4.943   7.603   5.050  1.00  0.00     0.243 C 
ATOM     31  O   UNL     1       4.146   8.457   5.434  1.00  0.00    -0.273 OA
ATOM     32  N   UNL     1       5.450   7.588   3.776  1.00  0.00    -0.342 N 
ATOM     33  H   UNL     1       6.212   6.934   3.577  1.00  0.00     0.164 HD
BRANCH  32  34
ATOM     34  C   UNL     1       5.077   8.569   2.754  1.00  0.00     0.175 C 
BRANCH  34  35
ATOM     35  C   UNL     1       6.082   8.575   1.591  1.00  0.00     0.070 C 
BRANCH  35  36
ATOM     36  C   UNL     1       5.900   9.758   0.667  1.00  0.00    -0.045 A 
ATOM     37  C   UNL     1       6.217  11.051   1.111  1.00  0.00     0.007 A 
ATOM     38  C   UNL     1       5.395   9.587  -0.629  1.00  0.00     0.007 A 
ATOM     39  C   UNL     1       6.039  12.150   0.270  1.00  0.00     0.046 A 
ATOM     40  C   UNL     1       5.216  10.687  -1.471  1.00  0.00     0.046 A 
ATOM     41  C   UNL     1       5.542  11.960  -1.013  1.00  0.00     0.115 A 
BRANCH  41  42
ATOM     42  O   UNL     1       5.381  13.060  -1.802  1.00  0.00    -0.508 OA
ATOM     43  H   UNL     1       6.227  13.535  -1.839  1.00  0.00     0.293 HD
ENDBRANCH  41  42
ENDBRANCH  35  36
ENDBRANCH  34  35
BRANCH  34  44
ATOM     44  C   UNL     1       3.644   8.242   2.276  1.00  0.00     0.243 C 
ATOM     45  O   UNL     1       2.660   8.941   2.504  1.00  0.00    -0.273 OA
ATOM     46  N   UNL     1       3.536   7.008   1.671  1.00  0.00    -0.341 N 
ATOM     47  H   UNL     1       4.359   6.414   1.610  1.00  0.00     0.164 HD
BRANCH  46  48
ATOM     48  C   UNL     1       2.267   6.451   1.197  1.00  0.00     0.196 C 
BRANCH  48  49
ATOM     49  C   UNL     1       2.479   5.517  -0.005  1.00  0.00     0.072 C 
BRANCH  49  50
ATOM     50  C   UNL     1       2.651   6.270  -1.305  1.00  0.00    -0.045 A 
ATOM     51  C   UNL     1       3.921   6.370  -1.892  1.00  0.00     0.007 A 
ATOM     52  C   UNL     1       1.562   6.893  -1.926  1.00  0.00     0.007 A 
ATOM     53  C   UNL     1       4.094   7.074  -3.084  1.00  0.00     0.046 A 
ATOM     54  C   UNL     1       1.735   7.599  -3.119  1.00  0.00     0.046 A 
ATOM     55  C   UNL     1       3.001   7.683  -3.688  1.00  0.00     0.115 A 
BRANCH  55  56
ATOM     56  O   UNL     1       3.213   8.363  -4.851  1.00  0.00    -0.508 OA
ATOM     57  H   UNL     1       2.369   8.743  -5.141  1.00  0.00     0.293 HD
ENDBRANCH  55  56
ENDBRANCH  49  50
ENDBRANCH  48  49
BRANCH  48  58
ATOM     58  C   UNL     1       1.605   5.674   2.343  1.00  0.00     0.326 C 
ATOM     59  O   UNL     1       2.161   5.095   3.262  1.00  0.00    -0.250 OA
BRANCH  58  60
ATOM     60  O   UNL     1       0.249   5.674   2.285  1.00  0.00    -0.480 OA
ATOM     61  H   UNL     1       0.020   4.722   2.358  1.00  0.00     0.296 HD
ENDBRANCH  58  60
ENDBRANCH  48  58
ENDBRANCH  46  48
ENDBRANCH  34  44
ENDBRANCH  32  34
ENDBRANCH  25  30
ENDBRANCH  23  25
ENDBRANCH   2  23
TORSDOF 28
ENDMDL
MODEL 25
REMARK VINA RESULT:    -6.178      3.217      7.636
REMARK INTER + INTRA:         -19.431
REMARK INTER:                 -13.752
REMARK INTRA:                  -5.679
REMARK UNBOUND:                -4.043
REMARK SMILES CCCCCCC[C@H](N)[C@H](O)C(=O)N[C@H](C)C(=O)N(C)[C@H](CC(C)C)C(=O)N[C@@H](Cc1ccc(O)cc1)C(=O)N[C@@H](Cc1ccc(O)cc1)C(=O)O
REMARK SMILES IDX 18 1 17 2 15 3 16 4 14 5 12 6 13 7 10 9 11 10 8 12 9 13 7 16
REMARK SMILES IDX 6 17 5 18 4 19 3 20 2 21 1 22 19 23 20 24 21 25 22 26 23 27
REMARK SMILES IDX 24 28 25 29 26 30 27 31 28 32 29 34 30 35 31 36 32 37 37 38
REMARK SMILES IDX 33 39 36 40 34 41 35 42 38 44 39 45 40 46 41 48 42 49 43 50
REMARK SMILES IDX 44 51 49 52 45 53 48 54 46 55 47 56 50 58 51 59 52 60
REMARK H PARENT 14 8 11 11 9 14 9 15 28 33 35 43 40 47 47 57 52 61
ROOT
ATOM      1  O   UNL     1       5.947   6.503   7.946  1.00  0.00    -0.272 OA
ATOM      2  C   UNL     1       5.501   7.132   6.974  1.00  0.00     0.245 C 
ENDROOT
BRANCH   2   3
ATOM      3  C   UNL     1       3.978   7.086   6.698  1.00  0.00     0.168 C 
ATOM      4  C   UNL     1       3.383   8.490   6.710  1.00  0.00     0.041 C 
BRANCH   3   5
ATOM      5  N   UNL     1       3.594   6.345   5.507  1.00  0.00    -0.342 N 
ATOM      6  C   UNL     1       2.669   5.324   5.551  1.00  0.00     0.251 C 
ATOM      7  O   UNL     1       2.137   4.938   6.587  1.00  0.00    -0.272 OA
ATOM      8  H   UNL     1       3.994   6.552   4.595  1.00  0.00     0.164 HD
BRANCH   6   9
ATOM      9  C   UNL     1       2.314   4.782   4.157  1.00  0.00     0.219 C 
BRANCH   9  10
ATOM     10  O   UNL     1       2.148   3.359   4.143  1.00  0.00    -0.382 OA
ATOM     11  H   UNL     1       2.283   3.101   5.081  1.00  0.00     0.211 HD
ENDBRANCH   9  10
BRANCH   9  12
ATOM     12  C   UNL     1       1.086   5.487   3.524  1.00  0.00     0.089 C 
BRANCH  12  13
ATOM     13  N   UNL     1       0.669   6.591   4.418  1.00  0.00    -0.325 NA
ATOM     14  H   UNL     1       0.480   7.424   3.857  1.00  0.00     0.119 HD
ATOM     15  H   UNL     1       1.457   6.846   5.019  1.00  0.00     0.119 HD
ENDBRANCH  12  13
BRANCH  12  16
ATOM     16  C   UNL     1       1.275   6.013   2.081  1.00  0.00     0.022 C 
BRANCH  16  17
ATOM     17  C   UNL     1       0.592   5.275   0.922  1.00  0.00     0.002 C 
BRANCH  17  18
ATOM     18  C   UNL     1       1.356   5.304  -0.400  1.00  0.00     0.000 C 
BRANCH  18  19
ATOM     19  C   UNL     1       2.299   6.505  -0.550  1.00  0.00    -0.000 C 
BRANCH  19  20
ATOM     20  C   UNL     1       3.703   6.169  -1.060  1.00  0.00    -0.000 C 
BRANCH  20  21
ATOM     21  C   UNL     1       3.786   6.097  -2.587  1.00  0.00    -0.003 C 
ATOM     22  C   UNL     1       2.727   6.971  -3.241  1.00  0.00     0.004 C 
ENDBRANCH  20  21
ENDBRANCH  19  20
ENDBRANCH  18  19
ENDBRANCH  17  18
ENDBRANCH  16  17
ENDBRANCH  12  16
ENDBRANCH   9  12
ENDBRANCH   6   9
ENDBRANCH   3   5
ENDBRANCH   2   3
BRANCH   2  23
ATOM     23  N   UNL     1       6.343   7.953   6.231  1.00  0.00    -0.332 N 
ATOM     24  C   UNL     1       7.057   9.103   6.766  1.00  0.00     0.147 C 
BRANCH  23  25
ATOM     25  C   UNL     1       6.671   7.612   4.820  1.00  0.00     0.174 C 
BRANCH  25  26
ATOM     26  C   UNL     1       8.126   7.972   4.437  1.00  0.00     0.038 C 
BRANCH  26  27
ATOM     27  C   UNL     1       8.497   7.887   2.939  1.00  0.00    -0.015 C 
ATOM     28  C   UNL     1       8.835   9.253   2.343  1.00  0.00     0.007 C 
ATOM     29  C   UNL     1       9.607   6.882   2.644  1.00  0.00     0.007 C 
ENDBRANCH  26  27
ENDBRANCH  25  26
BRANCH  25  30
ATOM     30  C   UNL     1       5.611   8.210   3.867  1.00  0.00     0.243 C 
ATOM     31  O   UNL     1       4.894   7.499   3.165  1.00  0.00    -0.273 OA
ATOM     32  N   UNL     1       5.531   9.579   3.853  1.00  0.00    -0.342 N 
ATOM     33  H   UNL     1       6.058  10.091   4.565  1.00  0.00     0.164 HD
BRANCH  32  34
ATOM     34  C   UNL     1       4.604  10.319   2.993  1.00  0.00     0.175 C 
BRANCH  34  35
ATOM     35  C   UNL     1       4.065  11.572   3.700  1.00  0.00     0.070 C 
BRANCH  35  36
ATOM     36  C   UNL     1       2.688  11.365   4.289  1.00  0.00    -0.045 A 
ATOM     37  C   UNL     1       1.895  10.290   3.859  1.00  0.00     0.007 A 
ATOM     38  C   UNL     1       2.176  12.249   5.247  1.00  0.00     0.007 A 
ATOM     39  C   UNL     1       0.618  10.099   4.386  1.00  0.00     0.046 A 
ATOM     40  C   UNL     1       0.896  12.059   5.775  1.00  0.00     0.046 A 
ATOM     41  C   UNL     1       0.129  10.984   5.340  1.00  0.00     0.115 A 
BRANCH  41  42
ATOM     42  O   UNL     1      -1.125  10.763   5.828  1.00  0.00    -0.508 OA
ATOM     43  H   UNL     1      -1.345  11.485   6.440  1.00  0.00     0.293 HD
ENDBRANCH  41  42
ENDBRANCH  35  36
ENDBRANCH  34  35
BRANCH  34  44
ATOM     44  C   UNL     1       5.343  10.668   1.682  1.00  0.00     0.243 C 
ATOM     45  O   UNL     1       5.659  11.805   1.345  1.00  0.00    -0.273 OA
ATOM     46  N   UNL     1       5.508   9.588   0.840  1.00  0.00    -0.341 N 
ATOM     47  H   UNL     1       5.124   8.686   1.113  1.00  0.00     0.164 HD
BRANCH  46  48
ATOM     48  C   UNL     1       6.119   9.686  -0.487  1.00  0.00     0.196 C 
BRANCH  48  49
ATOM     49  C   UNL     1       6.719   8.341  -0.928  1.00  0.00     0.072 C 
BRANCH  49  50
ATOM     50  C   UNL     1       8.176   8.453  -1.318  1.00  0.00    -0.045 A 
ATOM     51  C   UNL     1       9.081   7.451  -0.937  1.00  0.00     0.007 A 
ATOM     52  C   UNL     1       8.645   9.557  -2.040  1.00  0.00     0.007 A 
ATOM     53  C   UNL     1      10.429   7.550  -1.280  1.00  0.00     0.046 A 
ATOM     54  C   UNL     1       9.996   9.657  -2.383  1.00  0.00     0.046 A 
ATOM     55  C   UNL     1      10.877   8.652  -2.000  1.00  0.00     0.115 A 
BRANCH  55  56
ATOM     56  O   UNL     1      12.202   8.712  -2.313  1.00  0.00    -0.508 OA
ATOM     57  H   UNL     1      12.285   8.969  -3.245  1.00  0.00     0.293 HD
ENDBRANCH  55  56
ENDBRANCH  49  50
ENDBRANCH  48  49
BRANCH  48  58
ATOM     58  C   UNL     1       5.052  10.130  -1.497  1.00  0.00     0.326 C 
ATOM     59  O   UNL     1       3.943   9.648  -1.660  1.00  0.00    -0.250 OA
BRANCH  58  60
ATOM     60  O   UNL     1       5.432  11.188  -2.257  1.00  0.00    -0.480 OA
ATOM     61  H   UNL     1       4.634  11.759  -2.264  1.00  0.00     0.296 HD
ENDBRANCH  58  60
ENDBRANCH  48  58
ENDBRANCH  46  48
ENDBRANCH  34  44
ENDBRANCH  32  34
ENDBRANCH  25  30
ENDBRANCH  23  25
ENDBRANCH   2  23
TORSDOF 28
ENDMDL
MODEL 26
REMARK VINA RESULT:    -6.159      4.090      9.897
REMARK INTER + INTRA:         -19.384
REMARK INTER:                 -14.432
REMARK INTRA:                  -4.953
REMARK UNBOUND:                -4.043
REMARK SMILES CCCCCCC[C@H](N)[C@H](O)C(=O)N[C@H](C)C(=O)N(C)[C@H](CC(C)C)C(=O)N[C@@H](Cc1ccc(O)cc1)C(=O)N[C@@H](Cc1ccc(O)cc1)C(=O)O
REMARK SMILES IDX 18 1 17 2 15 3 16 4 14 5 12 6 13 7 10 9 11 10 8 12 9 13 7 16
REMARK SMILES IDX 6 17 5 18 4 19 3 20 2 21 1 22 19 23 20 24 21 25 22 26 23 27
REMARK SMILES IDX 24 28 25 29 26 30 27 31 28 32 29 34 30 35 31 36 32 37 37 38
REMARK SMILES IDX 33 39 36 40 34 41 35 42 38 44 39 45 40 46 41 48 42 49 43 50
REMARK SMILES IDX 44 51 49 52 45 53 48 54 46 55 47 56 50 58 51 59 52 60
REMARK H PARENT 14 8 11 11 9 14 9 15 28 33 35 43 40 47 47 57 52 61
ROOT
ATOM      1  O   UNL     1       4.597   8.246   1.597  1.00  0.00    -0.272 OA
ATOM      2  C   UNL     1       5.550   8.998   1.344  1.00  0.00     0.245 C 
ENDROOT
BRANCH   2   3
ATOM      3  C   UNL     1       6.245   8.876  -0.035  1.00  0.00     0.168 C 
ATOM      4  C   UNL     1       7.641   8.281   0.113  1.00  0.00     0.041 C 
BRANCH   3   5
ATOM      5  N   UNL     1       5.467   8.186  -1.053  1.00  0.00    -0.342 N 
ATOM      6  C   UNL     1       4.398   8.786  -1.682  1.00  0.00     0.251 C 
ATOM      7  O   UNL     1       3.998   9.913  -1.410  1.00  0.00    -0.272 OA
ATOM      8  H   UNL     1       5.683   7.234  -1.338  1.00  0.00     0.164 HD
BRANCH   6   9
ATOM      9  C   UNL     1       3.818   7.927  -2.817  1.00  0.00     0.219 C 
BRANCH   9  10
ATOM     10  O   UNL     1       4.757   7.702  -3.876  1.00  0.00    -0.382 OA
ATOM     11  H   UNL     1       5.377   7.041  -3.498  1.00  0.00     0.211 HD
ENDBRANCH   9  10
BRANCH   9  12
ATOM     12  C   UNL     1       3.217   6.586  -2.320  1.00  0.00     0.089 C 
BRANCH  12  13
ATOM     13  N   UNL     1       4.332   5.675  -1.973  1.00  0.00    -0.325 NA
ATOM     14  H   UNL     1       5.187   6.222  -1.852  1.00  0.00     0.119 HD
ATOM     15  H   UNL     1       4.518   5.061  -2.769  1.00  0.00     0.119 HD
ENDBRANCH  12  13
BRANCH  12  16
ATOM     16  C   UNL     1       2.223   6.685  -1.138  1.00  0.00     0.022 C 
BRANCH  16  17
ATOM     17  C   UNL     1       2.076   5.492  -0.184  1.00  0.00     0.002 C 
BRANCH  17  18
ATOM     18  C   UNL     1       0.673   5.291   0.385  1.00  0.00     0.000 C 
BRANCH  18  19
ATOM     19  C   UNL     1       0.589   5.446   1.909  1.00  0.00    -0.000 C 
BRANCH  19  20
ATOM     20  C   UNL     1       1.925   5.332   2.648  1.00  0.00    -0.000 C 
BRANCH  20  21
ATOM     21  C   UNL     1       1.762   4.983   4.130  1.00  0.00    -0.003 C 
ATOM     22  C   UNL     1       2.509   3.706   4.484  1.00  0.00     0.004 C 
ENDBRANCH  20  21
ENDBRANCH  19  20
ENDBRANCH  18  19
ENDBRANCH  17  18
ENDBRANCH  16  17
ENDBRANCH  12  16
ENDBRANCH   9  12
ENDBRANCH   6   9
ENDBRANCH   3   5
ENDBRANCH   2   3
BRANCH   2  23
ATOM     23  N   UNL     1       5.896  10.007   2.237  1.00  0.00    -0.332 N 
ATOM     24  C   UNL     1       5.944  11.423   1.905  1.00  0.00     0.147 C 
BRANCH  23  25
ATOM     25  C   UNL     1       6.123   9.692   3.674  1.00  0.00     0.174 C 
BRANCH  25  26
ATOM     26  C   UNL     1       6.707   8.276   3.895  1.00  0.00     0.038 C 
BRANCH  26  27
ATOM     27  C   UNL     1       8.219   8.182   4.202  1.00  0.00    -0.015 C 
ATOM     28  C   UNL     1       8.508   8.115   5.701  1.00  0.00     0.007 C 
ATOM     29  C   UNL     1       8.917   7.040   3.468  1.00  0.00     0.007 C 
ENDBRANCH  26  27
ENDBRANCH  25  26
BRANCH  25  30
ATOM     30  C   UNL     1       4.840   9.969   4.489  1.00  0.00     0.243 C 
ATOM     31  O   UNL     1       4.673  11.023   5.101  1.00  0.00    -0.273 OA
ATOM     32  N   UNL     1       3.908   8.962   4.490  1.00  0.00    -0.342 N 
ATOM     33  H   UNL     1       4.056   8.180   3.846  1.00  0.00     0.164 HD
BRANCH  32  34
ATOM     34  C   UNL     1       2.645   9.039   5.229  1.00  0.00     0.175 C 
BRANCH  34  35
ATOM     35  C   UNL     1       1.485   8.443   4.417  1.00  0.00     0.070 C 
BRANCH  35  36
ATOM     36  C   UNL     1       0.143   9.023   4.801  1.00  0.00    -0.045 A 
ATOM     37  C   UNL     1      -0.200  10.323   4.399  1.00  0.00     0.007 A 
ATOM     38  C   UNL     1      -0.762   8.289   5.578  1.00  0.00     0.007 A 
ATOM     39  C   UNL     1      -1.430  10.873   4.761  1.00  0.00     0.046 A 
ATOM     40  C   UNL     1      -1.994   8.839   5.941  1.00  0.00     0.046 A 
ATOM     41  C   UNL     1      -2.317  10.127   5.528  1.00  0.00     0.115 A 
BRANCH  41  42
ATOM     42  O   UNL     1      -3.508  10.702   5.862  1.00  0.00    -0.508 OA
ATOM     43  H   UNL     1      -3.875  11.125   5.068  1.00  0.00     0.293 HD
ENDBRANCH  41  42
ENDBRANCH  35  36
ENDBRANCH  34  35
BRANCH  34  44
ATOM     44  C   UNL     1       2.837   8.314   6.580  1.00  0.00     0.243 C 
ATOM     45  O   UNL     1       2.688   8.842   7.678  1.00  0.00    -0.273 OA
ATOM     46  N   UNL     1       3.326   7.031   6.450  1.00  0.00    -0.341 N 
ATOM     47  H   UNL     1       3.545   6.678   5.522  1.00  0.00     0.164 HD
BRANCH  46  48
ATOM     48  C   UNL     1       3.651   6.173   7.591  1.00  0.00     0.196 C 
BRANCH  48  49
ATOM     49  C   UNL     1       2.488   5.225   7.929  1.00  0.00     0.072 C 
BRANCH  49  50
ATOM     50  C   UNL     1       1.561   5.793   8.980  1.00  0.00    -0.045 A 
ATOM     51  C   UNL     1       0.322   6.332   8.601  1.00  0.00     0.007 A 
ATOM     52  C   UNL     1       1.927   5.810  10.331  1.00  0.00     0.007 A 
ATOM     53  C   UNL     1      -0.536   6.871   9.560  1.00  0.00     0.046 A 
ATOM     54  C   UNL     1       1.069   6.351  11.291  1.00  0.00     0.046 A 
ATOM     55  C   UNL     1      -0.157   6.876  10.897  1.00  0.00     0.115 A 
BRANCH  55  56
ATOM     56  O   UNL     1      -1.023   7.414  11.802  1.00  0.00    -0.508 OA
ATOM     57  H   UNL     1      -1.724   6.765  11.978  1.00  0.00     0.293 HD
ENDBRANCH  55  56
ENDBRANCH  49  50
ENDBRANCH  48  49
BRANCH  48  58
ATOM     58  C   UNL     1       4.904   5.351   7.258  1.00  0.00     0.326 C 
ATOM     59  O   UNL     1       5.931   5.750   6.733  1.00  0.00    -0.250 OA
BRANCH  58  60
ATOM     60  O   UNL     1       4.808   4.047   7.619  1.00  0.00    -0.480 OA
ATOM     61  H   UNL     1       4.793   3.575   6.758  1.00  0.00     0.296 HD
ENDBRANCH  58  60
ENDBRANCH  48  58
ENDBRANCH  46  48
ENDBRANCH  34  44
ENDBRANCH  32  34
ENDBRANCH  25  30
ENDBRANCH  23  25
ENDBRANCH   2  23
TORSDOF 28
ENDMDL
MODEL 27
REMARK VINA RESULT:    -6.157      5.666     12.580
REMARK INTER + INTRA:         -19.378
REMARK INTER:                 -16.113
REMARK INTRA:                  -3.266
REMARK UNBOUND:                -4.043
REMARK SMILES CCCCCCC[C@H](N)[C@H](O)C(=O)N[C@H](C)C(=O)N(C)[C@H](CC(C)C)C(=O)N[C@@H](Cc1ccc(O)cc1)C(=O)N[C@@H](Cc1ccc(O)cc1)C(=O)O
REMARK SMILES IDX 18 1 17 2 15 3 16 4 14 5 12 6 13 7 10 9 11 10 8 12 9 13 7 16
REMARK SMILES IDX 6 17 5 18 4 19 3 20 2 21 1 22 19 23 20 24 21 25 22 26 23 27
REMARK SMILES IDX 24 28 25 29 26 30 27 31 28 32 29 34 30 35 31 36 32 37 37 38
REMARK SMILES IDX 33 39 36 40 34 41 35 42 38 44 39 45 40 46 41 48 42 49 43 50
REMARK SMILES IDX 44 51 49 52 45 53 48 54 46 55 47 56 50 58 51 59 52 60
REMARK H PARENT 14 8 11 11 9 14 9 15 28 33 35 43 40 47 47 57 52 61
ROOT
ATOM      1  O   UNL     1       3.780   7.466   3.726  1.00  0.00    -0.272 OA
ATOM      2  C   UNL     1       2.944   7.822   2.882  1.00  0.00     0.245 C 
ENDROOT
BRANCH   2   3
ATOM      3  C   UNL     1       3.421   8.674   1.679  1.00  0.00     0.168 C 
ATOM      4  C   UNL     1       4.094   9.956   2.157  1.00  0.00     0.041 C 
BRANCH   3   5
ATOM      5  N   UNL     1       4.238   7.960   0.711  1.00  0.00    -0.342 N 
ATOM      6  C   UNL     1       3.697   7.398  -0.425  1.00  0.00     0.251 C 
ATOM      7  O   UNL     1       2.498   7.417  -0.685  1.00  0.00    -0.272 OA
ATOM      8  H   UNL     1       5.242   7.848   0.836  1.00  0.00     0.164 HD
BRANCH   6   9
ATOM      9  C   UNL     1       4.764   6.822  -1.370  1.00  0.00     0.219 C 
BRANCH   9  10
ATOM     10  O   UNL     1       4.416   5.526  -1.873  1.00  0.00    -0.382 OA
ATOM     11  H   UNL     1       3.530   5.664  -2.274  1.00  0.00     0.211 HD
ENDBRANCH   9  10
BRANCH   9  12
ATOM     12  C   UNL     1       5.132   7.782  -2.531  1.00  0.00     0.089 C 
BRANCH  12  13
ATOM     13  N   UNL     1       3.923   8.555  -2.899  1.00  0.00    -0.325 NA
ATOM     14  H   UNL     1       3.997   9.498  -2.515  1.00  0.00     0.119 HD
ATOM     15  H   UNL     1       3.111   8.141  -2.435  1.00  0.00     0.119 HD
ENDBRANCH  12  13
BRANCH  12  16
ATOM     16  C   UNL     1       6.316   8.743  -2.267  1.00  0.00     0.022 C 
BRANCH  16  17
ATOM     17  C   UNL     1       7.511   8.246  -1.441  1.00  0.00     0.002 C 
BRANCH  17  18
ATOM     18  C   UNL     1       8.881   8.625  -1.997  1.00  0.00     0.000 C 
BRANCH  18  19
ATOM     19  C   UNL     1       9.910   7.488  -1.953  1.00  0.00    -0.000 C 
BRANCH  19  20
ATOM     20  C   UNL     1      11.124   7.743  -1.055  1.00  0.00    -0.000 C 
BRANCH  20  21
ATOM     21  C   UNL     1      10.900   7.303   0.394  1.00  0.00    -0.003 C 
ATOM     22  C   UNL     1       9.950   6.119   0.474  1.00  0.00     0.004 C 
ENDBRANCH  20  21
ENDBRANCH  19  20
ENDBRANCH  18  19
ENDBRANCH  17  18
ENDBRANCH  16  17
ENDBRANCH  12  16
ENDBRANCH   9  12
ENDBRANCH   6   9
ENDBRANCH   3   5
ENDBRANCH   2   3
BRANCH   2  23
ATOM     23  N   UNL     1       1.636   7.356   2.960  1.00  0.00    -0.332 N 
ATOM     24  C   UNL     1       1.104   6.252   2.175  1.00  0.00     0.147 C 
BRANCH  23  25
ATOM     25  C   UNL     1       0.704   7.902   3.985  1.00  0.00     0.174 C 
BRANCH  25  26
ATOM     26  C   UNL     1       1.047   9.353   4.398  1.00  0.00     0.038 C 
BRANCH  26  27
ATOM     27  C   UNL     1      -0.038  10.136   5.171  1.00  0.00    -0.015 C 
ATOM     28  C   UNL     1       0.415  11.547   5.545  1.00  0.00     0.007 C 
ATOM     29  C   UNL     1      -1.384  10.177   4.452  1.00  0.00     0.007 C 
ENDBRANCH  26  27
ENDBRANCH  25  26
BRANCH  25  30
ATOM     30  C   UNL     1       0.593   6.926   5.178  1.00  0.00     0.243 C 
ATOM     31  O   UNL     1      -0.324   6.111   5.268  1.00  0.00    -0.273 OA
ATOM     32  N   UNL     1       1.578   7.034   6.126  1.00  0.00    -0.342 N 
ATOM     33  H   UNL     1       2.379   7.633   5.911  1.00  0.00     0.164 HD
BRANCH  32  34
ATOM     34  C   UNL     1       1.618   6.209   7.337  1.00  0.00     0.175 C 
BRANCH  34  35
ATOM     35  C   UNL     1       3.064   5.901   7.755  1.00  0.00     0.070 C 
BRANCH  35  36
ATOM     36  C   UNL     1       3.488   4.494   7.400  1.00  0.00    -0.045 A 
ATOM     37  C   UNL     1       3.223   3.983   6.121  1.00  0.00     0.007 A 
ATOM     38  C   UNL     1       4.127   3.676   8.342  1.00  0.00     0.007 A 
ATOM     39  C   UNL     1       3.599   2.681   5.788  1.00  0.00     0.046 A 
ATOM     40  C   UNL     1       4.502   2.372   8.010  1.00  0.00     0.046 A 
ATOM     41  C   UNL     1       4.235   1.887   6.734  1.00  0.00     0.115 A 
BRANCH  41  42
ATOM     42  O   UNL     1       4.583   0.620   6.370  1.00  0.00    -0.508 OA
ATOM     43  H   UNL     1       3.776   0.079   6.342  1.00  0.00     0.293 HD
ENDBRANCH  41  42
ENDBRANCH  35  36
ENDBRANCH  34  35
BRANCH  34  44
ATOM     44  C   UNL     1       0.841   6.951   8.448  1.00  0.00     0.243 C 
ATOM     45  O   UNL     1      -0.014   7.808   8.243  1.00  0.00    -0.273 OA
ATOM     46  N   UNL     1       1.289   6.660   9.719  1.00  0.00    -0.341 N 
ATOM     47  H   UNL     1       2.080   6.031   9.832  1.00  0.00     0.164 HD
BRANCH  46  48
ATOM     48  C   UNL     1       0.753   7.292  10.927  1.00  0.00     0.196 C 
BRANCH  48  49
ATOM     49  C   UNL     1      -0.448   6.507  11.483  1.00  0.00     0.072 C 
BRANCH  49  50
ATOM     50  C   UNL     1      -1.442   7.395  12.197  1.00  0.00    -0.045 A 
ATOM     51  C   UNL     1      -2.150   6.902  13.303  1.00  0.00     0.007 A 
ATOM     52  C   UNL     1      -1.686   8.702  11.758  1.00  0.00     0.007 A 
ATOM     53  C   UNL     1      -3.080   7.707  13.961  1.00  0.00     0.046 A 
ATOM     54  C   UNL     1      -2.618   9.508  12.417  1.00  0.00     0.046 A 
ATOM     55  C   UNL     1      -3.307   9.003  13.514  1.00  0.00     0.115 A 
BRANCH  55  56
ATOM     56  O   UNL     1      -4.225   9.757  14.184  1.00  0.00    -0.508 OA
ATOM     57  H   UNL     1      -5.083   9.306  14.137  1.00  0.00     0.293 HD
ENDBRANCH  55  56
ENDBRANCH  49  50
ENDBRANCH  48  49
BRANCH  48  58
ATOM     58  C   UNL     1       1.859   7.360  11.988  1.00  0.00     0.326 C 
ATOM     59  O   UNL     1       1.761   7.100  13.176  1.00  0.00    -0.250 OA
BRANCH  58  60
ATOM     60  O   UNL     1       3.062   7.745  11.492  1.00  0.00    -0.480 OA
ATOM     61  H   UNL     1       2.912   8.682  11.237  1.00  0.00     0.296 HD
ENDBRANCH  58  60
ENDBRANCH  48  58
ENDBRANCH  46  48
ENDBRANCH  34  44
ENDBRANCH  32  34
ENDBRANCH  25  30
ENDBRANCH  23  25
ENDBRANCH   2  23
TORSDOF 28
ENDMDL
MODEL 28
REMARK VINA RESULT:    -6.138      3.835      8.252
REMARK INTER + INTRA:         -19.330
REMARK INTER:                 -12.973
REMARK INTRA:                  -6.357
REMARK UNBOUND:                -4.043
REMARK SMILES CCCCCCC[C@H](N)[C@H](O)C(=O)N[C@H](C)C(=O)N(C)[C@H](CC(C)C)C(=O)N[C@@H](Cc1ccc(O)cc1)C(=O)N[C@@H](Cc1ccc(O)cc1)C(=O)O
REMARK SMILES IDX 18 1 17 2 15 3 16 4 14 5 12 6 13 7 10 9 11 10 8 12 9 13 7 16
REMARK SMILES IDX 6 17 5 18 4 19 3 20 2 21 1 22 19 23 20 24 21 25 22 26 23 27
REMARK SMILES IDX 24 28 25 29 26 30 27 31 28 32 29 34 30 35 31 36 32 37 37 38
REMARK SMILES IDX 33 39 36 40 34 41 35 42 38 44 39 45 40 46 41 48 42 49 43 50
REMARK SMILES IDX 44 51 49 52 45 53 48 54 46 55 47 56 50 58 51 59 52 60
REMARK H PARENT 14 8 11 11 9 14 9 15 28 33 35 43 40 47 47 57 52 61
ROOT
ATOM      1  O   UNL     1       1.751  11.909   7.855  1.00  0.00    -0.272 OA
ATOM      2  C   UNL     1       1.765  11.548   6.669  1.00  0.00     0.245 C 
ENDROOT
BRANCH   2   3
ATOM      3  C   UNL     1       0.771  10.450   6.217  1.00  0.00     0.168 C 
ATOM      4  C   UNL     1       0.094  10.838   4.907  1.00  0.00     0.041 C 
BRANCH   3   5
ATOM      5  N   UNL     1       1.327   9.107   6.163  1.00  0.00    -0.342 N 
ATOM      6  C   UNL     1       0.878   8.099   6.989  1.00  0.00     0.251 C 
ATOM      7  O   UNL     1       0.019   8.262   7.850  1.00  0.00    -0.272 OA
ATOM      8  H   UNL     1       2.070   8.860   5.513  1.00  0.00     0.164 HD
BRANCH   6   9
ATOM      9  C   UNL     1       1.506   6.736   6.659  1.00  0.00     0.219 C 
BRANCH   9  10
ATOM     10  O   UNL     1       2.318   6.772   5.480  1.00  0.00    -0.382 OA
ATOM     11  H   UNL     1       1.809   7.347   4.867  1.00  0.00     0.211 HD
ENDBRANCH   9  10
BRANCH   9  12
ATOM     12  C   UNL     1       2.289   6.122   7.849  1.00  0.00     0.089 C 
BRANCH  12  13
ATOM     13  N   UNL     1       1.324   5.783   8.919  1.00  0.00    -0.325 NA
ATOM     14  H   UNL     1       1.833   5.426   9.730  1.00  0.00     0.119 HD
ATOM     15  H   UNL     1       0.742   5.002   8.605  1.00  0.00     0.119 HD
ENDBRANCH  12  13
BRANCH  12  16
ATOM     16  C   UNL     1       3.170   4.893   7.519  1.00  0.00     0.022 C 
BRANCH  16  17
ATOM     17  C   UNL     1       4.630   4.871   7.993  1.00  0.00     0.002 C 
BRANCH  17  18
ATOM     18  C   UNL     1       5.409   6.160   7.741  1.00  0.00     0.000 C 
BRANCH  18  19
ATOM     19  C   UNL     1       6.280   6.126   6.478  1.00  0.00    -0.000 C 
BRANCH  19  20
ATOM     20  C   UNL     1       5.778   6.992   5.318  1.00  0.00    -0.000 C 
BRANCH  20  21
ATOM     21  C   UNL     1       6.795   8.046   4.873  1.00  0.00    -0.003 C 
ATOM     22  C   UNL     1       7.941   7.418   4.096  1.00  0.00     0.004 C 
ENDBRANCH  20  21
ENDBRANCH  19  20
ENDBRANCH  18  19
ENDBRANCH  17  18
ENDBRANCH  16  17
ENDBRANCH  12  16
ENDBRANCH   9  12
ENDBRANCH   6   9
ENDBRANCH   3   5
ENDBRANCH   2   3
BRANCH   2  23
ATOM     23  N   UNL     1       2.574  12.209   5.751  1.00  0.00    -0.332 N 
ATOM     24  C   UNL     1       2.378  13.585   5.317  1.00  0.00     0.147 C 
BRANCH  23  25
ATOM     25  C   UNL     1       3.810  11.560   5.234  1.00  0.00     0.174 C 
BRANCH  25  26
ATOM     26  C   UNL     1       5.064  12.454   5.374  1.00  0.00     0.038 C 
BRANCH  26  27
ATOM     27  C   UNL     1       6.411  11.847   4.923  1.00  0.00    -0.015 C 
ATOM     28  C   UNL     1       7.138  12.729   3.908  1.00  0.00     0.007 C 
ATOM     29  C   UNL     1       7.335  11.489   6.083  1.00  0.00     0.007 C 
ENDBRANCH  26  27
ENDBRANCH  25  26
BRANCH  25  30
ATOM     30  C   UNL     1       3.576  11.038   3.798  1.00  0.00     0.243 C 
ATOM     31  O   UNL     1       3.334  11.798   2.862  1.00  0.00    -0.273 OA
ATOM     32  N   UNL     1       3.651   9.678   3.641  1.00  0.00    -0.342 N 
ATOM     33  H   UNL     1       3.994   9.128   4.433  1.00  0.00     0.164 HD
BRANCH  32  34
ATOM     34  C   UNL     1       3.430   9.005   2.359  1.00  0.00     0.175 C 
BRANCH  34  35
ATOM     35  C   UNL     1       4.657   8.180   1.942  1.00  0.00     0.070 C 
BRANCH  35  36
ATOM     36  C   UNL     1       5.236   8.621   0.616  1.00  0.00    -0.045 A 
ATOM     37  C   UNL     1       6.600   8.434   0.348  1.00  0.00     0.007 A 
ATOM     38  C   UNL     1       4.430   9.240  -0.349  1.00  0.00     0.007 A 
ATOM     39  C   UNL     1       7.145   8.850  -0.867  1.00  0.00     0.046 A 
ATOM     40  C   UNL     1       4.976   9.658  -1.566  1.00  0.00     0.046 A 
ATOM     41  C   UNL     1       6.330   9.458  -1.813  1.00  0.00     0.115 A 
BRANCH  41  42
ATOM     42  O   UNL     1       6.902   9.853  -2.986  1.00  0.00    -0.508 OA
ATOM     43  H   UNL     1       7.199  10.772  -2.886  1.00  0.00     0.293 HD
ENDBRANCH  41  42
ENDBRANCH  35  36
ENDBRANCH  34  35
BRANCH  34  44
ATOM     44  C   UNL     1       2.163   8.129   2.489  1.00  0.00     0.243 C 
ATOM     45  O   UNL     1       1.293   8.290   3.340  1.00  0.00    -0.273 OA
ATOM     46  N   UNL     1       2.153   7.049   1.632  1.00  0.00    -0.341 N 
ATOM     47  H   UNL     1       2.953   6.892   1.025  1.00  0.00     0.164 HD
BRANCH  46  48
ATOM     48  C   UNL     1       1.090   6.041   1.619  1.00  0.00     0.196 C 
BRANCH  48  49
ATOM     49  C   UNL     1       1.278   5.043   0.464  1.00  0.00     0.072 C 
BRANCH  49  50
ATOM     50  C   UNL     1       1.925   5.673  -0.749  1.00  0.00    -0.045 A 
ATOM     51  C   UNL     1       1.148   6.414  -1.650  1.00  0.00     0.007 A 
ATOM     52  C   UNL     1       3.293   5.510  -1.001  1.00  0.00     0.007 A 
ATOM     53  C   UNL     1       1.731   6.988  -2.780  1.00  0.00     0.046 A 
ATOM     54  C   UNL     1       3.877   6.084  -2.133  1.00  0.00     0.046 A 
ATOM     55  C   UNL     1       3.091   6.820  -3.012  1.00  0.00     0.115 A 
BRANCH  55  56
ATOM     56  O   UNL     1       3.622   7.396  -4.128  1.00  0.00    -0.508 OA
ATOM     57  H   UNL     1       4.487   6.991  -4.299  1.00  0.00     0.293 HD
ENDBRANCH  55  56
ENDBRANCH  49  50
ENDBRANCH  48  49
BRANCH  48  58
ATOM     58  C   UNL     1       1.099   5.288   2.957  1.00  0.00     0.326 C 
ATOM     59  O   UNL     1       1.974   4.552   3.385  1.00  0.00    -0.250 OA
BRANCH  58  60
ATOM     60  O   UNL     1      -0.005   5.512   3.712  1.00  0.00    -0.480 OA
ATOM     61  H   UNL     1       0.176   6.385   4.125  1.00  0.00     0.296 HD
ENDBRANCH  58  60
ENDBRANCH  48  58
ENDBRANCH  46  48
ENDBRANCH  34  44
ENDBRANCH  32  34
ENDBRANCH  25  30
ENDBRANCH  23  25
ENDBRANCH   2  23
TORSDOF 28
ENDMDL
MODEL 29
REMARK VINA RESULT:    -6.088      5.035      9.057
REMARK INTER + INTRA:         -19.206
REMARK INTER:                 -15.600
REMARK INTRA:                  -3.606
REMARK UNBOUND:                -4.043
REMARK SMILES CCCCCCC[C@H](N)[C@H](O)C(=O)N[C@H](C)C(=O)N(C)[C@H](CC(C)C)C(=O)N[C@@H](Cc1ccc(O)cc1)C(=O)N[C@@H](Cc1ccc(O)cc1)C(=O)O
REMARK SMILES IDX 18 1 17 2 15 3 16 4 14 5 12 6 13 7 10 9 11 10 8 12 9 13 7 16
REMARK SMILES IDX 6 17 5 18 4 19 3 20 2 21 1 22 19 23 20 24 21 25 22 26 23 27
REMARK SMILES IDX 24 28 25 29 26 30 27 31 28 32 29 34 30 35 31 36 32 37 37 38
REMARK SMILES IDX 33 39 36 40 34 41 35 42 38 44 39 45 40 46 41 48 42 49 43 50
REMARK SMILES IDX 44 51 49 52 45 53 48 54 46 55 47 56 50 58 51 59 52 60
REMARK H PARENT 14 8 11 11 9 14 9 15 28 33 35 43 40 47 47 57 52 61
ROOT
ATOM      1  O   UNL     1      -0.457   5.692   4.723  1.00  0.00    -0.272 OA
ATOM      2  C   UNL     1       0.435   6.549   4.799  1.00  0.00     0.245 C 
ENDROOT
BRANCH   2   3
ATOM      3  C   UNL     1       0.245   7.731   5.783  1.00  0.00     0.168 C 
ATOM      4  C   UNL     1      -1.135   8.359   5.615  1.00  0.00     0.041 C 
BRANCH   3   5
ATOM      5  N   UNL     1       0.533   7.420   7.174  1.00  0.00    -0.342 N 
ATOM      6  C   UNL     1       1.171   8.318   8.003  1.00  0.00     0.251 C 
ATOM      7  O   UNL     1       1.577   9.413   7.630  1.00  0.00    -0.272 OA
ATOM      8  H   UNL     1       0.275   6.528   7.589  1.00  0.00     0.164 HD
BRANCH   6   9
ATOM      9  C   UNL     1       1.241   7.835   9.461  1.00  0.00     0.219 C 
BRANCH   9  10
ATOM     10  O   UNL     1       1.363   8.914  10.396  1.00  0.00    -0.382 OA
ATOM     11  H   UNL     1       0.490   9.361  10.347  1.00  0.00     0.211 HD
ENDBRANCH   9  10
BRANCH   9  12
ATOM     12  C   UNL     1       0.067   6.899   9.850  1.00  0.00     0.089 C 
BRANCH  12  13
ATOM     13  N   UNL     1       0.503   6.044  10.977  1.00  0.00    -0.325 NA
ATOM     14  H   UNL     1       1.433   5.672  10.775  1.00  0.00     0.119 HD
ATOM     15  H   UNL     1      -0.107   5.225  11.026  1.00  0.00     0.119 HD
ENDBRANCH  12  13
BRANCH  12  16
ATOM     16  C   UNL     1      -1.269   7.598  10.199  1.00  0.00     0.022 C 
BRANCH  16  17
ATOM     17  C   UNL     1      -1.687   7.717  11.672  1.00  0.00     0.002 C 
BRANCH  17  18
ATOM     18  C   UNL     1      -1.797   9.147  12.197  1.00  0.00     0.000 C 
BRANCH  18  19
ATOM     19  C   UNL     1      -1.514   9.284  13.699  1.00  0.00    -0.000 C 
BRANCH  19  20
ATOM     20  C   UNL     1      -2.522   8.586  14.617  1.00  0.00    -0.000 C 
BRANCH  20  21
ATOM     21  C   UNL     1      -3.938   9.158  14.497  1.00  0.00    -0.003 C 
ATOM     22  C   UNL     1      -4.966   8.227  15.120  1.00  0.00     0.004 C 
ENDBRANCH  20  21
ENDBRANCH  19  20
ENDBRANCH  18  19
ENDBRANCH  17  18
ENDBRANCH  16  17
ENDBRANCH  12  16
ENDBRANCH   9  12
ENDBRANCH   6   9
ENDBRANCH   3   5
ENDBRANCH   2   3
BRANCH   2  23
ATOM     23  N   UNL     1       1.628   6.377   4.104  1.00  0.00    -0.332 N 
ATOM     24  C   UNL     1       2.755   5.590   4.581  1.00  0.00     0.147 C 
BRANCH  23  25
ATOM     25  C   UNL     1       1.774   6.907   2.721  1.00  0.00     0.174 C 
BRANCH  25  26
ATOM     26  C   UNL     1       2.247   5.834   1.712  1.00  0.00     0.038 C 
BRANCH  26  27
ATOM     27  C   UNL     1       1.674   5.918   0.280  1.00  0.00    -0.015 C 
ATOM     28  C   UNL     1       2.721   5.605  -0.789  1.00  0.00     0.007 C 
ATOM     29  C   UNL     1       0.425   5.065   0.074  1.00  0.00     0.007 C 
ENDBRANCH  26  27
ENDBRANCH  25  26
BRANCH  25  30
ATOM     30  C   UNL     1       2.649   8.182   2.729  1.00  0.00     0.243 C 
ATOM     31  O   UNL     1       2.286   9.215   3.288  1.00  0.00    -0.273 OA
ATOM     32  N   UNL     1       3.846   8.084   2.068  1.00  0.00    -0.342 N 
ATOM     33  H   UNL     1       4.138   7.155   1.752  1.00  0.00     0.164 HD
BRANCH  32  34
ATOM     34  C   UNL     1       4.790   9.198   1.949  1.00  0.00     0.175 C 
BRANCH  34  35
ATOM     35  C   UNL     1       6.215   8.766   2.326  1.00  0.00     0.070 C 
BRANCH  35  36
ATOM     36  C   UNL     1       7.212   9.900   2.242  1.00  0.00    -0.045 A 
ATOM     37  C   UNL     1       8.320   9.799   1.387  1.00  0.00     0.007 A 
ATOM     38  C   UNL     1       7.059  11.050   3.028  1.00  0.00     0.007 A 
ATOM     39  C   UNL     1       9.252  10.835   1.314  1.00  0.00     0.046 A 
ATOM     40  C   UNL     1       7.993  12.087   2.956  1.00  0.00     0.046 A 
ATOM     41  C   UNL     1       9.081  11.970   2.097  1.00  0.00     0.115 A 
BRANCH  41  42
ATOM     42  O   UNL     1      10.016  12.957   1.998  1.00  0.00    -0.508 OA
ATOM     43  H   UNL     1      10.268  13.229   2.896  1.00  0.00     0.293 HD
ENDBRANCH  41  42
ENDBRANCH  35  36
ENDBRANCH  34  35
BRANCH  34  44
ATOM     44  C   UNL     1       4.713   9.739   0.504  1.00  0.00     0.243 C 
ATOM     45  O   UNL     1       4.089  10.742   0.171  1.00  0.00    -0.273 OA
ATOM     46  N   UNL     1       5.310   8.911  -0.424  1.00  0.00    -0.341 N 
ATOM     47  H   UNL     1       5.713   8.031  -0.113  1.00  0.00     0.164 HD
BRANCH  46  48
ATOM     48  C   UNL     1       5.306   9.180  -1.864  1.00  0.00     0.196 C 
BRANCH  48  49
ATOM     49  C   UNL     1       6.585   8.652  -2.536  1.00  0.00     0.072 C 
BRANCH  49  50
ATOM     50  C   UNL     1       7.726   9.642  -2.471  1.00  0.00    -0.045 A 
ATOM     51  C   UNL     1       9.046   9.180  -2.368  1.00  0.00     0.007 A 
ATOM     52  C   UNL     1       7.486  11.021  -2.493  1.00  0.00     0.007 A 
ATOM     53  C   UNL     1      10.106  10.083  -2.295  1.00  0.00     0.046 A 
ATOM     54  C   UNL     1       8.547  11.926  -2.418  1.00  0.00     0.046 A 
ATOM     55  C   UNL     1       9.850  11.449  -2.321  1.00  0.00     0.115 A 
BRANCH  55  56
ATOM     56  O   UNL     1      10.913  12.298  -2.245  1.00  0.00    -0.508 OA
ATOM     57  H   UNL     1      11.442  12.058  -1.468  1.00  0.00     0.293 HD
ENDBRANCH  55  56
ENDBRANCH  49  50
ENDBRANCH  48  49
BRANCH  48  58
ATOM     58  C   UNL     1       4.078   8.506  -2.493  1.00  0.00     0.326 C 
ATOM     59  O   UNL     1       2.915   8.609  -2.137  1.00  0.00    -0.250 OA
BRANCH  58  60
ATOM     60  O   UNL     1       4.376   7.734  -3.568  1.00  0.00    -0.480 OA
ATOM     61  H   UNL     1       4.187   6.824  -3.253  1.00  0.00     0.296 HD
ENDBRANCH  58  60
ENDBRANCH  48  58
ENDBRANCH  46  48
ENDBRANCH  34  44
ENDBRANCH  32  34
ENDBRANCH  25  30
ENDBRANCH  23  25
ENDBRANCH   2  23
TORSDOF 28
ENDMDL
MODEL 30
REMARK VINA RESULT:    -6.082      4.706      8.679
REMARK INTER + INTRA:         -19.190
REMARK INTER:                 -15.183
REMARK INTRA:                  -4.007
REMARK UNBOUND:                -4.043
REMARK SMILES CCCCCCC[C@H](N)[C@H](O)C(=O)N[C@H](C)C(=O)N(C)[C@H](CC(C)C)C(=O)N[C@@H](Cc1ccc(O)cc1)C(=O)N[C@@H](Cc1ccc(O)cc1)C(=O)O
REMARK SMILES IDX 18 1 17 2 15 3 16 4 14 5 12 6 13 7 10 9 11 10 8 12 9 13 7 16
REMARK SMILES IDX 6 17 5 18 4 19 3 20 2 21 1 22 19 23 20 24 21 25 22 26 23 27
REMARK SMILES IDX 24 28 25 29 26 30 27 31 28 32 29 34 30 35 31 36 32 37 37 38
REMARK SMILES IDX 33 39 36 40 34 41 35 42 38 44 39 45 40 46 41 48 42 49 43 50
REMARK SMILES IDX 44 51 49 52 45 53 48 54 46 55 47 56 50 58 51 59 52 60
REMARK H PARENT 14 8 11 11 9 14 9 15 28 33 35 43 40 47 47 57 52 61
ROOT
ATOM      1  O   UNL     1       3.921   6.848   4.089  1.00  0.00    -0.272 OA
ATOM      2  C   UNL     1       2.791   7.167   4.487  1.00  0.00     0.245 C 
ENDROOT
BRANCH   2   3
ATOM      3  C   UNL     1       2.076   6.244   5.506  1.00  0.00     0.168 C 
ATOM      4  C   UNL     1       2.495   4.791   5.307  1.00  0.00     0.041 C 
BRANCH   3   5
ATOM      5  N   UNL     1       2.198   6.658   6.895  1.00  0.00    -0.342 N 
ATOM      6  C   UNL     1       1.219   7.400   7.522  1.00  0.00     0.251 C 
ATOM      7  O   UNL     1       0.207   7.798   6.957  1.00  0.00    -0.272 OA
ATOM      8  H   UNL     1       3.011   6.416   7.457  1.00  0.00     0.164 HD
BRANCH   6   9
ATOM      9  C   UNL     1       1.493   7.598   9.022  1.00  0.00     0.219 C 
BRANCH   9  10
ATOM     10  O   UNL     1       1.321   8.957   9.440  1.00  0.00    -0.382 OA
ATOM     11  H   UNL     1       1.123   9.433   8.603  1.00  0.00     0.211 HD
ENDBRANCH   9  10
BRANCH   9  12
ATOM     12  C   UNL     1       0.674   6.637   9.922  1.00  0.00     0.089 C 
BRANCH  12  13
ATOM     13  N   UNL     1       0.818   5.262   9.391  1.00  0.00    -0.325 NA
ATOM     14  H   UNL     1       1.789   4.961   9.495  1.00  0.00     0.119 HD
ATOM     15  H   UNL     1       0.651   5.278   8.382  1.00  0.00     0.119 HD
ENDBRANCH  12  13
BRANCH  12  16
ATOM     16  C   UNL     1       1.019   6.662  11.431  1.00  0.00     0.022 C 
BRANCH  16  17
ATOM     17  C   UNL     1      -0.098   6.936  12.448  1.00  0.00     0.002 C 
BRANCH  17  18
ATOM     18  C   UNL     1      -1.220   7.841  11.945  1.00  0.00     0.000 C 
BRANCH  18  19
ATOM     19  C   UNL     1      -2.437   7.904  12.878  1.00  0.00    -0.000 C 
BRANCH  19  20
ATOM     20  C   UNL     1      -3.124   9.270  12.957  1.00  0.00    -0.000 C 
BRANCH  20  21
ATOM     21  C   UNL     1      -4.027   9.417  14.185  1.00  0.00    -0.003 C 
ATOM     22  C   UNL     1      -4.332   8.067  14.814  1.00  0.00     0.004 C 
ENDBRANCH  20  21
ENDBRANCH  19  20
ENDBRANCH  18  19
ENDBRANCH  17  18
ENDBRANCH  16  17
ENDBRANCH  12  16
ENDBRANCH   9  12
ENDBRANCH   6   9
ENDBRANCH   3   5
ENDBRANCH   2   3
BRANCH   2  23
ATOM     23  N   UNL     1       2.241   8.389   4.115  1.00  0.00    -0.332 N 
ATOM     24  C   UNL     1       0.857   8.583   3.710  1.00  0.00     0.147 C 
BRANCH  23  25
ATOM     25  C   UNL     1       3.040   9.639   4.235  1.00  0.00     0.174 C 
BRANCH  25  26
ATOM     26  C   UNL     1       2.286  10.766   4.980  1.00  0.00     0.038 C 
BRANCH  26  27
ATOM     27  C   UNL     1       2.355  10.752   6.524  1.00  0.00    -0.015 C 
ATOM     28  C   UNL     1       3.673  10.181   7.045  1.00  0.00     0.007 C 
ATOM     29  C   UNL     1       2.071  12.112   7.157  1.00  0.00     0.007 C 
ENDBRANCH  26  27
ENDBRANCH  25  26
BRANCH  25  30
ATOM     30  C   UNL     1       3.578  10.063   2.849  1.00  0.00     0.243 C 
ATOM     31  O   UNL     1       3.279  11.141   2.337  1.00  0.00    -0.273 OA
ATOM     32  N   UNL     1       4.400   9.157   2.230  1.00  0.00    -0.342 N 
ATOM     33  H   UNL     1       4.714   8.351   2.777  1.00  0.00     0.164 HD
BRANCH  32  34
ATOM     34  C   UNL     1       4.980   9.378   0.902  1.00  0.00     0.175 C 
BRANCH  34  35
ATOM     35  C   UNL     1       6.399   8.796   0.808  1.00  0.00     0.070 C 
BRANCH  35  36
ATOM     36  C   UNL     1       7.249   9.492  -0.231  1.00  0.00    -0.045 A 
ATOM     37  C   UNL     1       7.558   8.841  -1.435  1.00  0.00     0.007 A 
ATOM     38  C   UNL     1       7.756  10.778  -0.002  1.00  0.00     0.007 A 
ATOM     39  C   UNL     1       8.352   9.469  -2.394  1.00  0.00     0.046 A 
ATOM     40  C   UNL     1       8.552  11.407  -0.962  1.00  0.00     0.046 A 
ATOM     41  C   UNL     1       8.843  10.746  -2.151  1.00  0.00     0.115 A 
BRANCH  41  42
ATOM     42  O   UNL     1       9.618  11.324  -3.112  1.00  0.00    -0.508 OA
ATOM     43  H   UNL     1      10.502  10.923  -3.073  1.00  0.00     0.293 HD
ENDBRANCH  41  42
ENDBRANCH  35  36
ENDBRANCH  34  35
BRANCH  34  44
ATOM     44  C   UNL     1       4.030   8.754  -0.145  1.00  0.00     0.243 C 
ATOM     45  O   UNL     1       3.626   9.334  -1.148  1.00  0.00    -0.273 OA
ATOM     46  N   UNL     1       3.559   7.508   0.215  1.00  0.00    -0.341 N 
ATOM     47  H   UNL     1       3.831   7.118   1.114  1.00  0.00     0.164 HD
BRANCH  46  48
ATOM     48  C   UNL     1       2.594   6.750  -0.584  1.00  0.00     0.196 C 
BRANCH  48  49
ATOM     49  C   UNL     1       3.290   5.977  -1.717  1.00  0.00     0.072 C 
BRANCH  49  50
ATOM     50  C   UNL     1       3.042   6.589  -3.077  1.00  0.00    -0.045 A 
ATOM     51  C   UNL     1       1.734   6.899  -3.476  1.00  0.00     0.007 A 
ATOM     52  C   UNL     1       4.101   6.834  -3.961  1.00  0.00     0.007 A 
ATOM     53  C   UNL     1       1.492   7.452  -4.733  1.00  0.00     0.046 A 
ATOM     54  C   UNL     1       3.858   7.387  -5.221  1.00  0.00     0.046 A 
ATOM     55  C   UNL     1       2.555   7.692  -5.596  1.00  0.00     0.115 A 
BRANCH  55  56
ATOM     56  O   UNL     1       2.275   8.232  -6.816  1.00  0.00    -0.508 OA
ATOM     57  H   UNL     1       1.368   7.986  -7.059  1.00  0.00     0.293 HD
ENDBRANCH  55  56
ENDBRANCH  49  50
ENDBRANCH  48  49
BRANCH  48  58
ATOM     58  C   UNL     1       1.852   5.766   0.331  1.00  0.00     0.326 C 
ATOM     59  O   UNL     1       1.067   4.894  -0.004  1.00  0.00    -0.250 OA
BRANCH  58  60
ATOM     60  O   UNL     1       2.151   5.919   1.645  1.00  0.00    -0.480 OA
ATOM     61  H   UNL     1       1.625   5.212   2.080  1.00  0.00     0.296 HD
ENDBRANCH  58  60
ENDBRANCH  48  58
ENDBRANCH  46  48
ENDBRANCH  34  44
ENDBRANCH  32  34
ENDBRANCH  25  30
ENDBRANCH  23  25
ENDBRANCH   2  23
TORSDOF 28
ENDMDL
MODEL 31
REMARK VINA RESULT:    -6.052      7.426     11.817
REMARK INTER + INTRA:         -19.116
REMARK INTER:                 -15.644
REMARK INTRA:                  -3.472
REMARK UNBOUND:                -4.043
REMARK SMILES CCCCCCC[C@H](N)[C@H](O)C(=O)N[C@H](C)C(=O)N(C)[C@H](CC(C)C)C(=O)N[C@@H](Cc1ccc(O)cc1)C(=O)N[C@@H](Cc1ccc(O)cc1)C(=O)O
REMARK SMILES IDX 18 1 17 2 15 3 16 4 14 5 12 6 13 7 10 9 11 10 8 12 9 13 7 16
REMARK SMILES IDX 6 17 5 18 4 19 3 20 2 21 1 22 19 23 20 24 21 25 22 26 23 27
REMARK SMILES IDX 24 28 25 29 26 30 27 31 28 32 29 34 30 35 31 36 32 37 37 38
REMARK SMILES IDX 33 39 36 40 34 41 35 42 38 44 39 45 40 46 41 48 42 49 43 50
REMARK SMILES IDX 44 51 49 52 45 53 48 54 46 55 47 56 50 58 51 59 52 60
REMARK H PARENT 14 8 11 11 9 14 9 15 28 33 35 43 40 47 47 57 52 61
ROOT
ATOM      1  O   UNL     1       9.690   0.386   7.687  1.00  0.00    -0.272 OA
ATOM      2  C   UNL     1       8.456   0.309   7.778  1.00  0.00     0.245 C 
ENDROOT
BRANCH   2   3
ATOM      3  C   UNL     1       7.797  -1.092   7.744  1.00  0.00     0.168 C 
ATOM      4  C   UNL     1       7.925  -1.784   9.097  1.00  0.00     0.041 C 
BRANCH   3   5
ATOM      5  N   UNL     1       6.427  -1.111   7.253  1.00  0.00    -0.342 N 
ATOM      6  C   UNL     1       6.137  -1.172   5.907  1.00  0.00     0.251 C 
ATOM      7  O   UNL     1       6.995  -1.172   5.030  1.00  0.00    -0.272 OA
ATOM      8  H   UNL     1       5.631  -1.080   7.886  1.00  0.00     0.164 HD
BRANCH   6   9
ATOM      9  C   UNL     1       4.633  -1.326   5.629  1.00  0.00     0.219 C 
BRANCH   9  10
ATOM     10  O   UNL     1       4.183  -0.499   4.549  1.00  0.00    -0.382 OA
ATOM     11  H   UNL     1       4.481   0.401   4.807  1.00  0.00     0.211 HD
ENDBRANCH   9  10
BRANCH   9  12
ATOM     12  C   UNL     1       4.203  -2.800   5.411  1.00  0.00     0.089 C 
BRANCH  12  13
ATOM     13  N   UNL     1       5.411  -3.653   5.466  1.00  0.00    -0.325 NA
ATOM     14  H   UNL     1       6.117  -3.199   6.049  1.00  0.00     0.119 HD
ATOM     15  H   UNL     1       5.826  -3.700   4.532  1.00  0.00     0.119 HD
ENDBRANCH  12  13
BRANCH  12  16
ATOM     16  C   UNL     1       3.125  -3.342   6.380  1.00  0.00     0.022 C 
BRANCH  16  17
ATOM     17  C   UNL     1       2.877  -4.855   6.451  1.00  0.00     0.002 C 
BRANCH  17  18
ATOM     18  C   UNL     1       1.583  -5.328   5.792  1.00  0.00     0.000 C 
BRANCH  18  19
ATOM     19  C   UNL     1       0.500  -4.245   5.693  1.00  0.00    -0.000 C 
BRANCH  19  20
ATOM     20  C   UNL     1      -0.613  -4.342   6.740  1.00  0.00    -0.000 C 
BRANCH  20  21
ATOM     21  C   UNL     1      -0.460  -3.326   7.875  1.00  0.00    -0.003 C 
ATOM     22  C   UNL     1      -0.502  -1.899   7.351  1.00  0.00     0.004 C 
ENDBRANCH  20  21
ENDBRANCH  19  20
ENDBRANCH  18  19
ENDBRANCH  17  18
ENDBRANCH  16  17
ENDBRANCH  12  16
ENDBRANCH   9  12
ENDBRANCH   6   9
ENDBRANCH   3   5
ENDBRANCH   2   3
BRANCH   2  23
ATOM     23  N   UNL     1       7.705   1.452   8.028  1.00  0.00    -0.332 N 
ATOM     24  C   UNL     1       7.449   1.999   9.353  1.00  0.00     0.147 C 
BRANCH  23  25
ATOM     25  C   UNL     1       7.205   2.285   6.900  1.00  0.00     0.174 C 
BRANCH  25  26
ATOM     26  C   UNL     1       8.107   3.506   6.607  1.00  0.00     0.038 C 
BRANCH  26  27
ATOM     27  C   UNL     1       9.009   4.003   7.759  1.00  0.00    -0.015 C 
ATOM     28  C   UNL     1      10.496   3.806   7.463  1.00  0.00     0.007 C 
ATOM     29  C   UNL     1       8.730   5.446   8.170  1.00  0.00     0.007 C 
ENDBRANCH  26  27
ENDBRANCH  25  26
BRANCH  25  30
ATOM     30  C   UNL     1       5.719   2.649   7.125  1.00  0.00     0.243 C 
ATOM     31  O   UNL     1       4.832   1.797   7.113  1.00  0.00    -0.273 OA
ATOM     32  N   UNL     1       5.459   3.979   7.330  1.00  0.00    -0.342 N 
ATOM     33  H   UNL     1       6.259   4.603   7.467  1.00  0.00     0.164 HD
BRANCH  32  34
ATOM     34  C   UNL     1       4.108   4.510   7.534  1.00  0.00     0.175 C 
BRANCH  34  35
ATOM     35  C   UNL     1       4.023   5.341   8.823  1.00  0.00     0.070 C 
BRANCH  35  36
ATOM     36  C   UNL     1       2.665   5.978   9.019  1.00  0.00    -0.045 A 
ATOM     37  C   UNL     1       1.539   5.173   9.251  1.00  0.00     0.007 A 
ATOM     38  C   UNL     1       2.507   7.368   8.951  1.00  0.00     0.007 A 
ATOM     39  C   UNL     1       0.281   5.751   9.419  1.00  0.00     0.046 A 
ATOM     40  C   UNL     1       1.246   7.947   9.118  1.00  0.00     0.046 A 
ATOM     41  C   UNL     1       0.144   7.132   9.352  1.00  0.00     0.115 A 
BRANCH  41  42
ATOM     42  O   UNL     1      -1.104   7.656   9.519  1.00  0.00    -0.508 OA
ATOM     43  H   UNL     1      -1.539   7.181  10.247  1.00  0.00     0.293 HD
ENDBRANCH  41  42
ENDBRANCH  35  36
ENDBRANCH  34  35
BRANCH  34  44
ATOM     44  C   UNL     1       3.727   5.339   6.286  1.00  0.00     0.243 C 
ATOM     45  O   UNL     1       4.427   6.223   5.800  1.00  0.00    -0.273 OA
ATOM     46  N   UNL     1       2.451   5.089   5.830  1.00  0.00    -0.341 N 
ATOM     47  H   UNL     1       1.865   4.430   6.338  1.00  0.00     0.164 HD
BRANCH  46  48
ATOM     48  C   UNL     1       1.843   5.801   4.703  1.00  0.00     0.196 C 
BRANCH  48  49
ATOM     49  C   UNL     1       1.802   4.922   3.442  1.00  0.00     0.072 C 
BRANCH  49  50
ATOM     50  C   UNL     1       2.167   5.685   2.189  1.00  0.00    -0.045 A 
ATOM     51  C   UNL     1       1.545   5.371   0.972  1.00  0.00     0.007 A 
ATOM     52  C   UNL     1       3.139   6.694   2.217  1.00  0.00     0.007 A 
ATOM     53  C   UNL     1       1.883   6.059  -0.193  1.00  0.00     0.046 A 
ATOM     54  C   UNL     1       3.478   7.382   1.050  1.00  0.00     0.046 A 
ATOM     55  C   UNL     1       2.846   7.059  -0.145  1.00  0.00     0.115 A 
BRANCH  55  56
ATOM     56  O   UNL     1       3.150   7.707  -1.306  1.00  0.00    -0.508 OA
ATOM     57  H   UNL     1       2.404   7.603  -1.918  1.00  0.00     0.293 HD
ENDBRANCH  55  56
ENDBRANCH  49  50
ENDBRANCH  48  49
BRANCH  48  58
ATOM     58  C   UNL     1       0.417   6.218   5.087  1.00  0.00     0.326 C 
ATOM     59  O   UNL     1       0.087   7.024   5.942  1.00  0.00    -0.250 OA
BRANCH  58  60
ATOM     60  O   UNL     1      -0.544   5.601   4.354  1.00  0.00    -0.480 OA
ATOM     61  H   UNL     1      -0.675   4.749   4.823  1.00  0.00     0.296 HD
ENDBRANCH  58  60
ENDBRANCH  48  58
ENDBRANCH  46  48
ENDBRANCH  34  44
ENDBRANCH  32  34
ENDBRANCH  25  30
ENDBRANCH  23  25
ENDBRANCH   2  23
TORSDOF 28
ENDMDL
MODEL 32
REMARK VINA RESULT:    -6.050      3.378      9.622
REMARK INTER + INTRA:         -19.112
REMARK INTER:                 -14.791
REMARK INTRA:                  -4.321
REMARK UNBOUND:                -4.043
REMARK SMILES CCCCCCC[C@H](N)[C@H](O)C(=O)N[C@H](C)C(=O)N(C)[C@H](CC(C)C)C(=O)N[C@@H](Cc1ccc(O)cc1)C(=O)N[C@@H](Cc1ccc(O)cc1)C(=O)O
REMARK SMILES IDX 18 1 17 2 15 3 16 4 14 5 12 6 13 7 10 9 11 10 8 12 9 13 7 16
REMARK SMILES IDX 6 17 5 18 4 19 3 20 2 21 1 22 19 23 20 24 21 25 22 26 23 27
REMARK SMILES IDX 24 28 25 29 26 30 27 31 28 32 29 34 30 35 31 36 32 37 37 38
REMARK SMILES IDX 33 39 36 40 34 41 35 42 38 44 39 45 40 46 41 48 42 49 43 50
REMARK SMILES IDX 44 51 49 52 45 53 48 54 46 55 47 56 50 58 51 59 52 60
REMARK H PARENT 14 8 11 11 9 14 9 15 28 33 35 43 40 47 47 57 52 61
ROOT
ATOM      1  O   UNL     1       6.948   8.549   3.535  1.00  0.00    -0.272 OA
ATOM      2  C   UNL     1       6.715   9.759   3.399  1.00  0.00     0.245 C 
ENDROOT
BRANCH   2   3
ATOM      3  C   UNL     1       7.322  10.497   2.180  1.00  0.00     0.168 C 
ATOM      4  C   UNL     1       8.836  10.322   2.139  1.00  0.00     0.041 C 
BRANCH   3   5
ATOM      5  N   UNL     1       6.705  10.177   0.902  1.00  0.00    -0.342 N 
ATOM      6  C   UNL     1       6.187  11.155   0.079  1.00  0.00     0.251 C 
ATOM      7  O   UNL     1       6.168  12.345   0.372  1.00  0.00    -0.272 OA
ATOM      8  H   UNL     1       6.631   9.220   0.567  1.00  0.00     0.164 HD
BRANCH   6   9
ATOM      9  C   UNL     1       5.717  10.602  -1.276  1.00  0.00     0.219 C 
BRANCH   9  10
ATOM     10  O   UNL     1       5.343  11.637  -2.195  1.00  0.00    -0.382 OA
ATOM     11  H   UNL     1       6.140  11.743  -2.759  1.00  0.00     0.211 HD
ENDBRANCH   9  10
BRANCH   9  12
ATOM     12  C   UNL     1       6.737   9.631  -1.926  1.00  0.00     0.089 C 
BRANCH  12  13
ATOM     13  N   UNL     1       6.039   8.853  -2.974  1.00  0.00    -0.325 NA
ATOM     14  H   UNL     1       6.354   7.881  -2.936  1.00  0.00     0.119 HD
ATOM     15  H   UNL     1       6.336   9.193  -3.892  1.00  0.00     0.119 HD
ENDBRANCH  12  13
BRANCH  12  16
ATOM     16  C   UNL     1       8.015  10.281  -2.508  1.00  0.00     0.022 C 
BRANCH  16  17
ATOM     17  C   UNL     1       9.388   9.776  -2.042  1.00  0.00     0.002 C 
BRANCH  17  18
ATOM     18  C   UNL     1       9.349   8.555  -1.126  1.00  0.00     0.000 C 
BRANCH  18  19
ATOM     19  C   UNL     1      10.577   7.643  -1.248  1.00  0.00    -0.000 C 
BRANCH  19  20
ATOM     20  C   UNL     1      11.111   7.091   0.077  1.00  0.00    -0.000 C 
BRANCH  20  21
ATOM     21  C   UNL     1      10.119   6.165   0.785  1.00  0.00    -0.003 C 
ATOM     22  C   UNL     1       9.766   6.686   2.170  1.00  0.00     0.004 C 
ENDBRANCH  20  21
ENDBRANCH  19  20
ENDBRANCH  18  19
ENDBRANCH  17  18
ENDBRANCH  16  17
ENDBRANCH  12  16
ENDBRANCH   9  12
ENDBRANCH   6   9
ENDBRANCH   3   5
ENDBRANCH   2   3
BRANCH   2  23
ATOM     23  N   UNL     1       5.828  10.398   4.258  1.00  0.00    -0.332 N 
ATOM     24  C   UNL     1       6.027  10.542   5.693  1.00  0.00     0.147 C 
BRANCH  23  25
ATOM     25  C   UNL     1       4.638  11.109   3.717  1.00  0.00     0.174 C 
BRANCH  25  26
ATOM     26  C   UNL     1       3.832  11.852   4.808  1.00  0.00     0.038 C 
BRANCH  26  27
ATOM     27  C   UNL     1       2.904  12.995   4.337  1.00  0.00    -0.015 C 
ATOM     28  C   UNL     1       2.529  13.948   5.471  1.00  0.00     0.007 C 
ATOM     29  C   UNL     1       3.455  13.771   3.143  1.00  0.00     0.007 C 
ENDBRANCH  26  27
ENDBRANCH  25  26
BRANCH  25  30
ATOM     30  C   UNL     1       3.784  10.143   2.863  1.00  0.00     0.243 C 
ATOM     31  O   UNL     1       3.555  10.356   1.674  1.00  0.00    -0.273 OA
ATOM     32  N   UNL     1       3.297   9.042   3.521  1.00  0.00    -0.342 N 
ATOM     33  H   UNL     1       3.647   8.862   4.466  1.00  0.00     0.164 HD
BRANCH  32  34
ATOM     34  C   UNL     1       2.448   8.035   2.879  1.00  0.00     0.175 C 
BRANCH  34  35
ATOM     35  C   UNL     1       3.290   6.988   2.133  1.00  0.00     0.070 C 
BRANCH  35  36
ATOM     36  C   UNL     1       2.910   6.864   0.675  1.00  0.00    -0.045 A 
ATOM     37  C   UNL     1       1.857   6.019   0.294  1.00  0.00     0.007 A 
ATOM     38  C   UNL     1       3.613   7.566  -0.313  1.00  0.00     0.007 A 
ATOM     39  C   UNL     1       1.508   5.887  -1.051  1.00  0.00     0.046 A 
ATOM     40  C   UNL     1       3.265   7.433  -1.660  1.00  0.00     0.046 A 
ATOM     41  C   UNL     1       2.214   6.595  -2.016  1.00  0.00     0.115 A 
BRANCH  41  42
ATOM     42  O   UNL     1       1.843   6.435  -3.319  1.00  0.00    -0.508 OA
ATOM     43  H   UNL     1       1.183   5.724  -3.363  1.00  0.00     0.293 HD
ENDBRANCH  41  42
ENDBRANCH  35  36
ENDBRANCH  34  35
BRANCH  34  44
ATOM     44  C   UNL     1       1.560   7.393   3.969  1.00  0.00     0.243 C 
ATOM     45  O   UNL     1       1.005   6.304   3.858  1.00  0.00    -0.273 OA
ATOM     46  N   UNL     1       1.333   8.219   5.049  1.00  0.00    -0.341 N 
ATOM     47  H   UNL     1       1.720   9.160   5.041  1.00  0.00     0.164 HD
BRANCH  46  48
ATOM     48  C   UNL     1       0.468   7.856   6.174  1.00  0.00     0.196 C 
BRANCH  48  49
ATOM     49  C   UNL     1       1.142   8.166   7.521  1.00  0.00     0.072 C 
BRANCH  49  50
ATOM     50  C   UNL     1       1.616   6.920   8.234  1.00  0.00    -0.045 A 
ATOM     51  C   UNL     1       1.196   6.663   9.548  1.00  0.00     0.007 A 
ATOM     52  C   UNL     1       2.490   6.021   7.610  1.00  0.00     0.007 A 
ATOM     53  C   UNL     1       1.638   5.524  10.220  1.00  0.00     0.046 A 
ATOM     54  C   UNL     1       2.934   4.880   8.284  1.00  0.00     0.046 A 
ATOM     55  C   UNL     1       2.502   4.641   9.584  1.00  0.00     0.115 A 
BRANCH  55  56
ATOM     56  O   UNL     1       2.912   3.541  10.277  1.00  0.00    -0.508 OA
ATOM     57  H   UNL     1       2.947   2.789   9.664  1.00  0.00     0.293 HD
ENDBRANCH  55  56
ENDBRANCH  49  50
ENDBRANCH  48  49
BRANCH  48  58
ATOM     58  C   UNL     1      -0.848   8.638   6.064  1.00  0.00     0.326 C 
ATOM     59  O   UNL     1      -1.004   9.843   6.181  1.00  0.00    -0.250 OA
BRANCH  58  60
ATOM     60  O   UNL     1      -1.923   7.854   5.794  1.00  0.00    -0.480 OA
ATOM     61  H   UNL     1      -2.644   8.503   5.644  1.00  0.00     0.296 HD
ENDBRANCH  58  60
ENDBRANCH  48  58
ENDBRANCH  46  48
ENDBRANCH  34  44
ENDBRANCH  32  34
ENDBRANCH  25  30
ENDBRANCH  23  25
ENDBRANCH   2  23
TORSDOF 28
ENDMDL
MODEL 33
REMARK VINA RESULT:    -6.048      5.239      9.462
REMARK INTER + INTRA:         -19.106
REMARK INTER:                 -15.563
REMARK INTRA:                  -3.543
REMARK UNBOUND:                -4.043
REMARK SMILES CCCCCCC[C@H](N)[C@H](O)C(=O)N[C@H](C)C(=O)N(C)[C@H](CC(C)C)C(=O)N[C@@H](Cc1ccc(O)cc1)C(=O)N[C@@H](Cc1ccc(O)cc1)C(=O)O
REMARK SMILES IDX 18 1 17 2 15 3 16 4 14 5 12 6 13 7 10 9 11 10 8 12 9 13 7 16
REMARK SMILES IDX 6 17 5 18 4 19 3 20 2 21 1 22 19 23 20 24 21 25 22 26 23 27
REMARK SMILES IDX 24 28 25 29 26 30 27 31 28 32 29 34 30 35 31 36 32 37 37 38
REMARK SMILES IDX 33 39 36 40 34 41 35 42 38 44 39 45 40 46 41 48 42 49 43 50
REMARK SMILES IDX 44 51 49 52 45 53 48 54 46 55 47 56 50 58 51 59 52 60
REMARK H PARENT 14 8 11 11 9 14 9 15 28 33 35 43 40 47 47 57 52 61
ROOT
ATOM      1  O   UNL     1      -0.485   5.580   4.795  1.00  0.00    -0.272 OA
ATOM      2  C   UNL     1       0.353   6.461   5.037  1.00  0.00     0.245 C 
ENDROOT
BRANCH   2   3
ATOM      3  C   UNL     1       0.087   7.435   6.212  1.00  0.00     0.168 C 
ATOM      4  C   UNL     1      -1.098   8.344   5.903  1.00  0.00     0.041 C 
BRANCH   3   5
ATOM      5  N   UNL     1      -0.042   6.801   7.514  1.00  0.00    -0.342 N 
ATOM      6  C   UNL     1       1.053   6.560   8.318  1.00  0.00     0.251 C 
ATOM      7  O   UNL     1       2.205   6.819   7.987  1.00  0.00    -0.272 OA
ATOM      8  H   UNL     1      -0.944   6.509   7.882  1.00  0.00     0.164 HD
BRANCH   6   9
ATOM      9  C   UNL     1       0.666   6.015   9.702  1.00  0.00     0.219 C 
BRANCH   9  10
ATOM     10  O   UNL     1       1.670   5.160  10.260  1.00  0.00    -0.382 OA
ATOM     11  H   UNL     1       1.913   4.571   9.512  1.00  0.00     0.211 HD
ENDBRANCH   9  10
BRANCH   9  12
ATOM     12  C   UNL     1       0.271   7.129  10.706  1.00  0.00     0.089 C 
BRANCH  12  13
ATOM     13  N   UNL     1       0.865   8.405  10.247  1.00  0.00    -0.325 NA
ATOM     14  H   UNL     1       0.237   8.844   9.571  1.00  0.00     0.119 HD
ATOM     15  H   UNL     1       1.720   8.203   9.724  1.00  0.00     0.119 HD
ENDBRANCH  12  13
BRANCH  12  16
ATOM     16  C   UNL     1      -1.246   7.309  10.958  1.00  0.00     0.022 C 
BRANCH  16  17
ATOM     17  C   UNL     1      -1.728   8.507  11.787  1.00  0.00     0.002 C 
BRANCH  17  18
ATOM     18  C   UNL     1      -2.629   8.152  12.968  1.00  0.00     0.000 C 
BRANCH  18  19
ATOM     19  C   UNL     1      -2.257   6.836  13.664  1.00  0.00    -0.000 C 
BRANCH  19  20
ATOM     20  C   UNL     1      -0.869   6.813  14.311  1.00  0.00    -0.000 C 
BRANCH  20  21
ATOM     21  C   UNL     1      -0.919   6.834  15.841  1.00  0.00    -0.003 C 
ATOM     22  C   UNL     1      -0.968   5.427  16.414  1.00  0.00     0.004 C 
ENDBRANCH  20  21
ENDBRANCH  19  20
ENDBRANCH  18  19
ENDBRANCH  17  18
ENDBRANCH  16  17
ENDBRANCH  12  16
ENDBRANCH   9  12
ENDBRANCH   6   9
ENDBRANCH   3   5
ENDBRANCH   2   3
BRANCH   2  23
ATOM     23  N   UNL     1       1.557   6.485   4.341  1.00  0.00    -0.332 N 
ATOM     24  C   UNL     1       2.768   5.796   4.762  1.00  0.00     0.147 C 
BRANCH  23  25
ATOM     25  C   UNL     1       1.641   7.142   3.007  1.00  0.00     0.174 C 
BRANCH  25  26
ATOM     26  C   UNL     1       2.599   6.412   2.036  1.00  0.00     0.038 C 
BRANCH  26  27
ATOM     27  C   UNL     1       1.955   5.674   0.841  1.00  0.00    -0.015 C 
ATOM     28  C   UNL     1       0.437   5.560   0.973  1.00  0.00     0.007 C 
ATOM     29  C   UNL     1       2.334   6.267  -0.514  1.00  0.00     0.007 C 
ENDBRANCH  26  27
ENDBRANCH  25  26
BRANCH  25  30
ATOM     30  C   UNL     1       1.952   8.647   3.174  1.00  0.00     0.243 C 
ATOM     31  O   UNL     1       1.148   9.424   3.686  1.00  0.00    -0.273 OA
ATOM     32  N   UNL     1       3.175   9.055   2.708  1.00  0.00    -0.342 N 
ATOM     33  H   UNL     1       3.841   8.330   2.426  1.00  0.00     0.164 HD
BRANCH  32  34
ATOM     34  C   UNL     1       3.628  10.447   2.757  1.00  0.00     0.175 C 
BRANCH  34  35
ATOM     35  C   UNL     1       4.312  10.765   4.096  1.00  0.00     0.070 C 
BRANCH  35  36
ATOM     36  C   UNL     1       3.440  11.589   5.016  1.00  0.00    -0.045 A 
ATOM     37  C   UNL     1       3.112  12.911   4.677  1.00  0.00     0.007 A 
ATOM     38  C   UNL     1       2.968  11.059   6.224  1.00  0.00     0.007 A 
ATOM     39  C   UNL     1       2.320  13.683   5.526  1.00  0.00     0.046 A 
ATOM     40  C   UNL     1       2.175  11.832   7.076  1.00  0.00     0.046 A 
ATOM     41  C   UNL     1       1.857  13.138   6.718  1.00  0.00     0.115 A 
BRANCH  41  42
ATOM     42  O   UNL     1       1.089  13.927   7.521  1.00  0.00    -0.508 OA
ATOM     43  H   UNL     1       0.282  13.436   7.750  1.00  0.00     0.293 HD
ENDBRANCH  41  42
ENDBRANCH  35  36
ENDBRANCH  34  35
BRANCH  34  44
ATOM     44  C   UNL     1       4.571  10.687   1.556  1.00  0.00     0.243 C 
ATOM     45  O   UNL     1       4.952  11.793   1.184  1.00  0.00    -0.273 OA
ATOM     46  N   UNL     1       4.852   9.542   0.842  1.00  0.00    -0.341 N 
ATOM     47  H   UNL     1       4.417   8.666   1.122  1.00  0.00     0.164 HD
BRANCH  46  48
ATOM     48  C   UNL     1       5.668   9.530  -0.374  1.00  0.00     0.196 C 
BRANCH  48  49
ATOM     49  C   UNL     1       6.229   8.127  -0.659  1.00  0.00     0.072 C 
BRANCH  49  50
ATOM     50  C   UNL     1       7.677   8.157  -1.094  1.00  0.00    -0.045 A 
ATOM     51  C   UNL     1       8.647   7.478  -0.343  1.00  0.00     0.007 A 
ATOM     52  C   UNL     1       8.073   8.874  -2.231  1.00  0.00     0.007 A 
ATOM     53  C   UNL     1       9.988   7.510  -0.727  1.00  0.00     0.046 A 
ATOM     54  C   UNL     1       9.416   8.906  -2.615  1.00  0.00     0.046 A 
ATOM     55  C   UNL     1      10.362   8.223  -1.860  1.00  0.00     0.115 A 
BRANCH  55  56
ATOM     56  O   UNL     1      11.682   8.230  -2.200  1.00  0.00    -0.508 OA
ATOM     57  H   UNL     1      11.920   9.127  -2.484  1.00  0.00     0.293 HD
ENDBRANCH  55  56
ENDBRANCH  49  50
ENDBRANCH  48  49
BRANCH  48  58
ATOM     58  C   UNL     1       4.805   9.989  -1.558  1.00  0.00     0.326 C 
ATOM     59  O   UNL     1       3.946   9.346  -2.140  1.00  0.00    -0.250 OA
BRANCH  58  60
ATOM     60  O   UNL     1       5.058  11.263  -1.951  1.00  0.00    -0.480 OA
ATOM     61  H   UNL     1       5.433  11.151  -2.851  1.00  0.00     0.296 HD
ENDBRANCH  58  60
ENDBRANCH  48  58
ENDBRANCH  46  48
ENDBRANCH  34  44
ENDBRANCH  32  34
ENDBRANCH  25  30
ENDBRANCH  23  25
ENDBRANCH   2  23
TORSDOF 28
ENDMDL
MODEL 34
REMARK VINA RESULT:    -6.045     14.110     19.328
REMARK INTER + INTRA:         -19.099
REMARK INTER:                 -14.834
REMARK INTRA:                  -4.265
REMARK UNBOUND:                -4.043
REMARK SMILES CCCCCCC[C@H](N)[C@H](O)C(=O)N[C@H](C)C(=O)N(C)[C@H](CC(C)C)C(=O)N[C@@H](Cc1ccc(O)cc1)C(=O)N[C@@H](Cc1ccc(O)cc1)C(=O)O
REMARK SMILES IDX 18 1 17 2 15 3 16 4 14 5 12 6 13 7 10 9 11 10 8 12 9 13 7 16
REMARK SMILES IDX 6 17 5 18 4 19 3 20 2 21 1 22 19 23 20 24 21 25 22 26 23 27
REMARK SMILES IDX 24 28 25 29 26 30 27 31 28 32 29 34 30 35 31 36 32 37 37 38
REMARK SMILES IDX 33 39 36 40 34 41 35 42 38 44 39 45 40 46 41 48 42 49 43 50
REMARK SMILES IDX 44 51 49 52 45 53 48 54 46 55 47 56 50 58 51 59 52 60
REMARK H PARENT 14 8 11 11 9 14 9 15 28 33 35 43 40 47 47 57 52 61
ROOT
ATOM      1  O   UNL     1       1.094  -6.163   8.384  1.00  0.00    -0.272 OA
ATOM      2  C   UNL     1       1.883  -6.554   9.256  1.00  0.00     0.245 C 
ENDROOT
BRANCH   2   3
ATOM      3  C   UNL     1       3.399  -6.558   8.935  1.00  0.00     0.168 C 
ATOM      4  C   UNL     1       4.178  -5.782   9.991  1.00  0.00     0.041 C 
BRANCH   3   5
ATOM      5  N   UNL     1       3.970  -7.875   8.699  1.00  0.00    -0.342 N 
ATOM      6  C   UNL     1       4.983  -8.077   7.786  1.00  0.00     0.251 C 
ATOM      7  O   UNL     1       5.446  -7.185   7.082  1.00  0.00    -0.272 OA
ATOM      8  H   UNL     1       3.643  -8.699   9.199  1.00  0.00     0.164 HD
BRANCH   6   9
ATOM      9  C   UNL     1       5.526  -9.515   7.808  1.00  0.00     0.219 C 
BRANCH   9  10
ATOM     10  O   UNL     1       5.599 -10.058   9.131  1.00  0.00    -0.382 OA
ATOM     11  H   UNL     1       5.045 -10.867   9.080  1.00  0.00     0.211 HD
ENDBRANCH   9  10
BRANCH   9  12
ATOM     12  C   UNL     1       4.754 -10.471   6.862  1.00  0.00     0.089 C 
BRANCH  12  13
ATOM     13  N   UNL     1       3.964  -9.653   5.913  1.00  0.00    -0.325 NA
ATOM     14  H   UNL     1       3.823  -8.722   6.309  1.00  0.00     0.119 HD
ATOM     15  H   UNL     1       3.026 -10.054   5.832  1.00  0.00     0.119 HD
ENDBRANCH  12  13
BRANCH  12  16
ATOM     16  C   UNL     1       5.614 -11.500   6.089  1.00  0.00     0.022 C 
BRANCH  16  17
ATOM     17  C   UNL     1       4.985 -12.837   5.674  1.00  0.00     0.002 C 
BRANCH  17  18
ATOM     18  C   UNL     1       4.580 -12.932   4.205  1.00  0.00     0.000 C 
BRANCH  18  19
ATOM     19  C   UNL     1       5.766 -12.954   3.231  1.00  0.00    -0.000 C 
BRANCH  19  20
ATOM     20  C   UNL     1       6.059 -11.624   2.533  1.00  0.00    -0.000 C 
BRANCH  20  21
ATOM     21  C   UNL     1       6.393 -11.787   1.047  1.00  0.00    -0.003 C 
ATOM     22  C   UNL     1       6.820 -13.211   0.728  1.00  0.00     0.004 C 
ENDBRANCH  20  21
ENDBRANCH  19  20
ENDBRANCH  18  19
ENDBRANCH  17  18
ENDBRANCH  16  17
ENDBRANCH  12  16
ENDBRANCH   9  12
ENDBRANCH   6   9
ENDBRANCH   3   5
ENDBRANCH   2   3
BRANCH   2  23
ATOM     23  N   UNL     1       1.417  -6.861  10.530  1.00  0.00    -0.332 N 
ATOM     24  C   UNL     1       1.403  -8.198  11.104  1.00  0.00     0.147 C 
BRANCH  23  25
ATOM     25  C   UNL     1       1.005  -5.775  11.461  1.00  0.00     0.174 C 
BRANCH  25  26
ATOM     26  C   UNL     1       0.514  -6.308  12.828  1.00  0.00     0.038 C 
BRANCH  26  27
ATOM     27  C   UNL     1       1.118  -5.655  14.091  1.00  0.00    -0.015 C 
ATOM     28  C   UNL     1       1.977  -4.434  13.765  1.00  0.00     0.007 C 
ATOM     29  C   UNL     1       0.077  -5.311  15.154  1.00  0.00     0.007 C 
ENDBRANCH  26  27
ENDBRANCH  25  26
BRANCH  25  30
ATOM     30  C   UNL     1      -0.000  -4.830  10.764  1.00  0.00     0.243 C 
ATOM     31  O   UNL     1      -1.181  -5.137  10.609  1.00  0.00    -0.273 OA
ATOM     32  N   UNL     1       0.513  -3.635  10.328  1.00  0.00    -0.342 N 
ATOM     33  H   UNL     1       1.464  -3.394  10.618  1.00  0.00     0.164 HD
BRANCH  32  34
ATOM     34  C   UNL     1      -0.286  -2.629   9.623  1.00  0.00     0.175 C 
BRANCH  34  35
ATOM     35  C   UNL     1      -0.442  -1.352  10.462  1.00  0.00     0.070 C 
BRANCH  35  36
ATOM     36  C   UNL     1      -0.865  -1.636  11.886  1.00  0.00    -0.045 A 
ATOM     37  C   UNL     1       0.004  -1.344  12.948  1.00  0.00     0.007 A 
ATOM     38  C   UNL     1      -2.112  -2.211  12.165  1.00  0.00     0.007 A 
ATOM     39  C   UNL     1      -0.371  -1.615  14.264  1.00  0.00     0.046 A 
ATOM     40  C   UNL     1      -2.488  -2.484  13.482  1.00  0.00     0.046 A 
ATOM     41  C   UNL     1      -1.614  -2.182  14.521  1.00  0.00     0.115 A 
BRANCH  41  42
ATOM     42  O   UNL     1      -1.941  -2.434  15.820  1.00  0.00    -0.508 OA
ATOM     43  H   UNL     1      -2.814  -2.859  15.837  1.00  0.00     0.293 HD
ENDBRANCH  41  42
ENDBRANCH  35  36
ENDBRANCH  34  35
BRANCH  34  44
ATOM     44  C   UNL     1       0.391  -2.347   8.263  1.00  0.00     0.243 C 
ATOM     45  O   UNL     1      -0.139  -1.741   7.336  1.00  0.00    -0.273 OA
ATOM     46  N   UNL     1       1.620  -2.957   8.125  1.00  0.00    -0.341 N 
ATOM     47  H   UNL     1       1.966  -3.547   8.878  1.00  0.00     0.164 HD
BRANCH  46  48
ATOM     48  C   UNL     1       2.420  -2.890   6.900  1.00  0.00     0.196 C 
BRANCH  48  49
ATOM     49  C   UNL     1       3.925  -2.910   7.212  1.00  0.00     0.072 C 
BRANCH  49  50
ATOM     50  C   UNL     1       4.713  -1.957   6.341  1.00  0.00    -0.045 A 
ATOM     51  C   UNL     1       6.000  -2.308   5.908  1.00  0.00     0.007 A 
ATOM     52  C   UNL     1       4.185  -0.713   5.972  1.00  0.00     0.007 A 
ATOM     53  C   UNL     1       6.741  -1.431   5.116  1.00  0.00     0.046 A 
ATOM     54  C   UNL     1       4.927   0.164   5.180  1.00  0.00     0.046 A 
ATOM     55  C   UNL     1       6.200  -0.203   4.757  1.00  0.00     0.115 A 
BRANCH  55  56
ATOM     56  O   UNL     1       6.958   0.625   3.983  1.00  0.00    -0.508 OA
ATOM     57  H   UNL     1       7.710   0.119   3.638  1.00  0.00     0.293 HD
ENDBRANCH  55  56
ENDBRANCH  49  50
ENDBRANCH  48  49
BRANCH  48  58
ATOM     58  C   UNL     1       2.064  -4.085   6.005  1.00  0.00     0.326 C 
ATOM     59  O   UNL     1       2.781  -5.027   5.710  1.00  0.00    -0.250 OA
BRANCH  58  60
ATOM     60  O   UNL     1       0.794  -4.045   5.528  1.00  0.00    -0.480 OA
ATOM     61  H   UNL     1       0.487  -4.973   5.623  1.00  0.00     0.296 HD
ENDBRANCH  58  60
ENDBRANCH  48  58
ENDBRANCH  46  48
ENDBRANCH  34  44
ENDBRANCH  32  34
ENDBRANCH  25  30
ENDBRANCH  23  25
ENDBRANCH   2  23
TORSDOF 28
ENDMDL
MODEL 35
REMARK VINA RESULT:    -6.026      2.082      5.660
REMARK INTER + INTRA:         -19.051
REMARK INTER:                 -15.572
REMARK INTRA:                  -3.479
REMARK UNBOUND:                -4.043
REMARK SMILES CCCCCCC[C@H](N)[C@H](O)C(=O)N[C@H](C)C(=O)N(C)[C@H](CC(C)C)C(=O)N[C@@H](Cc1ccc(O)cc1)C(=O)N[C@@H](Cc1ccc(O)cc1)C(=O)O
REMARK SMILES IDX 18 1 17 2 15 3 16 4 14 5 12 6 13 7 10 9 11 10 8 12 9 13 7 16
REMARK SMILES IDX 6 17 5 18 4 19 3 20 2 21 1 22 19 23 20 24 21 25 22 26 23 27
REMARK SMILES IDX 24 28 25 29 26 30 27 31 28 32 29 34 30 35 31 36 32 37 37 38
REMARK SMILES IDX 33 39 36 40 34 41 35 42 38 44 39 45 40 46 41 48 42 49 43 50
REMARK SMILES IDX 44 51 49 52 45 53 48 54 46 55 47 56 50 58 51 59 52 60
REMARK H PARENT 14 8 11 11 9 14 9 15 28 33 35 43 40 47 47 57 52 61
ROOT
ATOM      1  O   UNL     1       4.680   9.295   2.858  1.00  0.00    -0.272 OA
ATOM      2  C   UNL     1       5.709   9.941   2.613  1.00  0.00     0.245 C 
ENDROOT
BRANCH   2   3
ATOM      3  C   UNL     1       6.866   9.913   3.643  1.00  0.00     0.168 C 
ATOM      4  C   UNL     1       6.325  10.002   5.066  1.00  0.00     0.041 C 
BRANCH   3   5
ATOM      5  N   UNL     1       7.798   8.808   3.485  1.00  0.00    -0.342 N 
ATOM      6  C   UNL     1       9.013   8.965   2.852  1.00  0.00     0.251 C 
ATOM      7  O   UNL     1       9.379  10.019   2.343  1.00  0.00    -0.272 OA
ATOM      8  H   UNL     1       7.590   7.876   3.836  1.00  0.00     0.164 HD
BRANCH   6   9
ATOM      9  C   UNL     1       9.890   7.705   2.928  1.00  0.00     0.219 C 
BRANCH   9  10
ATOM     10  O   UNL     1       9.456   6.790   3.941  1.00  0.00    -0.382 OA
ATOM     11  H   UNL     1      10.295   6.454   4.325  1.00  0.00     0.211 HD
ENDBRANCH   9  10
BRANCH   9  12
ATOM     12  C   UNL     1      10.042   6.985   1.563  1.00  0.00     0.089 C 
BRANCH  12  13
ATOM     13  N   UNL     1       9.078   7.582   0.610  1.00  0.00    -0.325 NA
ATOM     14  H   UNL     1       8.206   7.789   1.101  1.00  0.00     0.119 HD
ATOM     15  H   UNL     1       8.829   6.881  -0.091  1.00  0.00     0.119 HD
ENDBRANCH  12  13
BRANCH  12  16
ATOM     16  C   UNL     1      11.464   6.986   0.951  1.00  0.00     0.022 C 
BRANCH  16  17
ATOM     17  C   UNL     1      11.981   8.257   0.264  1.00  0.00     0.002 C 
BRANCH  17  18
ATOM     18  C   UNL     1      11.677   8.352  -1.230  1.00  0.00     0.000 C 
BRANCH  18  19
ATOM     19  C   UNL     1      11.813   9.767  -1.807  1.00  0.00    -0.000 C 
BRANCH  19  20
ATOM     20  C   UNL     1      11.177  10.877  -0.964  1.00  0.00    -0.000 C 
BRANCH  20  21
ATOM     21  C   UNL     1      12.070  12.113  -0.830  1.00  0.00    -0.003 C 
ATOM     22  C   UNL     1      13.523  11.784  -1.130  1.00  0.00     0.004 C 
ENDBRANCH  20  21
ENDBRANCH  19  20
ENDBRANCH  18  19
ENDBRANCH  17  18
ENDBRANCH  16  17
ENDBRANCH  12  16
ENDBRANCH   9  12
ENDBRANCH   6   9
ENDBRANCH   3   5
ENDBRANCH   2   3
BRANCH   2  23
ATOM     23  N   UNL     1       5.858  10.571   1.381  1.00  0.00    -0.332 N 
ATOM     24  C   UNL     1       5.622  11.987   1.144  1.00  0.00     0.147 C 
BRANCH  23  25
ATOM     25  C   UNL     1       6.411   9.824   0.218  1.00  0.00     0.174 C 
BRANCH  25  26
ATOM     26  C   UNL     1       7.454  10.641  -0.580  1.00  0.00     0.038 C 
BRANCH  26  27
ATOM     27  C   UNL     1       7.464  10.455  -2.114  1.00  0.00    -0.015 C 
ATOM     28  C   UNL     1       7.834  11.739  -2.856  1.00  0.00     0.007 C 
ATOM     29  C   UNL     1       8.339   9.295  -2.580  1.00  0.00     0.007 C 
ENDBRANCH  26  27
ENDBRANCH  25  26
BRANCH  25  30
ATOM     30  C   UNL     1       5.260   9.267  -0.652  1.00  0.00     0.243 C 
ATOM     31  O   UNL     1       4.366   9.990  -1.088  1.00  0.00    -0.273 OA
ATOM     32  N   UNL     1       5.302   7.918  -0.897  1.00  0.00    -0.342 N 
ATOM     33  H   UNL     1       6.148   7.413  -0.621  1.00  0.00     0.164 HD
BRANCH  32  34
ATOM     34  C   UNL     1       4.282   7.214  -1.678  1.00  0.00     0.175 C 
BRANCH  34  35
ATOM     35  C   UNL     1       2.866   7.591  -1.216  1.00  0.00     0.070 C 
BRANCH  35  36
ATOM     36  C   UNL     1       2.391   6.759  -0.046  1.00  0.00    -0.045 A 
ATOM     37  C   UNL     1       1.438   5.748  -0.244  1.00  0.00     0.007 A 
ATOM     38  C   UNL     1       2.873   6.996   1.247  1.00  0.00     0.007 A 
ATOM     39  C   UNL     1       0.983   4.985   0.831  1.00  0.00     0.046 A 
ATOM     40  C   UNL     1       2.418   6.233   2.325  1.00  0.00     0.046 A 
ATOM     41  C   UNL     1       1.477   5.232   2.106  1.00  0.00     0.115 A 
BRANCH  41  42
ATOM     42  O   UNL     1       1.005   4.466   3.131  1.00  0.00    -0.508 OA
ATOM     43  H   UNL     1       0.263   4.937   3.546  1.00  0.00     0.293 HD
ENDBRANCH  41  42
ENDBRANCH  35  36
ENDBRANCH  34  35
BRANCH  34  44
ATOM     44  C   UNL     1       4.510   7.542  -3.170  1.00  0.00     0.243 C 
ATOM     45  O   UNL     1       5.530   8.056  -3.620  1.00  0.00    -0.273 OA
ATOM     46  N   UNL     1       3.397   7.326  -3.956  1.00  0.00    -0.341 N 
ATOM     47  H   UNL     1       2.536   7.009  -3.517  1.00  0.00     0.164 HD
BRANCH  46  48
ATOM     48  C   UNL     1       3.351   7.628  -5.388  1.00  0.00     0.196 C 
BRANCH  48  49
ATOM     49  C   UNL     1       3.985   6.500  -6.219  1.00  0.00     0.072 C 
BRANCH  49  50
ATOM     50  C   UNL     1       4.589   6.999  -7.512  1.00  0.00    -0.045 A 
ATOM     51  C   UNL     1       4.990   8.338  -7.625  1.00  0.00     0.007 A 
ATOM     52  C   UNL     1       4.738   6.148  -8.615  1.00  0.00     0.007 A 
ATOM     53  C   UNL     1       5.537   8.814  -8.817  1.00  0.00     0.046 A 
ATOM     54  C   UNL     1       5.284   6.624  -9.809  1.00  0.00     0.046 A 
ATOM     55  C   UNL     1       5.681   7.954  -9.899  1.00  0.00     0.115 A 
BRANCH  55  56
ATOM     56  O   UNL     1       6.218   8.458 -11.046  1.00  0.00    -0.508 OA
ATOM     57  H   UNL     1       6.592   9.332 -10.851  1.00  0.00     0.293 HD
ENDBRANCH  55  56
ENDBRANCH  49  50
ENDBRANCH  48  49
BRANCH  48  58
ATOM     58  C   UNL     1       1.888   7.820  -5.811  1.00  0.00     0.326 C 
ATOM     59  O   UNL     1       1.123   6.968  -6.235  1.00  0.00    -0.250 OA
BRANCH  58  60
ATOM     60  O   UNL     1       1.444   9.094  -5.663  1.00  0.00    -0.480 OA
ATOM     61  H   UNL     1       1.951   9.590  -6.342  1.00  0.00     0.296 HD
ENDBRANCH  58  60
ENDBRANCH  48  58
ENDBRANCH  46  48
ENDBRANCH  34  44
ENDBRANCH  32  34
ENDBRANCH  25  30
ENDBRANCH  23  25
ENDBRANCH   2  23
TORSDOF 28
ENDMDL
MODEL 36
REMARK VINA RESULT:    -6.019      3.100      9.222
REMARK INTER + INTRA:         -19.034
REMARK INTER:                 -14.912
REMARK INTRA:                  -4.122
REMARK UNBOUND:                -4.043
REMARK SMILES CCCCCCC[C@H](N)[C@H](O)C(=O)N[C@H](C)C(=O)N(C)[C@H](CC(C)C)C(=O)N[C@@H](Cc1ccc(O)cc1)C(=O)N[C@@H](Cc1ccc(O)cc1)C(=O)O
REMARK SMILES IDX 18 1 17 2 15 3 16 4 14 5 12 6 13 7 10 9 11 10 8 12 9 13 7 16
REMARK SMILES IDX 6 17 5 18 4 19 3 20 2 21 1 22 19 23 20 24 21 25 22 26 23 27
REMARK SMILES IDX 24 28 25 29 26 30 27 31 28 32 29 34 30 35 31 36 32 37 37 38
REMARK SMILES IDX 33 39 36 40 34 41 35 42 38 44 39 45 40 46 41 48 42 49 43 50
REMARK SMILES IDX 44 51 49 52 45 53 48 54 46 55 47 56 50 58 51 59 52 60
REMARK H PARENT 14 8 11 11 9 14 9 15 28 33 35 43 40 47 47 57 52 61
ROOT
ATOM      1  O   UNL     1       7.403   8.656   2.052  1.00  0.00    -0.272 OA
ATOM      2  C   UNL     1       7.849   9.725   1.610  1.00  0.00     0.245 C 
ENDROOT
BRANCH   2   3
ATOM      3  C   UNL     1       9.337  10.070   1.869  1.00  0.00     0.168 C 
ATOM      4  C   UNL     1       9.968   9.064   2.825  1.00  0.00     0.041 C 
BRANCH   3   5
ATOM      5  N   UNL     1      10.139  10.255   0.670  1.00  0.00    -0.342 N 
ATOM      6  C   UNL     1      11.071  11.265   0.565  1.00  0.00     0.251 C 
ATOM      7  O   UNL     1      11.265  12.100   1.442  1.00  0.00    -0.272 OA
ATOM      8  H   UNL     1      10.043   9.645  -0.139  1.00  0.00     0.164 HD
BRANCH   6   9
ATOM      9  C   UNL     1      11.897  11.181  -0.728  1.00  0.00     0.219 C 
BRANCH   9  10
ATOM     10  O   UNL     1      12.331  12.465  -1.192  1.00  0.00    -0.382 OA
ATOM     11  H   UNL     1      12.369  13.006  -0.372  1.00  0.00     0.211 HD
ENDBRANCH   9  10
BRANCH   9  12
ATOM     12  C   UNL     1      13.094  10.200  -0.623  1.00  0.00     0.089 C 
BRANCH  12  13
ATOM     13  N   UNL     1      13.156   9.685   0.764  1.00  0.00    -0.325 NA
ATOM     14  H   UNL     1      12.918   8.691   0.764  1.00  0.00     0.119 HD
ATOM     15  H   UNL     1      12.423  10.135   1.317  1.00  0.00     0.119 HD
ENDBRANCH  12  13
BRANCH  12  16
ATOM     16  C   UNL     1      13.096   9.023  -1.628  1.00  0.00     0.022 C 
BRANCH  16  17
ATOM     17  C   UNL     1      12.530   9.243  -3.038  1.00  0.00     0.002 C 
BRANCH  17  18
ATOM     18  C   UNL     1      13.077   8.300  -4.106  1.00  0.00     0.000 C 
BRANCH  18  19
ATOM     19  C   UNL     1      14.113   8.944  -5.038  1.00  0.00    -0.000 C 
BRANCH  19  20
ATOM     20  C   UNL     1      13.992  10.463  -5.191  1.00  0.00    -0.000 C 
BRANCH  20  21
ATOM     21  C   UNL     1      14.500  10.971  -6.543  1.00  0.00    -0.003 C 
ATOM     22  C   UNL     1      13.861  10.212  -7.696  1.00  0.00     0.004 C 
ENDBRANCH  20  21
ENDBRANCH  19  20
ENDBRANCH  18  19
ENDBRANCH  17  18
ENDBRANCH  16  17
ENDBRANCH  12  16
ENDBRANCH   9  12
ENDBRANCH   6   9
ENDBRANCH   3   5
ENDBRANCH   2   3
BRANCH   2  23
ATOM     23  N   UNL     1       7.055  10.528   0.798  1.00  0.00    -0.332 N 
ATOM     24  C   UNL     1       6.732  11.920   1.074  1.00  0.00     0.147 C 
BRANCH  23  25
ATOM     25  C   UNL     1       6.575  10.023  -0.518  1.00  0.00     0.174 C 
BRANCH  25  26
ATOM     26  C   UNL     1       6.839  11.014  -1.676  1.00  0.00     0.038 C 
BRANCH  26  27
ATOM     27  C   UNL     1       7.915  10.613  -2.710  1.00  0.00    -0.015 C 
ATOM     28  C   UNL     1       9.024  11.657  -2.834  1.00  0.00     0.007 C 
ATOM     29  C   UNL     1       8.506   9.227  -2.464  1.00  0.00     0.007 C 
ENDBRANCH  26  27
ENDBRANCH  25  26
BRANCH  25  30
ATOM     30  C   UNL     1       5.101   9.572  -0.409  1.00  0.00     0.243 C 
ATOM     31  O   UNL     1       4.181  10.236  -0.884  1.00  0.00    -0.273 OA
ATOM     32  N   UNL     1       4.889   8.391   0.254  1.00  0.00    -0.342 N 
ATOM     33  H   UNL     1       5.710   7.828   0.495  1.00  0.00     0.164 HD
BRANCH  32  34
ATOM     34  C   UNL     1       3.556   7.824   0.477  1.00  0.00     0.175 C 
BRANCH  34  35
ATOM     35  C   UNL     1       3.389   6.485  -0.258  1.00  0.00     0.070 C 
BRANCH  35  36
ATOM     36  C   UNL     1       2.817   6.648  -1.648  1.00  0.00    -0.045 A 
ATOM     37  C   UNL     1       3.674   6.859  -2.739  1.00  0.00     0.007 A 
ATOM     38  C   UNL     1       1.433   6.614  -1.865  1.00  0.00     0.007 A 
ATOM     39  C   UNL     1       3.155   7.025  -4.024  1.00  0.00     0.046 A 
ATOM     40  C   UNL     1       0.913   6.781  -3.151  1.00  0.00     0.046 A 
ATOM     41  C   UNL     1       1.780   6.984  -4.219  1.00  0.00     0.115 A 
BRANCH  41  42
ATOM     42  O   UNL     1       1.313   7.153  -5.489  1.00  0.00    -0.508 OA
ATOM     43  H   UNL     1       0.397   7.471  -5.437  1.00  0.00     0.293 HD
ENDBRANCH  41  42
ENDBRANCH  35  36
ENDBRANCH  34  35
BRANCH  34  44
ATOM     44  C   UNL     1       3.347   7.676   2.001  1.00  0.00     0.243 C 
ATOM     45  O   UNL     1       4.231   7.819   2.840  1.00  0.00    -0.273 OA
ATOM     46  N   UNL     1       2.086   7.234   2.341  1.00  0.00    -0.341 N 
ATOM     47  H   UNL     1       1.422   7.017   1.601  1.00  0.00     0.164 HD
BRANCH  46  48
ATOM     48  C   UNL     1       1.674   6.956   3.719  1.00  0.00     0.196 C 
BRANCH  48  49
ATOM     49  C   UNL     1       0.309   7.591   4.035  1.00  0.00     0.072 C 
BRANCH  49  50
ATOM     50  C   UNL     1       0.436   8.964   4.654  1.00  0.00    -0.045 A 
ATOM     51  C   UNL     1      -0.678   9.816   4.700  1.00  0.00     0.007 A 
ATOM     52  C   UNL     1       1.659   9.414   5.167  1.00  0.00     0.007 A 
ATOM     53  C   UNL     1      -0.570  11.090   5.257  1.00  0.00     0.046 A 
ATOM     54  C   UNL     1       1.768  10.690   5.723  1.00  0.00     0.046 A 
ATOM     55  C   UNL     1       0.651  11.517   5.765  1.00  0.00     0.115 A 
BRANCH  55  56
ATOM     56  O   UNL     1       0.715  12.771   6.298  1.00  0.00    -0.508 OA
ATOM     57  H   UNL     1       0.102  13.343   5.810  1.00  0.00     0.293 HD
ENDBRANCH  55  56
ENDBRANCH  49  50
ENDBRANCH  48  49
BRANCH  48  58
ATOM     58  C   UNL     1       1.593   5.436   3.918  1.00  0.00     0.326 C 
ATOM     59  O   UNL     1       2.522   4.647   3.967  1.00  0.00    -0.250 OA
BRANCH  58  60
ATOM     60  O   UNL     1       0.325   4.976   4.064  1.00  0.00    -0.480 OA
ATOM     61  H   UNL     1      -0.189   5.528   3.435  1.00  0.00     0.296 HD
ENDBRANCH  58  60
ENDBRANCH  48  58
ENDBRANCH  46  48
ENDBRANCH  34  44
ENDBRANCH  32  34
ENDBRANCH  25  30
ENDBRANCH  23  25
ENDBRANCH   2  23
TORSDOF 28
ENDMDL
MODEL 37
REMARK VINA RESULT:    -5.996      2.853      8.882
REMARK INTER + INTRA:         -18.977
REMARK INTER:                 -13.025
REMARK INTRA:                  -5.952
REMARK UNBOUND:                -4.043
REMARK SMILES CCCCCCC[C@H](N)[C@H](O)C(=O)N[C@H](C)C(=O)N(C)[C@H](CC(C)C)C(=O)N[C@@H](Cc1ccc(O)cc1)C(=O)N[C@@H](Cc1ccc(O)cc1)C(=O)O
REMARK SMILES IDX 18 1 17 2 15 3 16 4 14 5 12 6 13 7 10 9 11 10 8 12 9 13 7 16
REMARK SMILES IDX 6 17 5 18 4 19 3 20 2 21 1 22 19 23 20 24 21 25 22 26 23 27
REMARK SMILES IDX 24 28 25 29 26 30 27 31 28 32 29 34 30 35 31 36 32 37 37 38
REMARK SMILES IDX 33 39 36 40 34 41 35 42 38 44 39 45 40 46 41 48 42 49 43 50
REMARK SMILES IDX 44 51 49 52 45 53 48 54 46 55 47 56 50 58 51 59 52 60
REMARK H PARENT 14 8 11 11 9 14 9 15 28 33 35 43 40 47 47 57 52 61
ROOT
ATOM      1  O   UNL     1       0.957   9.020   7.178  1.00  0.00    -0.272 OA
ATOM      2  C   UNL     1       1.506   8.741   6.102  1.00  0.00     0.245 C 
ENDROOT
BRANCH   2   3
ATOM      3  C   UNL     1       0.614   8.389   4.885  1.00  0.00     0.168 C 
ATOM      4  C   UNL     1      -0.095   9.631   4.357  1.00  0.00     0.041 C 
BRANCH   3   5
ATOM      5  N   UNL     1       1.289   7.659   3.824  1.00  0.00    -0.342 N 
ATOM      6  C   UNL     1       1.199   6.287   3.712  1.00  0.00     0.251 C 
ATOM      7  O   UNL     1       0.587   5.583   4.509  1.00  0.00    -0.272 OA
ATOM      8  H   UNL     1       1.855   8.132   3.123  1.00  0.00     0.164 HD
BRANCH   6   9
ATOM      9  C   UNL     1       1.871   5.748   2.440  1.00  0.00     0.219 C 
BRANCH   9  10
ATOM     10  O   UNL     1       0.985   4.955   1.640  1.00  0.00    -0.382 OA
ATOM     11  H   UNL     1       0.093   5.280   1.893  1.00  0.00     0.211 HD
ENDBRANCH   9  10
BRANCH   9  12
ATOM     12  C   UNL     1       2.537   6.859   1.586  1.00  0.00     0.089 C 
BRANCH  12  13
ATOM     13  N   UNL     1       3.820   7.232   2.225  1.00  0.00    -0.325 NA
ATOM     14  H   UNL     1       4.513   7.426   1.499  1.00  0.00     0.119 HD
ATOM     15  H   UNL     1       4.186   6.423   2.732  1.00  0.00     0.119 HD
ENDBRANCH  12  13
BRANCH  12  16
ATOM     16  C   UNL     1       2.765   6.522   0.093  1.00  0.00     0.022 C 
BRANCH  16  17
ATOM     17  C   UNL     1       4.092   6.918  -0.568  1.00  0.00     0.002 C 
BRANCH  17  18
ATOM     18  C   UNL     1       4.408   6.185  -1.870  1.00  0.00     0.000 C 
BRANCH  18  19
ATOM     19  C   UNL     1       3.387   6.432  -2.989  1.00  0.00    -0.000 C 
BRANCH  19  20
ATOM     20  C   UNL     1       3.504   7.790  -3.687  1.00  0.00    -0.000 C 
BRANCH  20  21
ATOM     21  C   UNL     1       2.524   7.952  -4.853  1.00  0.00    -0.003 C 
ATOM     22  C   UNL     1       3.231   7.820  -6.193  1.00  0.00     0.004 C 
ENDBRANCH  20  21
ENDBRANCH  19  20
ENDBRANCH  18  19
ENDBRANCH  17  18
ENDBRANCH  16  17
ENDBRANCH  12  16
ENDBRANCH   9  12
ENDBRANCH   6   9
ENDBRANCH   3   5
ENDBRANCH   2   3
BRANCH   2  23
ATOM     23  N   UNL     1       2.885   8.865   5.972  1.00  0.00    -0.332 N 
ATOM     24  C   UNL     1       3.826   7.757   6.057  1.00  0.00     0.147 C 
BRANCH  23  25
ATOM     25  C   UNL     1       3.489  10.173   5.598  1.00  0.00     0.174 C 
BRANCH  25  26
ATOM     26  C   UNL     1       2.557  11.372   5.890  1.00  0.00     0.038 C 
BRANCH  26  27
ATOM     27  C   UNL     1       3.188  12.781   5.822  1.00  0.00    -0.015 C 
ATOM     28  C   UNL     1       2.269  13.860   6.396  1.00  0.00     0.007 C 
ATOM     29  C   UNL     1       4.572  12.859   6.462  1.00  0.00     0.007 C 
ENDBRANCH  26  27
ENDBRANCH  25  26
BRANCH  25  30
ATOM     30  C   UNL     1       4.002  10.125   4.140  1.00  0.00     0.243 C 
ATOM     31  O   UNL     1       3.237   9.996   3.186  1.00  0.00    -0.273 OA
ATOM     32  N   UNL     1       5.360  10.229   3.985  1.00  0.00    -0.342 N 
ATOM     33  H   UNL     1       5.914  10.475   4.810  1.00  0.00     0.164 HD
BRANCH  32  34
ATOM     34  C   UNL     1       6.025  10.176   2.680  1.00  0.00     0.175 C 
BRANCH  34  35
ATOM     35  C   UNL     1       6.867  11.436   2.430  1.00  0.00     0.070 C 
BRANCH  35  36
ATOM     36  C   UNL     1       6.453  12.178   1.180  1.00  0.00    -0.045 A 
ATOM     37  C   UNL     1       5.367  11.719   0.419  1.00  0.00     0.007 A 
ATOM     38  C   UNL     1       7.154  13.313   0.752  1.00  0.00     0.007 A 
ATOM     39  C   UNL     1       4.985  12.389  -0.744  1.00  0.00     0.046 A 
ATOM     40  C   UNL     1       6.773  13.984  -0.413  1.00  0.00     0.046 A 
ATOM     41  C   UNL     1       5.690  13.516  -1.150  1.00  0.00     0.115 A 
BRANCH  41  42
ATOM     42  O   UNL     1       5.287  14.139  -2.294  1.00  0.00    -0.508 OA
ATOM     43  H   UNL     1       5.886  13.875  -3.012  1.00  0.00     0.293 HD
ENDBRANCH  41  42
ENDBRANCH  35  36
ENDBRANCH  34  35
BRANCH  34  44
ATOM     44  C   UNL     1       6.881   8.890   2.631  1.00  0.00     0.243 C 
ATOM     45  O   UNL     1       6.772   7.954   3.417  1.00  0.00    -0.273 OA
ATOM     46  N   UNL     1       7.887   8.937   1.689  1.00  0.00    -0.341 N 
ATOM     47  H   UNL     1       8.011   9.783   1.140  1.00  0.00     0.164 HD
BRANCH  46  48
ATOM     48  C   UNL     1       8.867   7.864   1.504  1.00  0.00     0.196 C 
BRANCH  48  49
ATOM     49  C   UNL     1       9.203   7.664   0.016  1.00  0.00     0.072 C 
BRANCH  49  50
ATOM     50  C   UNL     1       8.743   8.818  -0.845  1.00  0.00    -0.045 A 
ATOM     51  C   UNL     1       7.581   8.691  -1.620  1.00  0.00     0.007 A 
ATOM     52  C   UNL     1       9.472  10.013  -0.899  1.00  0.00     0.007 A 
ATOM     53  C   UNL     1       7.153   9.745  -2.429  1.00  0.00     0.046 A 
ATOM     54  C   UNL     1       9.045  11.067  -1.709  1.00  0.00     0.046 A 
ATOM     55  C   UNL     1       7.887  10.924  -2.467  1.00  0.00     0.115 A 
BRANCH  55  56
ATOM     56  O   UNL     1       7.437  11.929  -3.271  1.00  0.00    -0.508 OA
ATOM     57  H   UNL     1       6.852  11.544  -3.943  1.00  0.00     0.293 HD
ENDBRANCH  55  56
ENDBRANCH  49  50
ENDBRANCH  48  49
BRANCH  48  58
ATOM     58  C   UNL     1      10.145   8.217   2.277  1.00  0.00     0.326 C 
ATOM     59  O   UNL     1      11.266   8.377   1.820  1.00  0.00    -0.250 OA
BRANCH  58  60
ATOM     60  O   UNL     1       9.947   8.368   3.611  1.00  0.00    -0.480 OA
ATOM     61  H   UNL     1       9.301   7.660   3.825  1.00  0.00     0.296 HD
ENDBRANCH  58  60
ENDBRANCH  48  58
ENDBRANCH  46  48
ENDBRANCH  34  44
ENDBRANCH  32  34
ENDBRANCH  25  30
ENDBRANCH  23  25
ENDBRANCH   2  23
TORSDOF 28
ENDMDL
MODEL 38
REMARK VINA RESULT:    -5.987      7.775     12.319
REMARK INTER + INTRA:         -18.955
REMARK INTER:                 -16.314
REMARK INTRA:                  -2.640
REMARK UNBOUND:                -4.043
REMARK SMILES CCCCCCC[C@H](N)[C@H](O)C(=O)N[C@H](C)C(=O)N(C)[C@H](CC(C)C)C(=O)N[C@@H](Cc1ccc(O)cc1)C(=O)N[C@@H](Cc1ccc(O)cc1)C(=O)O
REMARK SMILES IDX 18 1 17 2 15 3 16 4 14 5 12 6 13 7 10 9 11 10 8 12 9 13 7 16
REMARK SMILES IDX 6 17 5 18 4 19 3 20 2 21 1 22 19 23 20 24 21 25 22 26 23 27
REMARK SMILES IDX 24 28 25 29 26 30 27 31 28 32 29 34 30 35 31 36 32 37 37 38
REMARK SMILES IDX 33 39 36 40 34 41 35 42 38 44 39 45 40 46 41 48 42 49 43 50
REMARK SMILES IDX 44 51 49 52 45 53 48 54 46 55 47 56 50 58 51 59 52 60
REMARK H PARENT 14 8 11 11 9 14 9 15 28 33 35 43 40 47 47 57 52 61
ROOT
ATOM      1  O   UNL     1       7.782  -0.906   6.115  1.00  0.00    -0.272 OA
ATOM      2  C   UNL     1       6.544  -0.840   6.085  1.00  0.00     0.245 C 
ENDROOT
BRANCH   2   3
ATOM      3  C   UNL     1       5.763  -1.919   5.295  1.00  0.00     0.168 C 
ATOM      4  C   UNL     1       6.617  -2.488   4.167  1.00  0.00     0.041 C 
BRANCH   3   5
ATOM      5  N   UNL     1       5.175  -2.969   6.112  1.00  0.00    -0.342 N 
ATOM      6  C   UNL     1       3.963  -3.545   5.796  1.00  0.00     0.251 C 
ATOM      7  O   UNL     1       3.277  -3.196   4.841  1.00  0.00    -0.272 OA
ATOM      8  H   UNL     1       5.636  -3.319   6.949  1.00  0.00     0.164 HD
BRANCH   6   9
ATOM      9  C   UNL     1       3.608  -4.726   6.714  1.00  0.00     0.219 C 
BRANCH   9  10
ATOM     10  O   UNL     1       3.572  -4.358   8.098  1.00  0.00    -0.382 OA
ATOM     11  H   UNL     1       2.680  -4.647   8.391  1.00  0.00     0.211 HD
ENDBRANCH   9  10
BRANCH   9  12
ATOM     12  C   UNL     1       2.298  -5.446   6.301  1.00  0.00     0.089 C 
BRANCH  12  13
ATOM     13  N   UNL     1       2.619  -6.857   5.988  1.00  0.00    -0.325 NA
ATOM     14  H   UNL     1       2.608  -6.988   4.974  1.00  0.00     0.119 HD
ATOM     15  H   UNL     1       1.868  -7.454   6.342  1.00  0.00     0.119 HD
ENDBRANCH  12  13
BRANCH  12  16
ATOM     16  C   UNL     1       1.137  -5.379   7.322  1.00  0.00     0.022 C 
BRANCH  16  17
ATOM     17  C   UNL     1      -0.139  -4.611   6.952  1.00  0.00     0.002 C 
BRANCH  17  18
ATOM     18  C   UNL     1       0.058  -3.119   6.693  1.00  0.00     0.000 C 
BRANCH  18  19
ATOM     19  C   UNL     1      -0.401  -2.219   7.847  1.00  0.00    -0.000 C 
BRANCH  19  20
ATOM     20  C   UNL     1       0.305  -2.464   9.184  1.00  0.00    -0.000 C 
BRANCH  20  21
ATOM     21  C   UNL     1      -0.656  -2.871  10.304  1.00  0.00    -0.003 C 
ATOM     22  C   UNL     1      -1.149  -1.659  11.079  1.00  0.00     0.004 C 
ENDBRANCH  20  21
ENDBRANCH  19  20
ENDBRANCH  18  19
ENDBRANCH  17  18
ENDBRANCH  16  17
ENDBRANCH  12  16
ENDBRANCH   9  12
ENDBRANCH   6   9
ENDBRANCH   3   5
ENDBRANCH   2   3
BRANCH   2  23
ATOM     23  N   UNL     1       5.880   0.113   6.850  1.00  0.00    -0.332 N 
ATOM     24  C   UNL     1       5.092  -0.184   8.037  1.00  0.00     0.147 C 
BRANCH  23  25
ATOM     25  C   UNL     1       6.049   1.563   6.556  1.00  0.00     0.174 C 
BRANCH  25  26
ATOM     26  C   UNL     1       7.126   2.235   7.440  1.00  0.00     0.038 C 
BRANCH  26  27
ATOM     27  C   UNL     1       8.306   2.913   6.710  1.00  0.00    -0.015 C 
ATOM     28  C   UNL     1       8.018   4.374   6.365  1.00  0.00     0.007 C 
ATOM     29  C   UNL     1       9.633   2.789   7.455  1.00  0.00     0.007 C 
ENDBRANCH  26  27
ENDBRANCH  25  26
BRANCH  25  30
ATOM     30  C   UNL     1       4.678   2.277   6.595  1.00  0.00     0.243 C 
ATOM     31  O   UNL     1       3.691   1.822   6.019  1.00  0.00    -0.273 OA
ATOM     32  N   UNL     1       4.640   3.448   7.307  1.00  0.00    -0.342 N 
ATOM     33  H   UNL     1       5.459   3.686   7.872  1.00  0.00     0.164 HD
BRANCH  32  34
ATOM     34  C   UNL     1       3.435   4.273   7.429  1.00  0.00     0.175 C 
BRANCH  34  35
ATOM     35  C   UNL     1       3.491   5.162   8.681  1.00  0.00     0.070 C 
BRANCH  35  36
ATOM     36  C   UNL     1       2.200   5.911   8.925  1.00  0.00    -0.045 A 
ATOM     37  C   UNL     1       1.100   5.249   9.489  1.00  0.00     0.007 A 
ATOM     38  C   UNL     1       2.076   7.262   8.572  1.00  0.00     0.007 A 
ATOM     39  C   UNL     1      -0.100   5.929   9.705  1.00  0.00     0.046 A 
ATOM     40  C   UNL     1       0.875   7.943   8.786  1.00  0.00     0.046 A 
ATOM     41  C   UNL     1      -0.202   7.269   9.353  1.00  0.00     0.115 A 
BRANCH  41  42
ATOM     42  O   UNL     1      -1.392   7.896   9.577  1.00  0.00    -0.508 OA
ATOM     43  H   UNL     1      -1.999   7.664   8.854  1.00  0.00     0.293 HD
ENDBRANCH  41  42
ENDBRANCH  35  36
ENDBRANCH  34  35
BRANCH  34  44
ATOM     44  C   UNL     1       3.291   5.106   6.136  1.00  0.00     0.243 C 
ATOM     45  O   UNL     1       4.186   5.791   5.649  1.00  0.00    -0.273 OA
ATOM     46  N   UNL     1       2.007   5.120   5.632  1.00  0.00    -0.341 N 
ATOM     47  H   UNL     1       1.273   4.631   6.138  1.00  0.00     0.164 HD
BRANCH  46  48
ATOM     48  C   UNL     1       1.612   5.895   4.454  1.00  0.00     0.196 C 
BRANCH  48  49
ATOM     49  C   UNL     1       1.327   4.979   3.252  1.00  0.00     0.072 C 
BRANCH  49  50
ATOM     50  C   UNL     1       1.735   5.602   1.936  1.00  0.00    -0.045 A 
ATOM     51  C   UNL     1       1.099   5.209   0.749  1.00  0.00     0.007 A 
ATOM     52  C   UNL     1       2.759   6.556   1.877  1.00  0.00     0.007 A 
ATOM     53  C   UNL     1       1.476   5.767  -0.472  1.00  0.00     0.046 A 
ATOM     54  C   UNL     1       3.137   7.113   0.653  1.00  0.00     0.046 A 
ATOM     55  C   UNL     1       2.491   6.715  -0.511  1.00  0.00     0.115 A 
BRANCH  55  56
ATOM     56  O   UNL     1       2.831   7.234  -1.725  1.00  0.00    -0.508 OA
ATOM     57  H   UNL     1       2.292   6.800  -2.406  1.00  0.00     0.293 HD
ENDBRANCH  55  56
ENDBRANCH  49  50
ENDBRANCH  48  49
BRANCH  48  58
ATOM     58  C   UNL     1       0.356   6.710   4.790  1.00  0.00     0.326 C 
ATOM     59  O   UNL     1      -0.512   6.430   5.601  1.00  0.00    -0.250 OA
BRANCH  58  60
ATOM     60  O   UNL     1       0.257   7.866   4.087  1.00  0.00    -0.480 OA
ATOM     61  H   UNL     1       1.173   8.219   4.103  1.00  0.00     0.296 HD
ENDBRANCH  58  60
ENDBRANCH  48  58
ENDBRANCH  46  48
ENDBRANCH  34  44
ENDBRANCH  32  34
ENDBRANCH  25  30
ENDBRANCH  23  25
ENDBRANCH   2  23
TORSDOF 28
ENDMDL
MODEL 39
REMARK VINA RESULT:    -5.984      3.071      8.894
REMARK INTER + INTRA:         -18.946
REMARK INTER:                 -13.233
REMARK INTRA:                  -5.714
REMARK UNBOUND:                -4.043
REMARK SMILES CCCCCCC[C@H](N)[C@H](O)C(=O)N[C@H](C)C(=O)N(C)[C@H](CC(C)C)C(=O)N[C@@H](Cc1ccc(O)cc1)C(=O)N[C@@H](Cc1ccc(O)cc1)C(=O)O
REMARK SMILES IDX 18 1 17 2 15 3 16 4 14 5 12 6 13 7 10 9 11 10 8 12 9 13 7 16
REMARK SMILES IDX 6 17 5 18 4 19 3 20 2 21 1 22 19 23 20 24 21 25 22 26 23 27
REMARK SMILES IDX 24 28 25 29 26 30 27 31 28 32 29 34 30 35 31 36 32 37 37 38
REMARK SMILES IDX 33 39 36 40 34 41 35 42 38 44 39 45 40 46 41 48 42 49 43 50
REMARK SMILES IDX 44 51 49 52 45 53 48 54 46 55 47 56 50 58 51 59 52 60
REMARK H PARENT 14 8 11 11 9 14 9 15 28 33 35 43 40 47 47 57 52 61
ROOT
ATOM      1  O   UNL     1       6.150   8.274   3.318  1.00  0.00    -0.272 OA
ATOM      2  C   UNL     1       6.356   9.489   3.446  1.00  0.00     0.245 C 
ENDROOT
BRANCH   2   3
ATOM      3  C   UNL     1       7.337  10.181   2.467  1.00  0.00     0.168 C 
ATOM      4  C   UNL     1       8.702   9.502   2.499  1.00  0.00     0.041 C 
BRANCH   3   5
ATOM      5  N   UNL     1       6.839  10.335   1.109  1.00  0.00    -0.342 N 
ATOM      6  C   UNL     1       6.360  11.540   0.641  1.00  0.00     0.251 C 
ATOM      7  O   UNL     1       6.278  12.550   1.333  1.00  0.00    -0.272 OA
ATOM      8  H   UNL     1       6.824   9.558   0.453  1.00  0.00     0.164 HD
BRANCH   6   9
ATOM      9  C   UNL     1       6.023  11.504  -0.858  1.00  0.00     0.219 C 
BRANCH   9  10
ATOM     10  O   UNL     1       4.753  12.099  -1.153  1.00  0.00    -0.382 OA
ATOM     11  H   UNL     1       4.982  13.024  -1.393  1.00  0.00     0.211 HD
ENDBRANCH   9  10
BRANCH   9  12
ATOM     12  C   UNL     1       7.137  12.113  -1.748  1.00  0.00     0.089 C 
BRANCH  12  13
ATOM     13  N   UNL     1       8.150  12.737  -0.866  1.00  0.00    -0.325 NA
ATOM     14  H   UNL     1       8.900  13.127  -1.440  1.00  0.00     0.119 HD
ATOM     15  H   UNL     1       8.596  12.007  -0.305  1.00  0.00     0.119 HD
ENDBRANCH  12  13
BRANCH  12  16
ATOM     16  C   UNL     1       7.821  11.141  -2.739  1.00  0.00     0.022 C 
BRANCH  16  17
ATOM     17  C   UNL     1       7.985   9.666  -2.345  1.00  0.00     0.002 C 
BRANCH  17  18
ATOM     18  C   UNL     1       9.232   9.354  -1.522  1.00  0.00     0.000 C 
BRANCH  18  19
ATOM     19  C   UNL     1       9.852   7.982  -1.823  1.00  0.00    -0.000 C 
BRANCH  19  20
ATOM     20  C   UNL     1       9.174   6.797  -1.130  1.00  0.00    -0.000 C 
BRANCH  20  21
ATOM     21  C   UNL     1       9.641   6.600   0.314  1.00  0.00    -0.003 C 
ATOM     22  C   UNL     1      11.102   6.985   0.482  1.00  0.00     0.004 C 
ENDBRANCH  20  21
ENDBRANCH  19  20
ENDBRANCH  18  19
ENDBRANCH  17  18
ENDBRANCH  16  17
ENDBRANCH  12  16
ENDBRANCH   9  12
ENDBRANCH   6   9
ENDBRANCH   3   5
ENDBRANCH   2   3
BRANCH   2  23
ATOM     23  N   UNL     1       5.624  10.226   4.372  1.00  0.00    -0.332 N 
ATOM     24  C   UNL     1       6.085  10.561   5.711  1.00  0.00     0.147 C 
BRANCH  23  25
ATOM     25  C   UNL     1       4.327  10.844   3.982  1.00  0.00     0.174 C 
BRANCH  25  26
ATOM     26  C   UNL     1       3.410  11.134   5.194  1.00  0.00     0.038 C 
BRANCH  26  27
ATOM     27  C   UNL     1       2.162  12.007   4.935  1.00  0.00    -0.015 C 
ATOM     28  C   UNL     1       1.023  11.702   5.907  1.00  0.00     0.007 C 
ATOM     29  C   UNL     1       2.462  13.503   4.911  1.00  0.00     0.007 C 
ENDBRANCH  26  27
ENDBRANCH  25  26
BRANCH  25  30
ATOM     30  C   UNL     1       3.648  10.004   2.876  1.00  0.00     0.243 C 
ATOM     31  O   UNL     1       3.592  10.389   1.709  1.00  0.00    -0.273 OA
ATOM     32  N   UNL     1       3.110   8.810   3.284  1.00  0.00    -0.342 N 
ATOM     33  H   UNL     1       3.320   8.496   4.235  1.00  0.00     0.164 HD
BRANCH  32  34
ATOM     34  C   UNL     1       2.406   7.898   2.379  1.00  0.00     0.175 C 
BRANCH  34  35
ATOM     35  C   UNL     1       3.380   6.929   1.692  1.00  0.00     0.070 C 
BRANCH  35  36
ATOM     36  C   UNL     1       3.517   7.191   0.209  1.00  0.00    -0.045 A 
ATOM     37  C   UNL     1       4.655   7.846  -0.286  1.00  0.00     0.007 A 
ATOM     38  C   UNL     1       2.508   6.808  -0.685  1.00  0.00     0.007 A 
ATOM     39  C   UNL     1       4.784   8.104  -1.651  1.00  0.00     0.046 A 
ATOM     40  C   UNL     1       2.636   7.068  -2.052  1.00  0.00     0.046 A 
ATOM     41  C   UNL     1       3.775   7.713  -2.522  1.00  0.00     0.115 A 
BRANCH  41  42
ATOM     42  O   UNL     1       3.938   7.987  -3.848  1.00  0.00    -0.508 OA
ATOM     43  H   UNL     1       3.474   7.304  -4.360  1.00  0.00     0.293 HD
ENDBRANCH  41  42
ENDBRANCH  35  36
ENDBRANCH  34  35
BRANCH  34  44
ATOM     44  C   UNL     1       1.329   7.150   3.197  1.00  0.00     0.243 C 
ATOM     45  O   UNL     1       0.753   6.133   2.819  1.00  0.00    -0.273 OA
ATOM     46  N   UNL     1       0.966   7.805   4.355  1.00  0.00    -0.341 N 
ATOM     47  H   UNL     1       1.389   8.705   4.566  1.00  0.00     0.164 HD
BRANCH  46  48
ATOM     48  C   UNL     1      -0.082   7.324   5.258  1.00  0.00     0.196 C 
BRANCH  48  49
ATOM     49  C   UNL     1       0.517   6.613   6.483  1.00  0.00     0.072 C 
BRANCH  49  50
ATOM     50  C   UNL     1       2.022   6.740   6.551  1.00  0.00    -0.045 A 
ATOM     51  C   UNL     1       2.602   7.899   7.086  1.00  0.00     0.007 A 
ATOM     52  C   UNL     1       2.853   5.722   6.067  1.00  0.00     0.007 A 
ATOM     53  C   UNL     1       3.990   8.033   7.142  1.00  0.00     0.046 A 
ATOM     54  C   UNL     1       4.243   5.856   6.121  1.00  0.00     0.046 A 
ATOM     55  C   UNL     1       4.799   7.011   6.660  1.00  0.00     0.115 A 
BRANCH  55  56
ATOM     56  O   UNL     1       6.150   7.182   6.731  1.00  0.00    -0.508 OA
ATOM     57  H   UNL     1       6.553   6.332   6.971  1.00  0.00     0.293 HD
ENDBRANCH  55  56
ENDBRANCH  49  50
ENDBRANCH  48  49
BRANCH  48  58
ATOM     58  C   UNL     1      -0.930   8.517   5.718  1.00  0.00     0.326 C 
ATOM     59  O   UNL     1      -1.164   8.859   6.866  1.00  0.00    -0.250 OA
BRANCH  58  60
ATOM     60  O   UNL     1      -1.442   9.245   4.694  1.00  0.00    -0.480 OA
ATOM     61  H   UNL     1      -1.411   8.622   3.936  1.00  0.00     0.296 HD
ENDBRANCH  58  60
ENDBRANCH  48  58
ENDBRANCH  46  48
ENDBRANCH  34  44
ENDBRANCH  32  34
ENDBRANCH  25  30
ENDBRANCH  23  25
ENDBRANCH   2  23
TORSDOF 28
ENDMDL
MODEL 40
REMARK VINA RESULT:    -5.962      3.827      8.579
REMARK INTER + INTRA:         -18.892
REMARK INTER:                 -13.878
REMARK INTRA:                  -5.014
REMARK UNBOUND:                -4.043
REMARK SMILES CCCCCCC[C@H](N)[C@H](O)C(=O)N[C@H](C)C(=O)N(C)[C@H](CC(C)C)C(=O)N[C@@H](Cc1ccc(O)cc1)C(=O)N[C@@H](Cc1ccc(O)cc1)C(=O)O
REMARK SMILES IDX 18 1 17 2 15 3 16 4 14 5 12 6 13 7 10 9 11 10 8 12 9 13 7 16
REMARK SMILES IDX 6 17 5 18 4 19 3 20 2 21 1 22 19 23 20 24 21 25 22 26 23 27
REMARK SMILES IDX 24 28 25 29 26 30 27 31 28 32 29 34 30 35 31 36 32 37 37 38
REMARK SMILES IDX 33 39 36 40 34 41 35 42 38 44 39 45 40 46 41 48 42 49 43 50
REMARK SMILES IDX 44 51 49 52 45 53 48 54 46 55 47 56 50 58 51 59 52 60
REMARK H PARENT 14 8 11 11 9 14 9 15 28 33 35 43 40 47 47 57 52 61
ROOT
ATOM      1  O   UNL     1       5.282   8.857   3.061  1.00  0.00    -0.272 OA
ATOM      2  C   UNL     1       5.066  10.022   2.693  1.00  0.00     0.245 C 
ENDROOT
BRANCH   2   3
ATOM      3  C   UNL     1       4.235  10.948   3.615  1.00  0.00     0.168 C 
ATOM      4  C   UNL     1       2.920  11.338   2.949  1.00  0.00     0.041 C 
BRANCH   3   5
ATOM      5  N   UNL     1       4.030  10.444   4.964  1.00  0.00    -0.342 N 
ATOM      6  C   UNL     1       3.823  11.289   6.034  1.00  0.00     0.251 C 
ATOM      7  O   UNL     1       3.837  12.512   5.942  1.00  0.00    -0.272 OA
ATOM      8  H   UNL     1       4.032   9.447   5.170  1.00  0.00     0.164 HD
BRANCH   6   9
ATOM      9  C   UNL     1       3.489  10.535   7.331  1.00  0.00     0.219 C 
BRANCH   9  10
ATOM     10  O   UNL     1       3.709  11.328   8.504  1.00  0.00    -0.382 OA
ATOM     11  H   UNL     1       3.226  12.161   8.313  1.00  0.00     0.211 HD
ENDBRANCH   9  10
BRANCH   9  12
ATOM     12  C   UNL     1       2.059   9.932   7.334  1.00  0.00     0.089 C 
BRANCH  12  13
ATOM     13  N   UNL     1       1.251  10.640   6.315  1.00  0.00    -0.325 NA
ATOM     14  H   UNL     1       0.260  10.513   6.525  1.00  0.00     0.119 HD
ATOM     15  H   UNL     1       1.393  10.189   5.409  1.00  0.00     0.119 HD
ENDBRANCH  12  13
BRANCH  12  16
ATOM     16  C   UNL     1       1.968   8.403   7.117  1.00  0.00     0.022 C 
BRANCH  16  17
ATOM     17  C   UNL     1       1.712   7.490   8.324  1.00  0.00     0.002 C 
BRANCH  17  18
ATOM     18  C   UNL     1       0.717   6.359   8.077  1.00  0.00     0.000 C 
BRANCH  18  19
ATOM     19  C   UNL     1       0.265   5.635   9.353  1.00  0.00    -0.000 C 
BRANCH  19  20
ATOM     20  C   UNL     1       0.431   6.436  10.648  1.00  0.00    -0.000 C 
BRANCH  20  21
ATOM     21  C   UNL     1      -0.874   7.078  11.127  1.00  0.00    -0.003 C 
ATOM     22  C   UNL     1      -1.093   6.844  12.614  1.00  0.00     0.004 C 
ENDBRANCH  20  21
ENDBRANCH  19  20
ENDBRANCH  18  19
ENDBRANCH  17  18
ENDBRANCH  16  17
ENDBRANCH  12  16
ENDBRANCH   9  12
ENDBRANCH   6   9
ENDBRANCH   3   5
ENDBRANCH   2   3
BRANCH   2  23
ATOM     23  N   UNL     1       5.665  10.508   1.536  1.00  0.00    -0.332 N 
ATOM     24  C   UNL     1       6.185  11.859   1.380  1.00  0.00     0.147 C 
BRANCH  23  25
ATOM     25  C   UNL     1       5.933   9.597   0.389  1.00  0.00     0.174 C 
BRANCH  25  26
ATOM     26  C   UNL     1       6.857  10.229  -0.678  1.00  0.00     0.038 C 
BRANCH  26  27
ATOM     27  C   UNL     1       8.049   9.375  -1.166  1.00  0.00    -0.015 C 
ATOM     28  C   UNL     1       7.717   7.884  -1.216  1.00  0.00     0.007 C 
ATOM     29  C   UNL     1       8.624   9.842  -2.501  1.00  0.00     0.007 C 
ENDBRANCH  26  27
ENDBRANCH  25  26
BRANCH  25  30
ATOM     30  C   UNL     1       4.603   9.056  -0.182  1.00  0.00     0.243 C 
ATOM     31  O   UNL     1       3.902   9.724  -0.942  1.00  0.00    -0.273 OA
ATOM     32  N   UNL     1       4.256   7.791   0.218  1.00  0.00    -0.342 N 
ATOM     33  H   UNL     1       4.954   7.249   0.733  1.00  0.00     0.164 HD
BRANCH  32  34
ATOM     34  C   UNL     1       3.018   7.129  -0.202  1.00  0.00     0.175 C 
BRANCH  34  35
ATOM     35  C   UNL     1       3.277   6.128  -1.338  1.00  0.00     0.070 C 
BRANCH  35  36
ATOM     36  C   UNL     1       2.786   6.626  -2.679  1.00  0.00    -0.045 A 
ATOM     37  C   UNL     1       3.707   7.023  -3.660  1.00  0.00     0.007 A 
ATOM     38  C   UNL     1       1.415   6.719  -2.953  1.00  0.00     0.007 A 
ATOM     39  C   UNL     1       3.264   7.497  -4.895  1.00  0.00     0.046 A 
ATOM     40  C   UNL     1       0.970   7.194  -4.189  1.00  0.00     0.046 A 
ATOM     41  C   UNL     1       1.900   7.578  -5.150  1.00  0.00     0.115 A 
BRANCH  41  42
ATOM     42  O   UNL     1       1.508   8.049  -6.369  1.00  0.00    -0.508 OA
ATOM     43  H   UNL     1       1.959   7.530  -7.055  1.00  0.00     0.293 HD
ENDBRANCH  41  42
ENDBRANCH  35  36
ENDBRANCH  34  35
BRANCH  34  44
ATOM     44  C   UNL     1       2.396   6.447   1.038  1.00  0.00     0.243 C 
ATOM     45  O   UNL     1       1.613   5.503   0.990  1.00  0.00    -0.273 OA
ATOM     46  N   UNL     1       2.699   7.082   2.223  1.00  0.00    -0.341 N 
ATOM     47  H   UNL     1       3.258   7.931   2.200  1.00  0.00     0.164 HD
BRANCH  46  48
ATOM     48  C   UNL     1       2.170   6.660   3.522  1.00  0.00     0.196 C 
BRANCH  48  49
ATOM     49  C   UNL     1       3.231   6.788   4.628  1.00  0.00     0.072 C 
BRANCH  49  50
ATOM     50  C   UNL     1       3.488   5.481   5.342  1.00  0.00    -0.045 A 
ATOM     51  C   UNL     1       4.340   5.449   6.456  1.00  0.00     0.007 A 
ATOM     52  C   UNL     1       2.905   4.288   4.895  1.00  0.00     0.007 A 
ATOM     53  C   UNL     1       4.596   4.246   7.115  1.00  0.00     0.046 A 
ATOM     54  C   UNL     1       3.161   3.084   5.554  1.00  0.00     0.046 A 
ATOM     55  C   UNL     1       4.005   3.073   6.660  1.00  0.00     0.115 A 
BRANCH  55  56
ATOM     56  O   UNL     1       4.282   1.919   7.330  1.00  0.00    -0.508 OA
ATOM     57  H   UNL     1       4.254   1.183   6.698  1.00  0.00     0.293 HD
ENDBRANCH  55  56
ENDBRANCH  49  50
ENDBRANCH  48  49
BRANCH  48  58
ATOM     58  C   UNL     1       0.953   7.528   3.872  1.00  0.00     0.326 C 
ATOM     59  O   UNL     1       0.825   8.728   3.690  1.00  0.00    -0.250 OA
BRANCH  58  60
ATOM     60  O   UNL     1      -0.067   6.830   4.430  1.00  0.00    -0.480 OA
ATOM     61  H   UNL     1       0.127   5.902   4.176  1.00  0.00     0.296 HD
ENDBRANCH  58  60
ENDBRANCH  48  58
ENDBRANCH  46  48
ENDBRANCH  34  44
ENDBRANCH  32  34
ENDBRANCH  25  30
ENDBRANCH  23  25
ENDBRANCH   2  23
TORSDOF 28
ENDMDL
MODEL 41
REMARK VINA RESULT:    -5.951      3.509      8.551
REMARK INTER + INTRA:         -18.864
REMARK INTER:                 -12.995
REMARK INTRA:                  -5.869
REMARK UNBOUND:                -4.043
REMARK SMILES CCCCCCC[C@H](N)[C@H](O)C(=O)N[C@H](C)C(=O)N(C)[C@H](CC(C)C)C(=O)N[C@@H](Cc1ccc(O)cc1)C(=O)N[C@@H](Cc1ccc(O)cc1)C(=O)O
REMARK SMILES IDX 18 1 17 2 15 3 16 4 14 5 12 6 13 7 10 9 11 10 8 12 9 13 7 16
REMARK SMILES IDX 6 17 5 18 4 19 3 20 2 21 1 22 19 23 20 24 21 25 22 26 23 27
REMARK SMILES IDX 24 28 25 29 26 30 27 31 28 32 29 34 30 35 31 36 32 37 37 38
REMARK SMILES IDX 33 39 36 40 34 41 35 42 38 44 39 45 40 46 41 48 42 49 43 50
REMARK SMILES IDX 44 51 49 52 45 53 48 54 46 55 47 56 50 58 51 59 52 60
REMARK H PARENT 14 8 11 11 9 14 9 15 28 33 35 43 40 47 47 57 52 61
ROOT
ATOM      1  O   UNL     1       4.750   9.731   3.243  1.00  0.00    -0.272 OA
ATOM      2  C   UNL     1       4.836  10.725   2.506  1.00  0.00     0.245 C 
ENDROOT
BRANCH   2   3
ATOM      3  C   UNL     1       3.941  11.953   2.810  1.00  0.00     0.168 C 
ATOM      4  C   UNL     1       3.135  12.353   1.579  1.00  0.00     0.041 C 
BRANCH   3   5
ATOM      5  N   UNL     1       3.100  11.819   3.989  1.00  0.00    -0.342 N 
ATOM      6  C   UNL     1       2.672  12.916   4.707  1.00  0.00     0.251 C 
ATOM      7  O   UNL     1       2.996  14.068   4.438  1.00  0.00    -0.272 OA
ATOM      8  H   UNL     1       2.795  10.910   4.330  1.00  0.00     0.164 HD
BRANCH   6   9
ATOM      9  C   UNL     1       1.681  12.547   5.822  1.00  0.00     0.219 C 
BRANCH   9  10
ATOM     10  O   UNL     1       0.746  11.539   5.419  1.00  0.00    -0.382 OA
ATOM     11  H   UNL     1       0.923  10.798   6.040  1.00  0.00     0.211 HD
ENDBRANCH   9  10
BRANCH   9  12
ATOM     12  C   UNL     1       2.378  12.152   7.150  1.00  0.00     0.089 C 
BRANCH  12  13
ATOM     13  N   UNL     1       1.641  12.781   8.270  1.00  0.00    -0.325 NA
ATOM     14  H   UNL     1       0.643  12.586   8.167  1.00  0.00     0.119 HD
ATOM     15  H   UNL     1       1.724  13.797   8.192  1.00  0.00     0.119 HD
ENDBRANCH  12  13
BRANCH  12  16
ATOM     16  C   UNL     1       2.540  10.634   7.406  1.00  0.00     0.022 C 
BRANCH  16  17
ATOM     17  C   UNL     1       3.886  10.102   7.915  1.00  0.00     0.002 C 
BRANCH  17  18
ATOM     18  C   UNL     1       4.988  10.020   6.860  1.00  0.00     0.000 C 
BRANCH  18  19
ATOM     19  C   UNL     1       5.950   8.841   7.052  1.00  0.00    -0.000 C 
BRANCH  19  20
ATOM     20  C   UNL     1       6.862   8.546   5.858  1.00  0.00    -0.000 C 
BRANCH  20  21
ATOM     21  C   UNL     1       6.610   7.170   5.236  1.00  0.00    -0.003 C 
ATOM     22  C   UNL     1       7.392   6.083   5.957  1.00  0.00     0.004 C 
ENDBRANCH  20  21
ENDBRANCH  19  20
ENDBRANCH  18  19
ENDBRANCH  17  18
ENDBRANCH  16  17
ENDBRANCH  12  16
ENDBRANCH   9  12
ENDBRANCH   6   9
ENDBRANCH   3   5
ENDBRANCH   2   3
BRANCH   2  23
ATOM     23  N   UNL     1       5.806  10.771   1.510  1.00  0.00    -0.332 N 
ATOM     24  C   UNL     1       6.750  11.863   1.326  1.00  0.00     0.147 C 
BRANCH  23  25
ATOM     25  C   UNL     1       6.022   9.598   0.619  1.00  0.00     0.174 C 
BRANCH  25  26
ATOM     26  C   UNL     1       7.039   9.881  -0.512  1.00  0.00     0.038 C 
BRANCH  26  27
ATOM     27  C   UNL     1       7.649   8.655  -1.228  1.00  0.00    -0.015 C 
ATOM     28  C   UNL     1       8.196   9.000  -2.613  1.00  0.00     0.007 C 
ATOM     29  C   UNL     1       8.705   7.930  -0.398  1.00  0.00     0.007 C 
ENDBRANCH  26  27
ENDBRANCH  25  26
BRANCH  25  30
ATOM     30  C   UNL     1       4.665   9.056   0.114  1.00  0.00     0.243 C 
ATOM     31  O   UNL     1       3.999   9.656  -0.729  1.00  0.00    -0.273 OA
ATOM     32  N   UNL     1       4.255   7.872   0.670  1.00  0.00    -0.342 N 
ATOM     33  H   UNL     1       4.926   7.366   1.254  1.00  0.00     0.164 HD
BRANCH  32  34
ATOM     34  C   UNL     1       2.985   7.225   0.332  1.00  0.00     0.175 C 
BRANCH  34  35
ATOM     35  C   UNL     1       3.175   6.153  -0.752  1.00  0.00     0.070 C 
BRANCH  35  36
ATOM     36  C   UNL     1       2.750   6.626  -2.124  1.00  0.00    -0.045 A 
ATOM     37  C   UNL     1       1.388   6.678  -2.457  1.00  0.00     0.007 A 
ATOM     38  C   UNL     1       3.702   6.994  -3.084  1.00  0.00     0.007 A 
ATOM     39  C   UNL     1       0.987   7.100  -3.725  1.00  0.00     0.046 A 
ATOM     40  C   UNL     1       3.301   7.415  -4.354  1.00  0.00     0.046 A 
ATOM     41  C   UNL     1       1.945   7.466  -4.663  1.00  0.00     0.115 A 
BRANCH  41  42
ATOM     42  O   UNL     1       1.512   7.869  -5.891  1.00  0.00    -0.508 OA
ATOM     43  H   UNL     1       2.158   7.575  -6.554  1.00  0.00     0.293 HD
ENDBRANCH  41  42
ENDBRANCH  35  36
ENDBRANCH  34  35
BRANCH  34  44
ATOM     44  C   UNL     1       2.387   6.635   1.629  1.00  0.00     0.243 C 
ATOM     45  O   UNL     1       1.751   5.587   1.686  1.00  0.00    -0.273 OA
ATOM     46  N   UNL     1       2.520   7.466   2.721  1.00  0.00    -0.341 N 
ATOM     47  H   UNL     1       2.952   8.378   2.599  1.00  0.00     0.164 HD
BRANCH  46  48
ATOM     48  C   UNL     1       1.973   7.152   4.043  1.00  0.00     0.196 C 
BRANCH  48  49
ATOM     49  C   UNL     1       2.948   7.554   5.163  1.00  0.00     0.072 C 
BRANCH  49  50
ATOM     50  C   UNL     1       3.139   6.460   6.189  1.00  0.00    -0.045 A 
ATOM     51  C   UNL     1       3.514   5.173   5.777  1.00  0.00     0.007 A 
ATOM     52  C   UNL     1       2.925   6.705   7.551  1.00  0.00     0.007 A 
ATOM     53  C   UNL     1       3.680   4.153   6.713  1.00  0.00     0.046 A 
ATOM     54  C   UNL     1       3.090   5.683   8.489  1.00  0.00     0.046 A 
ATOM     55  C   UNL     1       3.467   4.415   8.061  1.00  0.00     0.115 A 
BRANCH  55  56
ATOM     56  O   UNL     1       3.638   3.390   8.944  1.00  0.00    -0.508 OA
ATOM     57  H   UNL     1       2.764   3.041   9.180  1.00  0.00     0.293 HD
ENDBRANCH  55  56
ENDBRANCH  49  50
ENDBRANCH  48  49
BRANCH  48  58
ATOM     58  C   UNL     1       0.645   7.900   4.225  1.00  0.00     0.326 C 
ATOM     59  O   UNL     1       0.385   9.040   3.875  1.00  0.00    -0.250 OA
BRANCH  58  60
ATOM     60  O   UNL     1      -0.314   7.160   4.835  1.00  0.00    -0.480 OA
ATOM     61  H   UNL     1       0.198   6.578   5.438  1.00  0.00     0.296 HD
ENDBRANCH  58  60
ENDBRANCH  48  58
ENDBRANCH  46  48
ENDBRANCH  34  44
ENDBRANCH  32  34
ENDBRANCH  25  30
ENDBRANCH  23  25
ENDBRANCH   2  23
TORSDOF 28
ENDMDL
MODEL 42
REMARK VINA RESULT:    -5.926      3.583      8.927
REMARK INTER + INTRA:         -18.802
REMARK INTER:                 -12.633
REMARK INTRA:                  -6.169
REMARK UNBOUND:                -4.043
REMARK SMILES CCCCCCC[C@H](N)[C@H](O)C(=O)N[C@H](C)C(=O)N(C)[C@H](CC(C)C)C(=O)N[C@@H](Cc1ccc(O)cc1)C(=O)N[C@@H](Cc1ccc(O)cc1)C(=O)O
REMARK SMILES IDX 18 1 17 2 15 3 16 4 14 5 12 6 13 7 10 9 11 10 8 12 9 13 7 16
REMARK SMILES IDX 6 17 5 18 4 19 3 20 2 21 1 22 19 23 20 24 21 25 22 26 23 27
REMARK SMILES IDX 24 28 25 29 26 30 27 31 28 32 29 34 30 35 31 36 32 37 37 38
REMARK SMILES IDX 33 39 36 40 34 41 35 42 38 44 39 45 40 46 41 48 42 49 43 50
REMARK SMILES IDX 44 51 49 52 45 53 48 54 46 55 47 56 50 58 51 59 52 60
REMARK H PARENT 14 8 11 11 9 14 9 15 28 33 35 43 40 47 47 57 52 61
ROOT
ATOM      1  O   UNL     1       3.962   9.956   2.611  1.00  0.00    -0.272 OA
ATOM      2  C   UNL     1       5.121  10.334   2.384  1.00  0.00     0.245 C 
ENDROOT
BRANCH   2   3
ATOM      3  C   UNL     1       6.173  10.216   3.515  1.00  0.00     0.168 C 
ATOM      4  C   UNL     1       5.539  10.487   4.875  1.00  0.00     0.041 C 
BRANCH   3   5
ATOM      5  N   UNL     1       6.940   8.980   3.511  1.00  0.00    -0.342 N 
ATOM      6  C   UNL     1       8.136   8.868   2.834  1.00  0.00     0.251 C 
ATOM      7  O   UNL     1       8.619   9.772   2.160  1.00  0.00    -0.272 OA
ATOM      8  H   UNL     1       6.623   8.151   4.006  1.00  0.00     0.164 HD
BRANCH   6   9
ATOM      9  C   UNL     1       8.838   7.524   3.086  1.00  0.00     0.219 C 
BRANCH   9  10
ATOM     10  O   UNL     1       9.629   7.096   1.970  1.00  0.00    -0.382 OA
ATOM     11  H   UNL     1       9.147   6.309   1.634  1.00  0.00     0.211 HD
ENDBRANCH   9  10
BRANCH   9  12
ATOM     12  C   UNL     1       9.673   7.508   4.392  1.00  0.00     0.089 C 
BRANCH  12  13
ATOM     13  N   UNL     1       9.674   8.874   4.963  1.00  0.00    -0.325 NA
ATOM     14  H   UNL     1       9.712   8.812   5.982  1.00  0.00     0.119 HD
ATOM     15  H   UNL     1       8.777   9.320   4.756  1.00  0.00     0.119 HD
ENDBRANCH  12  13
BRANCH  12  16
ATOM     16  C   UNL     1       9.235   6.483   5.465  1.00  0.00     0.022 C 
BRANCH  16  17
ATOM     17  C   UNL     1       7.743   6.156   5.620  1.00  0.00     0.002 C 
BRANCH  17  18
ATOM     18  C   UNL     1       7.331   5.666   7.006  1.00  0.00     0.000 C 
BRANCH  18  19
ATOM     19  C   UNL     1       6.937   4.183   7.053  1.00  0.00    -0.000 C 
BRANCH  19  20
ATOM     20  C   UNL     1       8.047   3.203   6.663  1.00  0.00    -0.000 C 
BRANCH  20  21
ATOM     21  C   UNL     1       7.515   1.825   6.258  1.00  0.00    -0.003 C 
ATOM     22  C   UNL     1       8.207   0.715   7.033  1.00  0.00     0.004 C 
ENDBRANCH  20  21
ENDBRANCH  19  20
ENDBRANCH  18  19
ENDBRANCH  17  18
ENDBRANCH  16  17
ENDBRANCH  12  16
ENDBRANCH   9  12
ENDBRANCH   6   9
ENDBRANCH   3   5
ENDBRANCH   2   3
BRANCH   2  23
ATOM     23  N   UNL     1       5.484  10.736   1.103  1.00  0.00    -0.332 N 
ATOM     24  C   UNL     1       5.757  12.112   0.716  1.00  0.00     0.147 C 
BRANCH  23  25
ATOM     25  C   UNL     1       5.745   9.723   0.044  1.00  0.00     0.174 C 
BRANCH  25  26
ATOM     26  C   UNL     1       6.557  10.291  -1.144  1.00  0.00     0.038 C 
BRANCH  26  27
ATOM     27  C   UNL     1       7.393   9.284  -1.965  1.00  0.00    -0.015 C 
ATOM     28  C   UNL     1       8.598   9.938  -2.640  1.00  0.00     0.007 C 
ATOM     29  C   UNL     1       7.825   8.058  -1.164  1.00  0.00     0.007 C 
ENDBRANCH  26  27
ENDBRANCH  25  26
BRANCH  25  30
ATOM     30  C   UNL     1       4.424   9.040  -0.376  1.00  0.00     0.243 C 
ATOM     31  O   UNL     1       3.633   9.574  -1.152  1.00  0.00    -0.273 OA
ATOM     32  N   UNL     1       4.192   7.807   0.177  1.00  0.00    -0.342 N 
ATOM     33  H   UNL     1       4.957   7.370   0.698  1.00  0.00     0.164 HD
BRANCH  32  34
ATOM     34  C   UNL     1       2.980   7.025  -0.086  1.00  0.00     0.175 C 
BRANCH  34  35
ATOM     35  C   UNL     1       3.218   5.979  -1.186  1.00  0.00     0.070 C 
BRANCH  35  36
ATOM     36  C   UNL     1       2.917   6.508  -2.570  1.00  0.00    -0.045 A 
ATOM     37  C   UNL     1       3.967   6.786  -3.459  1.00  0.00     0.007 A 
ATOM     38  C   UNL     1       1.598   6.749  -2.977  1.00  0.00     0.007 A 
ATOM     39  C   UNL     1       3.699   7.287  -4.733  1.00  0.00     0.046 A 
ATOM     40  C   UNL     1       1.330   7.252  -4.252  1.00  0.00     0.046 A 
ATOM     41  C   UNL     1       2.384   7.515  -5.120  1.00  0.00     0.115 A 
BRANCH  41  42
ATOM     42  O   UNL     1       2.167   8.009  -6.372  1.00  0.00    -0.508 OA
ATOM     43  H   UNL     1       2.737   8.785  -6.497  1.00  0.00     0.293 HD
ENDBRANCH  41  42
ENDBRANCH  35  36
ENDBRANCH  34  35
BRANCH  34  44
ATOM     44  C   UNL     1       2.533   6.374   1.243  1.00  0.00     0.243 C 
ATOM     45  O   UNL     1       1.702   5.475   1.329  1.00  0.00    -0.273 OA
ATOM     46  N   UNL     1       3.060   6.988   2.359  1.00  0.00    -0.341 N 
ATOM     47  H   UNL     1       3.654   7.805   2.240  1.00  0.00     0.164 HD
BRANCH  46  48
ATOM     48  C   UNL     1       2.728   6.591   3.729  1.00  0.00     0.196 C 
BRANCH  48  49
ATOM     49  C   UNL     1       3.932   6.763   4.670  1.00  0.00     0.072 C 
BRANCH  49  50
ATOM     50  C   UNL     1       3.718   6.106   6.015  1.00  0.00    -0.045 A 
ATOM     51  C   UNL     1       3.517   4.720   6.092  1.00  0.00     0.007 A 
ATOM     52  C   UNL     1       3.696   6.865   7.192  1.00  0.00     0.007 A 
ATOM     53  C   UNL     1       3.306   4.106   7.326  1.00  0.00     0.046 A 
ATOM     54  C   UNL     1       3.483   6.250   8.428  1.00  0.00     0.046 A 
ATOM     55  C   UNL     1       3.291   4.874   8.484  1.00  0.00     0.115 A 
BRANCH  55  56
ATOM     56  O   UNL     1       3.079   4.235   9.670  1.00  0.00    -0.508 OA
ATOM     57  H   UNL     1       2.864   3.307   9.483  1.00  0.00     0.293 HD
ENDBRANCH  55  56
ENDBRANCH  49  50
ENDBRANCH  48  49
BRANCH  48  58
ATOM     58  C   UNL     1       1.558   7.451   4.228  1.00  0.00     0.326 C 
ATOM     59  O   UNL     1       0.552   7.069   4.803  1.00  0.00    -0.250 OA
BRANCH  58  60
ATOM     60  O   UNL     1       1.721   8.777   3.989  1.00  0.00    -0.480 OA
ATOM     61  H   UNL     1       1.978   8.806   3.042  1.00  0.00     0.296 HD
ENDBRANCH  58  60
ENDBRANCH  48  58
ENDBRANCH  46  48
ENDBRANCH  34  44
ENDBRANCH  32  34
ENDBRANCH  25  30
ENDBRANCH  23  25
ENDBRANCH   2  23
TORSDOF 28
ENDMDL
MODEL 43
REMARK VINA RESULT:    -5.918      6.124     12.757
REMARK INTER + INTRA:         -18.784
REMARK INTER:                 -13.719
REMARK INTRA:                  -5.064
REMARK UNBOUND:                -4.043
REMARK SMILES CCCCCCC[C@H](N)[C@H](O)C(=O)N[C@H](C)C(=O)N(C)[C@H](CC(C)C)C(=O)N[C@@H](Cc1ccc(O)cc1)C(=O)N[C@@H](Cc1ccc(O)cc1)C(=O)O
REMARK SMILES IDX 18 1 17 2 15 3 16 4 14 5 12 6 13 7 10 9 11 10 8 12 9 13 7 16
REMARK SMILES IDX 6 17 5 18 4 19 3 20 2 21 1 22 19 23 20 24 21 25 22 26 23 27
REMARK SMILES IDX 24 28 25 29 26 30 27 31 28 32 29 34 30 35 31 36 32 37 37 38
REMARK SMILES IDX 33 39 36 40 34 41 35 42 38 44 39 45 40 46 41 48 42 49 43 50
REMARK SMILES IDX 44 51 49 52 45 53 48 54 46 55 47 56 50 58 51 59 52 60
REMARK H PARENT 14 8 11 11 9 14 9 15 28 33 35 43 40 47 47 57 52 61
ROOT
ATOM      1  O   UNL     1       1.396  10.243   7.093  1.00  0.00    -0.272 OA
ATOM      2  C   UNL     1       1.310  10.340   5.859  1.00  0.00     0.245 C 
ENDROOT
BRANCH   2   3
ATOM      3  C   UNL     1       2.073  11.487   5.151  1.00  0.00     0.168 C 
ATOM      4  C   UNL     1       2.005  12.771   5.971  1.00  0.00     0.041 C 
BRANCH   3   5
ATOM      5  N   UNL     1       3.437  11.164   4.762  1.00  0.00    -0.342 N 
ATOM      6  C   UNL     1       3.736  10.641   3.522  1.00  0.00     0.251 C 
ATOM      7  O   UNL     1       2.886  10.371   2.679  1.00  0.00    -0.272 OA
ATOM      8  H   UNL     1       4.223  11.312   5.391  1.00  0.00     0.164 HD
BRANCH   6   9
ATOM      9  C   UNL     1       5.248  10.514   3.279  1.00  0.00     0.219 C 
BRANCH   9  10
ATOM     10  O   UNL     1       5.865   9.542   4.132  1.00  0.00    -0.382 OA
ATOM     11  H   UNL     1       5.717   9.899   5.035  1.00  0.00     0.211 HD
ENDBRANCH   9  10
BRANCH   9  12
ATOM     12  C   UNL     1       5.606  10.249   1.793  1.00  0.00     0.089 C 
BRANCH  12  13
ATOM     13  N   UNL     1       6.940  10.832   1.523  1.00  0.00    -0.325 NA
ATOM     14  H   UNL     1       7.072  11.657   2.112  1.00  0.00     0.119 HD
ATOM     15  H   UNL     1       6.960  11.184   0.563  1.00  0.00     0.119 HD
ENDBRANCH  12  13
BRANCH  12  16
ATOM     16  C   UNL     1       5.571   8.770   1.340  1.00  0.00     0.022 C 
BRANCH  16  17
ATOM     17  C   UNL     1       4.423   8.291   0.441  1.00  0.00     0.002 C 
BRANCH  17  18
ATOM     18  C   UNL     1       4.859   7.674  -0.886  1.00  0.00     0.000 C 
BRANCH  18  19
ATOM     19  C   UNL     1       3.940   6.551  -1.385  1.00  0.00    -0.000 C 
BRANCH  19  20
ATOM     20  C   UNL     1       2.490   6.634  -0.900  1.00  0.00    -0.000 C 
BRANCH  20  21
ATOM     21  C   UNL     1       2.009   5.349  -0.222  1.00  0.00    -0.003 C 
ATOM     22  C   UNL     1       0.509   5.380   0.025  1.00  0.00     0.004 C 
ENDBRANCH  20  21
ENDBRANCH  19  20
ENDBRANCH  18  19
ENDBRANCH  17  18
ENDBRANCH  16  17
ENDBRANCH  12  16
ENDBRANCH   9  12
ENDBRANCH   6   9
ENDBRANCH   3   5
ENDBRANCH   2   3
BRANCH   2  23
ATOM     23  N   UNL     1       0.640   9.363   5.130  1.00  0.00    -0.332 N 
ATOM     24  C   UNL     1      -0.540   9.605   4.314  1.00  0.00     0.147 C 
BRANCH  23  25
ATOM     25  C   UNL     1       1.192   7.983   5.041  1.00  0.00     0.174 C 
BRANCH  25  26
ATOM     26  C   UNL     1       1.177   7.421   3.600  1.00  0.00     0.038 C 
BRANCH  26  27
ATOM     27  C   UNL     1       2.319   6.455   3.213  1.00  0.00    -0.015 C 
ATOM     28  C   UNL     1       3.653   6.841   3.853  1.00  0.00     0.007 C 
ATOM     29  C   UNL     1       1.995   4.990   3.491  1.00  0.00     0.007 C 
ENDBRANCH  26  27
ENDBRANCH  25  26
BRANCH  25  30
ATOM     30  C   UNL     1       0.498   7.065   6.073  1.00  0.00     0.243 C 
ATOM     31  O   UNL     1      -0.483   6.383   5.780  1.00  0.00    -0.273 OA
ATOM     32  N   UNL     1       1.043   7.068   7.331  1.00  0.00    -0.342 N 
ATOM     33  H   UNL     1       1.937   7.549   7.458  1.00  0.00     0.164 HD
BRANCH  32  34
ATOM     34  C   UNL     1       0.501   6.281   8.442  1.00  0.00     0.175 C 
BRANCH  34  35
ATOM     35  C   UNL     1       1.548   5.302   8.996  1.00  0.00     0.070 C 
BRANCH  35  36
ATOM     36  C   UNL     1       2.890   5.433   8.313  1.00  0.00    -0.045 A 
ATOM     37  C   UNL     1       3.248   4.541   7.292  1.00  0.00     0.007 A 
ATOM     38  C   UNL     1       3.801   6.425   8.702  1.00  0.00     0.007 A 
ATOM     39  C   UNL     1       4.491   4.645   6.665  1.00  0.00     0.046 A 
ATOM     40  C   UNL     1       5.045   6.529   8.076  1.00  0.00     0.046 A 
ATOM     41  C   UNL     1       5.378   5.638   7.061  1.00  0.00     0.115 A 
BRANCH  41  42
ATOM     42  O   UNL     1       6.583   5.704   6.426  1.00  0.00    -0.508 OA
ATOM     43  H   UNL     1       6.433   5.582   5.474  1.00  0.00     0.293 HD
ENDBRANCH  41  42
ENDBRANCH  35  36
ENDBRANCH  34  35
BRANCH  34  44
ATOM     44  C   UNL     1      -0.001   7.263   9.524  1.00  0.00     0.243 C 
ATOM     45  O   UNL     1      -1.032   7.925   9.436  1.00  0.00    -0.273 OA
ATOM     46  N   UNL     1       0.888   7.436  10.563  1.00  0.00    -0.341 N 
ATOM     47  H   UNL     1       1.783   6.953  10.533  1.00  0.00     0.164 HD
BRANCH  46  48
ATOM     48  C   UNL     1       0.662   8.367  11.671  1.00  0.00     0.196 C 
BRANCH  48  49
ATOM     49  C   UNL     1       0.065   7.649  12.893  1.00  0.00     0.072 C 
BRANCH  49  50
ATOM     50  C   UNL     1      -1.323   8.139  13.235  1.00  0.00    -0.045 A 
ATOM     51  C   UNL     1      -2.097   7.445  14.176  1.00  0.00     0.007 A 
ATOM     52  C   UNL     1      -1.864   9.270  12.609  1.00  0.00     0.007 A 
ATOM     53  C   UNL     1      -3.385   7.880  14.490  1.00  0.00     0.046 A 
ATOM     54  C   UNL     1      -3.153   9.705  12.922  1.00  0.00     0.046 A 
ATOM     55  C   UNL     1      -3.903   9.006  13.862  1.00  0.00     0.115 A 
BRANCH  55  56
ATOM     56  O   UNL     1      -5.166   9.396  14.195  1.00  0.00    -0.508 OA
ATOM     57  H   UNL     1      -5.776   9.079  13.510  1.00  0.00     0.293 HD
ENDBRANCH  55  56
ENDBRANCH  49  50
ENDBRANCH  48  49
BRANCH  48  58
ATOM     58  C   UNL     1       1.997   9.018  12.057  1.00  0.00     0.326 C 
ATOM     59  O   UNL     1       3.095   8.796  11.572  1.00  0.00    -0.250 OA
BRANCH  58  60
ATOM     60  O   UNL     1       1.884   9.944  13.042  1.00  0.00    -0.480 OA
ATOM     61  H   UNL     1       2.015   9.419  13.862  1.00  0.00     0.296 HD
ENDBRANCH  58  60
ENDBRANCH  48  58
ENDBRANCH  46  48
ENDBRANCH  34  44
ENDBRANCH  32  34
ENDBRANCH  25  30
ENDBRANCH  23  25
ENDBRANCH   2  23
TORSDOF 28
ENDMDL
MODEL 44
REMARK VINA RESULT:    -5.872      4.866      8.976
REMARK INTER + INTRA:         -18.669
REMARK INTER:                 -14.727
REMARK INTRA:                  -3.942
REMARK UNBOUND:                -4.043
REMARK SMILES CCCCCCC[C@H](N)[C@H](O)C(=O)N[C@H](C)C(=O)N(C)[C@H](CC(C)C)C(=O)N[C@@H](Cc1ccc(O)cc1)C(=O)N[C@@H](Cc1ccc(O)cc1)C(=O)O
REMARK SMILES IDX 18 1 17 2 15 3 16 4 14 5 12 6 13 7 10 9 11 10 8 12 9 13 7 16
REMARK SMILES IDX 6 17 5 18 4 19 3 20 2 21 1 22 19 23 20 24 21 25 22 26 23 27
REMARK SMILES IDX 24 28 25 29 26 30 27 31 28 32 29 34 30 35 31 36 32 37 37 38
REMARK SMILES IDX 33 39 36 40 34 41 35 42 38 44 39 45 40 46 41 48 42 49 43 50
REMARK SMILES IDX 44 51 49 52 45 53 48 54 46 55 47 56 50 58 51 59 52 60
REMARK H PARENT 14 8 11 11 9 14 9 15 28 33 35 43 40 47 47 57 52 61
ROOT
ATOM      1  O   UNL     1      -0.382   5.342   4.602  1.00  0.00    -0.272 OA
ATOM      2  C   UNL     1       0.464   6.229   4.791  1.00  0.00     0.245 C 
ENDROOT
BRANCH   2   3
ATOM      3  C   UNL     1       0.238   7.235   5.947  1.00  0.00     0.168 C 
ATOM      4  C   UNL     1      -0.920   8.174   5.629  1.00  0.00     0.041 C 
BRANCH   3   5
ATOM      5  N   UNL     1       0.101   6.632   7.263  1.00  0.00    -0.342 N 
ATOM      6  C   UNL     1       1.194   6.378   8.065  1.00  0.00     0.251 C 
ATOM      7  O   UNL     1       2.351   6.597   7.721  1.00  0.00    -0.272 OA
ATOM      8  H   UNL     1      -0.807   6.374   7.643  1.00  0.00     0.164 HD
BRANCH   6   9
ATOM      9  C   UNL     1       0.801   5.873   9.463  1.00  0.00     0.219 C 
BRANCH   9  10
ATOM     10  O   UNL     1       1.726   4.910   9.982  1.00  0.00    -0.382 OA
ATOM     11  H   UNL     1       2.216   5.409  10.673  1.00  0.00     0.211 HD
ENDBRANCH   9  10
BRANCH   9  12
ATOM     12  C   UNL     1       0.570   7.020  10.481  1.00  0.00     0.089 C 
BRANCH  12  13
ATOM     13  N   UNL     1       0.954   8.299   9.841  1.00  0.00    -0.325 NA
ATOM     14  H   UNL     1       1.971   8.337   9.749  1.00  0.00     0.119 HD
ATOM     15  H   UNL     1       0.714   9.069  10.469  1.00  0.00     0.119 HD
ENDBRANCH  12  13
BRANCH  12  16
ATOM     16  C   UNL     1      -0.857   7.127  11.069  1.00  0.00     0.022 C 
BRANCH  16  17
ATOM     17  C   UNL     1      -1.087   6.764  12.543  1.00  0.00     0.002 C 
BRANCH  17  18
ATOM     18  C   UNL     1      -2.131   7.617  13.261  1.00  0.00     0.000 C 
BRANCH  18  19
ATOM     19  C   UNL     1      -2.768   8.699  12.379  1.00  0.00    -0.000 C 
BRANCH  19  20
ATOM     20  C   UNL     1      -2.535  10.139  12.847  1.00  0.00    -0.000 C 
BRANCH  20  21
ATOM     21  C   UNL     1      -2.267  10.245  14.351  1.00  0.00    -0.003 C 
ATOM     22  C   UNL     1      -0.919  10.890  14.630  1.00  0.00     0.004 C 
ENDBRANCH  20  21
ENDBRANCH  19  20
ENDBRANCH  18  19
ENDBRANCH  17  18
ENDBRANCH  16  17
ENDBRANCH  12  16
ENDBRANCH   9  12
ENDBRANCH   6   9
ENDBRANCH   3   5
ENDBRANCH   2   3
BRANCH   2  23
ATOM     23  N   UNL     1       1.643   6.233   4.053  1.00  0.00    -0.332 N 
ATOM     24  C   UNL     1       2.876   5.578   4.464  1.00  0.00     0.147 C 
BRANCH  23  25
ATOM     25  C   UNL     1       1.674   6.826   2.688  1.00  0.00     0.174 C 
BRANCH  25  26
ATOM     26  C   UNL     1       2.341   5.901   1.644  1.00  0.00     0.038 C 
BRANCH  26  27
ATOM     27  C   UNL     1       1.434   5.337   0.527  1.00  0.00    -0.015 C 
ATOM     28  C   UNL     1      -0.051   5.439   0.873  1.00  0.00     0.007 C 
ATOM     29  C   UNL     1       1.709   5.948  -0.844  1.00  0.00     0.007 C 
ENDBRANCH  26  27
ENDBRANCH  25  26
BRANCH  25  30
ATOM     30  C   UNL     1       2.282   8.247   2.739  1.00  0.00     0.243 C 
ATOM     31  O   UNL     1       1.851   9.112   3.499  1.00  0.00    -0.273 OA
ATOM     32  N   UNL     1       3.325   8.476   1.879  1.00  0.00    -0.342 N 
ATOM     33  H   UNL     1       3.717   7.671   1.384  1.00  0.00     0.164 HD
BRANCH  32  34
ATOM     34  C   UNL     1       4.006   9.769   1.771  1.00  0.00     0.175 C 
BRANCH  34  35
ATOM     35  C   UNL     1       5.277   9.806   2.633  1.00  0.00     0.070 C 
BRANCH  35  36
ATOM     36  C   UNL     1       5.054  10.466   3.975  1.00  0.00    -0.045 A 
ATOM     37  C   UNL     1       5.558   9.872   5.142  1.00  0.00     0.007 A 
ATOM     38  C   UNL     1       4.327  11.660   4.077  1.00  0.00     0.007 A 
ATOM     39  C   UNL     1       5.346  10.467   6.386  1.00  0.00     0.046 A 
ATOM     40  C   UNL     1       4.113  12.255   5.323  1.00  0.00     0.046 A 
ATOM     41  C   UNL     1       4.626  11.652   6.467  1.00  0.00     0.115 A 
BRANCH  41  42
ATOM     42  O   UNL     1       4.438  12.199   7.702  1.00  0.00    -0.508 OA
ATOM     43  H   UNL     1       4.523  13.164   7.624  1.00  0.00     0.293 HD
ENDBRANCH  41  42
ENDBRANCH  35  36
ENDBRANCH  34  35
BRANCH  34  44
ATOM     44  C   UNL     1       4.313  10.025   0.278  1.00  0.00     0.243 C 
ATOM     45  O   UNL     1       3.976  11.033  -0.337  1.00  0.00    -0.273 OA
ATOM     46  N   UNL     1       4.898   8.948  -0.354  1.00  0.00    -0.341 N 
ATOM     47  H   UNL     1       5.052   8.091   0.171  1.00  0.00     0.164 HD
BRANCH  46  48
ATOM     48  C   UNL     1       5.220   8.930  -1.783  1.00  0.00     0.196 C 
BRANCH  48  49
ATOM     49  C   UNL     1       6.584   8.269  -2.041  1.00  0.00     0.072 C 
BRANCH  49  50
ATOM     50  C   UNL     1       7.694   9.278  -2.225  1.00  0.00    -0.045 A 
ATOM     51  C   UNL     1       7.382  10.625  -2.459  1.00  0.00     0.007 A 
ATOM     52  C   UNL     1       9.038   8.887  -2.187  1.00  0.00     0.007 A 
ATOM     53  C   UNL     1       8.398  11.564  -2.644  1.00  0.00     0.046 A 
ATOM     54  C   UNL     1      10.055   9.826  -2.373  1.00  0.00     0.046 A 
ATOM     55  C   UNL     1       9.726  11.158  -2.599  1.00  0.00     0.115 A 
BRANCH  55  56
ATOM     56  O   UNL     1      10.688  12.105  -2.786  1.00  0.00    -0.508 OA
ATOM     57  H   UNL     1      11.316  12.054  -2.048  1.00  0.00     0.293 HD
ENDBRANCH  55  56
ENDBRANCH  49  50
ENDBRANCH  48  49
BRANCH  48  58
ATOM     58  C   UNL     1       4.124   8.159  -2.531  1.00  0.00     0.326 C 
ATOM     59  O   UNL     1       3.013   8.562  -2.837  1.00  0.00    -0.250 OA
BRANCH  58  60
ATOM     60  O   UNL     1       4.490   6.899  -2.879  1.00  0.00    -0.480 OA
ATOM     61  H   UNL     1       3.631   6.448  -3.032  1.00  0.00     0.296 HD
ENDBRANCH  58  60
ENDBRANCH  48  58
ENDBRANCH  46  48
ENDBRANCH  34  44
ENDBRANCH  32  34
ENDBRANCH  25  30
ENDBRANCH  23  25
ENDBRANCH   2  23
TORSDOF 28
ENDMDL
MODEL 45
REMARK VINA RESULT:    -5.866      3.426      7.887
REMARK INTER + INTRA:         -18.654
REMARK INTER:                 -14.832
REMARK INTRA:                  -3.822
REMARK UNBOUND:                -4.043
REMARK SMILES CCCCCCC[C@H](N)[C@H](O)C(=O)N[C@H](C)C(=O)N(C)[C@H](CC(C)C)C(=O)N[C@@H](Cc1ccc(O)cc1)C(=O)N[C@@H](Cc1ccc(O)cc1)C(=O)O
REMARK SMILES IDX 18 1 17 2 15 3 16 4 14 5 12 6 13 7 10 9 11 10 8 12 9 13 7 16
REMARK SMILES IDX 6 17 5 18 4 19 3 20 2 21 1 22 19 23 20 24 21 25 22 26 23 27
REMARK SMILES IDX 24 28 25 29 26 30 27 31 28 32 29 34 30 35 31 36 32 37 37 38
REMARK SMILES IDX 33 39 36 40 34 41 35 42 38 44 39 45 40 46 41 48 42 49 43 50
REMARK SMILES IDX 44 51 49 52 45 53 48 54 46 55 47 56 50 58 51 59 52 60
REMARK H PARENT 14 8 11 11 9 14 9 15 28 33 35 43 40 47 47 57 52 61
ROOT
ATOM      1  O   UNL     1       2.760   9.609   3.045  1.00  0.00    -0.272 OA
ATOM      2  C   UNL     1       2.768  10.327   4.056  1.00  0.00     0.245 C 
ENDROOT
BRANCH   2   3
ATOM      3  C   UNL     1       1.587  10.217   5.052  1.00  0.00     0.168 C 
ATOM      4  C   UNL     1       0.585  11.346   4.831  1.00  0.00     0.041 C 
BRANCH   3   5
ATOM      5  N   UNL     1       0.938   8.916   5.089  1.00  0.00    -0.342 N 
ATOM      6  C   UNL     1       0.890   8.159   6.240  1.00  0.00     0.251 C 
ATOM      7  O   UNL     1       1.418   8.497   7.295  1.00  0.00    -0.272 OA
ATOM      8  H   UNL     1       0.495   8.514   4.266  1.00  0.00     0.164 HD
BRANCH   6   9
ATOM      9  C   UNL     1       0.034   6.892   6.083  1.00  0.00     0.219 C 
BRANCH   9  10
ATOM     10  O   UNL     1      -1.277   7.170   5.576  1.00  0.00    -0.382 OA
ATOM     11  H   UNL     1      -1.560   6.314   5.186  1.00  0.00     0.211 HD
ENDBRANCH   9  10
BRANCH   9  12
ATOM     12  C   UNL     1       0.728   5.789   5.242  1.00  0.00     0.089 C 
BRANCH  12  13
ATOM     13  N   UNL     1       0.432   6.037   3.812  1.00  0.00    -0.325 NA
ATOM     14  H   UNL     1      -0.310   6.735   3.739  1.00  0.00     0.119 HD
ATOM     15  H   UNL     1       0.039   5.186   3.403  1.00  0.00     0.119 HD
ENDBRANCH  12  13
BRANCH  12  16
ATOM     16  C   UNL     1       2.253   5.635   5.451  1.00  0.00     0.022 C 
BRANCH  16  17
ATOM     17  C   UNL     1       2.888   4.243   5.322  1.00  0.00     0.002 C 
BRANCH  17  18
ATOM     18  C   UNL     1       3.516   3.701   6.604  1.00  0.00     0.000 C 
BRANCH  18  19
ATOM     19  C   UNL     1       4.544   2.585   6.373  1.00  0.00    -0.000 C 
BRANCH  19  20
ATOM     20  C   UNL     1       4.038   1.394   5.554  1.00  0.00    -0.000 C 
BRANCH  20  21
ATOM     21  C   UNL     1       4.598   0.054   6.037  1.00  0.00    -0.003 C 
ATOM     22  C   UNL     1       4.048  -0.316   7.406  1.00  0.00     0.004 C 
ENDBRANCH  20  21
ENDBRANCH  19  20
ENDBRANCH  18  19
ENDBRANCH  17  18
ENDBRANCH  16  17
ENDBRANCH  12  16
ENDBRANCH   9  12
ENDBRANCH   6   9
ENDBRANCH   3   5
ENDBRANCH   2   3
BRANCH   2  23
ATOM     23  N   UNL     1       3.877  11.118   4.338  1.00  0.00    -0.332 N 
ATOM     24  C   UNL     1       3.848  12.313   5.168  1.00  0.00     0.147 C 
BRANCH  23  25
ATOM     25  C   UNL     1       5.233  10.697   3.892  1.00  0.00     0.174 C 
BRANCH  25  26
ATOM     26  C   UNL     1       6.368  11.376   4.694  1.00  0.00     0.038 C 
BRANCH  26  27
ATOM     27  C   UNL     1       7.774  11.378   4.053  1.00  0.00    -0.015 C 
ATOM     28  C   UNL     1       8.284  12.791   3.770  1.00  0.00     0.007 C 
ATOM     29  C   UNL     1       8.806  10.583   4.848  1.00  0.00     0.007 C 
ENDBRANCH  26  27
ENDBRANCH  25  26
BRANCH  25  30
ATOM     30  C   UNL     1       5.366  10.867   2.361  1.00  0.00     0.243 C 
ATOM     31  O   UNL     1       5.214  11.958   1.813  1.00  0.00    -0.273 OA
ATOM     32  N   UNL     1       5.657   9.725   1.661  1.00  0.00    -0.342 N 
ATOM     33  H   UNL     1       5.908   8.891   2.198  1.00  0.00     0.164 HD
BRANCH  32  34
ATOM     34  C   UNL     1       5.793   9.692   0.202  1.00  0.00     0.175 C 
BRANCH  34  35
ATOM     35  C   UNL     1       7.056   8.927  -0.225  1.00  0.00     0.070 C 
BRANCH  35  36
ATOM     36  C   UNL     1       7.971   9.751  -1.102  1.00  0.00    -0.045 A 
ATOM     37  C   UNL     1       7.593  11.046  -1.489  1.00  0.00     0.007 A 
ATOM     38  C   UNL     1       9.189   9.231  -1.559  1.00  0.00     0.007 A 
ATOM     39  C   UNL     1       8.424  11.809  -2.310  1.00  0.00     0.046 A 
ATOM     40  C   UNL     1      10.021   9.994  -2.382  1.00  0.00     0.046 A 
ATOM     41  C   UNL     1       9.631  11.277  -2.749  1.00  0.00     0.115 A 
BRANCH  41  42
ATOM     42  O   UNL     1      10.413  12.054  -3.552  1.00  0.00    -0.508 OA
ATOM     43  H   UNL     1      10.992  12.591  -2.986  1.00  0.00     0.293 HD
ENDBRANCH  41  42
ENDBRANCH  35  36
ENDBRANCH  34  35
BRANCH  34  44
ATOM     44  C   UNL     1       4.510   9.062  -0.384  1.00  0.00     0.243 C 
ATOM     45  O   UNL     1       3.756   9.628  -1.170  1.00  0.00    -0.273 OA
ATOM     46  N   UNL     1       4.206   7.831   0.159  1.00  0.00    -0.341 N 
ATOM     47  H   UNL     1       4.800   7.455   0.893  1.00  0.00     0.164 HD
BRANCH  46  48
ATOM     48  C   UNL     1       3.003   7.072  -0.191  1.00  0.00     0.196 C 
BRANCH  48  49
ATOM     49  C   UNL     1       3.279   6.080  -1.333  1.00  0.00     0.072 C 
BRANCH  49  50
ATOM     50  C   UNL     1       2.793   6.586  -2.673  1.00  0.00    -0.045 A 
ATOM     51  C   UNL     1       3.717   7.031  -3.629  1.00  0.00     0.007 A 
ATOM     52  C   UNL     1       1.425   6.638  -2.970  1.00  0.00     0.007 A 
ATOM     53  C   UNL     1       3.280   7.512  -4.863  1.00  0.00     0.046 A 
ATOM     54  C   UNL     1       0.987   7.121  -4.205  1.00  0.00     0.046 A 
ATOM     55  C   UNL     1       1.919   7.553  -5.142  1.00  0.00     0.115 A 
BRANCH  55  56
ATOM     56  O   UNL     1       1.533   8.032  -6.359  1.00  0.00    -0.508 OA
ATOM     57  H   UNL     1       1.855   7.425  -7.044  1.00  0.00     0.293 HD
ENDBRANCH  55  56
ENDBRANCH  49  50
ENDBRANCH  48  49
BRANCH  48  58
ATOM     58  C   UNL     1       2.518   6.307   1.049  1.00  0.00     0.326 C 
ATOM     59  O   UNL     1       2.957   6.387   2.185  1.00  0.00    -0.250 OA
BRANCH  58  60
ATOM     60  O   UNL     1       1.477   5.474   0.798  1.00  0.00    -0.480 OA
ATOM     61  H   UNL     1       1.678   4.688   1.351  1.00  0.00     0.296 HD
ENDBRANCH  58  60
ENDBRANCH  48  58
ENDBRANCH  46  48
ENDBRANCH  34  44
ENDBRANCH  32  34
ENDBRANCH  25  30
ENDBRANCH  23  25
ENDBRANCH   2  23
TORSDOF 28
ENDMDL
MODEL 46
REMARK VINA RESULT:    -5.852     12.087     16.840
REMARK INTER + INTRA:         -18.618
REMARK INTER:                 -11.390
REMARK INTRA:                  -7.228
REMARK UNBOUND:                -4.043
REMARK SMILES CCCCCCC[C@H](N)[C@H](O)C(=O)N[C@H](C)C(=O)N(C)[C@H](CC(C)C)C(=O)N[C@@H](Cc1ccc(O)cc1)C(=O)N[C@@H](Cc1ccc(O)cc1)C(=O)O
REMARK SMILES IDX 18 1 17 2 15 3 16 4 14 5 12 6 13 7 10 9 11 10 8 12 9 13 7 16
REMARK SMILES IDX 6 17 5 18 4 19 3 20 2 21 1 22 19 23 20 24 21 25 22 26 23 27
REMARK SMILES IDX 24 28 25 29 26 30 27 31 28 32 29 34 30 35 31 36 32 37 37 38
REMARK SMILES IDX 33 39 36 40 34 41 35 42 38 44 39 45 40 46 41 48 42 49 43 50
REMARK SMILES IDX 44 51 49 52 45 53 48 54 46 55 47 56 50 58 51 59 52 60
REMARK H PARENT 14 8 11 11 9 14 9 15 28 33 35 43 40 47 47 57 52 61
ROOT
ATOM      1  O   UNL     1       3.079  -6.370   8.040  1.00  0.00    -0.272 OA
ATOM      2  C   UNL     1       3.656  -6.530   9.126  1.00  0.00     0.245 C 
ENDROOT
BRANCH   2   3
ATOM      3  C   UNL     1       5.193  -6.343   9.183  1.00  0.00     0.168 C 
ATOM      4  C   UNL     1       5.889  -7.282   8.204  1.00  0.00     0.041 C 
BRANCH   3   5
ATOM      5  N   UNL     1       5.647  -4.970   9.033  1.00  0.00    -0.342 N 
ATOM      6  C   UNL     1       5.899  -4.163  10.123  1.00  0.00     0.251 C 
ATOM      7  O   UNL     1       5.722  -4.520  11.283  1.00  0.00    -0.272 OA
ATOM      8  H   UNL     1       5.797  -4.551   8.118  1.00  0.00     0.164 HD
BRANCH   6   9
ATOM      9  C   UNL     1       6.504  -2.806   9.731  1.00  0.00     0.219 C 
BRANCH   9  10
ATOM     10  O   UNL     1       7.404  -2.902   8.621  1.00  0.00    -0.382 OA
ATOM     11  H   UNL     1       8.233  -2.499   8.960  1.00  0.00     0.211 HD
ENDBRANCH   9  10
BRANCH   9  12
ATOM     12  C   UNL     1       5.433  -1.712   9.480  1.00  0.00     0.089 C 
BRANCH  12  13
ATOM     13  N   UNL     1       4.100  -2.285   9.776  1.00  0.00    -0.325 NA
ATOM     14  H   UNL     1       3.453  -1.529  10.007  1.00  0.00     0.119 HD
ATOM     15  H   UNL     1       4.165  -2.850  10.626  1.00  0.00     0.119 HD
ENDBRANCH  12  13
BRANCH  12  16
ATOM     16  C   UNL     1       5.625  -0.385  10.253  1.00  0.00     0.022 C 
BRANCH  16  17
ATOM     17  C   UNL     1       4.752   0.824   9.890  1.00  0.00     0.002 C 
BRANCH  17  18
ATOM     18  C   UNL     1       5.501   1.989   9.245  1.00  0.00     0.000 C 
BRANCH  18  19
ATOM     19  C   UNL     1       5.994   1.703   7.821  1.00  0.00    -0.000 C 
BRANCH  19  20
ATOM     20  C   UNL     1       6.750   2.854   7.151  1.00  0.00    -0.000 C 
BRANCH  20  21
ATOM     21  C   UNL     1       8.215   2.519   6.858  1.00  0.00    -0.003 C 
ATOM     22  C   UNL     1       8.567   1.116   7.325  1.00  0.00     0.004 C 
ENDBRANCH  20  21
ENDBRANCH  19  20
ENDBRANCH  18  19
ENDBRANCH  17  18
ENDBRANCH  16  17
ENDBRANCH  12  16
ENDBRANCH   9  12
ENDBRANCH   6   9
ENDBRANCH   3   5
ENDBRANCH   2   3
BRANCH   2  23
ATOM     23  N   UNL     1       2.914  -6.751  10.281  1.00  0.00    -0.332 N 
ATOM     24  C   UNL     1       2.684  -8.058  10.878  1.00  0.00     0.147 C 
BRANCH  23  25
ATOM     25  C   UNL     1       2.399  -5.601  11.074  1.00  0.00     0.174 C 
BRANCH  25  26
ATOM     26  C   UNL     1       2.107  -5.969  12.548  1.00  0.00     0.038 C 
BRANCH  26  27
ATOM     27  C   UNL     1       1.044  -5.121  13.283  1.00  0.00    -0.015 C 
ATOM     28  C   UNL     1      -0.056  -5.978  13.910  1.00  0.00     0.007 C 
ATOM     29  C   UNL     1       1.637  -4.168  14.317  1.00  0.00     0.007 C 
ENDBRANCH  26  27
ENDBRANCH  25  26
BRANCH  25  30
ATOM     30  C   UNL     1       1.202  -4.947  10.347  1.00  0.00     0.243 C 
ATOM     31  O   UNL     1       0.186  -5.581  10.067  1.00  0.00    -0.273 OA
ATOM     32  N   UNL     1       1.352  -3.621  10.032  1.00  0.00    -0.342 N 
ATOM     33  H   UNL     1       2.161  -3.130  10.422  1.00  0.00     0.164 HD
BRANCH  32  34
ATOM     34  C   UNL     1       0.333  -2.846   9.320  1.00  0.00     0.175 C 
BRANCH  34  35
ATOM     35  C   UNL     1      -0.037  -1.568  10.089  1.00  0.00     0.070 C 
BRANCH  35  36
ATOM     36  C   UNL     1      -0.666  -1.856  11.433  1.00  0.00    -0.045 A 
ATOM     37  C   UNL     1      -0.265  -1.131  12.566  1.00  0.00     0.007 A 
ATOM     38  C   UNL     1      -1.634  -2.859  11.574  1.00  0.00     0.007 A 
ATOM     39  C   UNL     1      -0.829  -1.400  13.813  1.00  0.00     0.046 A 
ATOM     40  C   UNL     1      -2.199  -3.129  12.823  1.00  0.00     0.046 A 
ATOM     41  C   UNL     1      -1.791  -2.395  13.932  1.00  0.00     0.115 A 
BRANCH  41  42
ATOM     42  O   UNL     1      -2.316  -2.628  15.169  1.00  0.00    -0.508 OA
ATOM     43  H   UNL     1      -2.578  -1.775  15.554  1.00  0.00     0.293 HD
ENDBRANCH  41  42
ENDBRANCH  35  36
ENDBRANCH  34  35
BRANCH  34  44
ATOM     44  C   UNL     1       0.871  -2.533   7.905  1.00  0.00     0.243 C 
ATOM     45  O   UNL     1       0.292  -1.829   7.082  1.00  0.00    -0.273 OA
ATOM     46  N   UNL     1       2.019  -3.228   7.589  1.00  0.00    -0.341 N 
ATOM     47  H   UNL     1       2.397  -3.890   8.262  1.00  0.00     0.164 HD
BRANCH  46  48
ATOM     48  C   UNL     1       2.676  -3.147   6.282  1.00  0.00     0.196 C 
BRANCH  48  49
ATOM     49  C   UNL     1       4.193  -3.365   6.404  1.00  0.00     0.072 C 
BRANCH  49  50
ATOM     50  C   UNL     1       4.994  -2.254   5.764  1.00  0.00    -0.045 A 
ATOM     51  C   UNL     1       4.407  -0.996   5.563  1.00  0.00     0.007 A 
ATOM     52  C   UNL     1       6.314  -2.464   5.347  1.00  0.00     0.007 A 
ATOM     53  C   UNL     1       5.131   0.033   4.962  1.00  0.00     0.046 A 
ATOM     54  C   UNL     1       7.040  -1.434   4.745  1.00  0.00     0.046 A 
ATOM     55  C   UNL     1       6.441  -0.192   4.558  1.00  0.00     0.115 A 
BRANCH  55  56
ATOM     56  O   UNL     1       7.114   0.839   3.973  1.00  0.00    -0.508 OA
ATOM     57  H   UNL     1       6.474   1.530   3.742  1.00  0.00     0.293 HD
ENDBRANCH  55  56
ENDBRANCH  49  50
ENDBRANCH  48  49
BRANCH  48  58
ATOM     58  C   UNL     1       2.075  -4.212   5.355  1.00  0.00     0.326 C 
ATOM     59  O   UNL     1       1.070  -4.114   4.669  1.00  0.00    -0.250 OA
BRANCH  58  60
ATOM     60  O   UNL     1       2.788  -5.367   5.323  1.00  0.00    -0.480 OA
ATOM     61  H   UNL     1       3.709  -5.059   5.180  1.00  0.00     0.296 HD
ENDBRANCH  58  60
ENDBRANCH  48  58
ENDBRANCH  46  48
ENDBRANCH  34  44
ENDBRANCH  32  34
ENDBRANCH  25  30
ENDBRANCH  23  25
ENDBRANCH   2  23
TORSDOF 28
ENDMDL
MODEL 47
REMARK VINA RESULT:    -5.850      4.124      8.636
REMARK INTER + INTRA:         -18.612
REMARK INTER:                 -12.886
REMARK INTRA:                  -5.726
REMARK UNBOUND:                -4.043
REMARK SMILES CCCCCCC[C@H](N)[C@H](O)C(=O)N[C@H](C)C(=O)N(C)[C@H](CC(C)C)C(=O)N[C@@H](Cc1ccc(O)cc1)C(=O)N[C@@H](Cc1ccc(O)cc1)C(=O)O
REMARK SMILES IDX 18 1 17 2 15 3 16 4 14 5 12 6 13 7 10 9 11 10 8 12 9 13 7 16
REMARK SMILES IDX 6 17 5 18 4 19 3 20 2 21 1 22 19 23 20 24 21 25 22 26 23 27
REMARK SMILES IDX 24 28 25 29 26 30 27 31 28 32 29 34 30 35 31 36 32 37 37 38
REMARK SMILES IDX 33 39 36 40 34 41 35 42 38 44 39 45 40 46 41 48 42 49 43 50
REMARK SMILES IDX 44 51 49 52 45 53 48 54 46 55 47 56 50 58 51 59 52 60
REMARK H PARENT 14 8 11 11 9 14 9 15 28 33 35 43 40 47 47 57 52 61
ROOT
ATOM      1  O   UNL     1       2.146  11.578   8.269  1.00  0.00    -0.272 OA
ATOM      2  C   UNL     1       2.224  11.357   7.051  1.00  0.00     0.245 C 
ENDROOT
BRANCH   2   3
ATOM      3  C   UNL     1       1.056  10.613   6.357  1.00  0.00     0.168 C 
ATOM      4  C   UNL     1       0.662  11.314   5.061  1.00  0.00     0.041 C 
BRANCH   3   5
ATOM      5  N   UNL     1       1.269   9.188   6.160  1.00  0.00    -0.342 N 
ATOM      6  C   UNL     1       1.192   8.289   7.203  1.00  0.00     0.251 C 
ATOM      7  O   UNL     1       0.983   8.619   8.365  1.00  0.00    -0.272 OA
ATOM      8  H   UNL     1       1.485   8.800   5.244  1.00  0.00     0.164 HD
BRANCH   6   9
ATOM      9  C   UNL     1       1.311   6.829   6.738  1.00  0.00     0.219 C 
BRANCH   9  10
ATOM     10  O   UNL     1       0.386   6.504   5.693  1.00  0.00    -0.382 OA
ATOM     11  H   UNL     1       0.837   6.822   4.879  1.00  0.00     0.211 HD
ENDBRANCH   9  10
BRANCH   9  12
ATOM     12  C   UNL     1       2.756   6.432   6.338  1.00  0.00     0.089 C 
BRANCH  12  13
ATOM     13  N   UNL     1       3.649   7.581   6.612  1.00  0.00    -0.325 NA
ATOM     14  H   UNL     1       3.139   8.450   6.444  1.00  0.00     0.119 HD
ATOM     15  H   UNL     1       4.408   7.581   5.928  1.00  0.00     0.119 HD
ENDBRANCH  12  13
BRANCH  12  16
ATOM     16  C   UNL     1       3.317   5.152   7.004  1.00  0.00     0.022 C 
BRANCH  16  17
ATOM     17  C   UNL     1       3.229   3.819   6.249  1.00  0.00     0.002 C 
BRANCH  17  18
ATOM     18  C   UNL     1       4.419   2.884   6.452  1.00  0.00     0.000 C 
BRANCH  18  19
ATOM     19  C   UNL     1       4.088   1.398   6.257  1.00  0.00    -0.000 C 
BRANCH  19  20
ATOM     20  C   UNL     1       5.173   0.577   5.554  1.00  0.00    -0.000 C 
BRANCH  20  21
ATOM     21  C   UNL     1       5.248  -0.868   6.054  1.00  0.00    -0.003 C 
ATOM     22  C   UNL     1       5.057  -1.859   4.917  1.00  0.00     0.004 C 
ENDBRANCH  20  21
ENDBRANCH  19  20
ENDBRANCH  18  19
ENDBRANCH  17  18
ENDBRANCH  16  17
ENDBRANCH  12  16
ENDBRANCH   9  12
ENDBRANCH   6   9
ENDBRANCH   3   5
ENDBRANCH   2   3
BRANCH   2  23
ATOM     23  N   UNL     1       3.283  11.878   6.316  1.00  0.00    -0.332 N 
ATOM     24  C   UNL     1       3.502  13.297   6.076  1.00  0.00     0.147 C 
BRANCH  23  25
ATOM     25  C   UNL     1       4.365  10.984   5.821  1.00  0.00     0.174 C 
BRANCH  25  26
ATOM     26  C   UNL     1       5.780  11.491   6.186  1.00  0.00     0.038 C 
BRANCH  26  27
ATOM     27  C   UNL     1       6.464  10.838   7.407  1.00  0.00    -0.015 C 
ATOM     28  C   UNL     1       7.973  11.083   7.433  1.00  0.00     0.007 C 
ATOM     29  C   UNL     1       5.833  11.233   8.740  1.00  0.00     0.007 C 
ENDBRANCH  26  27
ENDBRANCH  25  26
BRANCH  25  30
ATOM     30  C   UNL     1       4.175  10.705   4.312  1.00  0.00     0.243 C 
ATOM     31  O   UNL     1       4.412  11.558   3.458  1.00  0.00    -0.273 OA
ATOM     32  N   UNL     1       3.722   9.451   3.993  1.00  0.00    -0.342 N 
ATOM     33  H   UNL     1       3.685   8.756   4.743  1.00  0.00     0.164 HD
BRANCH  32  34
ATOM     34  C   UNL     1       3.459   9.019   2.618  1.00  0.00     0.175 C 
BRANCH  34  35
ATOM     35  C   UNL     1       4.673   8.291   2.019  1.00  0.00     0.070 C 
BRANCH  35  36
ATOM     36  C   UNL     1       5.189   8.952   0.761  1.00  0.00    -0.045 A 
ATOM     37  C   UNL     1       6.476   8.654   0.289  1.00  0.00     0.007 A 
ATOM     38  C   UNL     1       4.406   9.882   0.065  1.00  0.00     0.007 A 
ATOM     39  C   UNL     1       6.967   9.269  -0.863  1.00  0.00     0.046 A 
ATOM     40  C   UNL     1       4.897  10.500  -1.088  1.00  0.00     0.046 A 
ATOM     41  C   UNL     1       6.174  10.186  -1.543  1.00  0.00     0.115 A 
BRANCH  41  42
ATOM     42  O   UNL     1       6.692  10.767  -2.662  1.00  0.00    -0.508 OA
ATOM     43  H   UNL     1       6.066  10.630  -3.393  1.00  0.00     0.293 HD
ENDBRANCH  41  42
ENDBRANCH  35  36
ENDBRANCH  34  35
BRANCH  34  44
ATOM     44  C   UNL     1       2.198   8.126   2.629  1.00  0.00     0.243 C 
ATOM     45  O   UNL     1       1.279   8.233   3.437  1.00  0.00    -0.273 OA
ATOM     46  N   UNL     1       2.249   7.092   1.718  1.00  0.00    -0.341 N 
ATOM     47  H   UNL     1       3.085   6.975   1.151  1.00  0.00     0.164 HD
BRANCH  46  48
ATOM     48  C   UNL     1       1.201   6.077   1.592  1.00  0.00     0.196 C 
BRANCH  48  49
ATOM     49  C   UNL     1       1.384   5.240   0.315  1.00  0.00     0.072 C 
BRANCH  49  50
ATOM     50  C   UNL     1       2.212   5.949  -0.732  1.00  0.00    -0.045 A 
ATOM     51  C   UNL     1       3.589   5.698  -0.822  1.00  0.00     0.007 A 
ATOM     52  C   UNL     1       1.629   6.874  -1.607  1.00  0.00     0.007 A 
ATOM     53  C   UNL     1       4.366   6.356  -1.776  1.00  0.00     0.046 A 
ATOM     54  C   UNL     1       2.407   7.534  -2.561  1.00  0.00     0.046 A 
ATOM     55  C   UNL     1       3.770   7.269  -2.638  1.00  0.00     0.115 A 
BRANCH  55  56
ATOM     56  O   UNL     1       4.564   7.892  -3.554  1.00  0.00    -0.508 OA
ATOM     57  H   UNL     1       5.165   8.490  -3.081  1.00  0.00     0.293 HD
ENDBRANCH  55  56
ENDBRANCH  49  50
ENDBRANCH  48  49
BRANCH  48  58
ATOM     58  C   UNL     1       1.246   5.158   2.821  1.00  0.00     0.326 C 
ATOM     59  O   UNL     1       0.308   4.817   3.523  1.00  0.00    -0.250 OA
BRANCH  58  60
ATOM     60  O   UNL     1       2.488   4.691   3.103  1.00  0.00    -0.480 OA
ATOM     61  H   UNL     1       2.987   5.504   3.336  1.00  0.00     0.296 HD
ENDBRANCH  58  60
ENDBRANCH  48  58
ENDBRANCH  46  48
ENDBRANCH  34  44
ENDBRANCH  32  34
ENDBRANCH  25  30
ENDBRANCH  23  25
ENDBRANCH   2  23
TORSDOF 28
ENDMDL
MODEL 48
REMARK VINA RESULT:    -5.821      2.485      8.294
REMARK INTER + INTRA:         -18.541
REMARK INTER:                 -13.618
REMARK INTRA:                  -4.923
REMARK UNBOUND:                -4.043
REMARK SMILES CCCCCCC[C@H](N)[C@H](O)C(=O)N[C@H](C)C(=O)N(C)[C@H](CC(C)C)C(=O)N[C@@H](Cc1ccc(O)cc1)C(=O)N[C@@H](Cc1ccc(O)cc1)C(=O)O
REMARK SMILES IDX 18 1 17 2 15 3 16 4 14 5 12 6 13 7 10 9 11 10 8 12 9 13 7 16
REMARK SMILES IDX 6 17 5 18 4 19 3 20 2 21 1 22 19 23 20 24 21 25 22 26 23 27
REMARK SMILES IDX 24 28 25 29 26 30 27 31 28 32 29 34 30 35 31 36 32 37 37 38
REMARK SMILES IDX 33 39 36 40 34 41 35 42 38 44 39 45 40 46 41 48 42 49 43 50
REMARK SMILES IDX 44 51 49 52 45 53 48 54 46 55 47 56 50 58 51 59 52 60
REMARK H PARENT 14 8 11 11 9 14 9 15 28 33 35 43 40 47 47 57 52 61
ROOT
ATOM      1  O   UNL     1       5.100   8.814   2.006  1.00  0.00    -0.272 OA
ATOM      2  C   UNL     1       5.579   9.952   2.123  1.00  0.00     0.245 C 
ENDROOT
BRANCH   2   3
ATOM      3  C   UNL     1       6.915  10.118   2.888  1.00  0.00     0.168 C 
ATOM      4  C   UNL     1       6.694  10.836   4.215  1.00  0.00     0.041 C 
BRANCH   3   5
ATOM      5  N   UNL     1       7.679   8.891   3.056  1.00  0.00    -0.342 N 
ATOM      6  C   UNL     1       8.980   8.778   2.614  1.00  0.00     0.251 C 
ATOM      7  O   UNL     1       9.572   9.671   2.016  1.00  0.00    -0.272 OA
ATOM      8  H   UNL     1       7.283   8.070   3.507  1.00  0.00     0.164 HD
BRANCH   6   9
ATOM      9  C   UNL     1       9.634   7.449   3.025  1.00  0.00     0.219 C 
BRANCH   9  10
ATOM     10  O   UNL     1       8.857   6.725   3.986  1.00  0.00    -0.382 OA
ATOM     11  H   UNL     1       9.483   6.583   4.730  1.00  0.00     0.211 HD
ENDBRANCH   9  10
BRANCH   9  12
ATOM     12  C   UNL     1       9.992   6.547   1.815  1.00  0.00     0.089 C 
BRANCH  12  13
ATOM     13  N   UNL     1       9.274   7.055   0.624  1.00  0.00    -0.325 NA
ATOM     14  H   UNL     1       8.999   6.266   0.036  1.00  0.00     0.119 HD
ATOM     15  H   UNL     1       9.924   7.600   0.053  1.00  0.00     0.119 HD
ENDBRANCH  12  13
BRANCH  12  16
ATOM     16  C   UNL     1      11.501   6.399   1.503  1.00  0.00     0.022 C 
BRANCH  16  17
ATOM     17  C   UNL     1      12.221   7.524   0.748  1.00  0.00     0.002 C 
BRANCH  17  18
ATOM     18  C   UNL     1      13.253   8.294   1.569  1.00  0.00     0.000 C 
BRANCH  18  19
ATOM     19  C   UNL     1      13.486   7.722   2.974  1.00  0.00    -0.000 C 
BRANCH  19  20
ATOM     20  C   UNL     1      14.832   7.020   3.174  1.00  0.00    -0.000 C 
BRANCH  20  21
ATOM     21  C   UNL     1      14.744   5.808   4.106  1.00  0.00    -0.003 C 
ATOM     22  C   UNL     1      14.207   4.587   3.376  1.00  0.00     0.004 C 
ENDBRANCH  20  21
ENDBRANCH  19  20
ENDBRANCH  18  19
ENDBRANCH  17  18
ENDBRANCH  16  17
ENDBRANCH  12  16
ENDBRANCH   9  12
ENDBRANCH   6   9
ENDBRANCH   3   5
ENDBRANCH   2   3
BRANCH   2  23
ATOM     23  N   UNL     1       4.984  11.028   1.472  1.00  0.00    -0.332 N 
ATOM     24  C   UNL     1       3.657  11.544   1.774  1.00  0.00     0.147 C 
BRANCH  23  25
ATOM     25  C   UNL     1       5.754  11.822   0.476  1.00  0.00     0.174 C 
BRANCH  25  26
ATOM     26  C   UNL     1       5.268  13.286   0.368  1.00  0.00     0.038 C 
BRANCH  26  27
ATOM     27  C   UNL     1       6.319  14.392   0.607  1.00  0.00    -0.015 C 
ATOM     28  C   UNL     1       6.745  14.488   2.072  1.00  0.00     0.007 C 
ATOM     29  C   UNL     1       7.541  14.275  -0.301  1.00  0.00     0.007 C 
ENDBRANCH  26  27
ENDBRANCH  25  26
BRANCH  25  30
ATOM     30  C   UNL     1       5.795  11.079  -0.879  1.00  0.00     0.243 C 
ATOM     31  O   UNL     1       4.990  11.320  -1.777  1.00  0.00    -0.273 OA
ATOM     32  N   UNL     1       6.781  10.134  -1.008  1.00  0.00    -0.342 N 
ATOM     33  H   UNL     1       7.495  10.092  -0.276  1.00  0.00     0.164 HD
BRANCH  32  34
ATOM     34  C   UNL     1       6.954   9.315  -2.210  1.00  0.00     0.175 C 
BRANCH  34  35
ATOM     35  C   UNL     1       8.393   8.791  -2.327  1.00  0.00     0.070 C 
BRANCH  35  36
ATOM     36  C   UNL     1       9.426   9.890  -2.222  1.00  0.00    -0.045 A 
ATOM     37  C   UNL     1      10.572   9.703  -1.434  1.00  0.00     0.007 A 
ATOM     38  C   UNL     1       9.247  11.111  -2.885  1.00  0.00     0.007 A 
ATOM     39  C   UNL     1      11.524  10.716  -1.319  1.00  0.00     0.046 A 
ATOM     40  C   UNL     1      10.199  12.127  -2.770  1.00  0.00     0.046 A 
ATOM     41  C   UNL     1      11.331  11.919  -1.988  1.00  0.00     0.115 A 
BRANCH  41  42
ATOM     42  O   UNL     1      12.283  12.885  -1.848  1.00  0.00    -0.508 OA
ATOM     43  H   UNL     1      11.972  13.688  -2.297  1.00  0.00     0.293 HD
ENDBRANCH  41  42
ENDBRANCH  35  36
ENDBRANCH  34  35
BRANCH  34  44
ATOM     44  C   UNL     1       5.923   8.165  -2.158  1.00  0.00     0.243 C 
ATOM     45  O   UNL     1       6.043   7.157  -1.468  1.00  0.00    -0.273 OA
ATOM     46  N   UNL     1       4.897   8.306  -3.069  1.00  0.00    -0.341 N 
ATOM     47  H   UNL     1       4.904   9.102  -3.702  1.00  0.00     0.164 HD
BRANCH  46  48
ATOM     48  C   UNL     1       3.839   7.310  -3.251  1.00  0.00     0.196 C 
BRANCH  48  49
ATOM     49  C   UNL     1       2.515   7.778  -2.624  1.00  0.00     0.072 C 
BRANCH  49  50
ATOM     50  C   UNL     1       2.149   6.992  -1.385  1.00  0.00    -0.045 A 
ATOM     51  C   UNL     1       2.870   7.183  -0.198  1.00  0.00     0.007 A 
ATOM     52  C   UNL     1       1.108   6.055  -1.407  1.00  0.00     0.007 A 
ATOM     53  C   UNL     1       2.550   6.455   0.948  1.00  0.00     0.046 A 
ATOM     54  C   UNL     1       0.788   5.325  -0.260  1.00  0.00     0.046 A 
ATOM     55  C   UNL     1       1.511   5.532   0.909  1.00  0.00     0.115 A 
BRANCH  55  56
ATOM     56  O   UNL     1       1.231   4.840   2.049  1.00  0.00    -0.508 OA
ATOM     57  H   UNL     1       0.359   5.118   2.370  1.00  0.00     0.293 HD
ENDBRANCH  55  56
ENDBRANCH  49  50
ENDBRANCH  48  49
BRANCH  48  58
ATOM     58  C   UNL     1       3.639   7.064  -4.753  1.00  0.00     0.326 C 
ATOM     59  O   UNL     1       4.497   7.048  -5.620  1.00  0.00    -0.250 OA
BRANCH  58  60
ATOM     60  O   UNL     1       2.347   6.830  -5.096  1.00  0.00    -0.480 OA
ATOM     61  H   UNL     1       2.078   6.109  -4.486  1.00  0.00     0.296 HD
ENDBRANCH  58  60
ENDBRANCH  48  58
ENDBRANCH  46  48
ENDBRANCH  34  44
ENDBRANCH  32  34
ENDBRANCH  25  30
ENDBRANCH  23  25
ENDBRANCH   2  23
TORSDOF 28
ENDMDL
MODEL 49
REMARK VINA RESULT:    -5.816      3.336      8.528
REMARK INTER + INTRA:         -18.528
REMARK INTER:                 -12.105
REMARK INTRA:                  -6.423
REMARK UNBOUND:                -4.043
REMARK SMILES CCCCCCC[C@H](N)[C@H](O)C(=O)N[C@H](C)C(=O)N(C)[C@H](CC(C)C)C(=O)N[C@@H](Cc1ccc(O)cc1)C(=O)N[C@@H](Cc1ccc(O)cc1)C(=O)O
REMARK SMILES IDX 18 1 17 2 15 3 16 4 14 5 12 6 13 7 10 9 11 10 8 12 9 13 7 16
REMARK SMILES IDX 6 17 5 18 4 19 3 20 2 21 1 22 19 23 20 24 21 25 22 26 23 27
REMARK SMILES IDX 24 28 25 29 26 30 27 31 28 32 29 34 30 35 31 36 32 37 37 38
REMARK SMILES IDX 33 39 36 40 34 41 35 42 38 44 39 45 40 46 41 48 42 49 43 50
REMARK SMILES IDX 44 51 49 52 45 53 48 54 46 55 47 56 50 58 51 59 52 60
REMARK H PARENT 14 8 11 11 9 14 9 15 28 33 35 43 40 47 47 57 52 61
ROOT
ATOM      1  O   UNL     1       3.894   9.834   2.577  1.00  0.00    -0.272 OA
ATOM      2  C   UNL     1       4.944  10.478   2.440  1.00  0.00     0.245 C 
ENDROOT
BRANCH   2   3
ATOM      3  C   UNL     1       5.811  10.758   3.693  1.00  0.00     0.168 C 
ATOM      4  C   UNL     1       5.123  10.243   4.953  1.00  0.00     0.041 C 
BRANCH   3   5
ATOM      5  N   UNL     1       7.187  10.298   3.600  1.00  0.00    -0.342 N 
ATOM      6  C   UNL     1       8.254  11.143   3.820  1.00  0.00     0.251 C 
ATOM      7  O   UNL     1       8.130  12.338   4.067  1.00  0.00    -0.272 OA
ATOM      8  H   UNL     1       7.416   9.334   3.367  1.00  0.00     0.164 HD
BRANCH   6   9
ATOM      9  C   UNL     1       9.605  10.411   3.809  1.00  0.00     0.219 C 
BRANCH   9  10
ATOM     10  O   UNL     1      10.692  11.261   3.423  1.00  0.00    -0.382 OA
ATOM     11  H   UNL     1      11.486  10.781   3.744  1.00  0.00     0.211 HD
ENDBRANCH   9  10
BRANCH   9  12
ATOM     12  C   UNL     1       9.918   9.690   5.146  1.00  0.00     0.089 C 
BRANCH  12  13
ATOM     13  N   UNL     1       8.890  10.079   6.139  1.00  0.00    -0.325 NA
ATOM     14  H   UNL     1       8.726   9.298   6.776  1.00  0.00     0.119 HD
ATOM     15  H   UNL     1       8.000  10.220   5.655  1.00  0.00     0.119 HD
ENDBRANCH  12  13
BRANCH  12  16
ATOM     16  C   UNL     1      10.033   8.148   5.075  1.00  0.00     0.022 C 
BRANCH  16  17
ATOM     17  C   UNL     1       9.260   7.392   3.987  1.00  0.00     0.002 C 
BRANCH  17  18
ATOM     18  C   UNL     1       8.269   6.351   4.504  1.00  0.00     0.000 C 
BRANCH  18  19
ATOM     19  C   UNL     1       7.037   6.951   5.194  1.00  0.00    -0.000 C 
BRANCH  19  20
ATOM     20  C   UNL     1       6.889   6.603   6.678  1.00  0.00    -0.000 C 
BRANCH  20  21
ATOM     21  C   UNL     1       6.374   7.774   7.520  1.00  0.00    -0.003 C 
ATOM     22  C   UNL     1       5.828   7.297   8.857  1.00  0.00     0.004 C 
ENDBRANCH  20  21
ENDBRANCH  19  20
ENDBRANCH  18  19
ENDBRANCH  17  18
ENDBRANCH  16  17
ENDBRANCH  12  16
ENDBRANCH   9  12
ENDBRANCH   6   9
ENDBRANCH   3   5
ENDBRANCH   2   3
BRANCH   2  23
ATOM     23  N   UNL     1       5.385  10.828   1.168  1.00  0.00    -0.332 N 
ATOM     24  C   UNL     1       5.660  12.189   0.734  1.00  0.00     0.147 C 
BRANCH  23  25
ATOM     25  C   UNL     1       5.734   9.772   0.178  1.00  0.00     0.174 C 
BRANCH  25  26
ATOM     26  C   UNL     1       6.679  10.280  -0.936  1.00  0.00     0.038 C 
BRANCH  26  27
ATOM     27  C   UNL     1       7.357   9.210  -1.821  1.00  0.00    -0.015 C 
ATOM     28  C   UNL     1       8.558   9.762  -2.589  1.00  0.00     0.007 C 
ATOM     29  C   UNL     1       7.742   7.946  -1.058  1.00  0.00     0.007 C 
ENDBRANCH  26  27
ENDBRANCH  25  26
BRANCH  25  30
ATOM     30  C   UNL     1       4.449   9.099  -0.357  1.00  0.00     0.243 C 
ATOM     31  O   UNL     1       3.719   9.652  -1.178  1.00  0.00    -0.273 OA
ATOM     32  N   UNL     1       4.177   7.853   0.147  1.00  0.00    -0.342 N 
ATOM     33  H   UNL     1       4.901   7.404   0.714  1.00  0.00     0.164 HD
BRANCH  32  34
ATOM     34  C   UNL     1       2.990   7.079  -0.225  1.00  0.00     0.175 C 
BRANCH  34  35
ATOM     35  C   UNL     1       3.295   6.108  -1.376  1.00  0.00     0.070 C 
BRANCH  35  36
ATOM     36  C   UNL     1       2.836   6.630  -2.718  1.00  0.00    -0.045 A 
ATOM     37  C   UNL     1       1.467   6.694  -3.016  1.00  0.00     0.007 A 
ATOM     38  C   UNL     1       3.764   7.034  -3.688  1.00  0.00     0.007 A 
ATOM     39  C   UNL     1       1.034   7.161  -4.257  1.00  0.00     0.046 A 
ATOM     40  C   UNL     1       3.332   7.501  -4.931  1.00  0.00     0.046 A 
ATOM     41  C   UNL     1       1.969   7.562  -5.204  1.00  0.00     0.115 A 
BRANCH  41  42
ATOM     42  O   UNL     1       1.505   8.009  -6.406  1.00  0.00    -0.508 OA
ATOM     43  H   UNL     1       0.636   7.607  -6.566  1.00  0.00     0.293 HD
ENDBRANCH  41  42
ENDBRANCH  35  36
ENDBRANCH  34  35
BRANCH  34  44
ATOM     44  C   UNL     1       2.486   6.340   1.036  1.00  0.00     0.243 C 
ATOM     45  O   UNL     1       1.734   5.370   1.017  1.00  0.00    -0.273 OA
ATOM     46  N   UNL     1       2.856   6.952   2.215  1.00  0.00    -0.341 N 
ATOM     47  H   UNL     1       3.382   7.821   2.176  1.00  0.00     0.164 HD
BRANCH  46  48
ATOM     48  C   UNL     1       2.439   6.475   3.535  1.00  0.00     0.196 C 
BRANCH  48  49
ATOM     49  C   UNL     1       3.346   7.034   4.645  1.00  0.00     0.072 C 
BRANCH  49  50
ATOM     50  C   UNL     1       3.184   6.297   5.955  1.00  0.00    -0.045 A 
ATOM     51  C   UNL     1       3.629   4.972   6.072  1.00  0.00     0.007 A 
ATOM     52  C   UNL     1       2.574   6.911   7.056  1.00  0.00     0.007 A 
ATOM     53  C   UNL     1       3.473   4.278   7.271  1.00  0.00     0.046 A 
ATOM     54  C   UNL     1       2.417   6.216   8.257  1.00  0.00     0.046 A 
ATOM     55  C   UNL     1       2.869   4.904   8.355  1.00  0.00     0.115 A 
BRANCH  55  56
ATOM     56  O   UNL     1       2.734   4.191   9.509  1.00  0.00    -0.508 OA
ATOM     57  H   UNL     1       2.804   4.804  10.258  1.00  0.00     0.293 HD
ENDBRANCH  55  56
ENDBRANCH  49  50
ENDBRANCH  48  49
BRANCH  48  58
ATOM     58  C   UNL     1       0.989   6.909   3.789  1.00  0.00     0.326 C 
ATOM     59  O   UNL     1       0.599   8.003   4.164  1.00  0.00    -0.250 OA
BRANCH  58  60
ATOM     60  O   UNL     1       0.080   5.932   3.539  1.00  0.00    -0.480 OA
ATOM     61  H   UNL     1      -0.259   5.706   4.432  1.00  0.00     0.296 HD
ENDBRANCH  58  60
ENDBRANCH  48  58
ENDBRANCH  46  48
ENDBRANCH  34  44
ENDBRANCH  32  34
ENDBRANCH  25  30
ENDBRANCH  23  25
ENDBRANCH   2  23
TORSDOF 28
ENDMDL
MODEL 50
REMARK VINA RESULT:    -5.771      2.810      8.377
REMARK INTER + INTRA:         -18.416
REMARK INTER:                 -13.440
REMARK INTRA:                  -4.976
REMARK UNBOUND:                -4.043
REMARK SMILES CCCCCCC[C@H](N)[C@H](O)C(=O)N[C@H](C)C(=O)N(C)[C@H](CC(C)C)C(=O)N[C@@H](Cc1ccc(O)cc1)C(=O)N[C@@H](Cc1ccc(O)cc1)C(=O)O
REMARK SMILES IDX 18 1 17 2 15 3 16 4 14 5 12 6 13 7 10 9 11 10 8 12 9 13 7 16
REMARK SMILES IDX 6 17 5 18 4 19 3 20 2 21 1 22 19 23 20 24 21 25 22 26 23 27
REMARK SMILES IDX 24 28 25 29 26 30 27 31 28 32 29 34 30 35 31 36 32 37 37 38
REMARK SMILES IDX 33 39 36 40 34 41 35 42 38 44 39 45 40 46 41 48 42 49 43 50
REMARK SMILES IDX 44 51 49 52 45 53 48 54 46 55 47 56 50 58 51 59 52 60
REMARK H PARENT 14 8 11 11 9 14 9 15 28 33 35 43 40 47 47 57 52 61
ROOT
ATOM      1  O   UNL     1       1.938  10.642   5.585  1.00  0.00    -0.272 OA
ATOM      2  C   UNL     1       2.223   9.730   4.795  1.00  0.00     0.245 C 
ENDROOT
BRANCH   2   3
ATOM      3  C   UNL     1       1.124   8.705   4.420  1.00  0.00     0.168 C 
ATOM      4  C   UNL     1      -0.214   9.402   4.200  1.00  0.00     0.041 C 
BRANCH   3   5
ATOM      5  N   UNL     1       1.463   7.822   3.315  1.00  0.00    -0.342 N 
ATOM      6  C   UNL     1       1.746   6.486   3.510  1.00  0.00     0.251 C 
ATOM      7  O   UNL     1       1.774   5.956   4.616  1.00  0.00    -0.272 OA
ATOM      8  H   UNL     1       1.506   8.156   2.355  1.00  0.00     0.164 HD
BRANCH   6   9
ATOM      9  C   UNL     1       1.935   5.720   2.191  1.00  0.00     0.219 C 
BRANCH   9  10
ATOM     10  O   UNL     1       0.794   4.925   1.846  1.00  0.00    -0.382 OA
ATOM     11  H   UNL     1       1.029   4.029   2.174  1.00  0.00     0.211 HD
ENDBRANCH   9  10
BRANCH   9  12
ATOM     12  C   UNL     1       2.348   6.635   1.009  1.00  0.00     0.089 C 
BRANCH  12  13
ATOM     13  N   UNL     1       3.648   7.263   1.336  1.00  0.00    -0.325 NA
ATOM     14  H   UNL     1       4.101   7.568   0.472  1.00  0.00     0.119 HD
ATOM     15  H   UNL     1       4.270   6.552   1.728  1.00  0.00     0.119 HD
ENDBRANCH  12  13
BRANCH  12  16
ATOM     16  C   UNL     1       2.420   5.957  -0.380  1.00  0.00     0.022 C 
BRANCH  16  17
ATOM     17  C   UNL     1       2.292   6.822  -1.641  1.00  0.00     0.002 C 
BRANCH  17  18
ATOM     18  C   UNL     1       3.427   6.662  -2.650  1.00  0.00     0.000 C 
BRANCH  18  19
ATOM     19  C   UNL     1       3.361   7.646  -3.826  1.00  0.00    -0.000 C 
BRANCH  19  20
ATOM     20  C   UNL     1       3.982   7.143  -5.131  1.00  0.00    -0.000 C 
BRANCH  20  21
ATOM     21  C   UNL     1       3.237   7.628  -6.377  1.00  0.00    -0.003 C 
ATOM     22  C   UNL     1       4.189   8.252  -7.385  1.00  0.00     0.004 C 
ENDBRANCH  20  21
ENDBRANCH  19  20
ENDBRANCH  18  19
ENDBRANCH  17  18
ENDBRANCH  16  17
ENDBRANCH  12  16
ENDBRANCH   9  12
ENDBRANCH   6   9
ENDBRANCH   3   5
ENDBRANCH   2   3
BRANCH   2  23
ATOM     23  N   UNL     1       3.467   9.711   4.173  1.00  0.00    -0.332 N 
ATOM     24  C   UNL     1       3.824  10.519   3.016  1.00  0.00     0.147 C 
BRANCH  23  25
ATOM     25  C   UNL     1       4.587   8.924   4.757  1.00  0.00     0.174 C 
BRANCH  25  26
ATOM     26  C   UNL     1       4.529   8.849   6.301  1.00  0.00     0.038 C 
BRANCH  26  27
ATOM     27  C   UNL     1       4.550   7.440   6.935  1.00  0.00    -0.015 C 
ATOM     28  C   UNL     1       3.225   7.083   7.608  1.00  0.00     0.007 C 
ATOM     29  C   UNL     1       4.970   6.342   5.961  1.00  0.00     0.007 C 
ENDBRANCH  26  27
ENDBRANCH  25  26
BRANCH  25  30
ATOM     30  C   UNL     1       5.939   9.436   4.210  1.00  0.00     0.243 C 
ATOM     31  O   UNL     1       6.482  10.444   4.658  1.00  0.00    -0.273 OA
ATOM     32  N   UNL     1       6.486   8.696   3.192  1.00  0.00    -0.342 N 
ATOM     33  H   UNL     1       6.049   7.797   2.973  1.00  0.00     0.164 HD
BRANCH  32  34
ATOM     34  C   UNL     1       7.747   9.047   2.535  1.00  0.00     0.175 C 
BRANCH  34  35
ATOM     35  C   UNL     1       8.546   7.791   2.152  1.00  0.00     0.070 C 
BRANCH  35  36
ATOM     36  C   UNL     1       9.960   8.107   1.720  1.00  0.00    -0.045 A 
ATOM     37  C   UNL     1      10.469   9.405   1.877  1.00  0.00     0.007 A 
ATOM     38  C   UNL     1      10.771   7.122   1.141  1.00  0.00     0.007 A 
ATOM     39  C   UNL     1      11.768   9.709   1.470  1.00  0.00     0.046 A 
ATOM     40  C   UNL     1      12.072   7.426   0.731  1.00  0.00     0.046 A 
ATOM     41  C   UNL     1      12.559   8.718   0.901  1.00  0.00     0.115 A 
BRANCH  41  42
ATOM     42  O   UNL     1      13.821   9.057   0.513  1.00  0.00    -0.508 OA
ATOM     43  H   UNL     1      14.416   8.936   1.272  1.00  0.00     0.293 HD
ENDBRANCH  41  42
ENDBRANCH  35  36
ENDBRANCH  34  35
BRANCH  34  44
ATOM     44  C   UNL     1       7.418   9.919   1.302  1.00  0.00     0.243 C 
ATOM     45  O   UNL     1       7.282  11.139   1.333  1.00  0.00    -0.273 OA
ATOM     46  N   UNL     1       7.157   9.186   0.164  1.00  0.00    -0.341 N 
ATOM     47  H   UNL     1       7.169   8.170   0.218  1.00  0.00     0.164 HD
BRANCH  46  48
ATOM     48  C   UNL     1       6.757   9.789  -1.109  1.00  0.00     0.196 C 
BRANCH  48  49
ATOM     49  C   UNL     1       7.331   9.008  -2.303  1.00  0.00     0.072 C 
BRANCH  49  50
ATOM     50  C   UNL     1       8.840   9.074  -2.371  1.00  0.00    -0.045 A 
ATOM     51  C   UNL     1       9.582   7.903  -2.580  1.00  0.00     0.007 A 
ATOM     52  C   UNL     1       9.516  10.290  -2.206  1.00  0.00     0.007 A 
ATOM     53  C   UNL     1      10.975   7.950  -2.631  1.00  0.00     0.046 A 
ATOM     54  C   UNL     1      10.911  10.336  -2.256  1.00  0.00     0.046 A 
ATOM     55  C   UNL     1      11.629   9.165  -2.469  1.00  0.00     0.115 A 
BRANCH  55  56
ATOM     56  O   UNL     1      12.992   9.167  -2.523  1.00  0.00    -0.508 OA
ATOM     57  H   UNL     1      13.332   9.414  -1.649  1.00  0.00     0.293 HD
ENDBRANCH  55  56
ENDBRANCH  49  50
ENDBRANCH  48  49
BRANCH  48  58
ATOM     58  C   UNL     1       5.224   9.806  -1.193  1.00  0.00     0.326 C 
ATOM     59  O   UNL     1       4.435   9.312  -0.404  1.00  0.00    -0.250 OA
BRANCH  58  60
ATOM     60  O   UNL     1       4.749  10.468  -2.278  1.00  0.00    -0.480 OA
ATOM     61  H   UNL     1       4.845   9.812  -3.003  1.00  0.00     0.296 HD
ENDBRANCH  58  60
ENDBRANCH  48  58
ENDBRANCH  46  48
ENDBRANCH  34  44
ENDBRANCH  32  34
ENDBRANCH  25  30
ENDBRANCH  23  25
ENDBRANCH   2  23
TORSDOF 28
ENDMDL
