MODEL 1
REMARK VINA RESULT:    -6.030      0.000      0.000
REMARK INTER + INTRA:         -20.926
REMARK INTER:                 -15.019
REMARK INTRA:                  -5.907
REMARK UNBOUND:                -5.907
REMARK SMILES CCCCCCC[C@H](N)[C@H](O)C(=O)N[C@H](C)C(=O)N(C)[C@H](CC(C)C)C(=O)N[C@@H](Cc1ccc(O)cc1)C(=O)N[C@@H](Cc1ccc(O)cc1)C(=O)O
REMARK SMILES IDX 18 1 17 2 15 3 16 4 14 5 12 6 13 7 10 9 11 10 8 12 9 13 7 16
REMARK SMILES IDX 6 17 5 18 4 19 3 20 2 21 1 22 19 23 20 24 21 25 22 26 23 27
REMARK SMILES IDX 24 28 25 29 26 30 27 31 28 32 29 34 30 35 31 36 32 37 37 38
REMARK SMILES IDX 33 39 36 40 34 41 35 42 38 44 39 45 40 46 41 48 42 49 43 50
REMARK SMILES IDX 44 51 49 52 45 53 48 54 46 55 47 56 50 58 51 59 52 60
REMARK H PARENT 14 8 11 11 9 14 9 15 28 33 35 43 40 47 47 57 52 61
ROOT
ATOM      1  O   UNL     1      11.671   3.397  -1.039  1.00  0.00    -0.272 OA
ATOM      2  C   UNL     1      10.519   3.037  -1.323  1.00  0.00     0.245 C 
ENDROOT
BRANCH   2   3
ATOM      3  C   UNL     1       9.692   2.287  -0.249  1.00  0.00     0.168 C 
ATOM      4  C   UNL     1       9.764   0.779  -0.464  1.00  0.00     0.041 C 
BRANCH   3   5
ATOM      5  N   UNL     1       9.999   2.653   1.125  1.00  0.00    -0.342 N 
ATOM      6  C   UNL     1       9.344   3.682   1.768  1.00  0.00     0.251 C 
ATOM      7  O   UNL     1       8.495   4.385   1.229  1.00  0.00    -0.272 OA
ATOM      8  H   UNL     1      10.710   2.165   1.664  1.00  0.00     0.164 HD
BRANCH   6   9
ATOM      9  C   UNL     1       9.728   3.796   3.252  1.00  0.00     0.219 C 
BRANCH   9  10
ATOM     10  O   UNL     1       9.676   2.538   3.935  1.00  0.00    -0.382 OA
ATOM     11  H   UNL     1      10.024   2.746   4.830  1.00  0.00     0.211 HD
ENDBRANCH   9  10
BRANCH   9  12
ATOM     12  C   UNL     1      11.099   4.488   3.474  1.00  0.00     0.089 C 
BRANCH  12  13
ATOM     13  N   UNL     1      11.892   4.364   2.230  1.00  0.00    -0.325 NA
ATOM     14  H   UNL     1      12.879   4.254   2.470  1.00  0.00     0.119 HD
ATOM     15  H   UNL     1      11.840   5.247   1.715  1.00  0.00     0.119 HD
ENDBRANCH  12  13
BRANCH  12  16
ATOM     16  C   UNL     1      11.047   5.967   3.927  1.00  0.00     0.022 C 
BRANCH  16  17
ATOM     17  C   UNL     1      10.034   6.914   3.269  1.00  0.00     0.002 C 
BRANCH  17  18
ATOM     18  C   UNL     1      10.507   7.560   1.969  1.00  0.00     0.000 C 
BRANCH  18  19
ATOM     19  C   UNL     1       9.473   8.491   1.322  1.00  0.00    -0.000 C 
BRANCH  19  20
ATOM     20  C   UNL     1       9.673   9.983   1.605  1.00  0.00    -0.000 C 
BRANCH  20  21
ATOM     21  C   UNL     1       9.516  10.338   3.086  1.00  0.00    -0.003 C 
ATOM     22  C   UNL     1       8.062  10.613   3.439  1.00  0.00     0.004 C 
ENDBRANCH  20  21
ENDBRANCH  19  20
ENDBRANCH  18  19
ENDBRANCH  17  18
ENDBRANCH  16  17
ENDBRANCH  12  16
ENDBRANCH   9  12
ENDBRANCH   6   9
ENDBRANCH   3   5
ENDBRANCH   2   3
BRANCH   2  23
ATOM     23  N   UNL     1       9.951   3.412  -2.536  1.00  0.00    -0.332 N 
ATOM     24  C   UNL     1       9.919   2.575  -3.726  1.00  0.00     0.147 C 
BRANCH  23  25
ATOM     25  C   UNL     1       9.204   4.694  -2.651  1.00  0.00     0.174 C 
BRANCH  25  26
ATOM     26  C   UNL     1       9.711   5.776  -1.669  1.00  0.00     0.038 C 
BRANCH  26  27
ATOM     27  C   UNL     1      10.716   6.810  -2.225  1.00  0.00    -0.015 C 
ATOM     28  C   UNL     1      10.083   8.185  -2.436  1.00  0.00     0.007 C 
ATOM     29  C   UNL     1      11.990   6.928  -1.392  1.00  0.00     0.007 C 
ENDBRANCH  26  27
ENDBRANCH  25  26
BRANCH  25  30
ATOM     30  C   UNL     1       7.683   4.434  -2.557  1.00  0.00     0.243 C 
ATOM     31  O   UNL     1       6.963   4.420  -3.554  1.00  0.00    -0.273 OA
ATOM     32  N   UNL     1       7.193   4.226  -1.293  1.00  0.00    -0.342 N 
ATOM     33  H   UNL     1       7.871   4.112  -0.535  1.00  0.00     0.164 HD
BRANCH  32  34
ATOM     34  C   UNL     1       5.774   3.991  -1.012  1.00  0.00     0.175 C 
BRANCH  34  35
ATOM     35  C   UNL     1       5.550   2.604  -0.391  1.00  0.00     0.070 C 
BRANCH  35  36
ATOM     36  C   UNL     1       4.437   1.835  -1.066  1.00  0.00    -0.045 A 
ATOM     37  C   UNL     1       3.515   1.111  -0.294  1.00  0.00     0.007 A 
ATOM     38  C   UNL     1       4.322   1.812  -2.462  1.00  0.00     0.007 A 
ATOM     39  C   UNL     1       2.493   0.387  -0.908  1.00  0.00     0.046 A 
ATOM     40  C   UNL     1       3.300   1.086  -3.078  1.00  0.00     0.046 A 
ATOM     41  C   UNL     1       2.393   0.381  -2.294  1.00  0.00     0.115 A 
BRANCH  41  42
ATOM     42  O   UNL     1       1.382  -0.342  -2.855  1.00  0.00    -0.508 OA
ATOM     43  H   UNL     1       0.538   0.002  -2.517  1.00  0.00     0.293 HD
ENDBRANCH  41  42
ENDBRANCH  35  36
ENDBRANCH  34  35
BRANCH  34  44
ATOM     44  C   UNL     1       5.276   5.125  -0.087  1.00  0.00     0.243 C 
ATOM     45  O   UNL     1       5.092   6.284  -0.448  1.00  0.00    -0.273 OA
ATOM     46  N   UNL     1       5.174   4.750   1.236  1.00  0.00    -0.341 N 
ATOM     47  H   UNL     1       5.450   3.808   1.505  1.00  0.00     0.164 HD
BRANCH  46  48
ATOM     48  C   UNL     1       4.788   5.670   2.307  1.00  0.00     0.196 C 
BRANCH  48  49
ATOM     49  C   UNL     1       4.029   4.939   3.427  1.00  0.00     0.072 C 
BRANCH  49  50
ATOM     50  C   UNL     1       2.634   4.528   3.013  1.00  0.00    -0.045 A 
ATOM     51  C   UNL     1       2.364   3.188   2.701  1.00  0.00     0.007 A 
ATOM     52  C   UNL     1       1.604   5.472   2.913  1.00  0.00     0.007 A 
ATOM     53  C   UNL     1       1.084   2.799   2.305  1.00  0.00     0.046 A 
ATOM     54  C   UNL     1       0.323   5.083   2.515  1.00  0.00     0.046 A 
ATOM     55  C   UNL     1       0.074   3.749   2.215  1.00  0.00     0.115 A 
BRANCH  55  56
ATOM     56  O   UNL     1      -1.163   3.328   1.822  1.00  0.00    -0.508 OA
ATOM     57  H   UNL     1      -1.068   2.467   1.385  1.00  0.00     0.293 HD
ENDBRANCH  55  56
ENDBRANCH  49  50
ENDBRANCH  48  49
BRANCH  48  58
ATOM     58  C   UNL     1       6.051   6.325   2.883  1.00  0.00     0.326 C 
ATOM     59  O   UNL     1       6.416   7.480   2.740  1.00  0.00    -0.250 OA
BRANCH  58  60
ATOM     60  O   UNL     1       6.800   5.482   3.638  1.00  0.00    -0.480 OA
ATOM     61  H   UNL     1       6.562   5.731   4.558  1.00  0.00     0.296 HD
ENDBRANCH  58  60
ENDBRANCH  48  58
ENDBRANCH  46  48
ENDBRANCH  34  44
ENDBRANCH  32  34
ENDBRANCH  25  30
ENDBRANCH  23  25
ENDBRANCH   2  23
TORSDOF 28
ENDMDL
MODEL 2
REMARK VINA RESULT:    -5.802      2.228      7.421
REMARK INTER + INTRA:         -20.357
REMARK INTER:                 -14.971
REMARK INTRA:                  -5.386
REMARK UNBOUND:                -5.907
REMARK SMILES CCCCCCC[C@H](N)[C@H](O)C(=O)N[C@H](C)C(=O)N(C)[C@H](CC(C)C)C(=O)N[C@@H](Cc1ccc(O)cc1)C(=O)N[C@@H](Cc1ccc(O)cc1)C(=O)O
REMARK SMILES IDX 18 1 17 2 15 3 16 4 14 5 12 6 13 7 10 9 11 10 8 12 9 13 7 16
REMARK SMILES IDX 6 17 5 18 4 19 3 20 2 21 1 22 19 23 20 24 21 25 22 26 23 27
REMARK SMILES IDX 24 28 25 29 26 30 27 31 28 32 29 34 30 35 31 36 32 37 37 38
REMARK SMILES IDX 33 39 36 40 34 41 35 42 38 44 39 45 40 46 41 48 42 49 43 50
REMARK SMILES IDX 44 51 49 52 45 53 48 54 46 55 47 56 50 58 51 59 52 60
REMARK H PARENT 14 8 11 11 9 14 9 15 28 33 35 43 40 47 47 57 52 61
ROOT
ATOM      1  O   UNL     1       7.335   0.041  -0.190  1.00  0.00    -0.272 OA
ATOM      2  C   UNL     1       7.923   0.790  -0.984  1.00  0.00     0.245 C 
ENDROOT
BRANCH   2   3
ATOM      3  C   UNL     1       7.278   1.058  -2.367  1.00  0.00     0.168 C 
ATOM      4  C   UNL     1       8.018   0.302  -3.465  1.00  0.00     0.041 C 
BRANCH   3   5
ATOM      5  N   UNL     1       5.842   0.830  -2.425  1.00  0.00    -0.342 N 
ATOM      6  C   UNL     1       4.935   1.811  -2.081  1.00  0.00     0.251 C 
ATOM      7  O   UNL     1       5.261   2.918  -1.666  1.00  0.00    -0.272 OA
ATOM      8  H   UNL     1       5.452  -0.061  -2.722  1.00  0.00     0.164 HD
BRANCH   6   9
ATOM      9  C   UNL     1       3.481   1.397  -2.356  1.00  0.00     0.219 C 
BRANCH   9  10
ATOM     10  O   UNL     1       3.348   0.588  -3.530  1.00  0.00    -0.382 OA
ATOM     11  H   UNL     1       3.002  -0.265  -3.186  1.00  0.00     0.211 HD
ENDBRANCH   9  10
BRANCH   9  12
ATOM     12  C   UNL     1       2.801   0.717  -1.139  1.00  0.00     0.089 C 
BRANCH  12  13
ATOM     13  N   UNL     1       3.845   0.035  -0.341  1.00  0.00    -0.325 NA
ATOM     14  H   UNL     1       3.657  -0.969  -0.328  1.00  0.00     0.119 HD
ATOM     15  H   UNL     1       3.765   0.333   0.634  1.00  0.00     0.119 HD
ENDBRANCH  12  13
BRANCH  12  16
ATOM     16  C   UNL     1       1.956   1.642  -0.229  1.00  0.00     0.022 C 
BRANCH  16  17
ATOM     17  C   UNL     1       2.222   1.648   1.282  1.00  0.00     0.002 C 
BRANCH  17  18
ATOM     18  C   UNL     1       1.151   2.341   2.122  1.00  0.00     0.000 C 
BRANCH  18  19
ATOM     19  C   UNL     1       0.680   3.684   1.549  1.00  0.00    -0.000 C 
BRANCH  19  20
ATOM     20  C   UNL     1      -0.667   4.180   2.080  1.00  0.00    -0.000 C 
BRANCH  20  21
ATOM     21  C   UNL     1      -0.588   5.575   2.708  1.00  0.00    -0.003 C 
ATOM     22  C   UNL     1       0.855   6.006   2.920  1.00  0.00     0.004 C 
ENDBRANCH  20  21
ENDBRANCH  19  20
ENDBRANCH  18  19
ENDBRANCH  17  18
ENDBRANCH  16  17
ENDBRANCH  12  16
ENDBRANCH   9  12
ENDBRANCH   6   9
ENDBRANCH   3   5
ENDBRANCH   2   3
BRANCH   2  23
ATOM     23  N   UNL     1       9.071   1.465  -0.583  1.00  0.00    -0.332 N 
ATOM     24  C   UNL     1      10.429   1.018  -0.854  1.00  0.00     0.147 C 
BRANCH  23  25
ATOM     25  C   UNL     1       8.969   2.802   0.063  1.00  0.00     0.174 C 
BRANCH  25  26
ATOM     26  C   UNL     1       8.027   2.808   1.290  1.00  0.00     0.038 C 
BRANCH  26  27
ATOM     27  C   UNL     1       8.556   3.484   2.575  1.00  0.00    -0.015 C 
ATOM     28  C   UNL     1       9.985   3.059   2.913  1.00  0.00     0.007 C 
ATOM     29  C   UNL     1       8.439   5.006   2.553  1.00  0.00     0.007 C 
ENDBRANCH  26  27
ENDBRANCH  25  26
BRANCH  25  30
ATOM     30  C   UNL     1       8.622   3.878  -0.992  1.00  0.00     0.243 C 
ATOM     31  O   UNL     1       9.209   3.943  -2.071  1.00  0.00    -0.273 OA
ATOM     32  N   UNL     1       7.625   4.752  -0.643  1.00  0.00    -0.342 N 
ATOM     33  H   UNL     1       7.091   4.547   0.206  1.00  0.00     0.164 HD
BRANCH  32  34
ATOM     34  C   UNL     1       7.183   5.851  -1.506  1.00  0.00     0.175 C 
BRANCH  34  35
ATOM     35  C   UNL     1       5.707   6.195  -1.259  1.00  0.00     0.070 C 
BRANCH  35  36
ATOM     36  C   UNL     1       5.291   5.993   0.180  1.00  0.00    -0.045 A 
ATOM     37  C   UNL     1       5.614   6.957   1.147  1.00  0.00     0.007 A 
ATOM     38  C   UNL     1       4.603   4.837   0.574  1.00  0.00     0.007 A 
ATOM     39  C   UNL     1       5.247   6.773   2.480  1.00  0.00     0.046 A 
ATOM     40  C   UNL     1       4.236   4.651   1.909  1.00  0.00     0.046 A 
ATOM     41  C   UNL     1       4.561   5.622   2.850  1.00  0.00     0.115 A 
BRANCH  41  42
ATOM     42  O   UNL     1       4.223   5.479   4.163  1.00  0.00    -0.508 OA
ATOM     43  H   UNL     1       4.885   5.945   4.701  1.00  0.00     0.293 HD
ENDBRANCH  41  42
ENDBRANCH  35  36
ENDBRANCH  34  35
BRANCH  34  44
ATOM     44  C   UNL     1       8.109   7.062  -1.251  1.00  0.00     0.243 C 
ATOM     45  O   UNL     1       7.905   8.194  -1.680  1.00  0.00    -0.273 OA
ATOM     46  N   UNL     1       9.276   6.732  -0.595  1.00  0.00    -0.341 N 
ATOM     47  H   UNL     1       9.454   5.758  -0.363  1.00  0.00     0.164 HD
BRANCH  46  48
ATOM     48  C   UNL     1      10.337   7.698  -0.303  1.00  0.00     0.196 C 
BRANCH  48  49
ATOM     49  C   UNL     1      10.591   7.811   1.209  1.00  0.00     0.072 C 
BRANCH  49  50
ATOM     50  C   UNL     1       9.816   8.942   1.846  1.00  0.00    -0.045 A 
ATOM     51  C   UNL     1       8.938   8.677   2.908  1.00  0.00     0.007 A 
ATOM     52  C   UNL     1       9.942  10.256   1.379  1.00  0.00     0.007 A 
ATOM     53  C   UNL     1       8.207   9.710   3.495  1.00  0.00     0.046 A 
ATOM     54  C   UNL     1       9.210  11.291   1.965  1.00  0.00     0.046 A 
ATOM     55  C   UNL     1       8.349  11.008   3.020  1.00  0.00     0.115 A 
BRANCH  55  56
ATOM     56  O   UNL     1       7.615  11.989   3.620  1.00  0.00    -0.508 OA
ATOM     57  H   UNL     1       7.865  12.028   4.556  1.00  0.00     0.293 HD
ENDBRANCH  55  56
ENDBRANCH  49  50
ENDBRANCH  48  49
BRANCH  48  58
ATOM     58  C   UNL     1      11.626   7.254  -1.009  1.00  0.00     0.326 C 
ATOM     59  O   UNL     1      12.650   7.901  -1.156  1.00  0.00    -0.250 OA
BRANCH  58  60
ATOM     60  O   UNL     1      11.568   5.987  -1.494  1.00  0.00    -0.480 OA
ATOM     61  H   UNL     1      10.965   5.533  -0.867  1.00  0.00     0.296 HD
ENDBRANCH  58  60
ENDBRANCH  48  58
ENDBRANCH  46  48
ENDBRANCH  34  44
ENDBRANCH  32  34
ENDBRANCH  25  30
ENDBRANCH  23  25
ENDBRANCH   2  23
TORSDOF 28
ENDMDL
MODEL 3
REMARK VINA RESULT:    -5.547      2.458      4.789
REMARK INTER + INTRA:         -19.723
REMARK INTER:                 -13.886
REMARK INTRA:                  -5.837
REMARK UNBOUND:                -5.907
REMARK SMILES CCCCCCC[C@H](N)[C@H](O)C(=O)N[C@H](C)C(=O)N(C)[C@H](CC(C)C)C(=O)N[C@@H](Cc1ccc(O)cc1)C(=O)N[C@@H](Cc1ccc(O)cc1)C(=O)O
REMARK SMILES IDX 18 1 17 2 15 3 16 4 14 5 12 6 13 7 10 9 11 10 8 12 9 13 7 16
REMARK SMILES IDX 6 17 5 18 4 19 3 20 2 21 1 22 19 23 20 24 21 25 22 26 23 27
REMARK SMILES IDX 24 28 25 29 26 30 27 31 28 32 29 34 30 35 31 36 32 37 37 38
REMARK SMILES IDX 33 39 36 40 34 41 35 42 38 44 39 45 40 46 41 48 42 49 43 50
REMARK SMILES IDX 44 51 49 52 45 53 48 54 46 55 47 56 50 58 51 59 52 60
REMARK H PARENT 14 8 11 11 9 14 9 15 28 33 35 43 40 47 47 57 52 61
ROOT
ATOM      1  O   UNL     1       5.264   6.013  -2.753  1.00  0.00    -0.272 OA
ATOM      2  C   UNL     1       6.246   6.641  -3.176  1.00  0.00     0.245 C 
ENDROOT
BRANCH   2   3
ATOM      3  C   UNL     1       6.421   8.119  -2.747  1.00  0.00     0.168 C 
ATOM      4  C   UNL     1       5.066   8.781  -2.519  1.00  0.00     0.041 C 
BRANCH   3   5
ATOM      5  N   UNL     1       7.322   8.327  -1.624  1.00  0.00    -0.342 N 
ATOM      6  C   UNL     1       8.664   8.584  -1.806  1.00  0.00     0.251 C 
ATOM      7  O   UNL     1       9.204   8.615  -2.907  1.00  0.00    -0.272 OA
ATOM      8  H   UNL     1       6.996   8.291  -0.661  1.00  0.00     0.164 HD
BRANCH   6   9
ATOM      9  C   UNL     1       9.390   8.911  -0.491  1.00  0.00     0.219 C 
BRANCH   9  10
ATOM     10  O   UNL     1      10.640   8.222  -0.364  1.00  0.00    -0.382 OA
ATOM     11  H   UNL     1      10.381   7.329  -0.046  1.00  0.00     0.211 HD
ENDBRANCH   9  10
BRANCH   9  12
ATOM     12  C   UNL     1       9.574  10.433  -0.259  1.00  0.00     0.089 C 
BRANCH  12  13
ATOM     13  N   UNL     1       8.683  11.159  -1.193  1.00  0.00    -0.325 NA
ATOM     14  H   UNL     1       8.746  10.731  -2.119  1.00  0.00     0.119 HD
ATOM     15  H   UNL     1       9.036  12.111  -1.314  1.00  0.00     0.119 HD
ENDBRANCH  12  13
BRANCH  12  16
ATOM     16  C   UNL     1       9.347  10.931   1.188  1.00  0.00     0.022 C 
BRANCH  16  17
ATOM     17  C   UNL     1       9.653   9.988   2.359  1.00  0.00     0.002 C 
BRANCH  17  18
ATOM     18  C   UNL     1       8.496   9.770   3.331  1.00  0.00     0.000 C 
BRANCH  18  19
ATOM     19  C   UNL     1       7.737   8.454   3.115  1.00  0.00    -0.000 C 
BRANCH  19  20
ATOM     20  C   UNL     1       8.604   7.192   3.137  1.00  0.00    -0.000 C 
BRANCH  20  21
ATOM     21  C   UNL     1       8.494   6.367   1.853  1.00  0.00    -0.003 C 
ATOM     22  C   UNL     1       9.524   5.248   1.823  1.00  0.00     0.004 C 
ENDBRANCH  20  21
ENDBRANCH  19  20
ENDBRANCH  18  19
ENDBRANCH  17  18
ENDBRANCH  16  17
ENDBRANCH  12  16
ENDBRANCH   9  12
ENDBRANCH   6   9
ENDBRANCH   3   5
ENDBRANCH   2   3
BRANCH   2  23
ATOM     23  N   UNL     1       7.224   5.986  -3.916  1.00  0.00    -0.332 N 
ATOM     24  C   UNL     1       7.513   6.248  -5.319  1.00  0.00     0.147 C 
BRANCH  23  25
ATOM     25  C   UNL     1       8.154   5.030  -3.253  1.00  0.00     0.174 C 
BRANCH  25  26
ATOM     26  C   UNL     1       9.419   4.740  -4.094  1.00  0.00     0.038 C 
BRANCH  26  27
ATOM     27  C   UNL     1      10.777   4.809  -3.360  1.00  0.00    -0.015 C 
ATOM     28  C   UNL     1      10.620   5.058  -1.860  1.00  0.00     0.007 C 
ATOM     29  C   UNL     1      11.666   3.593  -3.612  1.00  0.00     0.007 C 
ENDBRANCH  26  27
ENDBRANCH  25  26
BRANCH  25  30
ATOM     30  C   UNL     1       7.389   3.758  -2.822  1.00  0.00     0.243 C 
ATOM     31  O   UNL     1       7.105   2.868  -3.622  1.00  0.00    -0.273 OA
ATOM     32  N   UNL     1       7.046   3.693  -1.496  1.00  0.00    -0.342 N 
ATOM     33  H   UNL     1       7.440   4.400  -0.870  1.00  0.00     0.164 HD
BRANCH  32  34
ATOM     34  C   UNL     1       6.297   2.575  -0.915  1.00  0.00     0.175 C 
BRANCH  34  35
ATOM     35  C   UNL     1       7.170   1.757   0.048  1.00  0.00     0.070 C 
BRANCH  35  36
ATOM     36  C   UNL     1       8.474   1.315  -0.576  1.00  0.00    -0.045 A 
ATOM     37  C   UNL     1       8.475   0.334  -1.580  1.00  0.00     0.007 A 
ATOM     38  C   UNL     1       9.695   1.856  -0.151  1.00  0.00     0.007 A 
ATOM     39  C   UNL     1       9.674  -0.090  -2.152  1.00  0.00     0.046 A 
ATOM     40  C   UNL     1      10.896   1.430  -0.723  1.00  0.00     0.046 A 
ATOM     41  C   UNL     1      10.875   0.461  -1.721  1.00  0.00     0.115 A 
BRANCH  41  42
ATOM     42  O   UNL     1      12.024   0.017  -2.304  1.00  0.00    -0.508 OA
ATOM     43  H   UNL     1      12.047  -0.952  -2.232  1.00  0.00     0.293 HD
ENDBRANCH  41  42
ENDBRANCH  35  36
ENDBRANCH  34  35
BRANCH  34  44
ATOM     44  C   UNL     1       5.046   3.151  -0.214  1.00  0.00     0.243 C 
ATOM     45  O   UNL     1       3.908   2.710  -0.353  1.00  0.00    -0.273 OA
ATOM     46  N   UNL     1       5.298   4.305   0.497  1.00  0.00    -0.341 N 
ATOM     47  H   UNL     1       6.236   4.697   0.486  1.00  0.00     0.164 HD
BRANCH  46  48
ATOM     48  C   UNL     1       4.257   5.068   1.189  1.00  0.00     0.196 C 
BRANCH  48  49
ATOM     49  C   UNL     1       3.824   4.372   2.490  1.00  0.00     0.072 C 
BRANCH  49  50
ATOM     50  C   UNL     1       2.342   4.072   2.524  1.00  0.00    -0.045 A 
ATOM     51  C   UNL     1       1.895   2.747   2.427  1.00  0.00     0.007 A 
ATOM     52  C   UNL     1       1.401   5.104   2.631  1.00  0.00     0.007 A 
ATOM     53  C   UNL     1       0.530   2.460   2.444  1.00  0.00     0.046 A 
ATOM     54  C   UNL     1       0.034   4.816   2.647  1.00  0.00     0.046 A 
ATOM     55  C   UNL     1      -0.390   3.495   2.554  1.00  0.00     0.115 A 
BRANCH  55  56
ATOM     56  O   UNL     1      -1.715   3.173   2.565  1.00  0.00    -0.508 OA
ATOM     57  H   UNL     1      -2.070   3.309   1.672  1.00  0.00     0.293 HD
ENDBRANCH  55  56
ENDBRANCH  49  50
ENDBRANCH  48  49
BRANCH  48  58
ATOM     58  C   UNL     1       4.796   6.470   1.510  1.00  0.00     0.326 C 
ATOM     59  O   UNL     1       5.253   7.283   0.724  1.00  0.00    -0.250 OA
BRANCH  58  60
ATOM     60  O   UNL     1       4.717   6.791   2.826  1.00  0.00    -0.480 OA
ATOM     61  H   UNL     1       5.586   7.209   3.008  1.00  0.00     0.296 HD
ENDBRANCH  58  60
ENDBRANCH  48  58
ENDBRANCH  46  48
ENDBRANCH  34  44
ENDBRANCH  32  34
ENDBRANCH  25  30
ENDBRANCH  23  25
ENDBRANCH   2  23
TORSDOF 28
ENDMDL
MODEL 4
REMARK VINA RESULT:    -5.512      2.416      7.990
REMARK INTER + INTRA:         -19.636
REMARK INTER:                 -14.944
REMARK INTRA:                  -4.692
REMARK UNBOUND:                -5.907
REMARK SMILES CCCCCCC[C@H](N)[C@H](O)C(=O)N[C@H](C)C(=O)N(C)[C@H](CC(C)C)C(=O)N[C@@H](Cc1ccc(O)cc1)C(=O)N[C@@H](Cc1ccc(O)cc1)C(=O)O
REMARK SMILES IDX 18 1 17 2 15 3 16 4 14 5 12 6 13 7 10 9 11 10 8 12 9 13 7 16
REMARK SMILES IDX 6 17 5 18 4 19 3 20 2 21 1 22 19 23 20 24 21 25 22 26 23 27
REMARK SMILES IDX 24 28 25 29 26 30 27 31 28 32 29 34 30 35 31 36 32 37 37 38
REMARK SMILES IDX 33 39 36 40 34 41 35 42 38 44 39 45 40 46 41 48 42 49 43 50
REMARK SMILES IDX 44 51 49 52 45 53 48 54 46 55 47 56 50 58 51 59 52 60
REMARK H PARENT 14 8 11 11 9 14 9 15 28 33 35 43 40 47 47 57 52 61
ROOT
ATOM      1  O   UNL     1       7.514   8.803   3.110  1.00  0.00    -0.272 OA
ATOM      2  C   UNL     1       8.121   7.765   2.806  1.00  0.00     0.245 C 
ENDROOT
BRANCH   2   3
ATOM      3  C   UNL     1       7.299   6.481   2.528  1.00  0.00     0.168 C 
ATOM      4  C   UNL     1       8.071   5.240   2.962  1.00  0.00     0.041 C 
BRANCH   3   5
ATOM      5  N   UNL     1       5.947   6.493   3.064  1.00  0.00    -0.342 N 
ATOM      6  C   UNL     1       4.851   6.201   2.280  1.00  0.00     0.251 C 
ATOM      7  O   UNL     1       4.924   5.954   1.081  1.00  0.00    -0.272 OA
ATOM      8  H   UNL     1       5.758   6.718   4.038  1.00  0.00     0.164 HD
BRANCH   6   9
ATOM      9  C   UNL     1       3.544   6.135   3.086  1.00  0.00     0.219 C 
BRANCH   9  10
ATOM     10  O   UNL     1       2.682   7.251   2.835  1.00  0.00    -0.382 OA
ATOM     11  H   UNL     1       3.229   7.844   2.274  1.00  0.00     0.211 HD
ENDBRANCH   9  10
BRANCH   9  12
ATOM     12  C   UNL     1       2.781   4.797   2.900  1.00  0.00     0.089 C 
BRANCH  12  13
ATOM     13  N   UNL     1       3.175   3.879   3.993  1.00  0.00    -0.325 NA
ATOM     14  H   UNL     1       3.737   4.391   4.676  1.00  0.00     0.119 HD
ATOM     15  H   UNL     1       3.801   3.164   3.615  1.00  0.00     0.119 HD
ENDBRANCH  12  13
BRANCH  12  16
ATOM     16  C   UNL     1       1.239   4.901   2.823  1.00  0.00     0.022 C 
BRANCH  16  17
ATOM     17  C   UNL     1       0.497   4.167   1.698  1.00  0.00     0.002 C 
BRANCH  17  18
ATOM     18  C   UNL     1       0.280   2.674   1.935  1.00  0.00     0.000 C 
BRANCH  18  19
ATOM     19  C   UNL     1       1.495   1.804   1.587  1.00  0.00    -0.000 C 
BRANCH  19  20
ATOM     20  C   UNL     1       1.733   1.590   0.089  1.00  0.00    -0.000 C 
BRANCH  20  21
ATOM     21  C   UNL     1       3.218   1.504  -0.275  1.00  0.00    -0.003 C 
ATOM     22  C   UNL     1       3.950   2.790   0.075  1.00  0.00     0.004 C 
ENDBRANCH  20  21
ENDBRANCH  19  20
ENDBRANCH  18  19
ENDBRANCH  17  18
ENDBRANCH  16  17
ENDBRANCH  12  16
ENDBRANCH   9  12
ENDBRANCH   6   9
ENDBRANCH   3   5
ENDBRANCH   2   3
BRANCH   2  23
ATOM     23  N   UNL     1       9.496   7.797   2.602  1.00  0.00    -0.332 N 
ATOM     24  C   UNL     1      10.491   7.601   3.646  1.00  0.00     0.147 C 
BRANCH  23  25
ATOM     25  C   UNL     1      10.048   7.914   1.224  1.00  0.00     0.174 C 
BRANCH  25  26
ATOM     26  C   UNL     1       9.331   8.991   0.377  1.00  0.00     0.038 C 
BRANCH  26  27
ATOM     27  C   UNL     1       9.953  10.406   0.372  1.00  0.00    -0.015 C 
ATOM     28  C   UNL     1       9.693  11.153  -0.935  1.00  0.00     0.007 C 
ATOM     29  C   UNL     1       9.536  11.257   1.569  1.00  0.00     0.007 C 
ENDBRANCH  26  27
ENDBRANCH  25  26
BRANCH  25  30
ATOM     30  C   UNL     1      10.096   6.523   0.550  1.00  0.00     0.243 C 
ATOM     31  O   UNL     1      10.927   5.675   0.869  1.00  0.00    -0.273 OA
ATOM     32  N   UNL     1       9.157   6.305  -0.425  1.00  0.00    -0.342 N 
ATOM     33  H   UNL     1       8.415   7.001  -0.533  1.00  0.00     0.164 HD
BRANCH  32  34
ATOM     34  C   UNL     1       9.070   5.057  -1.188  1.00  0.00     0.175 C 
BRANCH  34  35
ATOM     35  C   UNL     1       7.614   4.588  -1.329  1.00  0.00     0.070 C 
BRANCH  35  36
ATOM     36  C   UNL     1       7.456   3.099  -1.119  1.00  0.00    -0.045 A 
ATOM     37  C   UNL     1       6.762   2.327  -2.063  1.00  0.00     0.007 A 
ATOM     38  C   UNL     1       7.975   2.475   0.023  1.00  0.00     0.007 A 
ATOM     39  C   UNL     1       6.600   0.955  -1.872  1.00  0.00     0.046 A 
ATOM     40  C   UNL     1       7.811   1.101   0.216  1.00  0.00     0.046 A 
ATOM     41  C   UNL     1       7.125   0.353  -0.735  1.00  0.00     0.115 A 
BRANCH  41  42
ATOM     42  O   UNL     1       6.941  -0.990  -0.584  1.00  0.00    -0.508 OA
ATOM     43  H   UNL     1       6.514  -1.331  -1.387  1.00  0.00     0.293 HD
ENDBRANCH  41  42
ENDBRANCH  35  36
ENDBRANCH  34  35
BRANCH  34  44
ATOM     44  C   UNL     1       9.737   5.289  -2.563  1.00  0.00     0.243 C 
ATOM     45  O   UNL     1      10.509   6.210  -2.813  1.00  0.00    -0.273 OA
ATOM     46  N   UNL     1       9.284   4.433  -3.544  1.00  0.00    -0.341 N 
ATOM     47  H   UNL     1       8.556   3.760  -3.316  1.00  0.00     0.164 HD
BRANCH  46  48
ATOM     48  C   UNL     1       9.720   4.505  -4.941  1.00  0.00     0.196 C 
BRANCH  48  49
ATOM     49  C   UNL     1      10.638   3.325  -5.303  1.00  0.00     0.072 C 
BRANCH  49  50
ATOM     50  C   UNL     1      10.519   2.175  -4.328  1.00  0.00    -0.045 A 
ATOM     51  C   UNL     1      11.389   2.097  -3.230  1.00  0.00     0.007 A 
ATOM     52  C   UNL     1       9.563   1.169  -4.513  1.00  0.00     0.007 A 
ATOM     53  C   UNL     1      11.298   1.034  -2.331  1.00  0.00     0.046 A 
ATOM     54  C   UNL     1       9.472   0.104  -3.613  1.00  0.00     0.046 A 
ATOM     55  C   UNL     1      10.341   0.046  -2.529  1.00  0.00     0.115 A 
BRANCH  55  56
ATOM     56  O   UNL     1      10.286  -0.976  -1.629  1.00  0.00    -0.508 OA
ATOM     57  H   UNL     1       9.361  -1.097  -1.359  1.00  0.00     0.293 HD
ENDBRANCH  55  56
ENDBRANCH  49  50
ENDBRANCH  48  49
BRANCH  48  58
ATOM     58  C   UNL     1       8.484   4.494  -5.851  1.00  0.00     0.326 C 
ATOM     59  O   UNL     1       7.966   3.525  -6.381  1.00  0.00    -0.250 OA
BRANCH  58  60
ATOM     60  O   UNL     1       7.941   5.722  -6.041  1.00  0.00    -0.480 OA
ATOM     61  H   UNL     1       7.713   6.012  -5.131  1.00  0.00     0.296 HD
ENDBRANCH  58  60
ENDBRANCH  48  58
ENDBRANCH  46  48
ENDBRANCH  34  44
ENDBRANCH  32  34
ENDBRANCH  25  30
ENDBRANCH  23  25
ENDBRANCH   2  23
TORSDOF 28
ENDMDL
MODEL 5
REMARK VINA RESULT:    -5.456      2.671      6.651
REMARK INTER + INTRA:         -19.496
REMARK INTER:                 -13.296
REMARK INTRA:                  -6.200
REMARK UNBOUND:                -5.907
REMARK SMILES CCCCCCC[C@H](N)[C@H](O)C(=O)N[C@H](C)C(=O)N(C)[C@H](CC(C)C)C(=O)N[C@@H](Cc1ccc(O)cc1)C(=O)N[C@@H](Cc1ccc(O)cc1)C(=O)O
REMARK SMILES IDX 18 1 17 2 15 3 16 4 14 5 12 6 13 7 10 9 11 10 8 12 9 13 7 16
REMARK SMILES IDX 6 17 5 18 4 19 3 20 2 21 1 22 19 23 20 24 21 25 22 26 23 27
REMARK SMILES IDX 24 28 25 29 26 30 27 31 28 32 29 34 30 35 31 36 32 37 37 38
REMARK SMILES IDX 33 39 36 40 34 41 35 42 38 44 39 45 40 46 41 48 42 49 43 50
REMARK SMILES IDX 44 51 49 52 45 53 48 54 46 55 47 56 50 58 51 59 52 60
REMARK H PARENT 14 8 11 11 9 14 9 15 28 33 35 43 40 47 47 57 52 61
ROOT
ATOM      1  O   UNL     1      10.219   3.461  -0.831  1.00  0.00    -0.272 OA
ATOM      2  C   UNL     1      10.318   4.035   0.263  1.00  0.00     0.245 C 
ENDROOT
BRANCH   2   3
ATOM      3  C   UNL     1      11.549   4.940   0.518  1.00  0.00     0.168 C 
ATOM      4  C   UNL     1      12.760   4.438  -0.262  1.00  0.00     0.041 C 
BRANCH   3   5
ATOM      5  N   UNL     1      11.319   6.360   0.305  1.00  0.00    -0.342 N 
ATOM      6  C   UNL     1      10.921   7.194   1.329  1.00  0.00     0.251 C 
ATOM      7  O   UNL     1      10.694   6.805   2.469  1.00  0.00    -0.272 OA
ATOM      8  H   UNL     1      11.441   6.792  -0.608  1.00  0.00     0.164 HD
BRANCH   6   9
ATOM      9  C   UNL     1      10.878   8.672   0.908  1.00  0.00     0.219 C 
BRANCH   9  10
ATOM     10  O   UNL     1      12.070   9.089   0.230  1.00  0.00    -0.382 OA
ATOM     11  H   UNL     1      12.667   9.362   0.961  1.00  0.00     0.211 HD
ENDBRANCH   9  10
BRANCH   9  12
ATOM     12  C   UNL     1       9.618   9.033   0.079  1.00  0.00     0.089 C 
BRANCH  12  13
ATOM     13  N   UNL     1       9.082  10.319   0.579  1.00  0.00    -0.325 NA
ATOM     14  H   UNL     1       8.253  10.571   0.036  1.00  0.00     0.119 HD
ATOM     15  H   UNL     1       9.762  11.058   0.387  1.00  0.00     0.119 HD
ENDBRANCH  12  13
BRANCH  12  16
ATOM     16  C   UNL     1       9.812   9.098  -1.455  1.00  0.00     0.022 C 
BRANCH  16  17
ATOM     17  C   UNL     1       9.382   7.901  -2.314  1.00  0.00     0.002 C 
BRANCH  17  18
ATOM     18  C   UNL     1       8.504   6.877  -1.599  1.00  0.00     0.000 C 
BRANCH  18  19
ATOM     19  C   UNL     1       7.659   6.011  -2.543  1.00  0.00    -0.000 C 
BRANCH  19  20
ATOM     20  C   UNL     1       6.154   6.018  -2.259  1.00  0.00    -0.000 C 
BRANCH  20  21
ATOM     21  C   UNL     1       5.304   6.107  -3.530  1.00  0.00    -0.003 C 
ATOM     22  C   UNL     1       5.121   4.740  -4.171  1.00  0.00     0.004 C 
ENDBRANCH  20  21
ENDBRANCH  19  20
ENDBRANCH  18  19
ENDBRANCH  17  18
ENDBRANCH  16  17
ENDBRANCH  12  16
ENDBRANCH   9  12
ENDBRANCH   6   9
ENDBRANCH   3   5
ENDBRANCH   2   3
BRANCH   2  23
ATOM     23  N   UNL     1       9.279   3.959   1.185  1.00  0.00    -0.332 N 
ATOM     24  C   UNL     1       9.401   3.401   2.523  1.00  0.00     0.147 C 
BRANCH  23  25
ATOM     25  C   UNL     1       7.961   4.584   0.884  1.00  0.00     0.174 C 
BRANCH  25  26
ATOM     26  C   UNL     1       7.430   5.457   2.045  1.00  0.00     0.038 C 
BRANCH  26  27
ATOM     27  C   UNL     1       6.936   6.876   1.685  1.00  0.00    -0.015 C 
ATOM     28  C   UNL     1       5.431   6.920   1.418  1.00  0.00     0.007 C 
ATOM     29  C   UNL     1       7.331   7.935   2.710  1.00  0.00     0.007 C 
ENDBRANCH  26  27
ENDBRANCH  25  26
BRANCH  25  30
ATOM     30  C   UNL     1       6.958   3.508   0.407  1.00  0.00     0.243 C 
ATOM     31  O   UNL     1       5.779   3.517   0.758  1.00  0.00    -0.273 OA
ATOM     32  N   UNL     1       7.472   2.545  -0.423  1.00  0.00    -0.342 N 
ATOM     33  H   UNL     1       8.420   2.685  -0.781  1.00  0.00     0.164 HD
BRANCH  32  34
ATOM     34  C   UNL     1       6.676   1.434  -0.951  1.00  0.00     0.175 C 
BRANCH  34  35
ATOM     35  C   UNL     1       5.797   1.885  -2.128  1.00  0.00     0.070 C 
BRANCH  35  36
ATOM     36  C   UNL     1       4.368   1.407  -2.008  1.00  0.00    -0.045 A 
ATOM     37  C   UNL     1       3.859   1.025  -0.757  1.00  0.00     0.007 A 
ATOM     38  C   UNL     1       3.542   1.318  -3.136  1.00  0.00     0.007 A 
ATOM     39  C   UNL     1       2.545   0.569  -0.639  1.00  0.00     0.046 A 
ATOM     40  C   UNL     1       2.227   0.861  -3.018  1.00  0.00     0.046 A 
ATOM     41  C   UNL     1       1.740   0.492  -1.769  1.00  0.00     0.115 A 
BRANCH  41  42
ATOM     42  O   UNL     1       0.464   0.039  -1.610  1.00  0.00    -0.508 OA
ATOM     43  H   UNL     1       0.407  -0.852  -1.993  1.00  0.00     0.293 HD
ENDBRANCH  41  42
ENDBRANCH  35  36
ENDBRANCH  34  35
BRANCH  34  44
ATOM     44  C   UNL     1       7.645   0.300  -1.355  1.00  0.00     0.243 C 
ATOM     45  O   UNL     1       7.433  -0.894  -1.166  1.00  0.00    -0.273 OA
ATOM     46  N   UNL     1       8.852   0.757  -1.840  1.00  0.00    -0.341 N 
ATOM     47  H   UNL     1       9.026   1.759  -1.869  1.00  0.00     0.164 HD
BRANCH  46  48
ATOM     48  C   UNL     1       9.954  -0.128  -2.224  1.00  0.00     0.196 C 
BRANCH  48  49
ATOM     49  C   UNL     1      10.411   0.140  -3.667  1.00  0.00     0.072 C 
BRANCH  49  50
ATOM     50  C   UNL     1       9.776   1.378  -4.258  1.00  0.00    -0.045 A 
ATOM     51  C   UNL     1      10.429   2.615  -4.155  1.00  0.00     0.007 A 
ATOM     52  C   UNL     1       8.529   1.316  -4.893  1.00  0.00     0.007 A 
ATOM     53  C   UNL     1       9.846   3.767  -4.685  1.00  0.00     0.046 A 
ATOM     54  C   UNL     1       7.945   2.469  -5.422  1.00  0.00     0.046 A 
ATOM     55  C   UNL     1       8.610   3.685  -5.315  1.00  0.00     0.115 A 
BRANCH  55  56
ATOM     56  O   UNL     1       8.074   4.834  -5.817  1.00  0.00    -0.508 OA
ATOM     57  H   UNL     1       7.169   4.646  -6.113  1.00  0.00     0.293 HD
ENDBRANCH  55  56
ENDBRANCH  49  50
ENDBRANCH  48  49
BRANCH  48  58
ATOM     58  C   UNL     1      11.129   0.092  -1.262  1.00  0.00     0.326 C 
ATOM     59  O   UNL     1      11.208  -0.265  -0.097  1.00  0.00    -0.250 OA
BRANCH  58  60
ATOM     60  O   UNL     1      12.175   0.748  -1.825  1.00  0.00    -0.480 OA
ATOM     61  H   UNL     1      12.738   0.022  -2.171  1.00  0.00     0.296 HD
ENDBRANCH  58  60
ENDBRANCH  48  58
ENDBRANCH  46  48
ENDBRANCH  34  44
ENDBRANCH  32  34
ENDBRANCH  25  30
ENDBRANCH  23  25
ENDBRANCH   2  23
TORSDOF 28
ENDMDL
MODEL 6
REMARK VINA RESULT:    -5.430      3.092      7.972
REMARK INTER + INTRA:         -19.431
REMARK INTER:                 -15.996
REMARK INTRA:                  -3.435
REMARK UNBOUND:                -5.907
REMARK SMILES CCCCCCC[C@H](N)[C@H](O)C(=O)N[C@H](C)C(=O)N(C)[C@H](CC(C)C)C(=O)N[C@@H](Cc1ccc(O)cc1)C(=O)N[C@@H](Cc1ccc(O)cc1)C(=O)O
REMARK SMILES IDX 18 1 17 2 15 3 16 4 14 5 12 6 13 7 10 9 11 10 8 12 9 13 7 16
REMARK SMILES IDX 6 17 5 18 4 19 3 20 2 21 1 22 19 23 20 24 21 25 22 26 23 27
REMARK SMILES IDX 24 28 25 29 26 30 27 31 28 32 29 34 30 35 31 36 32 37 37 38
REMARK SMILES IDX 33 39 36 40 34 41 35 42 38 44 39 45 40 46 41 48 42 49 43 50
REMARK SMILES IDX 44 51 49 52 45 53 48 54 46 55 47 56 50 58 51 59 52 60
REMARK H PARENT 14 8 11 11 9 14 9 15 28 33 35 43 40 47 47 57 52 61
ROOT
ATOM      1  O   UNL     1      11.226   3.007  -0.216  1.00  0.00    -0.272 OA
ATOM      2  C   UNL     1      11.136   3.275  -1.423  1.00  0.00     0.245 C 
ENDROOT
BRANCH   2   3
ATOM      3  C   UNL     1      11.091   2.108  -2.440  1.00  0.00     0.168 C 
ATOM      4  C   UNL     1      12.178   1.083  -2.136  1.00  0.00     0.041 C 
BRANCH   3   5
ATOM      5  N   UNL     1       9.787   1.484  -2.598  1.00  0.00    -0.342 N 
ATOM      6  C   UNL     1       9.483   0.273  -2.012  1.00  0.00     0.251 C 
ATOM      7  O   UNL     1      10.288  -0.382  -1.357  1.00  0.00    -0.272 OA
ATOM      8  H   UNL     1       9.048   1.916  -3.148  1.00  0.00     0.164 HD
BRANCH   6   9
ATOM      9  C   UNL     1       8.009  -0.122  -2.193  1.00  0.00     0.219 C 
BRANCH   9  10
ATOM     10  O   UNL     1       7.853  -1.382  -2.858  1.00  0.00    -0.382 OA
ATOM     11  H   UNL     1       8.362  -2.005  -2.294  1.00  0.00     0.211 HD
ENDBRANCH   9  10
BRANCH   9  12
ATOM     12  C   UNL     1       7.203  -0.095  -0.868  1.00  0.00     0.089 C 
BRANCH  12  13
ATOM     13  N   UNL     1       8.091   0.400   0.208  1.00  0.00    -0.325 NA
ATOM     14  H   UNL     1       8.329   1.377   0.026  1.00  0.00     0.119 HD
ATOM     15  H   UNL     1       8.980  -0.104   0.162  1.00  0.00     0.119 HD
ENDBRANCH  12  13
BRANCH  12  16
ATOM     16  C   UNL     1       5.889   0.722  -0.891  1.00  0.00     0.022 C 
BRANCH  16  17
ATOM     17  C   UNL     1       5.875   2.131  -0.283  1.00  0.00     0.002 C 
BRANCH  17  18
ATOM     18  C   UNL     1       4.500   2.792  -0.220  1.00  0.00     0.000 C 
BRANCH  18  19
ATOM     19  C   UNL     1       4.459   4.070   0.629  1.00  0.00    -0.000 C 
BRANCH  19  20
ATOM     20  C   UNL     1       3.379   4.095   1.714  1.00  0.00    -0.000 C 
BRANCH  20  21
ATOM     21  C   UNL     1       2.308   3.019   1.519  1.00  0.00    -0.003 C 
ATOM     22  C   UNL     1       0.933   3.523   1.931  1.00  0.00     0.004 C 
ENDBRANCH  20  21
ENDBRANCH  19  20
ENDBRANCH  18  19
ENDBRANCH  17  18
ENDBRANCH  16  17
ENDBRANCH  12  16
ENDBRANCH   9  12
ENDBRANCH   6   9
ENDBRANCH   3   5
ENDBRANCH   2   3
BRANCH   2  23
ATOM     23  N   UNL     1      10.954   4.592  -1.831  1.00  0.00    -0.332 N 
ATOM     24  C   UNL     1      11.691   5.231  -2.911  1.00  0.00     0.147 C 
BRANCH  23  25
ATOM     25  C   UNL     1       9.863   5.417  -1.243  1.00  0.00     0.174 C 
BRANCH  25  26
ATOM     26  C   UNL     1       8.659   5.591  -2.198  1.00  0.00     0.038 C 
BRANCH  26  27
ATOM     27  C   UNL     1       7.261   5.257  -1.629  1.00  0.00    -0.015 C 
ATOM     28  C   UNL     1       6.721   6.361  -0.721  1.00  0.00     0.007 C 
ATOM     29  C   UNL     1       6.239   4.896  -2.704  1.00  0.00     0.007 C 
ENDBRANCH  26  27
ENDBRANCH  25  26
BRANCH  25  30
ATOM     30  C   UNL     1      10.433   6.753  -0.713  1.00  0.00     0.243 C 
ATOM     31  O   UNL     1      11.551   6.827  -0.204  1.00  0.00    -0.273 OA
ATOM     32  N   UNL     1       9.610   7.842  -0.841  1.00  0.00    -0.342 N 
ATOM     33  H   UNL     1       8.759   7.730  -1.400  1.00  0.00     0.164 HD
BRANCH  32  34
ATOM     34  C   UNL     1       9.972   9.181  -0.370  1.00  0.00     0.175 C 
BRANCH  34  35
ATOM     35  C   UNL     1       9.052  10.254  -0.973  1.00  0.00     0.070 C 
BRANCH  35  36
ATOM     36  C   UNL     1       9.772  11.554  -1.250  1.00  0.00    -0.045 A 
ATOM     37  C   UNL     1       9.498  12.688  -0.472  1.00  0.00     0.007 A 
ATOM     38  C   UNL     1      10.700  11.653  -2.295  1.00  0.00     0.007 A 
ATOM     39  C   UNL     1      10.147  13.896  -0.729  1.00  0.00     0.046 A 
ATOM     40  C   UNL     1      11.350  12.862  -2.554  1.00  0.00     0.046 A 
ATOM     41  C   UNL     1      11.068  13.973  -1.767  1.00  0.00     0.115 A 
BRANCH  41  42
ATOM     42  O   UNL     1      11.679  15.172  -1.987  1.00  0.00    -0.508 OA
ATOM     43  H   UNL     1      11.235  15.844  -1.443  1.00  0.00     0.293 HD
ENDBRANCH  41  42
ENDBRANCH  35  36
ENDBRANCH  34  35
BRANCH  34  44
ATOM     44  C   UNL     1       9.918   9.176   1.174  1.00  0.00     0.243 C 
ATOM     45  O   UNL     1      10.907   9.163   1.903  1.00  0.00    -0.273 OA
ATOM     46  N   UNL     1       8.641   9.055   1.679  1.00  0.00    -0.341 N 
ATOM     47  H   UNL     1       7.862   8.952   1.032  1.00  0.00     0.164 HD
BRANCH  46  48
ATOM     48  C   UNL     1       8.345   8.960   3.110  1.00  0.00     0.196 C 
BRANCH  48  49
ATOM     49  C   UNL     1       9.259   7.936   3.804  1.00  0.00     0.072 C 
BRANCH  49  50
ATOM     50  C   UNL     1       9.098   6.540   3.245  1.00  0.00    -0.045 A 
ATOM     51  C   UNL     1      10.231   5.761   2.973  1.00  0.00     0.007 A 
ATOM     52  C   UNL     1       7.828   6.015   2.972  1.00  0.00     0.007 A 
ATOM     53  C   UNL     1      10.096   4.477   2.445  1.00  0.00     0.046 A 
ATOM     54  C   UNL     1       7.692   4.730   2.443  1.00  0.00     0.046 A 
ATOM     55  C   UNL     1       8.828   3.971   2.184  1.00  0.00     0.115 A 
BRANCH  55  56
ATOM     56  O   UNL     1       8.739   2.713   1.667  1.00  0.00    -0.508 OA
ATOM     57  H   UNL     1       8.797   2.775   0.700  1.00  0.00     0.293 HD
ENDBRANCH  55  56
ENDBRANCH  49  50
ENDBRANCH  48  49
BRANCH  48  58
ATOM     58  C   UNL     1       8.539  10.341   3.752  1.00  0.00     0.326 C 
ATOM     59  O   UNL     1       9.431  10.685   4.510  1.00  0.00    -0.250 OA
BRANCH  58  60
ATOM     60  O   UNL     1       7.592  11.243   3.392  1.00  0.00    -0.480 OA
ATOM     61  H   UNL     1       8.103  11.926   2.907  1.00  0.00     0.296 HD
ENDBRANCH  58  60
ENDBRANCH  48  58
ENDBRANCH  46  48
ENDBRANCH  34  44
ENDBRANCH  32  34
ENDBRANCH  25  30
ENDBRANCH  23  25
ENDBRANCH   2  23
TORSDOF 28
ENDMDL
MODEL 7
REMARK VINA RESULT:    -5.266      3.362      7.817
REMARK INTER + INTRA:         -19.024
REMARK INTER:                 -12.920
REMARK INTRA:                  -6.103
REMARK UNBOUND:                -5.907
REMARK SMILES CCCCCCC[C@H](N)[C@H](O)C(=O)N[C@H](C)C(=O)N(C)[C@H](CC(C)C)C(=O)N[C@@H](Cc1ccc(O)cc1)C(=O)N[C@@H](Cc1ccc(O)cc1)C(=O)O
REMARK SMILES IDX 18 1 17 2 15 3 16 4 14 5 12 6 13 7 10 9 11 10 8 12 9 13 7 16
REMARK SMILES IDX 6 17 5 18 4 19 3 20 2 21 1 22 19 23 20 24 21 25 22 26 23 27
REMARK SMILES IDX 24 28 25 29 26 30 27 31 28 32 29 34 30 35 31 36 32 37 37 38
REMARK SMILES IDX 33 39 36 40 34 41 35 42 38 44 39 45 40 46 41 48 42 49 43 50
REMARK SMILES IDX 44 51 49 52 45 53 48 54 46 55 47 56 50 58 51 59 52 60
REMARK H PARENT 14 8 11 11 9 14 9 15 28 33 35 43 40 47 47 57 52 61
ROOT
ATOM      1  O   UNL     1       3.257   2.471  -6.697  1.00  0.00    -0.272 OA
ATOM      2  C   UNL     1       3.749   2.489  -5.559  1.00  0.00     0.245 C 
ENDROOT
BRANCH   2   3
ATOM      3  C   UNL     1       2.926   3.113  -4.405  1.00  0.00     0.168 C 
ATOM      4  C   UNL     1       1.595   3.651  -4.919  1.00  0.00     0.041 C 
BRANCH   3   5
ATOM      5  N   UNL     1       2.751   2.254  -3.244  1.00  0.00    -0.342 N 
ATOM      6  C   UNL     1       2.114   1.034  -3.331  1.00  0.00     0.251 C 
ATOM      7  O   UNL     1       1.616   0.603  -4.366  1.00  0.00    -0.272 OA
ATOM      8  H   UNL     1       3.092   2.520  -2.323  1.00  0.00     0.164 HD
BRANCH   6   9
ATOM      9  C   UNL     1       2.171   0.238  -2.017  1.00  0.00     0.219 C 
BRANCH   9  10
ATOM     10  O   UNL     1       3.426   0.379  -1.340  1.00  0.00    -0.382 OA
ATOM     11  H   UNL     1       4.068   0.518  -2.071  1.00  0.00     0.211 HD
ENDBRANCH   9  10
BRANCH   9  12
ATOM     12  C   UNL     1       0.992   0.555  -1.061  1.00  0.00     0.089 C 
BRANCH  12  13
ATOM     13  N   UNL     1       0.917   2.023  -0.881  1.00  0.00    -0.325 NA
ATOM     14  H   UNL     1       1.166   2.482  -1.760  1.00  0.00     0.119 HD
ATOM     15  H   UNL     1       1.638   2.312  -0.216  1.00  0.00     0.119 HD
ENDBRANCH  12  13
BRANCH  12  16
ATOM     16  C   UNL     1      -0.390   0.001  -1.482  1.00  0.00     0.022 C 
BRANCH  16  17
ATOM     17  C   UNL     1      -1.661   0.670  -0.941  1.00  0.00     0.002 C 
BRANCH  17  18
ATOM     18  C   UNL     1      -2.420   1.526  -1.953  1.00  0.00     0.000 C 
BRANCH  18  19
ATOM     19  C   UNL     1      -1.901   1.400  -3.391  1.00  0.00    -0.000 C 
BRANCH  19  20
ATOM     20  C   UNL     1      -1.993   2.678  -4.230  1.00  0.00    -0.000 C 
BRANCH  20  21
ATOM     21  C   UNL     1      -2.575   3.863  -3.455  1.00  0.00    -0.003 C 
ATOM     22  C   UNL     1      -1.476   4.775  -2.930  1.00  0.00     0.004 C 
ENDBRANCH  20  21
ENDBRANCH  19  20
ENDBRANCH  18  19
ENDBRANCH  17  18
ENDBRANCH  16  17
ENDBRANCH  12  16
ENDBRANCH   9  12
ENDBRANCH   6   9
ENDBRANCH   3   5
ENDBRANCH   2   3
BRANCH   2  23
ATOM     23  N   UNL     1       4.960   1.849  -5.314  1.00  0.00    -0.332 N 
ATOM     24  C   UNL     1       5.356   0.578  -5.904  1.00  0.00     0.147 C 
BRANCH  23  25
ATOM     25  C   UNL     1       6.012   2.517  -4.501  1.00  0.00     0.174 C 
BRANCH  25  26
ATOM     26  C   UNL     1       7.411   2.458  -5.159  1.00  0.00     0.038 C 
BRANCH  26  27
ATOM     27  C   UNL     1       8.590   2.024  -4.260  1.00  0.00    -0.015 C 
ATOM     28  C   UNL     1       9.055   0.598  -4.552  1.00  0.00     0.007 C 
ATOM     29  C   UNL     1       9.770   2.993  -4.297  1.00  0.00     0.007 C 
ENDBRANCH  26  27
ENDBRANCH  25  26
BRANCH  25  30
ATOM     30  C   UNL     1       5.985   1.982  -3.051  1.00  0.00     0.243 C 
ATOM     31  O   UNL     1       5.799   0.792  -2.801  1.00  0.00    -0.273 OA
ATOM     32  N   UNL     1       6.174   2.919  -2.068  1.00  0.00    -0.342 N 
ATOM     33  H   UNL     1       6.462   3.858  -2.358  1.00  0.00     0.164 HD
BRANCH  32  34
ATOM     34  C   UNL     1       6.152   2.598  -0.639  1.00  0.00     0.175 C 
BRANCH  34  35
ATOM     35  C   UNL     1       7.436   3.072   0.060  1.00  0.00     0.070 C 
BRANCH  35  36
ATOM     36  C   UNL     1       8.660   2.302  -0.383  1.00  0.00    -0.045 A 
ATOM     37  C   UNL     1       9.873   2.975  -0.595  1.00  0.00     0.007 A 
ATOM     38  C   UNL     1       8.598   0.921  -0.608  1.00  0.00     0.007 A 
ATOM     39  C   UNL     1      11.004   2.276  -1.016  1.00  0.00     0.046 A 
ATOM     40  C   UNL     1       9.730   0.220  -1.031  1.00  0.00     0.046 A 
ATOM     41  C   UNL     1      10.924   0.905  -1.231  1.00  0.00     0.115 A 
BRANCH  41  42
ATOM     42  O   UNL     1      12.052   0.260  -1.645  1.00  0.00    -0.508 OA
ATOM     43  H   UNL     1      12.152   0.404  -2.601  1.00  0.00     0.293 HD
ENDBRANCH  41  42
ENDBRANCH  35  36
ENDBRANCH  34  35
BRANCH  34  44
ATOM     44  C   UNL     1       4.889   3.242  -0.023  1.00  0.00     0.243 C 
ATOM     45  O   UNL     1       3.738   2.945  -0.332  1.00  0.00    -0.273 OA
ATOM     46  N   UNL     1       5.166   4.290   0.829  1.00  0.00    -0.341 N 
ATOM     47  H   UNL     1       6.134   4.574   0.963  1.00  0.00     0.164 HD
BRANCH  46  48
ATOM     48  C   UNL     1       4.131   5.096   1.478  1.00  0.00     0.196 C 
BRANCH  48  49
ATOM     49  C   UNL     1       3.626   4.426   2.768  1.00  0.00     0.072 C 
BRANCH  49  50
ATOM     50  C   UNL     1       2.229   3.868   2.625  1.00  0.00    -0.045 A 
ATOM     51  C   UNL     1       1.152   4.732   2.377  1.00  0.00     0.007 A 
ATOM     52  C   UNL     1       1.984   2.495   2.756  1.00  0.00     0.007 A 
ATOM     53  C   UNL     1      -0.143   4.230   2.257  1.00  0.00     0.046 A 
ATOM     54  C   UNL     1       0.686   1.992   2.637  1.00  0.00     0.046 A 
ATOM     55  C   UNL     1      -0.367   2.865   2.386  1.00  0.00     0.115 A 
BRANCH  55  56
ATOM     56  O   UNL     1      -1.648   2.415   2.264  1.00  0.00    -0.508 OA
ATOM     57  H   UNL     1      -1.674   1.486   2.544  1.00  0.00     0.293 HD
ENDBRANCH  55  56
ENDBRANCH  49  50
ENDBRANCH  48  49
BRANCH  48  58
ATOM     58  C   UNL     1       4.709   6.479   1.809  1.00  0.00     0.326 C 
ATOM     59  O   UNL     1       5.241   7.261   1.038  1.00  0.00    -0.250 OA
BRANCH  58  60
ATOM     60  O   UNL     1       4.573   6.825   3.114  1.00  0.00    -0.480 OA
ATOM     61  H   UNL     1       3.697   6.453   3.356  1.00  0.00     0.296 HD
ENDBRANCH  58  60
ENDBRANCH  48  58
ENDBRANCH  46  48
ENDBRANCH  34  44
ENDBRANCH  32  34
ENDBRANCH  25  30
ENDBRANCH  23  25
ENDBRANCH   2  23
TORSDOF 28
ENDMDL
MODEL 8
REMARK VINA RESULT:    -5.263      2.387      7.288
REMARK INTER + INTRA:         -19.015
REMARK INTER:                 -15.113
REMARK INTRA:                  -3.902
REMARK UNBOUND:                -5.907
REMARK SMILES CCCCCCC[C@H](N)[C@H](O)C(=O)N[C@H](C)C(=O)N(C)[C@H](CC(C)C)C(=O)N[C@@H](Cc1ccc(O)cc1)C(=O)N[C@@H](Cc1ccc(O)cc1)C(=O)O
REMARK SMILES IDX 18 1 17 2 15 3 16 4 14 5 12 6 13 7 10 9 11 10 8 12 9 13 7 16
REMARK SMILES IDX 6 17 5 18 4 19 3 20 2 21 1 22 19 23 20 24 21 25 22 26 23 27
REMARK SMILES IDX 24 28 25 29 26 30 27 31 28 32 29 34 30 35 31 36 32 37 37 38
REMARK SMILES IDX 33 39 36 40 34 41 35 42 38 44 39 45 40 46 41 48 42 49 43 50
REMARK SMILES IDX 44 51 49 52 45 53 48 54 46 55 47 56 50 58 51 59 52 60
REMARK H PARENT 14 8 11 11 9 14 9 15 28 33 35 43 40 47 47 57 52 61
ROOT
ATOM      1  O   UNL     1       6.401   0.750  -3.142  1.00  0.00    -0.272 OA
ATOM      2  C   UNL     1       6.855   1.457  -2.230  1.00  0.00     0.245 C 
ENDROOT
BRANCH   2   3
ATOM      3  C   UNL     1       7.661   0.777  -1.096  1.00  0.00     0.168 C 
ATOM      4  C   UNL     1       7.013  -0.541  -0.687  1.00  0.00     0.041 C 
BRANCH   3   5
ATOM      5  N   UNL     1       9.082   0.621  -1.365  1.00  0.00    -0.342 N 
ATOM      6  C   UNL     1      10.017   1.510  -0.879  1.00  0.00     0.251 C 
ATOM      7  O   UNL     1       9.726   2.508  -0.228  1.00  0.00    -0.272 OA
ATOM      8  H   UNL     1       9.441  -0.150  -1.924  1.00  0.00     0.164 HD
BRANCH   6   9
ATOM      9  C   UNL     1      11.461   1.070  -1.165  1.00  0.00     0.219 C 
BRANCH   9  10
ATOM     10  O   UNL     1      11.746  -0.246  -0.676  1.00  0.00    -0.382 OA
ATOM     11  H   UNL     1      11.143  -0.342   0.094  1.00  0.00     0.211 HD
ENDBRANCH   9  10
BRANCH   9  12
ATOM     12  C   UNL     1      11.851   1.197  -2.661  1.00  0.00     0.089 C 
BRANCH  12  13
ATOM     13  N   UNL     1      11.691  -0.129  -3.301  1.00  0.00    -0.325 NA
ATOM     14  H   UNL     1      12.602  -0.588  -3.354  1.00  0.00     0.119 HD
ATOM     15  H   UNL     1      11.402   0.005  -4.272  1.00  0.00     0.119 HD
ENDBRANCH  12  13
BRANCH  12  16
ATOM     16  C   UNL     1      11.089   2.274  -3.471  1.00  0.00     0.022 C 
BRANCH  16  17
ATOM     17  C   UNL     1      10.801   2.025  -4.958  1.00  0.00     0.002 C 
BRANCH  17  18
ATOM     18  C   UNL     1       9.363   1.622  -5.277  1.00  0.00     0.000 C 
BRANCH  18  19
ATOM     19  C   UNL     1       8.849   2.154  -6.621  1.00  0.00    -0.000 C 
BRANCH  19  20
ATOM     20  C   UNL     1       7.502   1.583  -7.074  1.00  0.00    -0.000 C 
BRANCH  20  21
ATOM     21  C   UNL     1       7.184   0.224  -6.444  1.00  0.00    -0.003 C 
ATOM     22  C   UNL     1       5.694  -0.076  -6.495  1.00  0.00     0.004 C 
ENDBRANCH  20  21
ENDBRANCH  19  20
ENDBRANCH  18  19
ENDBRANCH  17  18
ENDBRANCH  16  17
ENDBRANCH  12  16
ENDBRANCH   9  12
ENDBRANCH   6   9
ENDBRANCH   3   5
ENDBRANCH   2   3
BRANCH   2  23
ATOM     23  N   UNL     1       6.741   2.842  -2.301  1.00  0.00    -0.332 N 
ATOM     24  C   UNL     1       7.718   3.719  -2.929  1.00  0.00     0.147 C 
BRANCH  23  25
ATOM     25  C   UNL     1       5.502   3.519  -1.830  1.00  0.00     0.174 C 
BRANCH  25  26
ATOM     26  C   UNL     1       4.921   4.503  -2.872  1.00  0.00     0.038 C 
BRANCH  26  27
ATOM     27  C   UNL     1       4.139   3.889  -4.055  1.00  0.00    -0.015 C 
ATOM     28  C   UNL     1       5.024   3.648  -5.278  1.00  0.00     0.007 C 
ATOM     29  C   UNL     1       3.376   2.620  -3.685  1.00  0.00     0.007 C 
ENDBRANCH  26  27
ENDBRANCH  25  26
BRANCH  25  30
ATOM     30  C   UNL     1       5.738   4.153  -0.440  1.00  0.00     0.243 C 
ATOM     31  O   UNL     1       6.497   3.647   0.385  1.00  0.00    -0.273 OA
ATOM     32  N   UNL     1       5.042   5.307  -0.189  1.00  0.00    -0.342 N 
ATOM     33  H   UNL     1       4.544   5.740  -0.971  1.00  0.00     0.164 HD
BRANCH  32  34
ATOM     34  C   UNL     1       5.121   6.030   1.083  1.00  0.00     0.175 C 
BRANCH  34  35
ATOM     35  C   UNL     1       4.684   5.142   2.259  1.00  0.00     0.070 C 
BRANCH  35  36
ATOM     36  C   UNL     1       3.182   5.074   2.414  1.00  0.00    -0.045 A 
ATOM     37  C   UNL     1       2.485   6.153   2.977  1.00  0.00     0.007 A 
ATOM     38  C   UNL     1       2.470   3.932   2.023  1.00  0.00     0.007 A 
ATOM     39  C   UNL     1       1.100   6.094   3.137  1.00  0.00     0.046 A 
ATOM     40  C   UNL     1       1.083   3.872   2.184  1.00  0.00     0.046 A 
ATOM     41  C   UNL     1       0.411   4.955   2.739  1.00  0.00     0.115 A 
BRANCH  41  42
ATOM     42  O   UNL     1      -0.941   4.937   2.915  1.00  0.00    -0.508 OA
ATOM     43  H   UNL     1      -1.363   4.974   2.041  1.00  0.00     0.293 HD
ENDBRANCH  41  42
ENDBRANCH  35  36
ENDBRANCH  34  35
BRANCH  34  44
ATOM     44  C   UNL     1       6.568   6.543   1.254  1.00  0.00     0.243 C 
ATOM     45  O   UNL     1       7.165   7.225   0.425  1.00  0.00    -0.273 OA
ATOM     46  N   UNL     1       7.195   6.054   2.381  1.00  0.00    -0.341 N 
ATOM     47  H   UNL     1       6.697   5.398   2.977  1.00  0.00     0.164 HD
BRANCH  46  48
ATOM     48  C   UNL     1       8.590   6.346   2.718  1.00  0.00     0.196 C 
BRANCH  48  49
ATOM     49  C   UNL     1       8.687   7.402   3.832  1.00  0.00     0.072 C 
BRANCH  49  50
ATOM     50  C   UNL     1       9.093   8.762   3.311  1.00  0.00    -0.045 A 
ATOM     51  C   UNL     1       8.996   9.887   4.143  1.00  0.00     0.007 A 
ATOM     52  C   UNL     1       9.548   8.924   1.996  1.00  0.00     0.007 A 
ATOM     53  C   UNL     1       9.355  11.149   3.669  1.00  0.00     0.046 A 
ATOM     54  C   UNL     1       9.907  10.187   1.521  1.00  0.00     0.046 A 
ATOM     55  C   UNL     1       9.808  11.290   2.363  1.00  0.00     0.115 A 
BRANCH  55  56
ATOM     56  O   UNL     1      10.147  12.540   1.938  1.00  0.00    -0.508 OA
ATOM     57  H   UNL     1       9.792  13.185   2.571  1.00  0.00     0.293 HD
ENDBRANCH  55  56
ENDBRANCH  49  50
ENDBRANCH  48  49
BRANCH  48  58
ATOM     58  C   UNL     1       9.275   5.051   3.175  1.00  0.00     0.326 C 
ATOM     59  O   UNL     1       8.763   3.951   3.306  1.00  0.00    -0.250 OA
BRANCH  58  60
ATOM     60  O   UNL     1      10.598   5.201   3.435  1.00  0.00    -0.480 OA
ATOM     61  H   UNL     1      10.607   5.633   4.317  1.00  0.00     0.296 HD
ENDBRANCH  58  60
ENDBRANCH  48  58
ENDBRANCH  46  48
ENDBRANCH  34  44
ENDBRANCH  32  34
ENDBRANCH  25  30
ENDBRANCH  23  25
ENDBRANCH   2  23
TORSDOF 28
ENDMDL
MODEL 9
REMARK VINA RESULT:    -5.252      3.051      6.853
REMARK INTER + INTRA:         -18.987
REMARK INTER:                 -12.158
REMARK INTRA:                  -6.829
REMARK UNBOUND:                -5.907
REMARK SMILES CCCCCCC[C@H](N)[C@H](O)C(=O)N[C@H](C)C(=O)N(C)[C@H](CC(C)C)C(=O)N[C@@H](Cc1ccc(O)cc1)C(=O)N[C@@H](Cc1ccc(O)cc1)C(=O)O
REMARK SMILES IDX 18 1 17 2 15 3 16 4 14 5 12 6 13 7 10 9 11 10 8 12 9 13 7 16
REMARK SMILES IDX 6 17 5 18 4 19 3 20 2 21 1 22 19 23 20 24 21 25 22 26 23 27
REMARK SMILES IDX 24 28 25 29 26 30 27 31 28 32 29 34 30 35 31 36 32 37 37 38
REMARK SMILES IDX 33 39 36 40 34 41 35 42 38 44 39 45 40 46 41 48 42 49 43 50
REMARK SMILES IDX 44 51 49 52 45 53 48 54 46 55 47 56 50 58 51 59 52 60
REMARK H PARENT 14 8 11 11 9 14 9 15 28 33 35 43 40 47 47 57 52 61
ROOT
ATOM      1  O   UNL     1       7.832   2.135   1.023  1.00  0.00    -0.272 OA
ATOM      2  C   UNL     1       7.235   2.131  -0.064  1.00  0.00     0.245 C 
ENDROOT
BRANCH   2   3
ATOM      3  C   UNL     1       6.350   3.349  -0.428  1.00  0.00     0.168 C 
ATOM      4  C   UNL     1       5.636   3.889   0.807  1.00  0.00     0.041 C 
BRANCH   3   5
ATOM      5  N   UNL     1       7.032   4.403  -1.163  1.00  0.00    -0.342 N 
ATOM      6  C   UNL     1       6.416   5.096  -2.183  1.00  0.00     0.251 C 
ATOM      7  O   UNL     1       5.278   4.855  -2.573  1.00  0.00    -0.272 OA
ATOM      8  H   UNL     1       7.992   4.668  -0.953  1.00  0.00     0.164 HD
BRANCH   6   9
ATOM      9  C   UNL     1       7.274   6.254  -2.718  1.00  0.00     0.219 C 
BRANCH   9  10
ATOM     10  O   UNL     1       6.854   6.699  -4.014  1.00  0.00    -0.382 OA
ATOM     11  H   UNL     1       5.874   6.664  -3.964  1.00  0.00     0.211 HD
ENDBRANCH   9  10
BRANCH   9  12
ATOM     12  C   UNL     1       7.371   7.446  -1.731  1.00  0.00     0.089 C 
BRANCH  12  13
ATOM     13  N   UNL     1       6.272   7.328  -0.746  1.00  0.00    -0.325 NA
ATOM     14  H   UNL     1       5.377   7.326  -1.239  1.00  0.00     0.119 HD
ATOM     15  H   UNL     1       6.255   8.170  -0.166  1.00  0.00     0.119 HD
ENDBRANCH  12  13
BRANCH  12  16
ATOM     16  C   UNL     1       8.724   7.612  -1.000  1.00  0.00     0.022 C 
BRANCH  16  17
ATOM     17  C   UNL     1       9.373   9.002  -0.934  1.00  0.00     0.002 C 
BRANCH  17  18
ATOM     18  C   UNL     1       9.456   9.737  -2.270  1.00  0.00     0.000 C 
BRANCH  18  19
ATOM     19  C   UNL     1       9.276  11.257  -2.159  1.00  0.00    -0.000 C 
BRANCH  19  20
ATOM     20  C   UNL     1      10.148  11.940  -1.101  1.00  0.00    -0.000 C 
BRANCH  20  21
ATOM     21  C   UNL     1       9.337  12.532   0.054  1.00  0.00    -0.003 C 
ATOM     22  C   UNL     1       9.385  11.636   1.282  1.00  0.00     0.004 C 
ENDBRANCH  20  21
ENDBRANCH  19  20
ENDBRANCH  18  19
ENDBRANCH  17  18
ENDBRANCH  16  17
ENDBRANCH  12  16
ENDBRANCH   9  12
ENDBRANCH   6   9
ENDBRANCH   3   5
ENDBRANCH   2   3
BRANCH   2  23
ATOM     23  N   UNL     1       7.461   1.107  -0.978  1.00  0.00    -0.332 N 
ATOM     24  C   UNL     1       6.822  -0.200  -0.929  1.00  0.00     0.147 C 
BRANCH  23  25
ATOM     25  C   UNL     1       8.309   1.346  -2.179  1.00  0.00     0.174 C 
BRANCH  25  26
ATOM     26  C   UNL     1       8.011   0.360  -3.332  1.00  0.00     0.038 C 
BRANCH  26  27
ATOM     27  C   UNL     1       7.522   0.968  -4.665  1.00  0.00    -0.015 C 
ATOM     28  C   UNL     1       7.395   2.490  -4.601  1.00  0.00     0.007 C 
ATOM     29  C   UNL     1       8.363   0.550  -5.869  1.00  0.00     0.007 C 
ENDBRANCH  26  27
ENDBRANCH  25  26
BRANCH  25  30
ATOM     30  C   UNL     1       9.800   1.398  -1.775  1.00  0.00     0.243 C 
ATOM     31  O   UNL     1      10.467   0.376  -1.619  1.00  0.00    -0.273 OA
ATOM     32  N   UNL     1      10.323   2.653  -1.597  1.00  0.00    -0.342 N 
ATOM     33  H   UNL     1       9.748   3.450  -1.881  1.00  0.00     0.164 HD
BRANCH  32  34
ATOM     34  C   UNL     1      11.710   2.893  -1.188  1.00  0.00     0.175 C 
BRANCH  34  35
ATOM     35  C   UNL     1      12.536   3.491  -2.337  1.00  0.00     0.070 C 
BRANCH  35  36
ATOM     36  C   UNL     1      11.773   4.531  -3.126  1.00  0.00    -0.045 A 
ATOM     37  C   UNL     1      11.874   5.887  -2.782  1.00  0.00     0.007 A 
ATOM     38  C   UNL     1      10.942   4.158  -4.191  1.00  0.00     0.007 A 
ATOM     39  C   UNL     1      11.164   6.852  -3.496  1.00  0.00     0.046 A 
ATOM     40  C   UNL     1      10.229   5.124  -4.905  1.00  0.00     0.046 A 
ATOM     41  C   UNL     1      10.348   6.464  -4.551  1.00  0.00     0.115 A 
BRANCH  41  42
ATOM     42  O   UNL     1       9.668   7.438  -5.221  1.00  0.00    -0.508 OA
ATOM     43  H   UNL     1       9.397   7.082  -6.083  1.00  0.00     0.293 HD
ENDBRANCH  41  42
ENDBRANCH  35  36
ENDBRANCH  34  35
BRANCH  34  44
ATOM     44  C   UNL     1      11.690   3.817   0.051  1.00  0.00     0.243 C 
ATOM     45  O   UNL     1      12.666   4.429   0.475  1.00  0.00    -0.273 OA
ATOM     46  N   UNL     1      10.491   3.797   0.731  1.00  0.00    -0.341 N 
ATOM     47  H   UNL     1       9.749   3.183   0.406  1.00  0.00     0.164 HD
BRANCH  46  48
ATOM     48  C   UNL     1      10.257   4.539   1.972  1.00  0.00     0.196 C 
BRANCH  48  49
ATOM     49  C   UNL     1       8.873   5.211   1.970  1.00  0.00     0.072 C 
BRANCH  49  50
ATOM     50  C   UNL     1       8.889   6.577   2.618  1.00  0.00    -0.045 A 
ATOM     51  C   UNL     1      10.049   7.033   3.259  1.00  0.00     0.007 A 
ATOM     52  C   UNL     1       7.750   7.393   2.607  1.00  0.00     0.007 A 
ATOM     53  C   UNL     1      10.071   8.286   3.872  1.00  0.00     0.046 A 
ATOM     54  C   UNL     1       7.772   8.647   3.221  1.00  0.00     0.046 A 
ATOM     55  C   UNL     1       8.934   9.084   3.848  1.00  0.00     0.115 A 
BRANCH  55  56
ATOM     56  O   UNL     1       8.996  10.301   4.460  1.00  0.00    -0.508 OA
ATOM     57  H   UNL     1       8.753  10.981   3.812  1.00  0.00     0.293 HD
ENDBRANCH  55  56
ENDBRANCH  49  50
ENDBRANCH  48  49
BRANCH  48  58
ATOM     58  C   UNL     1      10.357   3.571   3.159  1.00  0.00     0.326 C 
ATOM     59  O   UNL     1      11.329   3.374   3.871  1.00  0.00    -0.250 OA
BRANCH  58  60
ATOM     60  O   UNL     1       9.206   2.897   3.407  1.00  0.00    -0.480 OA
ATOM     61  H   UNL     1       8.829   2.757   2.512  1.00  0.00     0.296 HD
ENDBRANCH  58  60
ENDBRANCH  48  58
ENDBRANCH  46  48
ENDBRANCH  34  44
ENDBRANCH  32  34
ENDBRANCH  25  30
ENDBRANCH  23  25
ENDBRANCH   2  23
TORSDOF 28
ENDMDL
MODEL 10
REMARK VINA RESULT:    -5.223      2.549      8.389
REMARK INTER + INTRA:         -18.917
REMARK INTER:                 -15.169
REMARK INTRA:                  -3.748
REMARK UNBOUND:                -5.907
REMARK SMILES CCCCCCC[C@H](N)[C@H](O)C(=O)N[C@H](C)C(=O)N(C)[C@H](CC(C)C)C(=O)N[C@@H](Cc1ccc(O)cc1)C(=O)N[C@@H](Cc1ccc(O)cc1)C(=O)O
REMARK SMILES IDX 18 1 17 2 15 3 16 4 14 5 12 6 13 7 10 9 11 10 8 12 9 13 7 16
REMARK SMILES IDX 6 17 5 18 4 19 3 20 2 21 1 22 19 23 20 24 21 25 22 26 23 27
REMARK SMILES IDX 24 28 25 29 26 30 27 31 28 32 29 34 30 35 31 36 32 37 37 38
REMARK SMILES IDX 33 39 36 40 34 41 35 42 38 44 39 45 40 46 41 48 42 49 43 50
REMARK SMILES IDX 44 51 49 52 45 53 48 54 46 55 47 56 50 58 51 59 52 60
REMARK H PARENT 14 8 11 11 9 14 9 15 28 33 35 43 40 47 47 57 52 61
ROOT
ATOM      1  O   UNL     1       7.331   8.801   3.085  1.00  0.00    -0.272 OA
ATOM      2  C   UNL     1       7.945   7.743   2.886  1.00  0.00     0.245 C 
ENDROOT
BRANCH   2   3
ATOM      3  C   UNL     1       7.132   6.456   2.602  1.00  0.00     0.168 C 
ATOM      4  C   UNL     1       7.875   5.223   3.103  1.00  0.00     0.041 C 
BRANCH   3   5
ATOM      5  N   UNL     1       5.755   6.487   3.071  1.00  0.00    -0.342 N 
ATOM      6  C   UNL     1       4.724   5.934   2.341  1.00  0.00     0.251 C 
ATOM      7  O   UNL     1       4.877   5.420   1.238  1.00  0.00    -0.272 OA
ATOM      8  H   UNL     1       5.500   6.918   3.956  1.00  0.00     0.164 HD
BRANCH   6   9
ATOM      9  C   UNL     1       3.384   5.956   3.093  1.00  0.00     0.219 C 
BRANCH   9  10
ATOM     10  O   UNL     1       2.744   7.237   3.044  1.00  0.00    -0.382 OA
ATOM     11  H   UNL     1       3.181   7.685   2.287  1.00  0.00     0.211 HD
ENDBRANCH   9  10
BRANCH   9  12
ATOM     12  C   UNL     1       2.412   4.836   2.639  1.00  0.00     0.089 C 
BRANCH  12  13
ATOM     13  N   UNL     1       2.678   3.628   3.453  1.00  0.00    -0.325 NA
ATOM     14  H   UNL     1       3.688   3.496   3.537  1.00  0.00     0.119 HD
ATOM     15  H   UNL     1       2.343   2.806   2.944  1.00  0.00     0.119 HD
ENDBRANCH  12  13
BRANCH  12  16
ATOM     16  C   UNL     1       0.905   5.187   2.684  1.00  0.00     0.022 C 
BRANCH  16  17
ATOM     17  C   UNL     1      -0.084   4.337   1.874  1.00  0.00     0.002 C 
BRANCH  17  18
ATOM     18  C   UNL     1      -0.784   3.234   2.664  1.00  0.00     0.000 C 
BRANCH  18  19
ATOM     19  C   UNL     1      -2.186   3.614   3.159  1.00  0.00    -0.000 C 
BRANCH  19  20
ATOM     20  C   UNL     1      -2.896   2.540   3.987  1.00  0.00    -0.000 C 
BRANCH  20  21
ATOM     21  C   UNL     1      -3.339   3.040   5.365  1.00  0.00    -0.003 C 
ATOM     22  C   UNL     1      -3.052   4.524   5.535  1.00  0.00     0.004 C 
ENDBRANCH  20  21
ENDBRANCH  19  20
ENDBRANCH  18  19
ENDBRANCH  17  18
ENDBRANCH  16  17
ENDBRANCH  12  16
ENDBRANCH   9  12
ENDBRANCH   6   9
ENDBRANCH   3   5
ENDBRANCH   2   3
BRANCH   2  23
ATOM     23  N   UNL     1       9.333   7.750   2.801  1.00  0.00    -0.332 N 
ATOM     24  C   UNL     1      10.231   7.535   3.925  1.00  0.00     0.147 C 
BRANCH  23  25
ATOM     25  C   UNL     1      10.003   7.859   1.476  1.00  0.00     0.174 C 
BRANCH  25  26
ATOM     26  C   UNL     1       9.412   8.983   0.592  1.00  0.00     0.038 C 
BRANCH  26  27
ATOM     27  C   UNL     1      10.051  10.384   0.721  1.00  0.00    -0.015 C 
ATOM     28  C   UNL     1      10.080  11.137  -0.608  1.00  0.00     0.007 C 
ATOM     29  C   UNL     1       9.416  11.243   1.811  1.00  0.00     0.007 C 
ENDBRANCH  26  27
ENDBRANCH  25  26
BRANCH  25  30
ATOM     30  C   UNL     1      10.039   6.477   0.783  1.00  0.00     0.243 C 
ATOM     31  O   UNL     1      10.840   5.604   1.115  1.00  0.00    -0.273 OA
ATOM     32  N   UNL     1       9.128   6.295  -0.225  1.00  0.00    -0.342 N 
ATOM     33  H   UNL     1       8.406   7.011  -0.346  1.00  0.00     0.164 HD
BRANCH  32  34
ATOM     34  C   UNL     1       9.035   5.061  -1.010  1.00  0.00     0.175 C 
BRANCH  34  35
ATOM     35  C   UNL     1       7.581   4.581  -1.126  1.00  0.00     0.070 C 
BRANCH  35  36
ATOM     36  C   UNL     1       7.446   3.082  -0.976  1.00  0.00    -0.045 A 
ATOM     37  C   UNL     1       6.580   2.367  -1.817  1.00  0.00     0.007 A 
ATOM     38  C   UNL     1       8.160   2.392   0.013  1.00  0.00     0.007 A 
ATOM     39  C   UNL     1       6.438   0.986  -1.676  1.00  0.00     0.046 A 
ATOM     40  C   UNL     1       8.018   1.009   0.155  1.00  0.00     0.046 A 
ATOM     41  C   UNL     1       7.158   0.319  -0.693  1.00  0.00     0.115 A 
BRANCH  41  42
ATOM     42  O   UNL     1       6.989  -1.030  -0.587  1.00  0.00    -0.508 OA
ATOM     43  H   UNL     1       6.403  -1.205   0.168  1.00  0.00     0.293 HD
ENDBRANCH  41  42
ENDBRANCH  35  36
ENDBRANCH  34  35
BRANCH  34  44
ATOM     44  C   UNL     1       9.669   5.325  -2.394  1.00  0.00     0.243 C 
ATOM     45  O   UNL     1      10.428   6.258  -2.643  1.00  0.00    -0.273 OA
ATOM     46  N   UNL     1       9.201   4.484  -3.381  1.00  0.00    -0.341 N 
ATOM     47  H   UNL     1       8.485   3.801  -3.149  1.00  0.00     0.164 HD
BRANCH  46  48
ATOM     48  C   UNL     1       9.605   4.586  -4.785  1.00  0.00     0.196 C 
BRANCH  48  49
ATOM     49  C   UNL     1      10.569   3.453  -5.175  1.00  0.00     0.072 C 
BRANCH  49  50
ATOM     50  C   UNL     1      10.387   2.216  -4.324  1.00  0.00    -0.045 A 
ATOM     51  C   UNL     1      11.262   1.966  -3.258  1.00  0.00     0.007 A 
ATOM     52  C   UNL     1       9.365   1.298  -4.597  1.00  0.00     0.007 A 
ATOM     53  C   UNL     1      11.112   0.822  -2.474  1.00  0.00     0.046 A 
ATOM     54  C   UNL     1       9.216   0.151  -3.814  1.00  0.00     0.046 A 
ATOM     55  C   UNL     1      10.091  -0.077  -2.757  1.00  0.00     0.115 A 
BRANCH  55  56
ATOM     56  O   UNL     1       9.980  -1.184  -1.969  1.00  0.00    -0.508 OA
ATOM     57  H   UNL     1       9.052  -1.274  -1.697  1.00  0.00     0.293 HD
ENDBRANCH  55  56
ENDBRANCH  49  50
ENDBRANCH  48  49
BRANCH  48  58
ATOM     58  C   UNL     1       8.353   4.524  -5.671  1.00  0.00     0.326 C 
ATOM     59  O   UNL     1       7.188   4.534  -5.306  1.00  0.00    -0.250 OA
BRANCH  58  60
ATOM     60  O   UNL     1       8.630   4.465  -6.997  1.00  0.00    -0.480 OA
ATOM     61  H   UNL     1       8.173   3.647  -7.288  1.00  0.00     0.296 HD
ENDBRANCH  58  60
ENDBRANCH  48  58
ENDBRANCH  46  48
ENDBRANCH  34  44
ENDBRANCH  32  34
ENDBRANCH  25  30
ENDBRANCH  23  25
ENDBRANCH   2  23
TORSDOF 28
ENDMDL
