MODEL 1
REMARK VINA RESULT:    -6.162      0.000      0.000
REMARK INTER + INTRA:         -17.451
REMARK INTER:                 -12.466
REMARK INTRA:                  -4.985
REMARK UNBOUND:                -4.985
REMARK SMILES CC[C@@H](C)[C@@H](NC(=O)[C@@H](O)Cc1ccc(O)c(Cl)c1)C(=O)N1[C@H](C(=O)NCCCCN=C(N)N)C[C@H]2CC[C@H](OS(=O)(=O)O)C[C@@H]21
REMARK SMILES IDX 22 1 36 2 46 3 35 4 23 5 45 6 37 7 39 8 38 9 20 10 21 11
REMARK SMILES IDX 5 12 6 13 7 14 8 15 9 17 11 18 12 19 17 20 19 21 15 22 14 23
REMARK SMILES IDX 13 24 18 25 16 26 10 28 3 30 4 31 2 32 1 33 24 34 25 35
REMARK SMILES IDX 26 36 27 38 28 39 29 40 30 41 31 42 32 43 33 44 34 45 40 50
REMARK SMILES IDX 41 51 42 52 43 53 44 54
REMARK H PARENT 6 16 16 27 10 29 26 37 33 46 33 47 34 48 34 49 44 55
ROOT
ATOM      1  N   UNL     1      11.059  -6.737  -3.806  1.00  0.00    -0.326 N 
ATOM      2  C   UNL     1       9.206  -5.749  -4.870  1.00  0.00     0.014 C 
ATOM      3  C   UNL     1       9.968  -7.069  -4.727  1.00  0.00     0.091 C 
ATOM      4  C   UNL     1      10.315  -4.711  -4.791  1.00  0.00     0.041 C 
ATOM      5  C   UNL     1      11.125  -5.268  -3.606  1.00  0.00     0.175 C 
ATOM      6  C   UNL     1       8.978  -8.157  -4.316  1.00  0.00     0.059 C 
ATOM      7  C   UNL     1       8.298  -5.776  -6.084  1.00  0.00     0.008 C 
ATOM      8  C   UNL     1       7.554  -7.945  -4.875  1.00  0.00     0.143 C 
ATOM      9  C   UNL     1       7.561  -7.128  -6.183  1.00  0.00     0.034 C 
ENDROOT
BRANCH   1  10
ATOM     10  C   UNL     1      12.084  -7.531  -3.321  1.00  0.00     0.246 C 
ATOM     11  O   UNL     1      13.244  -7.298  -3.676  1.00  0.00    -0.272 OA
BRANCH  10  12
ATOM     12  C   UNL     1      11.760  -8.668  -2.309  1.00  0.00     0.174 C 
BRANCH  12  13
ATOM     13  N   UNL     1      11.826  -8.154  -0.942  1.00  0.00    -0.342 N 
ATOM     14  C   UNL     1      10.837  -8.297   0.005  1.00  0.00     0.249 C 
ATOM     15  O   UNL     1       9.790  -8.903  -0.188  1.00  0.00    -0.272 OA
ATOM     16  H   UNL     1      12.560  -7.499  -0.685  1.00  0.00     0.164 HD
BRANCH  14  17
ATOM     17  C   UNL     1      11.197  -7.627   1.348  1.00  0.00     0.207 C 
BRANCH  17  18
ATOM     18  C   UNL     1      12.340  -6.625   1.158  1.00  0.00     0.077 C 
BRANCH  18  19
ATOM     19  C   UNL     1      12.168  -5.403   2.032  1.00  0.00    -0.043 A 
ATOM     20  C   UNL     1      10.741  -3.924   3.321  1.00  0.00     0.083 A 
ATOM     21  C   UNL     1      10.906  -5.080   2.556  1.00  0.00     0.028 A 
ATOM     22  C   UNL     1      11.829  -3.086   3.565  1.00  0.00     0.134 A 
ATOM     23  C   UNL     1      13.084  -3.395   3.052  1.00  0.00     0.048 A 
ATOM     24  C   UNL     1      13.252  -4.549   2.284  1.00  0.00     0.008 A 
ATOM     25  Cl  UNL     1       9.183  -3.544   3.956  1.00  0.00    -0.080 Cl
BRANCH  22  26
ATOM     26  O   UNL     1      11.713  -1.938   4.300  1.00  0.00    -0.506 OA
ATOM     27  H   UNL     1      10.970  -2.074   4.917  1.00  0.00     0.293 HD
ENDBRANCH  22  26
ENDBRANCH  18  19
ENDBRANCH  17  18
BRANCH  17  28
ATOM     28  O   UNL     1      11.579  -8.606   2.328  1.00  0.00    -0.383 OA
ATOM     29  H   UNL     1      12.525  -8.814   2.150  1.00  0.00     0.211 HD
ENDBRANCH  17  28
ENDBRANCH  14  17
ENDBRANCH  12  13
BRANCH  12  30
ATOM     30  C   UNL     1      12.650  -9.924  -2.513  1.00  0.00     0.018 C 
ATOM     31  C   UNL     1      11.844 -11.069  -3.146  1.00  0.00     0.010 C 
BRANCH  30  32
ATOM     32  C   UNL     1      13.341 -10.413  -1.217  1.00  0.00     0.002 C 
ATOM     33  C   UNL     1      12.621 -11.534  -0.478  1.00  0.00     0.004 C 
ENDBRANCH  30  32
ENDBRANCH  12  30
ENDBRANCH  10  12
ENDBRANCH   1  10
BRANCH   5  34
ATOM     34  C   UNL     1      10.496  -4.869  -2.245  1.00  0.00     0.242 C 
ATOM     35  O   UNL     1      10.057  -5.703  -1.453  1.00  0.00    -0.273 OA
ATOM     36  N   UNL     1      10.414  -3.514  -2.013  1.00  0.00    -0.354 N 
ATOM     37  H   UNL     1      10.684  -2.870  -2.758  1.00  0.00     0.163 HD
BRANCH  36  38
ATOM     38  C   UNL     1      10.058  -2.972  -0.718  1.00  0.00     0.116 C 
BRANCH  38  39
ATOM     39  C   UNL     1       8.548  -2.759  -0.643  1.00  0.00     0.023 C 
BRANCH  39  40
ATOM     40  C   UNL     1       7.940  -3.339   0.630  1.00  0.00     0.026 C 
BRANCH  40  41
ATOM     41  C   UNL     1       6.791  -4.291   0.298  1.00  0.00     0.146 C 
BRANCH  41  42
ATOM     42  N   UNL     1       6.952  -5.534   1.041  1.00  0.00    -0.254 NA
ATOM     43  C   UNL     1       7.221  -6.616   0.413  1.00  0.00     0.185 C 
ATOM     44  N   UNL     1       7.397  -6.833  -0.903  1.00  0.00    -0.370 N 
ATOM     45  N   UNL     1       7.360  -7.753   1.116  1.00  0.00    -0.370 N 
ATOM     46  H   UNL     1       7.360  -7.765  -1.279  1.00  0.00     0.159 HD
ATOM     47  H   UNL     1       7.340  -6.078  -1.579  1.00  0.00     0.159 HD
ATOM     48  H   UNL     1       7.252  -7.676   2.118  1.00  0.00     0.159 HD
ATOM     49  H   UNL     1       7.796  -8.575   0.739  1.00  0.00     0.159 HD
ENDBRANCH  41  42
ENDBRANCH  40  41
ENDBRANCH  39  40
ENDBRANCH  38  39
ENDBRANCH  36  38
ENDBRANCH   5  34
BRANCH   8  50
ATOM     50  O   UNL     1       6.749  -7.258  -3.916  1.00  0.00    -0.245 OA
BRANCH  50  51
ATOM     51  S   UNL     1       5.187  -7.675  -3.734  1.00  0.00     0.397 S 
ATOM     52  O   UNL     1       4.500  -7.384  -4.973  1.00  0.00    -0.169 OA
ATOM     53  O   UNL     1       4.698  -7.186  -2.462  1.00  0.00    -0.169 OA
BRANCH  51  54
ATOM     54  O   UNL     1       5.275  -9.278  -3.649  1.00  0.00    -0.264 OA
ATOM     55  H   UNL     1       4.584  -9.582  -3.025  1.00  0.00     0.236 HD
ENDBRANCH  51  54
ENDBRANCH  50  51
ENDBRANCH   8  50
TORSDOF 19
ENDMDL
MODEL 2
REMARK VINA RESULT:    -6.120      2.865      5.345
REMARK INTER + INTRA:         -17.366
REMARK INTER:                 -13.194
REMARK INTRA:                  -4.172
REMARK UNBOUND:                -4.985
REMARK SMILES CC[C@@H](C)[C@@H](NC(=O)[C@@H](O)Cc1ccc(O)c(Cl)c1)C(=O)N1[C@H](C(=O)NCCCCN=C(N)N)C[C@H]2CC[C@H](OS(=O)(=O)O)C[C@@H]21
REMARK SMILES IDX 22 1 36 2 46 3 35 4 23 5 45 6 37 7 39 8 38 9 20 10 21 11
REMARK SMILES IDX 5 12 6 13 7 14 8 15 9 17 11 18 12 19 17 20 19 21 15 22 14 23
REMARK SMILES IDX 13 24 18 25 16 26 10 28 3 30 4 31 2 32 1 33 24 34 25 35
REMARK SMILES IDX 26 36 27 38 28 39 29 40 30 41 31 42 32 43 33 44 34 45 40 50
REMARK SMILES IDX 41 51 42 52 43 53 44 54
REMARK H PARENT 6 16 16 27 10 29 26 37 33 46 33 47 34 48 34 49 44 55
ROOT
ATOM      1  N   UNL     1       8.295  -6.322   0.208  1.00  0.00    -0.326 N 
ATOM      2  C   UNL     1       8.551  -5.869  -2.088  1.00  0.00     0.014 C 
ATOM      3  C   UNL     1       8.148  -6.967  -1.100  1.00  0.00     0.091 C 
ATOM      4  C   UNL     1       9.642  -5.124  -1.334  1.00  0.00     0.041 C 
ATOM      5  C   UNL     1       8.989  -5.019   0.057  1.00  0.00     0.175 C 
ATOM      6  C   UNL     1       6.771  -7.493  -1.498  1.00  0.00     0.059 C 
ATOM      7  C   UNL     1       8.857  -6.453  -3.453  1.00  0.00     0.008 C 
ATOM      8  C   UNL     1       6.503  -7.446  -3.018  1.00  0.00     0.143 C 
ATOM      9  C   UNL     1       7.807  -7.516  -3.838  1.00  0.00     0.034 C 
ENDROOT
BRANCH   1  10
ATOM     10  C   UNL     1       8.088  -6.833   1.478  1.00  0.00     0.246 C 
ATOM     11  O   UNL     1       6.968  -6.736   1.991  1.00  0.00    -0.272 OA
BRANCH  10  12
ATOM     12  C   UNL     1       9.255  -7.555   2.213  1.00  0.00     0.174 C 
BRANCH  12  13
ATOM     13  N   UNL     1      10.430  -7.616   1.345  1.00  0.00    -0.342 N 
ATOM     14  C   UNL     1      11.643  -7.023   1.614  1.00  0.00     0.249 C 
ATOM     15  O   UNL     1      11.883  -6.394   2.638  1.00  0.00    -0.272 OA
ATOM     16  H   UNL     1      10.337  -7.967   0.395  1.00  0.00     0.164 HD
BRANCH  14  17
ATOM     17  C   UNL     1      12.680  -7.253   0.495  1.00  0.00     0.207 C 
BRANCH  17  18
ATOM     18  C   UNL     1      12.684  -8.723   0.062  1.00  0.00     0.077 C 
BRANCH  18  19
ATOM     19  C   UNL     1      12.878  -8.869  -1.430  1.00  0.00    -0.043 A 
ATOM     20  C   UNL     1      11.960  -9.252  -3.643  1.00  0.00     0.083 A 
ATOM     21  C   UNL     1      11.773  -9.068  -2.272  1.00  0.00     0.028 A 
ATOM     22  C   UNL     1      13.248  -9.239  -4.180  1.00  0.00     0.134 A 
ATOM     23  C   UNL     1      14.351  -9.043  -3.357  1.00  0.00     0.048 A 
ATOM     24  C   UNL     1      14.167  -8.860  -1.985  1.00  0.00     0.008 A 
ATOM     25  Cl  UNL     1      10.590  -9.496  -4.661  1.00  0.00    -0.080 Cl
BRANCH  22  26
ATOM     26  O   UNL     1      13.482  -9.426  -5.515  1.00  0.00    -0.506 OA
ATOM     27  H   UNL     1      13.678  -8.547  -5.890  1.00  0.00     0.293 HD
ENDBRANCH  22  26
ENDBRANCH  18  19
ENDBRANCH  17  18
BRANCH  17  28
ATOM     28  O   UNL     1      13.999  -6.880   0.926  1.00  0.00    -0.383 OA
ATOM     29  H   UNL     1      13.929  -6.702   1.892  1.00  0.00     0.211 HD
ENDBRANCH  17  28
ENDBRANCH  14  17
ENDBRANCH  12  13
BRANCH  12  30
ATOM     30  C   UNL     1       8.848  -8.951   2.758  1.00  0.00     0.018 C 
ATOM     31  C   UNL     1       8.870  -8.965   4.295  1.00  0.00     0.010 C 
BRANCH  30  32
ATOM     32  C   UNL     1       9.711 -10.110   2.203  1.00  0.00     0.002 C 
ATOM     33  C   UNL     1      10.596 -10.811   3.225  1.00  0.00     0.004 C 
ENDBRANCH  30  32
ENDBRANCH  12  30
ENDBRANCH  10  12
ENDBRANCH   1  10
BRANCH   5  34
ATOM     34  C   UNL     1       7.976  -3.845   0.127  1.00  0.00     0.242 C 
ATOM     35  O   UNL     1       8.302  -2.681  -0.105  1.00  0.00    -0.273 OA
ATOM     36  N   UNL     1       6.703  -4.192   0.520  1.00  0.00    -0.354 N 
ATOM     37  H   UNL     1       6.525  -5.153   0.814  1.00  0.00     0.163 HD
BRANCH  36  38
ATOM     38  C   UNL     1       5.589  -3.271   0.432  1.00  0.00     0.116 C 
BRANCH  38  39
ATOM     39  C   UNL     1       5.101  -2.913   1.833  1.00  0.00     0.023 C 
BRANCH  39  40
ATOM     40  C   UNL     1       5.531  -3.936   2.879  1.00  0.00     0.026 C 
BRANCH  40  41
ATOM     41  C   UNL     1       6.502  -3.311   3.882  1.00  0.00     0.146 C 
BRANCH  41  42
ATOM     42  N   UNL     1       7.733  -4.088   3.925  1.00  0.00    -0.254 NA
ATOM     43  C   UNL     1       8.832  -3.555   3.543  1.00  0.00     0.185 C 
ATOM     44  N   UNL     1       9.077  -2.317   3.076  1.00  0.00    -0.370 N 
ATOM     45  N   UNL     1       9.956  -4.290   3.586  1.00  0.00    -0.370 N 
ATOM     46  H   UNL     1       9.932  -2.113   2.587  1.00  0.00     0.159 HD
ATOM     47  H   UNL     1       8.339  -1.624   2.990  1.00  0.00     0.159 HD
ATOM     48  H   UNL     1       9.861  -5.234   3.935  1.00  0.00     0.159 HD
ATOM     49  H   UNL     1      10.873  -3.884   3.534  1.00  0.00     0.159 HD
ENDBRANCH  41  42
ENDBRANCH  40  41
ENDBRANCH  39  40
ENDBRANCH  38  39
ENDBRANCH  36  38
ENDBRANCH   5  34
BRANCH   8  50
ATOM     50  O   UNL     1       5.817  -6.241  -3.357  1.00  0.00    -0.245 OA
BRANCH  50  51
ATOM     51  S   UNL     1       4.502  -6.307  -4.312  1.00  0.00     0.397 S 
ATOM     52  O   UNL     1       4.574  -7.524  -5.088  1.00  0.00    -0.169 OA
ATOM     53  O   UNL     1       4.290  -5.019  -4.938  1.00  0.00    -0.169 OA
BRANCH  51  54
ATOM     54  O   UNL     1       3.323  -6.539  -3.244  1.00  0.00    -0.264 OA
ATOM     55  H   UNL     1       2.737  -7.241  -3.593  1.00  0.00     0.236 HD
ENDBRANCH  51  54
ENDBRANCH  50  51
ENDBRANCH   8  50
TORSDOF 19
ENDMDL
MODEL 3
REMARK VINA RESULT:    -5.986      2.108      3.118
REMARK INTER + INTRA:         -17.094
REMARK INTER:                 -12.364
REMARK INTRA:                  -4.730
REMARK UNBOUND:                -4.985
REMARK SMILES CC[C@@H](C)[C@@H](NC(=O)[C@@H](O)Cc1ccc(O)c(Cl)c1)C(=O)N1[C@H](C(=O)NCCCCN=C(N)N)C[C@H]2CC[C@H](OS(=O)(=O)O)C[C@@H]21
REMARK SMILES IDX 22 1 36 2 46 3 35 4 23 5 45 6 37 7 39 8 38 9 20 10 21 11
REMARK SMILES IDX 5 12 6 13 7 14 8 15 9 17 11 18 12 19 17 20 19 21 15 22 14 23
REMARK SMILES IDX 13 24 18 25 16 26 10 28 3 30 4 31 2 32 1 33 24 34 25 35
REMARK SMILES IDX 26 36 27 38 28 39 29 40 30 41 31 42 32 43 33 44 34 45 40 50
REMARK SMILES IDX 41 51 42 52 43 53 44 54
REMARK H PARENT 6 16 16 27 10 29 26 37 33 46 33 47 34 48 34 49 44 55
ROOT
ATOM      1  N   UNL     1       9.396  -7.099  -1.316  1.00  0.00    -0.326 N 
ATOM      2  C   UNL     1       8.620  -5.377  -2.721  1.00  0.00     0.014 C 
ATOM      3  C   UNL     1       8.970  -6.868  -2.699  1.00  0.00     0.091 C 
ATOM      4  C   UNL     1       9.635  -4.780  -1.759  1.00  0.00     0.041 C 
ATOM      5  C   UNL     1       9.555  -5.803  -0.611  1.00  0.00     0.175 C 
ATOM      6  C   UNL     1       7.771  -7.653  -3.229  1.00  0.00     0.059 C 
ATOM      7  C   UNL     1       8.550  -4.857  -4.144  1.00  0.00     0.008 C 
ATOM      8  C   UNL     1       6.950  -6.891  -4.292  1.00  0.00     0.143 C 
ATOM      9  C   UNL     1       7.804  -5.857  -5.052  1.00  0.00     0.034 C 
ENDROOT
BRANCH   1  10
ATOM     10  C   UNL     1       9.847  -8.258  -0.709  1.00  0.00     0.246 C 
ATOM     11  O   UNL     1       9.133  -8.813   0.134  1.00  0.00    -0.272 OA
BRANCH  10  12
ATOM     12  C   UNL     1      11.220  -8.860  -1.128  1.00  0.00     0.174 C 
BRANCH  12  13
ATOM     13  N   UNL     1      12.146  -7.787  -1.489  1.00  0.00    -0.342 N 
ATOM     14  C   UNL     1      13.392  -7.599  -0.934  1.00  0.00     0.249 C 
ATOM     15  O   UNL     1      13.879  -8.336  -0.086  1.00  0.00    -0.272 OA
ATOM     16  H   UNL     1      11.820  -7.011  -2.060  1.00  0.00     0.164 HD
BRANCH  14  17
ATOM     17  C   UNL     1      14.121  -6.367  -1.512  1.00  0.00     0.207 C 
BRANCH  17  18
ATOM     18  C   UNL     1      13.372  -5.081  -1.147  1.00  0.00     0.077 C 
BRANCH  18  19
ATOM     19  C   UNL     1      13.476  -4.769   0.328  1.00  0.00    -0.043 A 
ATOM     20  C   UNL     1      12.467  -3.974   2.386  1.00  0.00     0.083 A 
ATOM     21  C   UNL     1      12.355  -4.309   1.036  1.00  0.00     0.028 A 
ATOM     22  C   UNL     1      13.696  -4.095   3.036  1.00  0.00     0.134 A 
ATOM     23  C   UNL     1      14.814  -4.550   2.347  1.00  0.00     0.048 A 
ATOM     24  C   UNL     1      14.706  -4.884   0.995  1.00  0.00     0.008 A 
ATOM     25  Cl  UNL     1      11.078  -3.410   3.238  1.00  0.00    -0.080 Cl
BRANCH  22  26
ATOM     26  O   UNL     1      13.857  -3.769   4.355  1.00  0.00    -0.506 OA
ATOM     27  H   UNL     1      13.617  -2.828   4.443  1.00  0.00     0.293 HD
ENDBRANCH  22  26
ENDBRANCH  18  19
ENDBRANCH  17  18
BRANCH  17  28
ATOM     28  O   UNL     1      14.242  -6.460  -2.940  1.00  0.00    -0.383 OA
ATOM     29  H   UNL     1      13.429  -6.918  -3.252  1.00  0.00     0.211 HD
ENDBRANCH  17  28
ENDBRANCH  14  17
ENDBRANCH  12  13
BRANCH  12  30
ATOM     30  C   UNL     1      11.089  -9.930  -2.246  1.00  0.00     0.018 C 
ATOM     31  C   UNL     1      11.982 -11.144  -1.947  1.00  0.00     0.010 C 
BRANCH  30  32
ATOM     32  C   UNL     1      11.388  -9.386  -3.664  1.00  0.00     0.002 C 
ATOM     33  C   UNL     1      12.552 -10.053  -4.386  1.00  0.00     0.004 C 
ENDBRANCH  30  32
ENDBRANCH  12  30
ENDBRANCH  10  12
ENDBRANCH   1  10
BRANCH   5  34
ATOM     34  C   UNL     1       8.341  -5.529   0.317  1.00  0.00     0.242 C 
ATOM     35  O   UNL     1       7.352  -6.261   0.339  1.00  0.00    -0.273 OA
ATOM     36  N   UNL     1       8.428  -4.381   1.071  1.00  0.00    -0.354 N 
ATOM     37  H   UNL     1       9.219  -3.752   0.921  1.00  0.00     0.163 HD
BRANCH  36  38
ATOM     38  C   UNL     1       7.496  -4.084   2.139  1.00  0.00     0.116 C 
BRANCH  38  39
ATOM     39  C   UNL     1       7.145  -2.598   2.123  1.00  0.00     0.023 C 
BRANCH  39  40
ATOM     40  C   UNL     1       5.641  -2.356   2.054  1.00  0.00     0.026 C 
BRANCH  40  41
ATOM     41  C   UNL     1       4.921  -3.573   1.473  1.00  0.00     0.146 C 
BRANCH  41  42
ATOM     42  N   UNL     1       4.256  -3.206   0.230  1.00  0.00    -0.254 NA
ATOM     43  C   UNL     1       4.387  -3.950  -0.803  1.00  0.00     0.185 C 
ATOM     44  N   UNL     1       5.077  -5.095  -0.963  1.00  0.00    -0.370 N 
ATOM     45  N   UNL     1       3.770  -3.591  -1.940  1.00  0.00    -0.370 N 
ATOM     46  H   UNL     1       5.292  -5.439  -1.883  1.00  0.00     0.159 HD
ATOM     47  H   UNL     1       5.593  -5.517  -0.197  1.00  0.00     0.159 HD
ATOM     48  H   UNL     1       3.220  -2.744  -1.904  1.00  0.00     0.159 HD
ATOM     49  H   UNL     1       3.628  -4.226  -2.706  1.00  0.00     0.159 HD
ENDBRANCH  41  42
ENDBRANCH  40  41
ENDBRANCH  39  40
ENDBRANCH  38  39
ENDBRANCH  36  38
ENDBRANCH   5  34
BRANCH   8  50
ATOM     50  O   UNL     1       5.858  -6.210  -3.672  1.00  0.00    -0.245 OA
BRANCH  50  51
ATOM     51  S   UNL     1       4.409  -6.179  -4.410  1.00  0.00     0.397 S 
ATOM     52  O   UNL     1       4.324  -7.334  -5.276  1.00  0.00    -0.169 OA
ATOM     53  O   UNL     1       4.140  -4.843  -4.897  1.00  0.00    -0.169 OA
BRANCH  51  54
ATOM     54  O   UNL     1       3.405  -6.473  -3.189  1.00  0.00    -0.264 OA
ATOM     55  H   UNL     1       2.592  -6.873  -3.560  1.00  0.00     0.236 HD
ENDBRANCH  51  54
ENDBRANCH  50  51
ENDBRANCH   8  50
TORSDOF 19
ENDMDL
MODEL 4
REMARK VINA RESULT:    -5.939      2.915      6.173
REMARK INTER + INTRA:         -16.999
REMARK INTER:                 -12.358
REMARK INTRA:                  -4.641
REMARK UNBOUND:                -4.985
REMARK SMILES CC[C@@H](C)[C@@H](NC(=O)[C@@H](O)Cc1ccc(O)c(Cl)c1)C(=O)N1[C@H](C(=O)NCCCCN=C(N)N)C[C@H]2CC[C@H](OS(=O)(=O)O)C[C@@H]21
REMARK SMILES IDX 22 1 36 2 46 3 35 4 23 5 45 6 37 7 39 8 38 9 20 10 21 11
REMARK SMILES IDX 5 12 6 13 7 14 8 15 9 17 11 18 12 19 17 20 19 21 15 22 14 23
REMARK SMILES IDX 13 24 18 25 16 26 10 28 3 30 4 31 2 32 1 33 24 34 25 35
REMARK SMILES IDX 26 36 27 38 28 39 29 40 30 41 31 42 32 43 33 44 34 45 40 50
REMARK SMILES IDX 41 51 42 52 43 53 44 54
REMARK H PARENT 6 16 16 27 10 29 26 37 33 46 33 47 34 48 34 49 44 55
ROOT
ATOM      1  N   UNL     1      11.286  -7.240  -0.978  1.00  0.00    -0.326 N 
ATOM      2  C   UNL     1       9.630  -6.111   0.258  1.00  0.00     0.014 C 
ATOM      3  C   UNL     1       9.871  -7.349  -0.610  1.00  0.00     0.091 C 
ATOM      4  C   UNL     1      10.532  -5.070  -0.386  1.00  0.00     0.041 C 
ATOM      5  C   UNL     1      11.808  -5.906  -0.594  1.00  0.00     0.175 C 
ATOM      6  C   UNL     1       9.419  -8.582   0.170  1.00  0.00     0.059 C 
ATOM      7  C   UNL     1       8.148  -5.827   0.398  1.00  0.00     0.008 C 
ATOM      8  C   UNL     1       8.234  -8.314   1.124  1.00  0.00     0.143 C 
ATOM      9  C   UNL     1       7.364  -7.132   0.649  1.00  0.00     0.034 C 
ENDROOT
BRANCH   1  10
ATOM     10  C   UNL     1      12.063  -8.066  -1.772  1.00  0.00     0.246 C 
ATOM     11  O   UNL     1      12.757  -8.936  -1.235  1.00  0.00    -0.272 OA
BRANCH  10  12
ATOM     12  C   UNL     1      12.013  -7.912  -3.320  1.00  0.00     0.174 C 
BRANCH  12  13
ATOM     13  N   UNL     1      10.654  -7.576  -3.744  1.00  0.00    -0.342 N 
ATOM     14  C   UNL     1      10.279  -6.385  -4.323  1.00  0.00     0.249 C 
ATOM     15  O   UNL     1      11.057  -5.474  -4.574  1.00  0.00    -0.272 OA
ATOM     16  H   UNL     1       9.877  -8.167  -3.458  1.00  0.00     0.164 HD
BRANCH  14  17
ATOM     17  C   UNL     1       8.769  -6.327  -4.641  1.00  0.00     0.207 C 
BRANCH  17  18
ATOM     18  C   UNL     1       7.988  -7.251  -3.702  1.00  0.00     0.077 C 
BRANCH  18  19
ATOM     19  C   UNL     1       6.793  -6.553  -3.092  1.00  0.00    -0.043 A 
ATOM     20  C   UNL     1       5.705  -4.520  -2.338  1.00  0.00     0.083 A 
ATOM     21  C   UNL     1       6.788  -5.157  -2.946  1.00  0.00     0.028 A 
ATOM     22  C   UNL     1       4.625  -5.271  -1.872  1.00  0.00     0.134 A 
ATOM     23  C   UNL     1       4.618  -6.654  -2.010  1.00  0.00     0.048 A 
ATOM     24  C   UNL     1       5.701  -7.295  -2.617  1.00  0.00     0.008 A 
ATOM     25  Cl  UNL     1       5.716  -2.804  -2.167  1.00  0.00    -0.080 Cl
BRANCH  22  26
ATOM     26  O   UNL     1       3.547  -4.693  -1.259  1.00  0.00    -0.506 OA
ATOM     27  H   UNL     1       3.735  -3.738  -1.204  1.00  0.00     0.293 HD
ENDBRANCH  22  26
ENDBRANCH  18  19
ENDBRANCH  17  18
BRANCH  17  28
ATOM     28  O   UNL     1       8.513  -6.705  -6.003  1.00  0.00    -0.383 OA
ATOM     29  H   UNL     1       9.353  -6.545  -6.492  1.00  0.00     0.211 HD
ENDBRANCH  17  28
ENDBRANCH  14  17
ENDBRANCH  12  13
BRANCH  12  30
ATOM     30  C   UNL     1      12.577  -9.152  -4.065  1.00  0.00     0.018 C 
ATOM     31  C   UNL     1      13.121  -8.758  -5.447  1.00  0.00     0.010 C 
BRANCH  30  32
ATOM     32  C   UNL     1      11.558 -10.310  -4.204  1.00  0.00     0.002 C 
ATOM     33  C   UNL     1      11.843 -11.534  -3.343  1.00  0.00     0.004 C 
ENDBRANCH  30  32
ENDBRANCH  12  30
ENDBRANCH  10  12
ENDBRANCH   1  10
BRANCH   5  34
ATOM     34  C   UNL     1      12.649  -5.998   0.707  1.00  0.00     0.242 C 
ATOM     35  O   UNL     1      12.712  -7.028   1.379  1.00  0.00    -0.273 OA
ATOM     36  N   UNL     1      13.276  -4.831   1.084  1.00  0.00    -0.354 N 
ATOM     37  H   UNL     1      13.090  -3.980   0.553  1.00  0.00     0.163 HD
BRANCH  36  38
ATOM     38  C   UNL     1      14.266  -4.791   2.141  1.00  0.00     0.116 C 
BRANCH  38  39
ATOM     39  C   UNL     1      13.877  -3.737   3.175  1.00  0.00     0.023 C 
BRANCH  39  40
ATOM     40  C   UNL     1      13.108  -2.573   2.560  1.00  0.00     0.026 C 
BRANCH  40  41
ATOM     41  C   UNL     1      11.705  -2.473   3.160  1.00  0.00     0.146 C 
BRANCH  41  42
ATOM     42  N   UNL     1      11.122  -3.803   3.274  1.00  0.00    -0.254 NA
ATOM     43  C   UNL     1       9.877  -3.927   3.546  1.00  0.00     0.185 C 
ATOM     44  N   UNL     1       8.940  -2.986   3.760  1.00  0.00    -0.370 N 
ATOM     45  N   UNL     1       9.360  -5.162   3.651  1.00  0.00    -0.370 N 
ATOM     46  H   UNL     1       8.068  -3.222   4.201  1.00  0.00     0.159 HD
ATOM     47  H   UNL     1       9.157  -1.996   3.706  1.00  0.00     0.159 HD
ATOM     48  H   UNL     1       9.998  -5.931   3.494  1.00  0.00     0.159 HD
ATOM     49  H   UNL     1       8.372  -5.342   3.624  1.00  0.00     0.159 HD
ENDBRANCH  41  42
ENDBRANCH  40  41
ENDBRANCH  39  40
ENDBRANCH  38  39
ENDBRANCH  36  38
ENDBRANCH   5  34
BRANCH   8  50
ATOM     50  O   UNL     1       8.718  -8.022   2.436  1.00  0.00    -0.245 OA
BRANCH  50  51
ATOM     51  S   UNL     1       8.883  -9.227   3.516  1.00  0.00     0.397 S 
ATOM     52  O   UNL     1       8.145  -8.864   4.705  1.00  0.00    -0.169 OA
ATOM     53  O   UNL     1      10.271  -9.637   3.579  1.00  0.00    -0.169 OA
BRANCH  51  54
ATOM     54  O   UNL     1       8.046 -10.414   2.827  1.00  0.00    -0.264 OA
ATOM     55  H   UNL     1       7.134 -10.090   2.680  1.00  0.00     0.236 HD
ENDBRANCH  51  54
ENDBRANCH  50  51
ENDBRANCH   8  50
TORSDOF 19
ENDMDL
MODEL 5
REMARK VINA RESULT:    -5.853      3.383      7.459
REMARK INTER + INTRA:         -16.827
REMARK INTER:                 -13.232
REMARK INTRA:                  -3.594
REMARK UNBOUND:                -4.985
REMARK SMILES CC[C@@H](C)[C@@H](NC(=O)[C@@H](O)Cc1ccc(O)c(Cl)c1)C(=O)N1[C@H](C(=O)NCCCCN=C(N)N)C[C@H]2CC[C@H](OS(=O)(=O)O)C[C@@H]21
REMARK SMILES IDX 22 1 36 2 46 3 35 4 23 5 45 6 37 7 39 8 38 9 20 10 21 11
REMARK SMILES IDX 5 12 6 13 7 14 8 15 9 17 11 18 12 19 17 20 19 21 15 22 14 23
REMARK SMILES IDX 13 24 18 25 16 26 10 28 3 30 4 31 2 32 1 33 24 34 25 35
REMARK SMILES IDX 26 36 27 38 28 39 29 40 30 41 31 42 32 43 33 44 34 45 40 50
REMARK SMILES IDX 41 51 42 52 43 53 44 54
REMARK H PARENT 6 16 16 27 10 29 26 37 33 46 33 47 34 48 34 49 44 55
ROOT
ATOM      1  N   UNL     1       7.880  -6.860  -0.093  1.00  0.00    -0.326 N 
ATOM      2  C   UNL     1       9.244  -8.430   1.009  1.00  0.00     0.014 C 
ATOM      3  C   UNL     1       9.079  -7.674  -0.312  1.00  0.00     0.091 C 
ATOM      4  C   UNL     1       7.805  -8.667   1.441  1.00  0.00     0.041 C 
ATOM      5  C   UNL     1       7.204  -7.278   1.159  1.00  0.00     0.175 C 
ATOM      6  C   UNL     1      10.392  -6.959  -0.627  1.00  0.00     0.059 C 
ATOM      7  C   UNL     1      10.176  -9.614   0.844  1.00  0.00     0.008 C 
ATOM      8  C   UNL     1      11.644  -7.705  -0.116  1.00  0.00     0.143 C 
ATOM      9  C   UNL     1      11.406  -9.225  -0.002  1.00  0.00     0.034 C 
ENDROOT
BRANCH   1  10
ATOM     10  C   UNL     1       7.234  -5.983  -0.949  1.00  0.00     0.246 C 
ATOM     11  O   UNL     1       7.479  -4.775  -0.867  1.00  0.00    -0.272 OA
BRANCH  10  12
ATOM     12  C   UNL     1       6.251  -6.540  -2.019  1.00  0.00     0.174 C 
BRANCH  12  13
ATOM     13  N   UNL     1       6.996  -6.996  -3.191  1.00  0.00    -0.342 N 
ATOM     14  C   UNL     1       6.638  -8.058  -3.991  1.00  0.00     0.249 C 
ATOM     15  O   UNL     1       5.628  -8.729  -3.822  1.00  0.00    -0.272 OA
ATOM     16  H   UNL     1       7.932  -6.639  -3.364  1.00  0.00     0.164 HD
BRANCH  14  17
ATOM     17  C   UNL     1       7.638  -8.301  -5.141  1.00  0.00     0.207 C 
BRANCH  17  18
ATOM     18  C   UNL     1       8.686  -7.184  -5.185  1.00  0.00     0.077 C 
BRANCH  18  19
ATOM     19  C   UNL     1      10.022  -7.646  -4.649  1.00  0.00    -0.043 A 
ATOM     20  C   UNL     1      11.438  -9.404  -3.761  1.00  0.00     0.083 A 
ATOM     21  C   UNL     1      10.220  -8.991  -4.302  1.00  0.00     0.028 A 
ATOM     22  C   UNL     1      12.463  -8.478  -3.562  1.00  0.00     0.134 A 
ATOM     23  C   UNL     1      12.281  -7.142  -3.901  1.00  0.00     0.048 A 
ATOM     24  C   UNL     1      11.062  -6.726  -4.441  1.00  0.00     0.008 A 
ATOM     25  Cl  UNL     1      11.662 -11.061  -3.340  1.00  0.00    -0.080 Cl
BRANCH  22  26
ATOM     26  O   UNL     1      13.671  -8.833  -3.025  1.00  0.00    -0.506 OA
ATOM     27  H   UNL     1      14.183  -9.253  -3.740  1.00  0.00     0.293 HD
ENDBRANCH  22  26
ENDBRANCH  18  19
ENDBRANCH  17  18
BRANCH  17  28
ATOM     28  O   UNL     1       6.963  -8.372  -6.408  1.00  0.00    -0.383 OA
ATOM     29  H   UNL     1       6.928  -7.450  -6.749  1.00  0.00     0.211 HD
ENDBRANCH  17  28
ENDBRANCH  14  17
ENDBRANCH  12  13
BRANCH  12  30
ATOM     30  C   UNL     1       5.129  -5.531  -2.385  1.00  0.00     0.018 C 
ATOM     31  C   UNL     1       3.752  -6.213  -2.362  1.00  0.00     0.010 C 
BRANCH  30  32
ATOM     32  C   UNL     1       5.350  -4.823  -3.744  1.00  0.00     0.002 C 
ATOM     33  C   UNL     1       4.339  -5.168  -4.830  1.00  0.00     0.004 C 
ENDBRANCH  30  32
ENDBRANCH  12  30
ENDBRANCH  10  12
ENDBRANCH   1  10
BRANCH   5  34
ATOM     34  C   UNL     1       7.506  -6.280   2.308  1.00  0.00     0.242 C 
ATOM     35  O   UNL     1       8.319  -6.528   3.199  1.00  0.00    -0.273 OA
ATOM     36  N   UNL     1       6.761  -5.122   2.289  1.00  0.00    -0.354 N 
ATOM     37  H   UNL     1       6.019  -5.026   1.594  1.00  0.00     0.163 HD
BRANCH  36  38
ATOM     38  C   UNL     1       7.060  -3.996   3.149  1.00  0.00     0.116 C 
BRANCH  38  39
ATOM     39  C   UNL     1       5.763  -3.318   3.585  1.00  0.00     0.023 C 
BRANCH  39  40
ATOM     40  C   UNL     1       5.444  -2.082   2.751  1.00  0.00     0.026 C 
BRANCH  40  41
ATOM     41  C   UNL     1       5.569  -2.388   1.258  1.00  0.00     0.146 C 
BRANCH  41  42
ATOM     42  N   UNL     1       4.464  -3.238   0.835  1.00  0.00    -0.254 NA
ATOM     43  C   UNL     1       3.506  -2.738   0.150  1.00  0.00     0.185 C 
ATOM     44  N   UNL     1       3.319  -1.478  -0.285  1.00  0.00    -0.370 N 
ATOM     45  N   UNL     1       2.495  -3.538  -0.226  1.00  0.00    -0.370 N 
ATOM     46  H   UNL     1       2.413  -1.173  -0.598  1.00  0.00     0.159 HD
ATOM     47  H   UNL     1       3.996  -0.744  -0.100  1.00  0.00     0.159 HD
ATOM     48  H   UNL     1       2.562  -4.507   0.053  1.00  0.00     0.159 HD
ATOM     49  H   UNL     1       1.843  -3.288  -0.949  1.00  0.00     0.159 HD
ENDBRANCH  41  42
ENDBRANCH  40  41
ENDBRANCH  39  40
ENDBRANCH  38  39
ENDBRANCH  36  38
ENDBRANCH   5  34
BRANCH   8  50
ATOM     50  O   UNL     1      12.021  -7.208   1.169  1.00  0.00    -0.245 OA
BRANCH  50  51
ATOM     51  S   UNL     1      13.114  -6.009   1.276  1.00  0.00     0.397 S 
ATOM     52  O   UNL     1      12.396  -4.756   1.353  1.00  0.00    -0.169 OA
ATOM     53  O   UNL     1      14.168  -6.222   0.306  1.00  0.00    -0.169 OA
BRANCH  51  54
ATOM     54  O   UNL     1      13.733  -6.249   2.741  1.00  0.00    -0.264 OA
ATOM     55  H   UNL     1      14.495  -6.857   2.647  1.00  0.00     0.236 HD
ENDBRANCH  51  54
ENDBRANCH  50  51
ENDBRANCH   8  50
TORSDOF 19
ENDMDL
MODEL 6
REMARK VINA RESULT:    -5.836      2.758      6.697
REMARK INTER + INTRA:         -16.792
REMARK INTER:                 -13.200
REMARK INTRA:                  -3.592
REMARK UNBOUND:                -4.985
REMARK SMILES CC[C@@H](C)[C@@H](NC(=O)[C@@H](O)Cc1ccc(O)c(Cl)c1)C(=O)N1[C@H](C(=O)NCCCCN=C(N)N)C[C@H]2CC[C@H](OS(=O)(=O)O)C[C@@H]21
REMARK SMILES IDX 22 1 36 2 46 3 35 4 23 5 45 6 37 7 39 8 38 9 20 10 21 11
REMARK SMILES IDX 5 12 6 13 7 14 8 15 9 17 11 18 12 19 17 20 19 21 15 22 14 23
REMARK SMILES IDX 13 24 18 25 16 26 10 28 3 30 4 31 2 32 1 33 24 34 25 35
REMARK SMILES IDX 26 36 27 38 28 39 29 40 30 41 31 42 32 43 33 44 34 45 40 50
REMARK SMILES IDX 41 51 42 52 43 53 44 54
REMARK H PARENT 6 16 16 27 10 29 26 37 33 46 33 47 34 48 34 49 44 55
ROOT
ATOM      1  N   UNL     1      10.038  -6.888   0.107  1.00  0.00    -0.326 N 
ATOM      2  C   UNL     1       8.063  -8.134  -0.191  1.00  0.00     0.014 C 
ATOM      3  C   UNL     1       8.611  -6.704  -0.172  1.00  0.00     0.091 C 
ATOM      4  C   UNL     1       8.906  -8.830   0.866  1.00  0.00     0.041 C 
ATOM      5  C   UNL     1      10.302  -8.295   0.497  1.00  0.00     0.175 C 
ATOM      6  C   UNL     1       8.211  -6.017  -1.476  1.00  0.00     0.059 C 
ATOM      7  C   UNL     1       6.553  -8.138  -0.059  1.00  0.00     0.008 C 
ATOM      8  C   UNL     1       6.861  -6.503  -2.047  1.00  0.00     0.143 C 
ATOM      9  C   UNL     1       5.926  -7.041  -0.944  1.00  0.00     0.034 C 
ENDROOT
BRANCH   1  10
ATOM     10  C   UNL     1      11.041  -5.946   0.260  1.00  0.00     0.246 C 
ATOM     11  O   UNL     1      11.725  -5.633  -0.720  1.00  0.00    -0.272 OA
BRANCH  10  12
ATOM     12  C   UNL     1      11.256  -5.272   1.646  1.00  0.00     0.174 C 
BRANCH  12  13
ATOM     13  N   UNL     1      10.088  -4.464   1.995  1.00  0.00    -0.342 N 
ATOM     14  C   UNL     1       9.074  -4.862   2.837  1.00  0.00     0.249 C 
ATOM     15  O   UNL     1       9.053  -5.940   3.417  1.00  0.00    -0.272 OA
ATOM     16  H   UNL     1       9.890  -3.614   1.472  1.00  0.00     0.164 HD
BRANCH  14  17
ATOM     17  C   UNL     1       7.973  -3.791   2.991  1.00  0.00     0.207 C 
BRANCH  17  18
ATOM     18  C   UNL     1       7.666  -3.141   1.638  1.00  0.00     0.077 C 
BRANCH  18  19
ATOM     19  C   UNL     1       6.199  -3.248   1.283  1.00  0.00    -0.043 A 
ATOM     20  C   UNL     1       4.457  -3.645  -0.357  1.00  0.00     0.083 A 
ATOM     21  C   UNL     1       5.810  -3.596  -0.020  1.00  0.00     0.028 A 
ATOM     22  C   UNL     1       3.487  -3.347   0.601  1.00  0.00     0.134 A 
ATOM     23  C   UNL     1       3.859  -3.001   1.895  1.00  0.00     0.048 A 
ATOM     24  C   UNL     1       5.213  -2.948   2.235  1.00  0.00     0.008 A 
ATOM     25  Cl  UNL     1       3.997  -4.075  -1.962  1.00  0.00    -0.080 Cl
BRANCH  22  26
ATOM     26  O   UNL     1       2.149  -3.372   0.315  1.00  0.00    -0.506 OA
ATOM     27  H   UNL     1       2.053  -3.838  -0.536  1.00  0.00     0.293 HD
ENDBRANCH  22  26
ENDBRANCH  18  19
ENDBRANCH  17  18
BRANCH  17  28
ATOM     28  O   UNL     1       8.365  -2.776   3.929  1.00  0.00    -0.383 OA
ATOM     29  H   UNL     1       8.693  -3.254   4.725  1.00  0.00     0.211 HD
ENDBRANCH  17  28
ENDBRANCH  14  17
ENDBRANCH  12  13
BRANCH  12  30
ATOM     30  C   UNL     1      12.579  -4.464   1.722  1.00  0.00     0.018 C 
ATOM     31  C   UNL     1      13.401  -4.876   2.954  1.00  0.00     0.010 C 
BRANCH  30  32
ATOM     32  C   UNL     1      12.373  -2.930   1.708  1.00  0.00     0.002 C 
ATOM     33  C   UNL     1      12.705  -2.240   0.392  1.00  0.00     0.004 C 
ENDBRANCH  30  32
ENDBRANCH  12  30
ENDBRANCH  10  12
ENDBRANCH   1  10
BRANCH   5  34
ATOM     34  C   UNL     1      10.923  -9.086  -0.686  1.00  0.00     0.242 C 
ATOM     35  O   UNL     1      11.078  -8.588  -1.801  1.00  0.00    -0.273 OA
ATOM     36  N   UNL     1      11.238 -10.398  -0.412  1.00  0.00    -0.354 N 
ATOM     37  H   UNL     1      10.976 -10.787   0.495  1.00  0.00     0.163 HD
BRANCH  36  38
ATOM     38  C   UNL     1      12.016 -11.213  -1.322  1.00  0.00     0.116 C 
BRANCH  38  39
ATOM     39  C   UNL     1      13.506 -10.965  -1.095  1.00  0.00     0.023 C 
BRANCH  39  40
ATOM     40  C   UNL     1      14.296 -10.931  -2.398  1.00  0.00     0.026 C 
BRANCH  40  41
ATOM     41  C   UNL     1      14.269  -9.532  -3.012  1.00  0.00     0.146 C 
BRANCH  41  42
ATOM     42  N   UNL     1      14.318  -9.631  -4.465  1.00  0.00    -0.254 NA
ATOM     43  C   UNL     1      13.363  -9.143  -5.165  1.00  0.00     0.185 C 
ATOM     44  N   UNL     1      12.241  -8.509  -4.776  1.00  0.00    -0.370 N 
ATOM     45  N   UNL     1      13.424  -9.249  -6.503  1.00  0.00    -0.370 N 
ATOM     46  H   UNL     1      11.469  -8.399  -5.411  1.00  0.00     0.159 HD
ATOM     47  H   UNL     1      12.042  -8.332  -3.797  1.00  0.00     0.159 HD
ATOM     48  H   UNL     1      14.243  -9.707  -6.879  1.00  0.00     0.159 HD
ATOM     49  H   UNL     1      12.853  -8.697  -7.118  1.00  0.00     0.159 HD
ENDBRANCH  41  42
ENDBRANCH  40  41
ENDBRANCH  39  40
ENDBRANCH  38  39
ENDBRANCH  36  38
ENDBRANCH   5  34
BRANCH   8  50
ATOM     50  O   UNL     1       7.078  -7.541  -3.003  1.00  0.00    -0.245 OA
BRANCH  50  51
ATOM     51  S   UNL     1       5.932  -7.863  -4.112  1.00  0.00     0.397 S 
ATOM     52  O   UNL     1       6.593  -8.139  -5.368  1.00  0.00    -0.169 OA
ATOM     53  O   UNL     1       4.869  -6.885  -4.011  1.00  0.00    -0.169 OA
BRANCH  51  54
ATOM     54  O   UNL     1       5.358  -9.275  -3.600  1.00  0.00    -0.264 OA
ATOM     55  H   UNL     1       5.063  -9.159  -2.674  1.00  0.00     0.236 HD
ENDBRANCH  51  54
ENDBRANCH  50  51
ENDBRANCH   8  50
TORSDOF 19
ENDMDL
MODEL 7
REMARK VINA RESULT:    -5.795      3.703      7.677
REMARK INTER + INTRA:         -16.708
REMARK INTER:                 -12.816
REMARK INTRA:                  -3.892
REMARK UNBOUND:                -4.985
REMARK SMILES CC[C@@H](C)[C@@H](NC(=O)[C@@H](O)Cc1ccc(O)c(Cl)c1)C(=O)N1[C@H](C(=O)NCCCCN=C(N)N)C[C@H]2CC[C@H](OS(=O)(=O)O)C[C@@H]21
REMARK SMILES IDX 22 1 36 2 46 3 35 4 23 5 45 6 37 7 39 8 38 9 20 10 21 11
REMARK SMILES IDX 5 12 6 13 7 14 8 15 9 17 11 18 12 19 17 20 19 21 15 22 14 23
REMARK SMILES IDX 13 24 18 25 16 26 10 28 3 30 4 31 2 32 1 33 24 34 25 35
REMARK SMILES IDX 26 36 27 38 28 39 29 40 30 41 31 42 32 43 33 44 34 45 40 50
REMARK SMILES IDX 41 51 42 52 43 53 44 54
REMARK H PARENT 6 16 16 27 10 29 26 37 33 46 33 47 34 48 34 49 44 55
ROOT
ATOM      1  N   UNL     1       6.011  -4.671  -1.363  1.00  0.00    -0.326 N 
ATOM      2  C   UNL     1       7.494  -3.516   0.055  1.00  0.00     0.014 C 
ATOM      3  C   UNL     1       6.156  -3.383  -0.679  1.00  0.00     0.091 C 
ATOM      4  C   UNL     1       8.318  -4.364  -0.902  1.00  0.00     0.041 C 
ATOM      5  C   UNL     1       7.279  -5.436  -1.279  1.00  0.00     0.175 C 
ATOM      6  C   UNL     1       5.088  -2.976   0.335  1.00  0.00     0.059 C 
ATOM      7  C   UNL     1       8.015  -2.159   0.483  1.00  0.00     0.008 C 
ATOM      8  C   UNL     1       5.625  -2.097   1.485  1.00  0.00     0.143 C 
ATOM      9  C   UNL     1       6.876  -1.298   1.068  1.00  0.00     0.034 C 
ENDROOT
BRANCH   1  10
ATOM     10  C   UNL     1       5.003  -5.124  -2.197  1.00  0.00     0.246 C 
ATOM     11  O   UNL     1       3.953  -5.544  -1.698  1.00  0.00    -0.272 OA
BRANCH  10  12
ATOM     12  C   UNL     1       5.195  -5.056  -3.739  1.00  0.00     0.174 C 
BRANCH  12  13
ATOM     13  N   UNL     1       6.197  -6.034  -4.161  1.00  0.00    -0.342 N 
ATOM     14  C   UNL     1       5.944  -7.362  -4.423  1.00  0.00     0.249 C 
ATOM     15  O   UNL     1       4.832  -7.870  -4.357  1.00  0.00    -0.272 OA
ATOM     16  H   UNL     1       7.185  -5.798  -4.108  1.00  0.00     0.164 HD
BRANCH  14  17
ATOM     17  C   UNL     1       7.213  -8.141  -4.830  1.00  0.00     0.207 C 
BRANCH  17  18
ATOM     18  C   UNL     1       8.461  -7.277  -4.623  1.00  0.00     0.077 C 
BRANCH  18  19
ATOM     19  C   UNL     1       9.483  -7.968  -3.748  1.00  0.00    -0.043 A 
ATOM     20  C   UNL     1      11.256  -9.600  -3.473  1.00  0.00     0.083 A 
ATOM     21  C   UNL     1      10.348  -8.929  -4.293  1.00  0.00     0.028 A 
ATOM     22  C   UNL     1      11.305  -9.318  -2.108  1.00  0.00     0.134 A 
ATOM     23  C   UNL     1      10.455  -8.368  -1.555  1.00  0.00     0.048 A 
ATOM     24  C   UNL     1       9.543  -7.696  -2.372  1.00  0.00     0.008 A 
ATOM     25  Cl  UNL     1      12.311 -10.779  -4.162  1.00  0.00    -0.080 Cl
BRANCH  22  26
ATOM     26  O   UNL     1      12.172  -9.957  -1.263  1.00  0.00    -0.506 OA
ATOM     27  H   UNL     1      11.663 -10.188  -0.463  1.00  0.00     0.293 HD
ENDBRANCH  22  26
ENDBRANCH  18  19
ENDBRANCH  17  18
BRANCH  17  28
ATOM     28  O   UNL     1       7.145  -8.559  -6.203  1.00  0.00    -0.383 OA
ATOM     29  H   UNL     1       7.551  -7.832  -6.728  1.00  0.00     0.211 HD
ENDBRANCH  17  28
ENDBRANCH  14  17
ENDBRANCH  12  13
BRANCH  12  30
ATOM     30  C   UNL     1       5.519  -3.623  -4.241  1.00  0.00     0.018 C 
ATOM     31  C   UNL     1       4.484  -3.161  -5.280  1.00  0.00     0.010 C 
BRANCH  30  32
ATOM     32  C   UNL     1       6.950  -3.472  -4.812  1.00  0.00     0.002 C 
ATOM     33  C   UNL     1       7.030  -3.235  -6.314  1.00  0.00     0.004 C 
ENDBRANCH  30  32
ENDBRANCH  12  30
ENDBRANCH  10  12
ENDBRANCH   1  10
BRANCH   5  34
ATOM     34  C   UNL     1       7.182  -6.545  -0.197  1.00  0.00     0.242 C 
ATOM     35  O   UNL     1       6.279  -7.381  -0.191  1.00  0.00    -0.273 OA
ATOM     36  N   UNL     1       8.146  -6.490   0.785  1.00  0.00    -0.354 N 
ATOM     37  H   UNL     1       8.796  -5.703   0.793  1.00  0.00     0.163 HD
BRANCH  36  38
ATOM     38  C   UNL     1       8.336  -7.561   1.742  1.00  0.00     0.116 C 
BRANCH  38  39
ATOM     39  C   UNL     1       9.474  -7.207   2.697  1.00  0.00     0.023 C 
BRANCH  39  40
ATOM     40  C   UNL     1      10.705  -6.680   1.966  1.00  0.00     0.026 C 
BRANCH  40  41
ATOM     41  C   UNL     1      11.013  -5.244   2.389  1.00  0.00     0.146 C 
BRANCH  41  42
ATOM     42  N   UNL     1       9.781  -4.567   2.770  1.00  0.00    -0.254 NA
ATOM     43  C   UNL     1       9.830  -3.554   3.551  1.00  0.00     0.185 C 
ATOM     44  N   UNL     1      10.889  -2.955   4.126  1.00  0.00    -0.370 N 
ATOM     45  N   UNL     1       8.682  -2.947   3.893  1.00  0.00    -0.370 N 
ATOM     46  H   UNL     1      10.764  -2.329   4.903  1.00  0.00     0.159 HD
ATOM     47  H   UNL     1      11.837  -3.279   3.963  1.00  0.00     0.159 HD
ATOM     48  H   UNL     1       7.835  -3.330   3.495  1.00  0.00     0.159 HD
ATOM     49  H   UNL     1       8.652  -2.027   4.296  1.00  0.00     0.159 HD
ENDBRANCH  41  42
ENDBRANCH  40  41
ENDBRANCH  39  40
ENDBRANCH  38  39
ENDBRANCH  36  38
ENDBRANCH   5  34
BRANCH   8  50
ATOM     50  O   UNL     1       5.962  -2.913   2.608  1.00  0.00    -0.245 OA
BRANCH  50  51
ATOM     51  S   UNL     1       4.969  -2.956   3.896  1.00  0.00     0.397 S 
ATOM     52  O   UNL     1       4.113  -4.113   3.760  1.00  0.00    -0.169 OA
ATOM     53  O   UNL     1       4.427  -1.635   4.136  1.00  0.00    -0.169 OA
BRANCH  51  54
ATOM     54  O   UNL     1       5.986  -3.301   5.092  1.00  0.00    -0.264 OA
ATOM     55  H   UNL     1       5.796  -4.214   5.391  1.00  0.00     0.236 HD
ENDBRANCH  51  54
ENDBRANCH  50  51
ENDBRANCH   8  50
TORSDOF 19
ENDMDL
MODEL 8
REMARK VINA RESULT:    -5.783      8.853     12.216
REMARK INTER + INTRA:         -16.683
REMARK INTER:                 -12.711
REMARK INTRA:                  -3.973
REMARK UNBOUND:                -4.985
REMARK SMILES CC[C@@H](C)[C@@H](NC(=O)[C@@H](O)Cc1ccc(O)c(Cl)c1)C(=O)N1[C@H](C(=O)NCCCCN=C(N)N)C[C@H]2CC[C@H](OS(=O)(=O)O)C[C@@H]21
REMARK SMILES IDX 22 1 36 2 46 3 35 4 23 5 45 6 37 7 39 8 38 9 20 10 21 11
REMARK SMILES IDX 5 12 6 13 7 14 8 15 9 17 11 18 12 19 17 20 19 21 15 22 14 23
REMARK SMILES IDX 13 24 18 25 16 26 10 28 3 30 4 31 2 32 1 33 24 34 25 35
REMARK SMILES IDX 26 36 27 38 28 39 29 40 30 41 31 42 32 43 33 44 34 45 40 50
REMARK SMILES IDX 41 51 42 52 43 53 44 54
REMARK H PARENT 6 16 16 27 10 29 26 37 33 46 33 47 34 48 34 49 44 55
ROOT
ATOM      1  N   UNL     1       5.809  -1.665 -10.385  1.00  0.00    -0.326 N 
ATOM      2  C   UNL     1       6.876  -0.105 -11.788  1.00  0.00     0.014 C 
ATOM      3  C   UNL     1       7.148  -1.269 -10.831  1.00  0.00     0.091 C 
ATOM      4  C   UNL     1       5.671   0.574 -11.157  1.00  0.00     0.041 C 
ATOM      5  C   UNL     1       4.810  -0.658 -10.820  1.00  0.00     0.175 C 
ATOM      6  C   UNL     1       8.005  -2.304 -11.558  1.00  0.00     0.059 C 
ATOM      7  C   UNL     1       8.137   0.699 -12.036  1.00  0.00     0.008 C 
ATOM      8  C   UNL     1       8.969  -1.692 -12.597  1.00  0.00     0.143 C 
ATOM      9  C   UNL     1       9.346  -0.237 -12.252  1.00  0.00     0.034 C 
ENDROOT
BRANCH   1  10
ATOM     10  C   UNL     1       5.426  -2.654  -9.495  1.00  0.00     0.246 C 
ATOM     11  O   UNL     1       5.030  -3.739  -9.935  1.00  0.00    -0.272 OA
BRANCH  10  12
ATOM     12  C   UNL     1       5.542  -2.396  -7.965  1.00  0.00     0.174 C 
BRANCH  12  13
ATOM     13  N   UNL     1       5.613  -3.669  -7.248  1.00  0.00    -0.342 N 
ATOM     14  C   UNL     1       6.717  -4.134  -6.570  1.00  0.00     0.249 C 
ATOM     15  O   UNL     1       7.767  -3.512  -6.469  1.00  0.00    -0.272 OA
ATOM     16  H   UNL     1       4.877  -4.360  -7.374  1.00  0.00     0.164 HD
BRANCH  14  17
ATOM     17  C   UNL     1       6.484  -5.520  -5.932  1.00  0.00     0.207 C 
BRANCH  17  18
ATOM     18  C   UNL     1       6.927  -5.515  -4.465  1.00  0.00     0.077 C 
BRANCH  18  19
ATOM     19  C   UNL     1       5.806  -5.096  -3.541  1.00  0.00    -0.043 A 
ATOM     20  C   UNL     1       4.649  -3.373  -2.286  1.00  0.00     0.083 A 
ATOM     21  C   UNL     1       5.654  -3.749  -3.178  1.00  0.00     0.028 A 
ATOM     22  C   UNL     1       3.793  -4.336  -1.752  1.00  0.00     0.134 A 
ATOM     23  C   UNL     1       3.932  -5.674  -2.103  1.00  0.00     0.048 A 
ATOM     24  C   UNL     1       4.938  -6.054  -2.994  1.00  0.00     0.008 A 
ATOM     25  Cl  UNL     1       4.478  -1.712  -1.851  1.00  0.00    -0.080 Cl
BRANCH  22  26
ATOM     26  O   UNL     1       2.799  -4.017  -0.866  1.00  0.00    -0.506 OA
ATOM     27  H   UNL     1       2.806  -3.046  -0.776  1.00  0.00     0.293 HD
ENDBRANCH  22  26
ENDBRANCH  18  19
ENDBRANCH  17  18
BRANCH  17  28
ATOM     28  O   UNL     1       7.199  -6.544  -6.642  1.00  0.00    -0.383 OA
ATOM     29  H   UNL     1       7.380  -7.255  -5.986  1.00  0.00     0.211 HD
ENDBRANCH  17  28
ENDBRANCH  14  17
ENDBRANCH  12  13
BRANCH  12  30
ATOM     30  C   UNL     1       4.416  -1.474  -7.425  1.00  0.00     0.018 C 
ATOM     31  C   UNL     1       4.970  -0.084  -7.073  1.00  0.00     0.010 C 
BRANCH  30  32
ATOM     32  C   UNL     1       3.656  -2.066  -6.213  1.00  0.00     0.002 C 
ATOM     33  C   UNL     1       3.259  -1.061  -5.139  1.00  0.00     0.004 C 
ENDBRANCH  30  32
ENDBRANCH  12  30
ENDBRANCH  10  12
ENDBRANCH   1  10
BRANCH   5  34
ATOM     34  C   UNL     1       4.023  -1.162 -12.059  1.00  0.00     0.242 C 
ATOM     35  O   UNL     1       4.105  -2.322 -12.463  1.00  0.00    -0.273 OA
ATOM     36  N   UNL     1       3.271  -0.207 -12.704  1.00  0.00    -0.354 N 
ATOM     37  H   UNL     1       3.338   0.764 -12.393  1.00  0.00     0.163 HD
BRANCH  36  38
ATOM     38  C   UNL     1       2.314  -0.543 -13.737  1.00  0.00     0.116 C 
BRANCH  38  39
ATOM     39  C   UNL     1       2.496   0.386 -14.935  1.00  0.00     0.023 C 
BRANCH  39  40
ATOM     40  C   UNL     1       2.193  -0.306 -16.260  1.00  0.00     0.026 C 
BRANCH  40  41
ATOM     41  C   UNL     1       2.849  -1.685 -16.315  1.00  0.00     0.146 C 
BRANCH  41  42
ATOM     42  N   UNL     1       4.090  -1.610 -17.074  1.00  0.00    -0.254 NA
ATOM     43  C   UNL     1       5.202  -1.875 -16.498  1.00  0.00     0.185 C 
ATOM     44  N   UNL     1       5.453  -2.236 -15.226  1.00  0.00    -0.370 N 
ATOM     45  N   UNL     1       6.335  -1.796 -17.215  1.00  0.00    -0.370 N 
ATOM     46  H   UNL     1       6.384  -2.174 -14.850  1.00  0.00     0.159 HD
ATOM     47  H   UNL     1       4.707  -2.357 -14.549  1.00  0.00     0.159 HD
ATOM     48  H   UNL     1       6.234  -1.537 -18.187  1.00  0.00     0.159 HD
ATOM     49  H   UNL     1       7.200  -2.208 -16.912  1.00  0.00     0.159 HD
ENDBRANCH  41  42
ENDBRANCH  40  41
ENDBRANCH  39  40
ENDBRANCH  38  39
ENDBRANCH  36  38
ENDBRANCH   5  34
BRANCH   8  50
ATOM     50  O   UNL     1       8.369  -1.709 -13.893  1.00  0.00    -0.245 OA
BRANCH  50  51
ATOM     51  S   UNL     1       9.217  -2.268 -15.163  1.00  0.00     0.397 S 
ATOM     52  O   UNL     1       8.497  -3.390 -15.722  1.00  0.00    -0.169 OA
ATOM     53  O   UNL     1      10.617  -2.364 -14.808  1.00  0.00    -0.169 OA
BRANCH  51  54
ATOM     54  O   UNL     1       9.056  -1.072 -16.226  1.00  0.00    -0.264 OA
ATOM     55  H   UNL     1       9.807  -1.125 -16.851  1.00  0.00     0.236 HD
ENDBRANCH  51  54
ENDBRANCH  50  51
ENDBRANCH   8  50
TORSDOF 19
ENDMDL
MODEL 9
REMARK VINA RESULT:    -5.744      1.658      2.141
REMARK INTER + INTRA:         -16.604
REMARK INTER:                 -11.600
REMARK INTRA:                  -5.005
REMARK UNBOUND:                -4.985
REMARK SMILES CC[C@@H](C)[C@@H](NC(=O)[C@@H](O)Cc1ccc(O)c(Cl)c1)C(=O)N1[C@H](C(=O)NCCCCN=C(N)N)C[C@H]2CC[C@H](OS(=O)(=O)O)C[C@@H]21
REMARK SMILES IDX 22 1 36 2 46 3 35 4 23 5 45 6 37 7 39 8 38 9 20 10 21 11
REMARK SMILES IDX 5 12 6 13 7 14 8 15 9 17 11 18 12 19 17 20 19 21 15 22 14 23
REMARK SMILES IDX 13 24 18 25 16 26 10 28 3 30 4 31 2 32 1 33 24 34 25 35
REMARK SMILES IDX 26 36 27 38 28 39 29 40 30 41 31 42 32 43 33 44 34 45 40 50
REMARK SMILES IDX 41 51 42 52 43 53 44 54
REMARK H PARENT 6 16 16 27 10 29 26 37 33 46 33 47 34 48 34 49 44 55
ROOT
ATOM      1  N   UNL     1      10.247  -6.498  -2.592  1.00  0.00    -0.326 N 
ATOM      2  C   UNL     1       9.023  -5.370  -4.257  1.00  0.00     0.014 C 
ATOM      3  C   UNL     1       9.411  -6.768  -3.765  1.00  0.00     0.091 C 
ATOM      4  C   UNL     1      10.265  -4.549  -3.944  1.00  0.00     0.041 C 
ATOM      5  C   UNL     1      10.573  -5.052  -2.522  1.00  0.00     0.175 C 
ATOM      6  C   UNL     1       8.134  -7.583  -3.573  1.00  0.00     0.059 C 
ATOM      7  C   UNL     1       8.505  -5.421  -5.681  1.00  0.00     0.008 C 
ATOM      8  C   UNL     1       7.003  -7.208  -4.555  1.00  0.00     0.143 C 
ATOM      9  C   UNL     1       7.550  -6.618  -5.870  1.00  0.00     0.034 C 
ENDROOT
BRANCH   1  10
ATOM     10  C   UNL     1      10.900  -7.379  -1.746  1.00  0.00     0.246 C 
ATOM     11  O   UNL     1      11.963  -7.032  -1.221  1.00  0.00    -0.272 OA
BRANCH  10  12
ATOM     12  C   UNL     1      10.261  -8.765  -1.441  1.00  0.00     0.174 C 
BRANCH  12  13
ATOM     13  N   UNL     1       9.867  -8.834  -0.035  1.00  0.00    -0.342 N 
ATOM     14  C   UNL     1       8.626  -8.498   0.456  1.00  0.00     0.249 C 
ATOM     15  O   UNL     1       7.694  -8.125  -0.245  1.00  0.00    -0.272 OA
ATOM     16  H   UNL     1      10.577  -8.975   0.681  1.00  0.00     0.164 HD
BRANCH  14  17
ATOM     17  C   UNL     1       8.526  -8.661   1.988  1.00  0.00     0.207 C 
BRANCH  17  18
ATOM     18  C   UNL     1       9.901  -8.471   2.637  1.00  0.00     0.077 C 
BRANCH  18  19
ATOM     19  C   UNL     1      10.281  -7.010   2.729  1.00  0.00    -0.043 A 
ATOM     20  C   UNL     1       9.681  -4.707   3.197  1.00  0.00     0.083 A 
ATOM     21  C   UNL     1       9.342  -6.060   3.160  1.00  0.00     0.028 A 
ATOM     22  C   UNL     1      10.955  -4.295   2.804  1.00  0.00     0.134 A 
ATOM     23  C   UNL     1      11.895  -5.226   2.375  1.00  0.00     0.048 A 
ATOM     24  C   UNL     1      11.558  -6.581   2.336  1.00  0.00     0.008 A 
ATOM     25  Cl  UNL     1       8.514  -3.554   3.728  1.00  0.00    -0.080 Cl
BRANCH  22  26
ATOM     26  O   UNL     1      11.330  -2.979   2.813  1.00  0.00    -0.506 OA
ATOM     27  H   UNL     1      10.849  -2.546   2.083  1.00  0.00     0.293 HD
ENDBRANCH  22  26
ENDBRANCH  18  19
ENDBRANCH  17  18
BRANCH  17  28
ATOM     28  O   UNL     1       8.009  -9.955   2.337  1.00  0.00    -0.383 OA
ATOM     29  H   UNL     1       8.329 -10.139   3.249  1.00  0.00     0.211 HD
ENDBRANCH  17  28
ENDBRANCH  14  17
ENDBRANCH  12  13
BRANCH  12  30
ATOM     30  C   UNL     1      11.172  -9.950  -1.860  1.00  0.00     0.018 C 
ATOM     31  C   UNL     1      12.043 -10.413  -0.682  1.00  0.00     0.010 C 
BRANCH  30  32
ATOM     32  C   UNL     1      12.061  -9.646  -3.091  1.00  0.00     0.002 C 
ATOM     33  C   UNL     1      11.406  -9.894  -4.444  1.00  0.00     0.004 C 
ENDBRANCH  30  32
ENDBRANCH  12  30
ENDBRANCH  10  12
ENDBRANCH   1  10
BRANCH   5  34
ATOM     34  C   UNL     1       9.692  -4.341  -1.460  1.00  0.00     0.242 C 
ATOM     35  O   UNL     1       9.207  -4.939  -0.500  1.00  0.00    -0.273 OA
ATOM     36  N   UNL     1       9.449  -3.007  -1.700  1.00  0.00    -0.354 N 
ATOM     37  H   UNL     1       9.778  -2.597  -2.575  1.00  0.00     0.163 HD
BRANCH  36  38
ATOM     38  C   UNL     1       8.834  -2.144  -0.713  1.00  0.00     0.116 C 
BRANCH  38  39
ATOM     39  C   UNL     1       7.718  -1.328  -1.360  1.00  0.00     0.023 C 
BRANCH  39  40
ATOM     40  C   UNL     1       6.592  -2.204  -1.899  1.00  0.00     0.026 C 
BRANCH  40  41
ATOM     41  C   UNL     1       5.878  -2.931  -0.758  1.00  0.00     0.146 C 
BRANCH  41  42
ATOM     42  N   UNL     1       5.486  -4.265  -1.194  1.00  0.00    -0.254 NA
ATOM     43  C   UNL     1       5.833  -5.284  -0.501  1.00  0.00     0.185 C 
ATOM     44  N   UNL     1       6.543  -5.354   0.640  1.00  0.00    -0.370 N 
ATOM     45  N   UNL     1       5.465  -6.506  -0.921  1.00  0.00    -0.370 N 
ATOM     46  H   UNL     1       6.947  -6.225   0.940  1.00  0.00     0.159 HD
ATOM     47  H   UNL     1       6.889  -4.520   1.104  1.00  0.00     0.159 HD
ATOM     48  H   UNL     1       4.918  -6.542  -1.771  1.00  0.00     0.159 HD
ATOM     49  H   UNL     1       5.488  -7.315  -0.327  1.00  0.00     0.159 HD
ENDBRANCH  41  42
ENDBRANCH  40  41
ENDBRANCH  39  40
ENDBRANCH  38  39
ENDBRANCH  36  38
ENDBRANCH   5  34
BRANCH   8  50
ATOM     50  O   UNL     1       6.131  -6.249  -3.955  1.00  0.00    -0.245 OA
BRANCH  50  51
ATOM     51  S   UNL     1       4.570  -6.190  -4.407  1.00  0.00     0.397 S 
ATOM     52  O   UNL     1       4.399  -5.046  -5.274  1.00  0.00    -0.169 OA
ATOM     53  O   UNL     1       3.722  -6.402  -3.252  1.00  0.00    -0.169 OA
BRANCH  51  54
ATOM     54  O   UNL     1       4.446  -7.482  -5.356  1.00  0.00    -0.264 OA
ATOM     55  H   UNL     1       3.758  -7.294  -6.027  1.00  0.00     0.236 HD
ENDBRANCH  51  54
ENDBRANCH  50  51
ENDBRANCH   8  50
TORSDOF 19
ENDMDL
MODEL 10
REMARK VINA RESULT:    -5.741      3.099      5.605
REMARK INTER + INTRA:         -16.600
REMARK INTER:                 -13.175
REMARK INTRA:                  -3.425
REMARK UNBOUND:                -4.985
REMARK SMILES CC[C@@H](C)[C@@H](NC(=O)[C@@H](O)Cc1ccc(O)c(Cl)c1)C(=O)N1[C@H](C(=O)NCCCCN=C(N)N)C[C@H]2CC[C@H](OS(=O)(=O)O)C[C@@H]21
REMARK SMILES IDX 22 1 36 2 46 3 35 4 23 5 45 6 37 7 39 8 38 9 20 10 21 11
REMARK SMILES IDX 5 12 6 13 7 14 8 15 9 17 11 18 12 19 17 20 19 21 15 22 14 23
REMARK SMILES IDX 13 24 18 25 16 26 10 28 3 30 4 31 2 32 1 33 24 34 25 35
REMARK SMILES IDX 26 36 27 38 28 39 29 40 30 41 31 42 32 43 33 44 34 45 40 50
REMARK SMILES IDX 41 51 42 52 43 53 44 54
REMARK H PARENT 6 16 16 27 10 29 26 37 33 46 33 47 34 48 34 49 44 55
ROOT
ATOM      1  N   UNL     1       8.106  -7.218  -0.172  1.00  0.00    -0.326 N 
ATOM      2  C   UNL     1       8.457  -5.900  -2.091  1.00  0.00     0.014 C 
ATOM      3  C   UNL     1       8.208  -7.339  -1.629  1.00  0.00     0.091 C 
ATOM      4  C   UNL     1       9.302  -5.328  -0.963  1.00  0.00     0.041 C 
ATOM      5  C   UNL     1       8.525  -5.860   0.255  1.00  0.00     0.175 C 
ATOM      6  C   UNL     1       7.008  -7.892  -2.396  1.00  0.00     0.059 C 
ATOM      7  C   UNL     1       8.993  -5.872  -3.509  1.00  0.00     0.008 C 
ATOM      8  C   UNL     1       6.867  -7.321  -3.824  1.00  0.00     0.143 C 
ATOM      9  C   UNL     1       8.222  -6.866  -4.403  1.00  0.00     0.034 C 
ENDROOT
BRANCH   1  10
ATOM     10  C   UNL     1       7.903  -8.194   0.788  1.00  0.00     0.246 C 
ATOM     11  O   UNL     1       6.759  -8.624   0.976  1.00  0.00    -0.272 OA
BRANCH  10  12
ATOM     12  C   UNL     1       9.119  -8.759   1.577  1.00  0.00     0.174 C 
BRANCH  12  13
ATOM     13  N   UNL     1      10.026  -9.454   0.664  1.00  0.00    -0.342 N 
ATOM     14  C   UNL     1      11.349  -9.130   0.465  1.00  0.00     0.249 C 
ATOM     15  O   UNL     1      11.927  -8.228   1.060  1.00  0.00    -0.272 OA
ATOM     16  H   UNL     1       9.652 -10.119  -0.009  1.00  0.00     0.164 HD
BRANCH  14  17
ATOM     17  C   UNL     1      12.036 -10.039  -0.575  1.00  0.00     0.207 C 
BRANCH  17  18
ATOM     18  C   UNL     1      11.224 -10.077  -1.873  1.00  0.00     0.077 C 
BRANCH  18  19
ATOM     19  C   UNL     1      11.944  -9.383  -3.008  1.00  0.00    -0.043 A 
ATOM     20  C   UNL     1      12.582  -7.346  -4.160  1.00  0.00     0.083 A 
ATOM     21  C   UNL     1      11.958  -7.981  -3.086  1.00  0.00     0.028 A 
ATOM     22  C   UNL     1      13.192  -8.102  -5.161  1.00  0.00     0.134 A 
ATOM     23  C   UNL     1      13.186  -9.491  -5.096  1.00  0.00     0.048 A 
ATOM     24  C   UNL     1      12.561 -10.130  -4.022  1.00  0.00     0.008 A 
ATOM     25  Cl  UNL     1      12.588  -5.623  -4.239  1.00  0.00    -0.080 Cl
BRANCH  22  26
ATOM     26  O   UNL     1      13.806  -7.524  -6.238  1.00  0.00    -0.506 OA
ATOM     27  H   UNL     1      13.576  -6.577  -6.217  1.00  0.00     0.293 HD
ENDBRANCH  22  26
ENDBRANCH  18  19
ENDBRANCH  17  18
BRANCH  17  28
ATOM     28  O   UNL     1      12.191 -11.376  -0.072  1.00  0.00    -0.383 OA
ATOM     29  H   UNL     1      11.317 -11.629   0.302  1.00  0.00     0.211 HD
ENDBRANCH  17  28
ENDBRANCH  14  17
ENDBRANCH  12  13
BRANCH  12  30
ATOM     30  C   UNL     1       8.695  -9.645   2.779  1.00  0.00     0.018 C 
ATOM     31  C   UNL     1       8.946  -8.917   4.109  1.00  0.00     0.010 C 
BRANCH  30  32
ATOM     32  C   UNL     1       9.377 -11.035   2.798  1.00  0.00     0.002 C 
ATOM     33  C   UNL     1      10.351 -11.268   3.945  1.00  0.00     0.004 C 
ENDBRANCH  30  32
ENDBRANCH  12  30
ENDBRANCH  10  12
ENDBRANCH   1  10
BRANCH   5  34
ATOM     34  C   UNL     1       7.289  -4.978   0.576  1.00  0.00     0.242 C 
ATOM     35  O   UNL     1       6.139  -5.343   0.334  1.00  0.00    -0.273 OA
ATOM     36  N   UNL     1       7.576  -3.737   1.100  1.00  0.00    -0.354 N 
ATOM     37  H   UNL     1       8.551  -3.444   1.166  1.00  0.00     0.163 HD
BRANCH  36  38
ATOM     38  C   UNL     1       6.551  -2.876   1.654  1.00  0.00     0.116 C 
BRANCH  38  39
ATOM     39  C   UNL     1       6.351  -3.194   3.134  1.00  0.00     0.023 C 
BRANCH  39  40
ATOM     40  C   UNL     1       4.909  -2.986   3.585  1.00  0.00     0.026 C 
BRANCH  40  41
ATOM     41  C   UNL     1       3.933  -3.599   2.582  1.00  0.00     0.146 C 
BRANCH  41  42
ATOM     42  N   UNL     1       2.961  -2.597   2.165  1.00  0.00    -0.254 NA
ATOM     43  C   UNL     1       2.541  -2.587   0.955  1.00  0.00     0.185 C 
ATOM     44  N   UNL     1       2.854  -3.392  -0.076  1.00  0.00    -0.370 N 
ATOM     45  N   UNL     1       1.648  -1.652   0.590  1.00  0.00    -0.370 N 
ATOM     46  H   UNL     1       2.639  -3.122  -1.021  1.00  0.00     0.159 HD
ATOM     47  H   UNL     1       3.506  -4.163   0.029  1.00  0.00     0.159 HD
ATOM     48  H   UNL     1       1.352  -1.009   1.311  1.00  0.00     0.159 HD
ATOM     49  H   UNL     1       1.102  -1.721  -0.250  1.00  0.00     0.159 HD
ENDBRANCH  41  42
ENDBRANCH  40  41
ENDBRANCH  39  40
ENDBRANCH  38  39
ENDBRANCH  36  38
ENDBRANCH   5  34
BRANCH   8  50
ATOM     50  O   UNL     1       5.977  -6.204  -3.819  1.00  0.00    -0.245 OA
BRANCH  50  51
ATOM     51  S   UNL     1       4.475  -6.372  -4.419  1.00  0.00     0.397 S 
ATOM     52  O   UNL     1       3.552  -6.407  -3.307  1.00  0.00    -0.169 OA
ATOM     53  O   UNL     1       4.471  -7.396  -5.442  1.00  0.00    -0.169 OA
BRANCH  51  54
ATOM     54  O   UNL     1       4.240  -4.953  -5.137  1.00  0.00    -0.264 OA
ATOM     55  H   UNL     1       3.488  -5.052  -5.756  1.00  0.00     0.236 HD
ENDBRANCH  51  54
ENDBRANCH  50  51
ENDBRANCH   8  50
TORSDOF 19
ENDMDL
MODEL 11
REMARK VINA RESULT:    -5.708      2.864      5.209
REMARK INTER + INTRA:         -16.532
REMARK INTER:                 -11.899
REMARK INTRA:                  -4.633
REMARK UNBOUND:                -4.985
REMARK SMILES CC[C@@H](C)[C@@H](NC(=O)[C@@H](O)Cc1ccc(O)c(Cl)c1)C(=O)N1[C@H](C(=O)NCCCCN=C(N)N)C[C@H]2CC[C@H](OS(=O)(=O)O)C[C@@H]21
REMARK SMILES IDX 22 1 36 2 46 3 35 4 23 5 45 6 37 7 39 8 38 9 20 10 21 11
REMARK SMILES IDX 5 12 6 13 7 14 8 15 9 17 11 18 12 19 17 20 19 21 15 22 14 23
REMARK SMILES IDX 13 24 18 25 16 26 10 28 3 30 4 31 2 32 1 33 24 34 25 35
REMARK SMILES IDX 26 36 27 38 28 39 29 40 30 41 31 42 32 43 33 44 34 45 40 50
REMARK SMILES IDX 41 51 42 52 43 53 44 54
REMARK H PARENT 6 16 16 27 10 29 26 37 33 46 33 47 34 48 34 49 44 55
ROOT
ATOM      1  N   UNL     1       8.873  -6.223  -0.479  1.00  0.00    -0.326 N 
ATOM      2  C   UNL     1       9.484  -5.883  -2.727  1.00  0.00     0.014 C 
ATOM      3  C   UNL     1       9.003  -6.953  -1.743  1.00  0.00     0.091 C 
ATOM      4  C   UNL     1      10.368  -5.002  -1.858  1.00  0.00     0.041 C 
ATOM      5  C   UNL     1       9.480  -4.875  -0.607  1.00  0.00     0.175 C 
ATOM      6  C   UNL     1       7.759  -7.621  -2.325  1.00  0.00     0.059 C 
ATOM      7  C   UNL     1      10.064  -6.516  -3.976  1.00  0.00     0.008 C 
ATOM      8  C   UNL     1       7.753  -7.687  -3.868  1.00  0.00     0.143 C 
ATOM      9  C   UNL     1       9.180  -7.688  -4.453  1.00  0.00     0.034 C 
ENDROOT
BRANCH   1  10
ATOM     10  C   UNL     1       8.492  -6.675   0.773  1.00  0.00     0.246 C 
ATOM     11  O   UNL     1       7.316  -6.541   1.128  1.00  0.00    -0.272 OA
BRANCH  10  12
ATOM     12  C   UNL     1       9.538  -7.379   1.685  1.00  0.00     0.174 C 
BRANCH  12  13
ATOM     13  N   UNL     1      10.783  -7.587   0.947  1.00  0.00    -0.342 N 
ATOM     14  C   UNL     1      11.906  -6.797   1.054  1.00  0.00     0.249 C 
ATOM     15  O   UNL     1      11.996  -5.837   1.809  1.00  0.00    -0.272 OA
ATOM     16  H   UNL     1      10.806  -8.246   0.173  1.00  0.00     0.164 HD
BRANCH  14  17
ATOM     17  C   UNL     1      13.053  -7.265   0.132  1.00  0.00     0.207 C 
BRANCH  17  18
ATOM     18  C   UNL     1      12.893  -8.750  -0.210  1.00  0.00     0.077 C 
BRANCH  18  19
ATOM     19  C   UNL     1      12.804  -8.975  -1.703  1.00  0.00    -0.043 A 
ATOM     20  C   UNL     1      13.449  -8.374  -3.963  1.00  0.00     0.083 A 
ATOM     21  C   UNL     1      13.571  -8.197  -2.584  1.00  0.00     0.028 A 
ATOM     22  C   UNL     1      12.564  -9.326  -4.469  1.00  0.00     0.134 A 
ATOM     23  C   UNL     1      11.798 -10.104  -3.608  1.00  0.00     0.048 A 
ATOM     24  C   UNL     1      11.916  -9.928  -2.227  1.00  0.00     0.008 A 
ATOM     25  Cl  UNL     1      14.399  -7.408  -5.029  1.00  0.00    -0.080 Cl
BRANCH  22  26
ATOM     26  O   UNL     1      12.403  -9.528  -5.813  1.00  0.00    -0.506 OA
ATOM     27  H   UNL     1      13.162 -10.065  -6.108  1.00  0.00     0.293 HD
ENDBRANCH  22  26
ENDBRANCH  18  19
ENDBRANCH  17  18
BRANCH  17  28
ATOM     28  O   UNL     1      14.332  -7.053   0.750  1.00  0.00    -0.383 OA
ATOM     29  H   UNL     1      14.944  -6.791   0.026  1.00  0.00     0.211 HD
ENDBRANCH  17  28
ENDBRANCH  14  17
ENDBRANCH  12  13
BRANCH  12  30
ATOM     30  C   UNL     1       8.997  -8.690   2.317  1.00  0.00     0.018 C 
ATOM     31  C   UNL     1       8.960  -8.584   3.849  1.00  0.00     0.010 C 
BRANCH  30  32
ATOM     32  C   UNL     1       9.782  -9.955   1.890  1.00  0.00     0.002 C 
ATOM     33  C   UNL     1      10.658 -10.573   2.972  1.00  0.00     0.004 C 
ENDBRANCH  30  32
ENDBRANCH  12  30
ENDBRANCH  10  12
ENDBRANCH   1  10
BRANCH   5  34
ATOM     34  C   UNL     1       8.383  -3.792  -0.791  1.00  0.00     0.242 C 
ATOM     35  O   UNL     1       8.322  -3.081  -1.793  1.00  0.00    -0.273 OA
ATOM     36  N   UNL     1       7.516  -3.650   0.270  1.00  0.00    -0.354 N 
ATOM     37  H   UNL     1       7.690  -4.185   1.122  1.00  0.00     0.163 HD
BRANCH  36  38
ATOM     38  C   UNL     1       6.313  -2.848   0.184  1.00  0.00     0.116 C 
BRANCH  38  39
ATOM     39  C   UNL     1       5.242  -3.419   1.110  1.00  0.00     0.023 C 
BRANCH  39  40
ATOM     40  C   UNL     1       3.829  -3.107   0.629  1.00  0.00     0.026 C 
BRANCH  40  41
ATOM     41  C   UNL     1       3.740  -3.209  -0.894  1.00  0.00     0.146 C 
BRANCH  41  42
ATOM     42  N   UNL     1       3.304  -4.547  -1.273  1.00  0.00    -0.254 NA
ATOM     43  C   UNL     1       4.073  -5.287  -1.980  1.00  0.00     0.185 C 
ATOM     44  N   UNL     1       5.301  -5.038  -2.472  1.00  0.00    -0.370 N 
ATOM     45  N   UNL     1       3.651  -6.516  -2.322  1.00  0.00    -0.370 N 
ATOM     46  H   UNL     1       5.683  -5.607  -3.208  1.00  0.00     0.159 HD
ATOM     47  H   UNL     1       5.777  -4.159  -2.296  1.00  0.00     0.159 HD
ATOM     48  H   UNL     1       2.738  -6.786  -1.983  1.00  0.00     0.159 HD
ATOM     49  H   UNL     1       4.272  -7.229  -2.661  1.00  0.00     0.159 HD
ENDBRANCH  41  42
ENDBRANCH  40  41
ENDBRANCH  39  40
ENDBRANCH  38  39
ENDBRANCH  36  38
ENDBRANCH   5  34
BRANCH   8  50
ATOM     50  O   UNL     1       7.045  -6.568  -4.403  1.00  0.00    -0.245 OA
BRANCH  50  51
ATOM     51  S   UNL     1       5.723  -6.818  -5.317  1.00  0.00     0.397 S 
ATOM     52  O   UNL     1       5.183  -5.528  -5.684  1.00  0.00    -0.169 OA
ATOM     53  O   UNL     1       4.898  -7.841  -4.709  1.00  0.00    -0.169 OA
BRANCH  51  54
ATOM     54  O   UNL     1       6.356  -7.428  -6.664  1.00  0.00    -0.264 OA
ATOM     55  H   UNL     1       5.987  -6.927  -7.420  1.00  0.00     0.236 HD
ENDBRANCH  51  54
ENDBRANCH  50  51
ENDBRANCH   8  50
TORSDOF 19
ENDMDL
MODEL 12
REMARK VINA RESULT:    -5.672      4.460      7.351
REMARK INTER + INTRA:         -16.459
REMARK INTER:                 -13.301
REMARK INTRA:                  -3.158
REMARK UNBOUND:                -4.985
REMARK SMILES CC[C@@H](C)[C@@H](NC(=O)[C@@H](O)Cc1ccc(O)c(Cl)c1)C(=O)N1[C@H](C(=O)NCCCCN=C(N)N)C[C@H]2CC[C@H](OS(=O)(=O)O)C[C@@H]21
REMARK SMILES IDX 22 1 36 2 46 3 35 4 23 5 45 6 37 7 39 8 38 9 20 10 21 11
REMARK SMILES IDX 5 12 6 13 7 14 8 15 9 17 11 18 12 19 17 20 19 21 15 22 14 23
REMARK SMILES IDX 13 24 18 25 16 26 10 28 3 30 4 31 2 32 1 33 24 34 25 35
REMARK SMILES IDX 26 36 27 38 28 39 29 40 30 41 31 42 32 43 33 44 34 45 40 50
REMARK SMILES IDX 41 51 42 52 43 53 44 54
REMARK H PARENT 6 16 16 27 10 29 26 37 33 46 33 47 34 48 34 49 44 55
ROOT
ATOM      1  N   UNL     1       7.439  -5.339   0.331  1.00  0.00    -0.326 N 
ATOM      2  C   UNL     1       6.108  -6.719  -1.034  1.00  0.00     0.014 C 
ATOM      3  C   UNL     1       6.171  -5.325  -0.403  1.00  0.00     0.091 C 
ATOM      4  C   UNL     1       6.772  -7.594   0.019  1.00  0.00     0.041 C 
ATOM      5  C   UNL     1       7.987  -6.717   0.374  1.00  0.00     0.175 C 
ATOM      6  C   UNL     1       5.984  -4.287  -1.508  1.00  0.00     0.059 C 
ATOM      7  C   UNL     1       4.700  -7.045  -1.491  1.00  0.00     0.008 C 
ATOM      8  C   UNL     1       5.072  -4.762  -2.660  1.00  0.00     0.143 C 
ATOM      9  C   UNL     1       4.061  -5.830  -2.196  1.00  0.00     0.034 C 
ENDROOT
BRANCH   1  10
ATOM     10  C   UNL     1       8.022  -4.356   1.113  1.00  0.00     0.246 C 
ATOM     11  O   UNL     1       8.487  -3.350   0.567  1.00  0.00    -0.272 OA
BRANCH  10  12
ATOM     12  C   UNL     1       8.041  -4.519   2.661  1.00  0.00     0.174 C 
BRANCH  12  13
ATOM     13  N   UNL     1       7.292  -3.429   3.286  1.00  0.00    -0.342 N 
ATOM     14  C   UNL     1       5.991  -3.515   3.727  1.00  0.00     0.249 C 
ATOM     15  O   UNL     1       5.317  -4.536   3.668  1.00  0.00    -0.272 OA
ATOM     16  H   UNL     1       7.664  -2.482   3.260  1.00  0.00     0.164 HD
BRANCH  14  17
ATOM     17  C   UNL     1       5.475  -2.188   4.325  1.00  0.00     0.207 C 
BRANCH  17  18
ATOM     18  C   UNL     1       4.061  -1.887   3.820  1.00  0.00     0.077 C 
BRANCH  18  19
ATOM     19  C   UNL     1       3.036  -1.981   4.928  1.00  0.00    -0.043 A 
ATOM     20  C   UNL     1       2.501  -2.229   7.281  1.00  0.00     0.083 A 
ATOM     21  C   UNL     1       3.448  -2.093   6.266  1.00  0.00     0.028 A 
ATOM     22  C   UNL     1       1.142  -2.257   6.969  1.00  0.00     0.134 A 
ATOM     23  C   UNL     1       0.720  -2.148   5.649  1.00  0.00     0.048 A 
ATOM     24  C   UNL     1       1.665  -2.013   4.630  1.00  0.00     0.008 A 
ATOM     25  Cl  UNL     1       3.027  -2.365   8.918  1.00  0.00    -0.080 Cl
BRANCH  22  26
ATOM     26  O   UNL     1       0.177  -2.400   7.930  1.00  0.00    -0.506 OA
ATOM     27  H   UNL     1      -0.255  -1.531   8.024  1.00  0.00     0.293 HD
ENDBRANCH  22  26
ENDBRANCH  18  19
ENDBRANCH  17  18
BRANCH  17  28
ATOM     28  O   UNL     1       6.345  -1.096   3.986  1.00  0.00    -0.383 OA
ATOM     29  H   UNL     1       6.849  -1.386   3.192  1.00  0.00     0.211 HD
ENDBRANCH  17  28
ENDBRANCH  14  17
ENDBRANCH  12  13
BRANCH  12  30
ATOM     30  C   UNL     1       9.478  -4.654   3.233  1.00  0.00     0.018 C 
ATOM     31  C   UNL     1      10.025  -3.285   3.665  1.00  0.00     0.010 C 
BRANCH  30  32
ATOM     32  C   UNL     1      10.470  -5.342   2.263  1.00  0.00     0.002 C 
ATOM     33  C   UNL     1      11.772  -4.589   2.021  1.00  0.00     0.004 C 
ENDBRANCH  30  32
ENDBRANCH  12  30
ENDBRANCH  10  12
ENDBRANCH   1  10
BRANCH   5  34
ATOM     34  C   UNL     1       9.135  -6.885  -0.656  1.00  0.00     0.242 C 
ATOM     35  O   UNL     1       9.528  -5.956  -1.361  1.00  0.00    -0.273 OA
ATOM     36  N   UNL     1       9.644  -8.160  -0.763  1.00  0.00    -0.354 N 
ATOM     37  H   UNL     1       9.196  -8.913  -0.239  1.00  0.00     0.163 HD
BRANCH  36  38
ATOM     38  C   UNL     1      10.851  -8.451  -1.509  1.00  0.00     0.116 C 
BRANCH  38  39
ATOM     39  C   UNL     1      10.491  -8.877  -2.931  1.00  0.00     0.023 C 
BRANCH  39  40
ATOM     40  C   UNL     1      10.653  -7.743  -3.938  1.00  0.00     0.026 C 
BRANCH  40  41
ATOM     41  C   UNL     1       9.492  -7.730  -4.931  1.00  0.00     0.146 C 
BRANCH  41  42
ATOM     42  N   UNL     1       8.249  -8.046  -4.240  1.00  0.00    -0.254 NA
ATOM     43  C   UNL     1       7.177  -8.228  -4.915  1.00  0.00     0.185 C 
ATOM     44  N   UNL     1       6.973  -8.179  -6.245  1.00  0.00    -0.370 N 
ATOM     45  N   UNL     1       6.041  -8.515  -4.259  1.00  0.00    -0.370 N 
ATOM     46  H   UNL     1       6.043  -8.099  -6.618  1.00  0.00     0.159 HD
ATOM     47  H   UNL     1       7.730  -7.987  -6.893  1.00  0.00     0.159 HD
ATOM     48  H   UNL     1       6.109  -8.580  -3.252  1.00  0.00     0.159 HD
ATOM     49  H   UNL     1       5.231  -8.898  -4.714  1.00  0.00     0.159 HD
ENDBRANCH  41  42
ENDBRANCH  40  41
ENDBRANCH  39  40
ENDBRANCH  38  39
ENDBRANCH  36  38
ENDBRANCH   5  34
BRANCH   8  50
ATOM     50  O   UNL     1       5.861  -5.312  -3.715  1.00  0.00    -0.245 OA
BRANCH  50  51
ATOM     51  S   UNL     1       6.333  -4.359  -4.946  1.00  0.00     0.397 S 
ATOM     52  O   UNL     1       7.779  -4.324  -4.954  1.00  0.00    -0.169 OA
ATOM     53  O   UNL     1       5.544  -3.145  -4.951  1.00  0.00    -0.169 OA
BRANCH  51  54
ATOM     54  O   UNL     1       5.909  -5.232  -6.228  1.00  0.00    -0.264 OA
ATOM     55  H   UNL     1       6.218  -4.758  -7.027  1.00  0.00     0.236 HD
ENDBRANCH  51  54
ENDBRANCH  50  51
ENDBRANCH   8  50
TORSDOF 19
ENDMDL
MODEL 13
REMARK VINA RESULT:    -5.669      3.061      6.315
REMARK INTER + INTRA:         -16.455
REMARK INTER:                 -12.097
REMARK INTRA:                  -4.358
REMARK UNBOUND:                -4.985
REMARK SMILES CC[C@@H](C)[C@@H](NC(=O)[C@@H](O)Cc1ccc(O)c(Cl)c1)C(=O)N1[C@H](C(=O)NCCCCN=C(N)N)C[C@H]2CC[C@H](OS(=O)(=O)O)C[C@@H]21
REMARK SMILES IDX 22 1 36 2 46 3 35 4 23 5 45 6 37 7 39 8 38 9 20 10 21 11
REMARK SMILES IDX 5 12 6 13 7 14 8 15 9 17 11 18 12 19 17 20 19 21 15 22 14 23
REMARK SMILES IDX 13 24 18 25 16 26 10 28 3 30 4 31 2 32 1 33 24 34 25 35
REMARK SMILES IDX 26 36 27 38 28 39 29 40 30 41 31 42 32 43 33 44 34 45 40 50
REMARK SMILES IDX 41 51 42 52 43 53 44 54
REMARK H PARENT 6 16 16 27 10 29 26 37 33 46 33 47 34 48 34 49 44 55
ROOT
ATOM      1  N   UNL     1      10.392  -6.084  -1.713  1.00  0.00    -0.326 N 
ATOM      2  C   UNL     1      10.352  -8.436  -1.814  1.00  0.00     0.014 C 
ATOM      3  C   UNL     1      11.254  -7.245  -1.476  1.00  0.00     0.091 C 
ATOM      4  C   UNL     1       9.503  -7.899  -2.956  1.00  0.00     0.041 C 
ATOM      5  C   UNL     1       9.146  -6.508  -2.399  1.00  0.00     0.175 C 
ATOM      6  C   UNL     1      11.821  -7.452  -0.072  1.00  0.00     0.059 C 
ATOM      7  C   UNL     1      11.171  -9.694  -2.024  1.00  0.00     0.008 C 
ATOM      8  C   UNL     1      12.037  -8.935   0.299  1.00  0.00     0.143 C 
ATOM      9  C   UNL     1      12.269  -9.816  -0.946  1.00  0.00     0.034 C 
ENDROOT
BRANCH   1  10
ATOM     10  C   UNL     1      10.669  -4.733  -1.592  1.00  0.00     0.246 C 
ATOM     11  O   UNL     1      10.536  -4.002  -2.579  1.00  0.00    -0.272 OA
BRANCH  10  12
ATOM     12  C   UNL     1      11.099  -4.159  -0.211  1.00  0.00     0.174 C 
BRANCH  12  13
ATOM     13  N   UNL     1      10.109  -4.513   0.806  1.00  0.00    -0.342 N 
ATOM     14  C   UNL     1      10.404  -4.905   2.093  1.00  0.00     0.249 C 
ATOM     15  O   UNL     1      11.542  -4.974   2.541  1.00  0.00    -0.272 OA
ATOM     16  H   UNL     1       9.138  -4.653   0.537  1.00  0.00     0.164 HD
BRANCH  14  17
ATOM     17  C   UNL     1       9.142  -5.229   2.920  1.00  0.00     0.207 C 
BRANCH  17  18
ATOM     18  C   UNL     1       8.564  -3.951   3.537  1.00  0.00     0.077 C 
BRANCH  18  19
ATOM     19  C   UNL     1       7.145  -3.698   3.079  1.00  0.00    -0.043 A 
ATOM     20  C   UNL     1       4.854  -3.076   3.577  1.00  0.00     0.083 A 
ATOM     21  C   UNL     1       6.173  -3.261   3.993  1.00  0.00     0.028 A 
ATOM     22  C   UNL     1       4.498  -3.326   2.252  1.00  0.00     0.134 A 
ATOM     23  C   UNL     1       5.450  -3.759   1.337  1.00  0.00     0.048 A 
ATOM     24  C   UNL     1       6.771  -3.947   1.750  1.00  0.00     0.008 A 
ATOM     25  Cl  UNL     1       3.674  -2.539   4.715  1.00  0.00    -0.080 Cl
BRANCH  22  26
ATOM     26  O   UNL     1       3.215  -3.169   1.800  1.00  0.00    -0.506 OA
ATOM     27  H   UNL     1       2.627  -3.453   2.525  1.00  0.00     0.293 HD
ENDBRANCH  22  26
ENDBRANCH  18  19
ENDBRANCH  17  18
BRANCH  17  28
ATOM     28  O   UNL     1       9.435  -6.171   3.964  1.00  0.00    -0.383 OA
ATOM     29  H   UNL     1       8.581  -6.608   4.184  1.00  0.00     0.211 HD
ENDBRANCH  17  28
ENDBRANCH  14  17
ENDBRANCH  12  13
BRANCH  12  30
ATOM     30  C   UNL     1      11.381  -2.633  -0.257  1.00  0.00     0.018 C 
ATOM     31  C   UNL     1      12.780  -2.319   0.294  1.00  0.00     0.010 C 
BRANCH  30  32
ATOM     32  C   UNL     1      10.316  -1.782   0.477  1.00  0.00     0.002 C 
ATOM     33  C   UNL     1       9.142  -1.327  -0.380  1.00  0.00     0.004 C 
ENDBRANCH  30  32
ENDBRANCH  12  30
ENDBRANCH  10  12
ENDBRANCH   1  10
BRANCH   5  34
ATOM     34  C   UNL     1       7.963  -6.579  -1.398  1.00  0.00     0.242 C 
ATOM     35  O   UNL     1       8.125  -6.494  -0.181  1.00  0.00    -0.273 OA
ATOM     36  N   UNL     1       6.728  -6.798  -1.966  1.00  0.00    -0.354 N 
ATOM     37  H   UNL     1       6.673  -6.980  -2.969  1.00  0.00     0.163 HD
BRANCH  36  38
ATOM     38  C   UNL     1       5.497  -6.677  -1.211  1.00  0.00     0.116 C 
BRANCH  38  39
ATOM     39  C   UNL     1       4.316  -6.524  -2.166  1.00  0.00     0.023 C 
BRANCH  39  40
ATOM     40  C   UNL     1       4.624  -5.584  -3.327  1.00  0.00     0.026 C 
BRANCH  40  41
ATOM     41  C   UNL     1       4.400  -6.286  -4.667  1.00  0.00     0.146 C 
BRANCH  41  42
ATOM     42  N   UNL     1       5.290  -7.433  -4.776  1.00  0.00    -0.254 NA
ATOM     43  C   UNL     1       6.274  -7.395  -5.594  1.00  0.00     0.185 C 
ATOM     44  N   UNL     1       6.667  -6.417  -6.431  1.00  0.00    -0.370 N 
ATOM     45  N   UNL     1       7.081  -8.465  -5.683  1.00  0.00    -0.370 N 
ATOM     46  H   UNL     1       7.303  -6.612  -7.185  1.00  0.00     0.159 HD
ATOM     47  H   UNL     1       6.175  -5.530  -6.482  1.00  0.00     0.159 HD
ATOM     48  H   UNL     1       6.860  -9.245  -5.079  1.00  0.00     0.159 HD
ATOM     49  H   UNL     1       7.990  -8.428  -6.110  1.00  0.00     0.159 HD
ENDBRANCH  41  42
ENDBRANCH  40  41
ENDBRANCH  39  40
ENDBRANCH  38  39
ENDBRANCH  36  38
ENDBRANCH   5  34
BRANCH   8  50
ATOM     50  O   UNL     1      10.899  -9.435   1.002  1.00  0.00    -0.245 OA
BRANCH  50  51
ATOM     51  S   UNL     1      10.818  -9.269   2.618  1.00  0.00     0.397 S 
ATOM     52  O   UNL     1      11.546 -10.364   3.217  1.00  0.00    -0.169 OA
ATOM     53  O   UNL     1       9.458  -8.958   3.007  1.00  0.00    -0.169 OA
BRANCH  51  54
ATOM     54  O   UNL     1      11.716  -7.958   2.866  1.00  0.00    -0.264 OA
ATOM     55  H   UNL     1      12.652  -8.206   2.724  1.00  0.00     0.236 HD
ENDBRANCH  51  54
ENDBRANCH  50  51
ENDBRANCH   8  50
TORSDOF 19
ENDMDL
MODEL 14
REMARK VINA RESULT:    -5.642      2.974      6.639
REMARK INTER + INTRA:         -16.400
REMARK INTER:                 -11.044
REMARK INTRA:                  -5.356
REMARK UNBOUND:                -4.985
REMARK SMILES CC[C@@H](C)[C@@H](NC(=O)[C@@H](O)Cc1ccc(O)c(Cl)c1)C(=O)N1[C@H](C(=O)NCCCCN=C(N)N)C[C@H]2CC[C@H](OS(=O)(=O)O)C[C@@H]21
REMARK SMILES IDX 22 1 36 2 46 3 35 4 23 5 45 6 37 7 39 8 38 9 20 10 21 11
REMARK SMILES IDX 5 12 6 13 7 14 8 15 9 17 11 18 12 19 17 20 19 21 15 22 14 23
REMARK SMILES IDX 13 24 18 25 16 26 10 28 3 30 4 31 2 32 1 33 24 34 25 35
REMARK SMILES IDX 26 36 27 38 28 39 29 40 30 41 31 42 32 43 33 44 34 45 40 50
REMARK SMILES IDX 41 51 42 52 43 53 44 54
REMARK H PARENT 6 16 16 27 10 29 26 37 33 46 33 47 34 48 34 49 44 55
ROOT
ATOM      1  N   UNL     1       6.230  -3.682  -0.631  1.00  0.00    -0.326 N 
ATOM      2  C   UNL     1       7.924  -5.054  -1.522  1.00  0.00     0.014 C 
ATOM      3  C   UNL     1       6.641  -5.089  -0.687  1.00  0.00     0.091 C 
ATOM      4  C   UNL     1       8.552  -3.730  -1.116  1.00  0.00     0.041 C 
ATOM      5  C   UNL     1       7.313  -2.816  -1.159  1.00  0.00     0.175 C 
ATOM      6  C   UNL     1       5.682  -6.099  -1.315  1.00  0.00     0.059 C 
ATOM      7  C   UNL     1       8.716  -6.336  -1.352  1.00  0.00     0.008 C 
ATOM      8  C   UNL     1       6.393  -7.284  -2.004  1.00  0.00     0.143 C 
ATOM      9  C   UNL     1       7.780  -7.563  -1.391  1.00  0.00     0.034 C 
ENDROOT
BRANCH   1  10
ATOM     10  C   UNL     1       5.148  -3.098   0.004  1.00  0.00     0.246 C 
ATOM     11  O   UNL     1       4.069  -3.023  -0.594  1.00  0.00    -0.272 OA
BRANCH  10  12
ATOM     12  C   UNL     1       5.300  -2.589   1.467  1.00  0.00     0.174 C 
BRANCH  12  13
ATOM     13  N   UNL     1       6.376  -3.318   2.139  1.00  0.00    -0.342 N 
ATOM     14  C   UNL     1       7.520  -2.746   2.647  1.00  0.00     0.249 C 
ATOM     15  O   UNL     1       7.753  -1.544   2.616  1.00  0.00    -0.272 OA
ATOM     16  H   UNL     1       6.396  -4.334   2.100  1.00  0.00     0.164 HD
BRANCH  14  17
ATOM     17  C   UNL     1       8.473  -3.781   3.281  1.00  0.00     0.207 C 
BRANCH  17  18
ATOM     18  C   UNL     1       8.151  -5.189   2.769  1.00  0.00     0.077 C 
BRANCH  18  19
ATOM     19  C   UNL     1       9.386  -5.894   2.253  1.00  0.00    -0.043 A 
ATOM     20  C   UNL     1      11.617  -5.806   1.306  1.00  0.00     0.083 A 
ATOM     21  C   UNL     1      10.499  -5.153   1.828  1.00  0.00     0.028 A 
ATOM     22  C   UNL     1      11.630  -7.197   1.205  1.00  0.00     0.134 A 
ATOM     23  C   UNL     1      10.534  -7.943   1.623  1.00  0.00     0.048 A 
ATOM     24  C   UNL     1       9.413  -7.293   2.144  1.00  0.00     0.008 A 
ATOM     25  Cl  UNL     1      12.976  -4.878   0.789  1.00  0.00    -0.080 Cl
BRANCH  22  26
ATOM     26  O   UNL     1      12.699  -7.880   0.691  1.00  0.00    -0.506 OA
ATOM     27  H   UNL     1      12.353  -8.726   0.351  1.00  0.00     0.293 HD
ENDBRANCH  22  26
ENDBRANCH  18  19
ENDBRANCH  17  18
BRANCH  17  28
ATOM     28  O   UNL     1       8.377  -3.762   4.715  1.00  0.00    -0.383 OA
ATOM     29  H   UNL     1       7.640  -4.372   4.946  1.00  0.00     0.211 HD
ENDBRANCH  17  28
ENDBRANCH  14  17
ENDBRANCH  12  13
BRANCH  12  30
ATOM     30  C   UNL     1       3.966  -2.637   2.260  1.00  0.00     0.018 C 
ATOM     31  C   UNL     1       3.422  -1.220   2.499  1.00  0.00     0.010 C 
BRANCH  30  32
ATOM     32  C   UNL     1       4.069  -3.401   3.603  1.00  0.00     0.002 C 
ATOM     33  C   UNL     1       4.117  -2.525   4.848  1.00  0.00     0.004 C 
ENDBRANCH  30  32
ENDBRANCH  12  30
ENDBRANCH  10  12
ENDBRANCH   1  10
BRANCH   5  34
ATOM     34  C   UNL     1       6.993  -2.354  -2.605  1.00  0.00     0.242 C 
ATOM     35  O   UNL     1       7.847  -1.861  -3.343  1.00  0.00    -0.273 OA
ATOM     36  N   UNL     1       5.676  -2.485  -2.984  1.00  0.00    -0.354 N 
ATOM     37  H   UNL     1       4.993  -2.788  -2.289  1.00  0.00     0.163 HD
BRANCH  36  38
ATOM     38  C   UNL     1       5.244  -2.308  -4.355  1.00  0.00     0.116 C 
BRANCH  38  39
ATOM     39  C   UNL     1       5.311  -3.641  -5.096  1.00  0.00     0.023 C 
BRANCH  39  40
ATOM     40  C   UNL     1       5.898  -3.501  -6.496  1.00  0.00     0.026 C 
BRANCH  40  41
ATOM     41  C   UNL     1       7.424  -3.585  -6.455  1.00  0.00     0.146 C 
BRANCH  41  42
ATOM     42  N   UNL     1       7.834  -4.951  -6.157  1.00  0.00    -0.254 NA
ATOM     43  C   UNL     1       8.784  -5.160  -5.324  1.00  0.00     0.185 C 
ATOM     44  N   UNL     1       9.525  -4.285  -4.621  1.00  0.00    -0.370 N 
ATOM     45  N   UNL     1       9.150  -6.426  -5.067  1.00  0.00    -0.370 N 
ATOM     46  H   UNL     1      10.391  -4.572  -4.196  1.00  0.00     0.159 HD
ATOM     47  H   UNL     1       9.372  -3.284  -4.685  1.00  0.00     0.159 HD
ATOM     48  H   UNL     1       8.634  -7.149  -5.551  1.00  0.00     0.159 HD
ATOM     49  H   UNL     1       9.705  -6.681  -4.270  1.00  0.00     0.159 HD
ENDBRANCH  41  42
ENDBRANCH  40  41
ENDBRANCH  39  40
ENDBRANCH  38  39
ENDBRANCH  36  38
ENDBRANCH   5  34
BRANCH   8  50
ATOM     50  O   UNL     1       6.558  -7.015  -3.396  1.00  0.00    -0.245 OA
BRANCH  50  51
ATOM     51  S   UNL     1       5.832  -7.976  -4.491  1.00  0.00     0.397 S 
ATOM     52  O   UNL     1       6.854  -8.505  -5.366  1.00  0.00    -0.169 OA
ATOM     53  O   UNL     1       4.653  -7.316  -5.011  1.00  0.00    -0.169 OA
BRANCH  51  54
ATOM     54  O   UNL     1       5.349  -9.212  -3.584  1.00  0.00    -0.264 OA
ATOM     55  H   UNL     1       4.824  -8.850  -2.841  1.00  0.00     0.236 HD
ENDBRANCH  51  54
ENDBRANCH  50  51
ENDBRANCH   8  50
TORSDOF 19
ENDMDL
MODEL 15
REMARK VINA RESULT:    -5.633      2.322      3.386
REMARK INTER + INTRA:         -16.382
REMARK INTER:                 -12.306
REMARK INTRA:                  -4.075
REMARK UNBOUND:                -4.985
REMARK SMILES CC[C@@H](C)[C@@H](NC(=O)[C@@H](O)Cc1ccc(O)c(Cl)c1)C(=O)N1[C@H](C(=O)NCCCCN=C(N)N)C[C@H]2CC[C@H](OS(=O)(=O)O)C[C@@H]21
REMARK SMILES IDX 22 1 36 2 46 3 35 4 23 5 45 6 37 7 39 8 38 9 20 10 21 11
REMARK SMILES IDX 5 12 6 13 7 14 8 15 9 17 11 18 12 19 17 20 19 21 15 22 14 23
REMARK SMILES IDX 13 24 18 25 16 26 10 28 3 30 4 31 2 32 1 33 24 34 25 35
REMARK SMILES IDX 26 36 27 38 28 39 29 40 30 41 31 42 32 43 33 44 34 45 40 50
REMARK SMILES IDX 41 51 42 52 43 53 44 54
REMARK H PARENT 6 16 16 27 10 29 26 37 33 46 33 47 34 48 34 49 44 55
ROOT
ATOM      1  N   UNL     1       9.035  -6.870  -0.744  1.00  0.00    -0.326 N 
ATOM      2  C   UNL     1       8.301  -5.103  -2.116  1.00  0.00     0.014 C 
ATOM      3  C   UNL     1       8.785  -6.555  -2.154  1.00  0.00     0.091 C 
ATOM      4  C   UNL     1       9.110  -4.510  -0.973  1.00  0.00     0.041 C 
ATOM      5  C   UNL     1       8.969  -5.632   0.072  1.00  0.00     0.175 C 
ATOM      6  C   UNL     1       7.753  -7.389  -2.910  1.00  0.00     0.059 C 
ATOM      7  C   UNL     1       8.381  -4.469  -3.491  1.00  0.00     0.008 C 
ATOM      8  C   UNL     1       7.019  -6.610  -4.023  1.00  0.00     0.143 C 
ATOM      9  C   UNL     1       7.868  -5.445  -4.571  1.00  0.00     0.034 C 
ENDROOT
BRANCH   1  10
ATOM     10  C   UNL     1       9.506  -8.036  -0.165  1.00  0.00     0.246 C 
ATOM     11  O   UNL     1       8.696  -8.892   0.208  1.00  0.00    -0.272 OA
BRANCH  10  12
ATOM     12  C   UNL     1      11.040  -8.262  -0.034  1.00  0.00     0.174 C 
BRANCH  12  13
ATOM     13  N   UNL     1      11.617  -7.260   0.861  1.00  0.00    -0.342 N 
ATOM     14  C   UNL     1      11.768  -7.408   2.222  1.00  0.00     0.249 C 
ATOM     15  O   UNL     1      11.456  -8.421   2.836  1.00  0.00    -0.272 OA
ATOM     16  H   UNL     1      11.777  -6.314   0.523  1.00  0.00     0.164 HD
BRANCH  14  17
ATOM     17  C   UNL     1      12.394  -6.166   2.891  1.00  0.00     0.207 C 
BRANCH  17  18
ATOM     18  C   UNL     1      12.895  -5.182   1.830  1.00  0.00     0.077 C 
BRANCH  18  19
ATOM     19  C   UNL     1      12.560  -3.751   2.187  1.00  0.00    -0.043 A 
ATOM     20  C   UNL     1      12.820  -1.371   1.800  1.00  0.00     0.083 A 
ATOM     21  C   UNL     1      13.091  -2.690   1.437  1.00  0.00     0.028 A 
ATOM     22  C   UNL     1      12.019  -1.102   2.911  1.00  0.00     0.134 A 
ATOM     23  C   UNL     1      11.486  -2.143   3.662  1.00  0.00     0.048 A 
ATOM     24  C   UNL     1      11.757  -3.465   3.303  1.00  0.00     0.008 A 
ATOM     25  Cl  UNL     1      13.482  -0.081   0.866  1.00  0.00    -0.080 Cl
BRANCH  22  26
ATOM     26  O   UNL     1      11.733   0.175   3.311  1.00  0.00    -0.506 OA
ATOM     27  H   UNL     1      12.397   0.412   3.985  1.00  0.00     0.293 HD
ENDBRANCH  22  26
ENDBRANCH  18  19
ENDBRANCH  17  18
BRANCH  17  28
ATOM     28  O   UNL     1      13.484  -6.536   3.751  1.00  0.00    -0.383 OA
ATOM     29  H   UNL     1      13.508  -7.520   3.751  1.00  0.00     0.211 HD
ENDBRANCH  17  28
ENDBRANCH  14  17
ENDBRANCH  12  13
BRANCH  12  30
ATOM     30  C   UNL     1      11.758  -8.311  -1.409  1.00  0.00     0.018 C 
ATOM     31  C   UNL     1      11.205  -9.455  -2.274  1.00  0.00     0.010 C 
BRANCH  30  32
ATOM     32  C   UNL     1      13.299  -8.424  -1.302  1.00  0.00     0.002 C 
ATOM     33  C   UNL     1      13.929  -9.542  -2.122  1.00  0.00     0.004 C 
ENDBRANCH  30  32
ENDBRANCH  12  30
ENDBRANCH  10  12
ENDBRANCH   1  10
BRANCH   5  34
ATOM     34  C   UNL     1       7.617  -5.543   0.828  1.00  0.00     0.242 C 
ATOM     35  O   UNL     1       6.646  -6.237   0.525  1.00  0.00    -0.273 OA
ATOM     36  N   UNL     1       7.565  -4.595   1.826  1.00  0.00    -0.354 N 
ATOM     37  H   UNL     1       8.361  -3.969   1.950  1.00  0.00     0.163 HD
BRANCH  36  38
ATOM     38  C   UNL     1       6.467  -4.523   2.768  1.00  0.00     0.116 C 
BRANCH  38  39
ATOM     39  C   UNL     1       5.494  -3.425   2.346  1.00  0.00     0.023 C 
BRANCH  39  40
ATOM     40  C   UNL     1       6.190  -2.273   1.630  1.00  0.00     0.026 C 
BRANCH  40  41
ATOM     41  C   UNL     1       5.733  -2.185   0.174  1.00  0.00     0.146 C 
BRANCH  41  42
ATOM     42  N   UNL     1       4.584  -3.055  -0.036  1.00  0.00    -0.254 NA
ATOM     43  C   UNL     1       4.347  -3.521  -1.204  1.00  0.00     0.185 C 
ATOM     44  N   UNL     1       5.014  -3.342  -2.359  1.00  0.00    -0.370 N 
ATOM     45  N   UNL     1       3.280  -4.319  -1.377  1.00  0.00    -0.370 N 
ATOM     46  H   UNL     1       4.583  -3.564  -3.240  1.00  0.00     0.159 HD
ATOM     47  H   UNL     1       5.856  -2.776  -2.406  1.00  0.00     0.159 HD
ATOM     48  H   UNL     1       2.727  -4.512  -0.553  1.00  0.00     0.159 HD
ATOM     49  H   UNL     1       3.163  -4.903  -2.186  1.00  0.00     0.159 HD
ENDBRANCH  41  42
ENDBRANCH  40  41
ENDBRANCH  39  40
ENDBRANCH  38  39
ENDBRANCH  36  38
ENDBRANCH   5  34
BRANCH   8  50
ATOM     50  O   UNL     1       5.791  -6.080  -3.522  1.00  0.00    -0.245 OA
BRANCH  50  51
ATOM     51  S   UNL     1       4.433  -6.227  -4.405  1.00  0.00     0.397 S 
ATOM     52  O   UNL     1       4.548  -7.427  -5.203  1.00  0.00    -0.169 OA
ATOM     53  O   UNL     1       4.099  -4.949  -4.999  1.00  0.00    -0.169 OA
BRANCH  51  54
ATOM     54  O   UNL     1       3.334  -6.553  -3.278  1.00  0.00    -0.264 OA
ATOM     55  H   UNL     1       2.454  -6.534  -3.706  1.00  0.00     0.236 HD
ENDBRANCH  51  54
ENDBRANCH  50  51
ENDBRANCH   8  50
TORSDOF 19
ENDMDL
MODEL 16
REMARK VINA RESULT:    -5.623      3.243      7.604
REMARK INTER + INTRA:         -16.361
REMARK INTER:                 -12.175
REMARK INTRA:                  -4.186
REMARK UNBOUND:                -4.985
REMARK SMILES CC[C@@H](C)[C@@H](NC(=O)[C@@H](O)Cc1ccc(O)c(Cl)c1)C(=O)N1[C@H](C(=O)NCCCCN=C(N)N)C[C@H]2CC[C@H](OS(=O)(=O)O)C[C@@H]21
REMARK SMILES IDX 22 1 36 2 46 3 35 4 23 5 45 6 37 7 39 8 38 9 20 10 21 11
REMARK SMILES IDX 5 12 6 13 7 14 8 15 9 17 11 18 12 19 17 20 19 21 15 22 14 23
REMARK SMILES IDX 13 24 18 25 16 26 10 28 3 30 4 31 2 32 1 33 24 34 25 35
REMARK SMILES IDX 26 36 27 38 28 39 29 40 30 41 31 42 32 43 33 44 34 45 40 50
REMARK SMILES IDX 41 51 42 52 43 53 44 54
REMARK H PARENT 6 16 16 27 10 29 26 37 33 46 33 47 34 48 34 49 44 55
ROOT
ATOM      1  N   UNL     1       9.064  -7.376  -1.230  1.00  0.00    -0.326 N 
ATOM      2  C   UNL     1      11.035  -6.192  -1.737  1.00  0.00     0.014 C 
ATOM      3  C   UNL     1       9.708  -6.083  -0.980  1.00  0.00     0.091 C 
ATOM      4  C   UNL     1      10.661  -7.029  -2.950  1.00  0.00     0.041 C 
ATOM      5  C   UNL     1       9.809  -8.120  -2.276  1.00  0.00     0.175 C 
ATOM      6  C   UNL     1      10.007  -5.690   0.465  1.00  0.00     0.059 C 
ATOM      7  C   UNL     1      11.656  -4.824  -1.941  1.00  0.00     0.008 C 
ATOM      8  C   UNL     1      11.258  -4.799   0.621  1.00  0.00     0.143 C 
ATOM      9  C   UNL     1      11.548  -3.980  -0.653  1.00  0.00     0.034 C 
ENDROOT
BRANCH   1  10
ATOM     10  C   UNL     1       7.832  -7.850  -0.814  1.00  0.00     0.246 C 
ATOM     11  O   UNL     1       7.766  -8.530   0.215  1.00  0.00    -0.272 OA
BRANCH  10  12
ATOM     12  C   UNL     1       6.555  -7.480  -1.623  1.00  0.00     0.174 C 
BRANCH  12  13
ATOM     13  N   UNL     1       6.907  -7.218  -3.018  1.00  0.00    -0.342 N 
ATOM     14  C   UNL     1       6.394  -7.894  -4.103  1.00  0.00     0.249 C 
ATOM     15  O   UNL     1       5.554  -8.781  -4.019  1.00  0.00    -0.272 OA
ATOM     16  H   UNL     1       7.702  -6.622  -3.234  1.00  0.00     0.164 HD
BRANCH  14  17
ATOM     17  C   UNL     1       6.976  -7.397  -5.443  1.00  0.00     0.207 C 
BRANCH  17  18
ATOM     18  C   UNL     1       6.143  -6.234  -5.991  1.00  0.00     0.077 C 
BRANCH  18  19
ATOM     19  C   UNL     1       6.844  -4.906  -5.810  1.00  0.00    -0.043 A 
ATOM     20  C   UNL     1       8.866  -3.637  -5.379  1.00  0.00     0.083 A 
ATOM     21  C   UNL     1       8.230  -4.861  -5.595  1.00  0.00     0.028 A 
ATOM     22  C   UNL     1       8.123  -2.456  -5.375  1.00  0.00     0.134 A 
ATOM     23  C   UNL     1       6.750  -2.487  -5.586  1.00  0.00     0.048 A 
ATOM     24  C   UNL     1       6.110  -3.710  -5.801  1.00  0.00     0.008 A 
ATOM     25  Cl  UNL     1      10.570  -3.602  -5.117  1.00  0.00    -0.080 Cl
BRANCH  22  26
ATOM     26  O   UNL     1       8.701  -1.234  -5.157  1.00  0.00    -0.506 OA
ATOM     27  H   UNL     1       9.425  -1.147  -5.804  1.00  0.00     0.293 HD
ENDBRANCH  22  26
ENDBRANCH  18  19
ENDBRANCH  17  18
BRANCH  17  28
ATOM     28  O   UNL     1       7.014  -8.455  -6.415  1.00  0.00    -0.383 OA
ATOM     29  H   UNL     1       7.762  -8.243  -7.019  1.00  0.00     0.211 HD
ENDBRANCH  17  28
ENDBRANCH  14  17
ENDBRANCH  12  13
BRANCH  12  30
ATOM     30  C   UNL     1       5.757  -6.312  -0.984  1.00  0.00     0.018 C 
ATOM     31  C   UNL     1       4.407  -6.120  -1.694  1.00  0.00     0.010 C 
BRANCH  30  32
ATOM     32  C   UNL     1       6.534  -4.974  -0.949  1.00  0.00     0.002 C 
ATOM     33  C   UNL     1       6.242  -4.020  -2.100  1.00  0.00     0.004 C 
ENDBRANCH  30  32
ENDBRANCH  12  30
ENDBRANCH  10  12
ENDBRANCH   1  10
BRANCH   5  34
ATOM     34  C   UNL     1      10.694  -9.226  -1.640  1.00  0.00     0.242 C 
ATOM     35  O   UNL     1      11.433  -9.945  -2.313  1.00  0.00    -0.273 OA
ATOM     36  N   UNL     1      10.551  -9.379  -0.279  1.00  0.00    -0.354 N 
ATOM     37  H   UNL     1       9.836  -8.835   0.204  1.00  0.00     0.163 HD
BRANCH  36  38
ATOM     38  C   UNL     1      11.447 -10.206   0.503  1.00  0.00     0.116 C 
BRANCH  38  39
ATOM     39  C   UNL     1      11.027 -10.179   1.971  1.00  0.00     0.023 C 
BRANCH  39  40
ATOM     40  C   UNL     1       9.626 -10.742   2.186  1.00  0.00     0.026 C 
BRANCH  40  41
ATOM     41  C   UNL     1       9.009 -10.184   3.469  1.00  0.00     0.146 C 
BRANCH  41  42
ATOM     42  N   UNL     1       9.681  -8.947   3.841  1.00  0.00    -0.254 NA
ATOM     43  C   UNL     1       9.162  -7.822   3.519  1.00  0.00     0.185 C 
ATOM     44  N   UNL     1       8.024  -7.554   2.852  1.00  0.00    -0.370 N 
ATOM     45  N   UNL     1       9.800  -6.693   3.868  1.00  0.00    -0.370 N 
ATOM     46  H   UNL     1       7.864  -6.642   2.458  1.00  0.00     0.159 HD
ATOM     47  H   UNL     1       7.411  -8.294   2.525  1.00  0.00     0.159 HD
ATOM     48  H   UNL     1      10.662  -6.806   4.382  1.00  0.00     0.159 HD
ATOM     49  H   UNL     1       9.353  -5.793   3.866  1.00  0.00     0.159 HD
ENDBRANCH  41  42
ENDBRANCH  40  41
ENDBRANCH  39  40
ENDBRANCH  38  39
ENDBRANCH  36  38
ENDBRANCH   5  34
BRANCH   8  50
ATOM     50  O   UNL     1      12.401  -5.604   0.912  1.00  0.00    -0.245 OA
BRANCH  50  51
ATOM     51  S   UNL     1      12.958  -5.685   2.438  1.00  0.00     0.397 S 
ATOM     52  O   UNL     1      12.628  -6.991   2.964  1.00  0.00    -0.169 OA
ATOM     53  O   UNL     1      12.612  -4.471   3.147  1.00  0.00    -0.169 OA
BRANCH  51  54
ATOM     54  O   UNL     1      14.550  -5.693   2.214  1.00  0.00    -0.264 OA
ATOM     55  H   UNL     1      14.726  -5.358   1.311  1.00  0.00     0.236 HD
ENDBRANCH  51  54
ENDBRANCH  50  51
ENDBRANCH   8  50
TORSDOF 19
ENDMDL
MODEL 17
REMARK VINA RESULT:    -5.594      3.359      5.636
REMARK INTER + INTRA:         -16.302
REMARK INTER:                 -12.617
REMARK INTRA:                  -3.685
REMARK UNBOUND:                -4.985
REMARK SMILES CC[C@@H](C)[C@@H](NC(=O)[C@@H](O)Cc1ccc(O)c(Cl)c1)C(=O)N1[C@H](C(=O)NCCCCN=C(N)N)C[C@H]2CC[C@H](OS(=O)(=O)O)C[C@@H]21
REMARK SMILES IDX 22 1 36 2 46 3 35 4 23 5 45 6 37 7 39 8 38 9 20 10 21 11
REMARK SMILES IDX 5 12 6 13 7 14 8 15 9 17 11 18 12 19 17 20 19 21 15 22 14 23
REMARK SMILES IDX 13 24 18 25 16 26 10 28 3 30 4 31 2 32 1 33 24 34 25 35
REMARK SMILES IDX 26 36 27 38 28 39 29 40 30 41 31 42 32 43 33 44 34 45 40 50
REMARK SMILES IDX 41 51 42 52 43 53 44 54
REMARK H PARENT 6 16 16 27 10 29 26 37 33 46 33 47 34 48 34 49 44 55
ROOT
ATOM      1  N   UNL     1       8.201  -6.220   1.108  1.00  0.00    -0.326 N 
ATOM      2  C   UNL     1       7.977  -5.180  -0.992  1.00  0.00     0.014 C 
ATOM      3  C   UNL     1       8.258  -6.529  -0.324  1.00  0.00     0.091 C 
ATOM      4  C   UNL     1       8.637  -4.192  -0.043  1.00  0.00     0.041 C 
ATOM      5  C   UNL     1       8.157  -4.751   1.309  1.00  0.00     0.175 C 
ATOM      6  C   UNL     1       7.277  -7.559  -0.882  1.00  0.00     0.059 C 
ATOM      7  C   UNL     1       8.392  -5.201  -2.450  1.00  0.00     0.008 C 
ATOM      8  C   UNL     1       6.871  -7.299  -2.349  1.00  0.00     0.143 C 
ATOM      9  C   UNL     1       7.956  -6.521  -3.121  1.00  0.00     0.034 C 
ENDROOT
BRANCH   1  10
ATOM     10  C   UNL     1       8.395  -7.046   2.202  1.00  0.00     0.246 C 
ATOM     11  O   UNL     1       7.443  -7.282   2.953  1.00  0.00    -0.272 OA
BRANCH  10  12
ATOM     12  C   UNL     1       9.792  -7.690   2.439  1.00  0.00     0.174 C 
BRANCH  12  13
ATOM     13  N   UNL     1      10.799  -7.010   1.625  1.00  0.00    -0.342 N 
ATOM     14  C   UNL     1      12.074  -6.698   2.043  1.00  0.00     0.249 C 
ATOM     15  O   UNL     1      12.519  -6.985   3.147  1.00  0.00    -0.272 OA
ATOM     16  H   UNL     1      10.527  -6.573   0.748  1.00  0.00     0.164 HD
BRANCH  14  17
ATOM     17  C   UNL     1      12.893  -5.965   0.959  1.00  0.00     0.207 C 
BRANCH  17  18
ATOM     18  C   UNL     1      13.835  -6.941   0.247  1.00  0.00     0.077 C 
BRANCH  18  19
ATOM     19  C   UNL     1      13.210  -7.511  -1.007  1.00  0.00    -0.043 A 
ATOM     20  C   UNL     1      13.230  -9.122  -2.820  1.00  0.00     0.083 A 
ATOM     21  C   UNL     1      13.780  -8.629  -1.636  1.00  0.00     0.028 A 
ATOM     22  C   UNL     1      12.113  -8.503  -3.382  1.00  0.00     0.134 A 
ATOM     23  C   UNL     1      11.539  -7.395  -2.769  1.00  0.00     0.048 A 
ATOM     24  C   UNL     1      12.088  -6.898  -1.585  1.00  0.00     0.008 A 
ATOM     25  Cl  UNL     1      13.944 -10.496  -3.578  1.00  0.00    -0.080 Cl
BRANCH  22  26
ATOM     26  O   UNL     1      11.546  -8.944  -4.547  1.00  0.00    -0.506 OA
ATOM     27  H   UNL     1      12.267  -9.020  -5.199  1.00  0.00     0.293 HD
ENDBRANCH  22  26
ENDBRANCH  18  19
ENDBRANCH  17  18
BRANCH  17  28
ATOM     28  O   UNL     1      13.660  -4.892   1.529  1.00  0.00    -0.383 OA
ATOM     29  H   UNL     1      13.180  -4.063   1.300  1.00  0.00     0.211 HD
ENDBRANCH  17  28
ENDBRANCH  14  17
ENDBRANCH  12  13
BRANCH  12  30
ATOM     30  C   UNL     1       9.789  -9.226   2.216  1.00  0.00     0.018 C 
ATOM     31  C   UNL     1       9.615  -9.971   3.549  1.00  0.00     0.010 C 
BRANCH  30  32
ATOM     32  C   UNL     1      11.044  -9.749   1.475  1.00  0.00     0.002 C 
ATOM     33  C   UNL     1      10.842 -10.073   0.001  1.00  0.00     0.004 C 
ENDBRANCH  30  32
ENDBRANCH  12  30
ENDBRANCH  10  12
ENDBRANCH   1  10
BRANCH   5  34
ATOM     34  C   UNL     1       6.714  -4.284   1.641  1.00  0.00     0.242 C 
ATOM     35  O   UNL     1       5.927  -3.910   0.771  1.00  0.00    -0.273 OA
ATOM     36  N   UNL     1       6.397  -4.268   2.981  1.00  0.00    -0.354 N 
ATOM     37  H   UNL     1       7.129  -4.475   3.661  1.00  0.00     0.163 HD
BRANCH  36  38
ATOM     38  C   UNL     1       5.042  -4.070   3.452  1.00  0.00     0.116 C 
BRANCH  38  39
ATOM     39  C   UNL     1       4.957  -2.773   4.254  1.00  0.00     0.023 C 
BRANCH  39  40
ATOM     40  C   UNL     1       3.518  -2.324   4.484  1.00  0.00     0.026 C 
BRANCH  40  41
ATOM     41  C   UNL     1       3.053  -1.398   3.361  1.00  0.00     0.146 C 
BRANCH  41  42
ATOM     42  N   UNL     1       2.282  -2.156   2.384  1.00  0.00    -0.254 NA
ATOM     43  C   UNL     1       2.728  -2.289   1.192  1.00  0.00     0.185 C 
ATOM     44  N   UNL     1       3.861  -1.825   0.635  1.00  0.00    -0.370 N 
ATOM     45  N   UNL     1       2.001  -2.989   0.305  1.00  0.00    -0.370 N 
ATOM     46  H   UNL     1       3.966  -1.795  -0.365  1.00  0.00     0.159 HD
ATOM     47  H   UNL     1       4.536  -1.285   1.169  1.00  0.00     0.159 HD
ATOM     48  H   UNL     1       1.134  -3.382   0.647  1.00  0.00     0.159 HD
ATOM     49  H   UNL     1       2.381  -3.335  -0.558  1.00  0.00     0.159 HD
ENDBRANCH  41  42
ENDBRANCH  40  41
ENDBRANCH  39  40
ENDBRANCH  38  39
ENDBRANCH  36  38
ENDBRANCH   5  34
BRANCH   8  50
ATOM     50  O   UNL     1       5.657  -6.549  -2.396  1.00  0.00    -0.245 OA
BRANCH  50  51
ATOM     51  S   UNL     1       4.751  -6.571  -3.747  1.00  0.00     0.397 S 
ATOM     52  O   UNL     1       4.910  -7.867  -4.369  1.00  0.00    -0.169 OA
ATOM     53  O   UNL     1       4.953  -5.343  -4.488  1.00  0.00    -0.169 OA
BRANCH  51  54
ATOM     54  O   UNL     1       3.258  -6.552  -3.151  1.00  0.00    -0.264 OA
ATOM     55  H   UNL     1       2.637  -6.485  -3.905  1.00  0.00     0.236 HD
ENDBRANCH  51  54
ENDBRANCH  50  51
ENDBRANCH   8  50
TORSDOF 19
ENDMDL
MODEL 18
REMARK VINA RESULT:    -5.585      3.033      6.172
REMARK INTER + INTRA:         -16.285
REMARK INTER:                 -13.147
REMARK INTRA:                  -3.138
REMARK UNBOUND:                -4.985
REMARK SMILES CC[C@@H](C)[C@@H](NC(=O)[C@@H](O)Cc1ccc(O)c(Cl)c1)C(=O)N1[C@H](C(=O)NCCCCN=C(N)N)C[C@H]2CC[C@H](OS(=O)(=O)O)C[C@@H]21
REMARK SMILES IDX 22 1 36 2 46 3 35 4 23 5 45 6 37 7 39 8 38 9 20 10 21 11
REMARK SMILES IDX 5 12 6 13 7 14 8 15 9 17 11 18 12 19 17 20 19 21 15 22 14 23
REMARK SMILES IDX 13 24 18 25 16 26 10 28 3 30 4 31 2 32 1 33 24 34 25 35
REMARK SMILES IDX 26 36 27 38 28 39 29 40 30 41 31 42 32 43 33 44 34 45 40 50
REMARK SMILES IDX 41 51 42 52 43 53 44 54
REMARK H PARENT 6 16 16 27 10 29 26 37 33 46 33 47 34 48 34 49 44 55
ROOT
ATOM      1  N   UNL     1      10.388  -7.380  -1.834  1.00  0.00    -0.326 N 
ATOM      2  C   UNL     1       8.704  -6.419  -0.499  1.00  0.00     0.014 C 
ATOM      3  C   UNL     1       9.189  -7.751  -1.076  1.00  0.00     0.091 C 
ATOM      4  C   UNL     1       9.060  -5.428  -1.597  1.00  0.00     0.041 C 
ATOM      5  C   UNL     1      10.484  -5.903  -1.941  1.00  0.00     0.175 C 
ATOM      6  C   UNL     1       9.338  -8.749   0.071  1.00  0.00     0.059 C 
ATOM      7  C   UNL     1       7.266  -6.523  -0.030  1.00  0.00     0.008 C 
ATOM      8  C   UNL     1       8.330  -8.529   1.220  1.00  0.00     0.143 C 
ATOM      9  C   UNL     1       7.037  -7.844   0.734  1.00  0.00     0.034 C 
ENDROOT
BRANCH   1  10
ATOM     10  C   UNL     1      11.240  -8.168  -2.588  1.00  0.00     0.246 C 
ATOM     11  O   UNL     1      12.200  -8.715  -2.035  1.00  0.00    -0.272 OA
BRANCH  10  12
ATOM     12  C   UNL     1      10.949  -8.382  -4.102  1.00  0.00     0.174 C 
BRANCH  12  13
ATOM     13  N   UNL     1       9.505  -8.420  -4.332  1.00  0.00    -0.342 N 
ATOM     14  C   UNL     1       8.765  -7.399  -4.883  1.00  0.00     0.249 C 
ATOM     15  O   UNL     1       9.246  -6.342  -5.273  1.00  0.00    -0.272 OA
ATOM     16  H   UNL     1       8.949  -9.165  -3.919  1.00  0.00     0.164 HD
BRANCH  14  17
ATOM     17  C   UNL     1       7.262  -7.736  -4.978  1.00  0.00     0.207 C 
BRANCH  17  18
ATOM     18  C   UNL     1       6.668  -7.931  -3.580  1.00  0.00     0.077 C 
BRANCH  18  19
ATOM     19  C   UNL     1       5.824  -6.750  -3.158  1.00  0.00    -0.043 A 
ATOM     20  C   UNL     1       5.367  -4.368  -3.206  1.00  0.00     0.083 A 
ATOM     21  C   UNL     1       6.117  -5.463  -3.636  1.00  0.00     0.028 A 
ATOM     22  C   UNL     1       4.324  -4.549  -2.298  1.00  0.00     0.134 A 
ATOM     23  C   UNL     1       4.022  -5.818  -1.816  1.00  0.00     0.048 A 
ATOM     24  C   UNL     1       4.772  -6.916  -2.243  1.00  0.00     0.008 A 
ATOM     25  Cl  UNL     1       5.743  -2.795  -3.805  1.00  0.00    -0.080 Cl
BRANCH  22  26
ATOM     26  O   UNL     1       3.567  -3.505  -1.839  1.00  0.00    -0.506 OA
ATOM     27  H   UNL     1       3.586  -2.820  -2.533  1.00  0.00     0.293 HD
ENDBRANCH  22  26
ENDBRANCH  18  19
ENDBRANCH  17  18
BRANCH  17  28
ATOM     28  O   UNL     1       7.047  -8.923  -5.758  1.00  0.00    -0.383 OA
ATOM     29  H   UNL     1       7.924  -9.164  -6.134  1.00  0.00     0.211 HD
ENDBRANCH  17  28
ENDBRANCH  14  17
ENDBRANCH  12  13
BRANCH  12  30
ATOM     30  C   UNL     1      11.675  -9.626  -4.682  1.00  0.00     0.018 C 
ATOM     31  C   UNL     1      11.576 -10.816  -3.716  1.00  0.00     0.010 C 
BRANCH  30  32
ATOM     32  C   UNL     1      13.154  -9.365  -5.055  1.00  0.00     0.002 C 
ATOM     33  C   UNL     1      13.437  -8.008  -5.686  1.00  0.00     0.004 C 
ENDBRANCH  30  32
ENDBRANCH  12  30
ENDBRANCH  10  12
ENDBRANCH   1  10
BRANCH   5  34
ATOM     34  C   UNL     1      11.530  -5.346  -0.939  1.00  0.00     0.242 C 
ATOM     35  O   UNL     1      12.482  -6.017  -0.541  1.00  0.00    -0.273 OA
ATOM     36  N   UNL     1      11.285  -4.069  -0.486  1.00  0.00    -0.354 N 
ATOM     37  H   UNL     1      10.416  -3.609  -0.759  1.00  0.00     0.163 HD
BRANCH  36  38
ATOM     38  C   UNL     1      12.261  -3.319   0.277  1.00  0.00     0.116 C 
BRANCH  38  39
ATOM     39  C   UNL     1      11.649  -2.869   1.601  1.00  0.00     0.023 C 
BRANCH  39  40
ATOM     40  C   UNL     1      10.270  -3.473   1.841  1.00  0.00     0.026 C 
BRANCH  40  41
ATOM     41  C   UNL     1       9.208  -2.378   1.944  1.00  0.00     0.146 C 
BRANCH  41  42
ATOM     42  N   UNL     1       8.481  -2.515   3.199  1.00  0.00    -0.254 NA
ATOM     43  C   UNL     1       7.329  -3.074   3.206  1.00  0.00     0.185 C 
ATOM     44  N   UNL     1       6.615  -3.598   2.193  1.00  0.00    -0.370 N 
ATOM     45  N   UNL     1       6.673  -3.186   4.373  1.00  0.00    -0.370 N 
ATOM     46  H   UNL     1       5.632  -3.781   2.299  1.00  0.00     0.159 HD
ATOM     47  H   UNL     1       6.970  -3.609   1.242  1.00  0.00     0.159 HD
ATOM     48  H   UNL     1       7.145  -2.823   5.190  1.00  0.00     0.159 HD
ATOM     49  H   UNL     1       5.895  -3.808   4.502  1.00  0.00     0.159 HD
ENDBRANCH  41  42
ENDBRANCH  40  41
ENDBRANCH  39  40
ENDBRANCH  38  39
ENDBRANCH  36  38
ENDBRANCH   5  34
BRANCH   8  50
ATOM     50  O   UNL     1       8.917  -7.718   2.238  1.00  0.00    -0.245 OA
BRANCH  50  51
ATOM     51  S   UNL     1       9.223  -8.361   3.700  1.00  0.00     0.397 S 
ATOM     52  O   UNL     1      10.386  -9.212   3.580  1.00  0.00    -0.169 OA
ATOM     53  O   UNL     1       7.989  -8.841   4.288  1.00  0.00    -0.169 OA
BRANCH  51  54
ATOM     54  O   UNL     1       9.705  -7.076   4.538  1.00  0.00    -0.264 OA
ATOM     55  H   UNL     1       9.100  -6.337   4.324  1.00  0.00     0.236 HD
ENDBRANCH  51  54
ENDBRANCH  50  51
ENDBRANCH   8  50
TORSDOF 19
ENDMDL
MODEL 19
REMARK VINA RESULT:    -5.547      8.711     12.182
REMARK INTER + INTRA:         -16.206
REMARK INTER:                 -12.744
REMARK INTRA:                  -3.462
REMARK UNBOUND:                -4.985
REMARK SMILES CC[C@@H](C)[C@@H](NC(=O)[C@@H](O)Cc1ccc(O)c(Cl)c1)C(=O)N1[C@H](C(=O)NCCCCN=C(N)N)C[C@H]2CC[C@H](OS(=O)(=O)O)C[C@@H]21
REMARK SMILES IDX 22 1 36 2 46 3 35 4 23 5 45 6 37 7 39 8 38 9 20 10 21 11
REMARK SMILES IDX 5 12 6 13 7 14 8 15 9 17 11 18 12 19 17 20 19 21 15 22 14 23
REMARK SMILES IDX 13 24 18 25 16 26 10 28 3 30 4 31 2 32 1 33 24 34 25 35
REMARK SMILES IDX 26 36 27 38 28 39 29 40 30 41 31 42 32 43 33 44 34 45 40 50
REMARK SMILES IDX 41 51 42 52 43 53 44 54
REMARK H PARENT 6 16 16 27 10 29 26 37 33 46 33 47 34 48 34 49 44 55
ROOT
ATOM      1  N   UNL     1       5.655  -1.596 -10.202  1.00  0.00    -0.326 N 
ATOM      2  C   UNL     1       6.635  -0.089 -11.722  1.00  0.00     0.014 C 
ATOM      3  C   UNL     1       6.971  -1.137 -10.657  1.00  0.00     0.091 C 
ATOM      4  C   UNL     1       5.365   0.547 -11.178  1.00  0.00     0.041 C 
ATOM      5  C   UNL     1       4.594  -0.714 -10.746  1.00  0.00     0.175 C 
ATOM      6  C   UNL     1       7.924  -2.161 -11.271  1.00  0.00     0.059 C 
ATOM      7  C   UNL     1       7.837   0.787 -12.018  1.00  0.00     0.008 C 
ATOM      8  C   UNL     1       8.864  -1.570 -12.343  1.00  0.00     0.143 C 
ATOM      9  C   UNL     1       9.119  -0.065 -12.125  1.00  0.00     0.034 C 
ENDROOT
BRANCH   1  10
ATOM     10  C   UNL     1       5.327  -2.528  -9.233  1.00  0.00     0.246 C 
ATOM     11  O   UNL     1       5.138  -3.703  -9.568  1.00  0.00    -0.272 OA
BRANCH  10  12
ATOM     12  C   UNL     1       5.246  -2.089  -7.742  1.00  0.00     0.174 C 
BRANCH  12  13
ATOM     13  N   UNL     1       5.134  -3.265  -6.881  1.00  0.00    -0.342 N 
ATOM     14  C   UNL     1       5.918  -3.513  -5.776  1.00  0.00     0.249 C 
ATOM     15  O   UNL     1       6.788  -2.751  -5.373  1.00  0.00    -0.272 OA
ATOM     16  H   UNL     1       4.567  -4.056  -7.178  1.00  0.00     0.164 HD
BRANCH  14  17
ATOM     17  C   UNL     1       5.569  -4.848  -5.085  1.00  0.00     0.207 C 
BRANCH  17  18
ATOM     18  C   UNL     1       6.261  -6.016  -5.796  1.00  0.00     0.077 C 
BRANCH  18  19
ATOM     19  C   UNL     1       7.313  -6.662  -4.921  1.00  0.00    -0.043 A 
ATOM     20  C   UNL     1       8.466  -6.827  -2.794  1.00  0.00     0.083 A 
ATOM     21  C   UNL     1       7.462  -6.265  -3.583  1.00  0.00     0.028 A 
ATOM     22  C   UNL     1       9.325  -7.785  -3.333  1.00  0.00     0.134 A 
ATOM     23  C   UNL     1       9.187  -8.188  -4.657  1.00  0.00     0.048 A 
ATOM     24  C   UNL     1       8.185  -7.625  -5.450  1.00  0.00     0.008 A 
ATOM     25  Cl  UNL     1       8.634  -6.327  -1.152  1.00  0.00    -0.080 Cl
BRANCH  22  26
ATOM     26  O   UNL     1      10.330  -8.357  -2.601  1.00  0.00    -0.506 OA
ATOM     27  H   UNL     1      10.794  -7.630  -2.147  1.00  0.00     0.293 HD
ENDBRANCH  22  26
ENDBRANCH  18  19
ENDBRANCH  17  18
BRANCH  17  28
ATOM     28  O   UNL     1       4.149  -5.070  -5.076  1.00  0.00    -0.383 OA
ATOM     29  H   UNL     1       3.946  -5.564  -5.903  1.00  0.00     0.211 HD
ENDBRANCH  17  28
ENDBRANCH  14  17
ENDBRANCH  12  13
BRANCH  12  30
ATOM     30  C   UNL     1       4.116  -1.056  -7.482  1.00  0.00     0.018 C 
ATOM     31  C   UNL     1       4.704   0.312  -7.101  1.00  0.00     0.010 C 
BRANCH  30  32
ATOM     32  C   UNL     1       3.091  -1.510  -6.415  1.00  0.00     0.002 C 
ATOM     33  C   UNL     1       1.826  -2.157  -6.962  1.00  0.00     0.004 C 
ENDBRANCH  30  32
ENDBRANCH  12  30
ENDBRANCH  10  12
ENDBRANCH   1  10
BRANCH   5  34
ATOM     34  C   UNL     1       3.880  -1.388 -11.948  1.00  0.00     0.242 C 
ATOM     35  O   UNL     1       4.036  -2.578 -12.222  1.00  0.00    -0.273 OA
ATOM     36  N   UNL     1       3.106  -0.548 -12.717  1.00  0.00    -0.354 N 
ATOM     37  H   UNL     1       3.113   0.452 -12.510  1.00  0.00     0.163 HD
BRANCH  36  38
ATOM     38  C   UNL     1       2.207  -1.043 -13.738  1.00  0.00     0.116 C 
BRANCH  38  39
ATOM     39  C   UNL     1       1.770   0.105 -14.645  1.00  0.00     0.023 C 
BRANCH  39  40
ATOM     40  C   UNL     1       2.322  -0.027 -16.060  1.00  0.00     0.026 C 
BRANCH  40  41
ATOM     41  C   UNL     1       2.946  -1.407 -16.272  1.00  0.00     0.146 C 
BRANCH  41  42
ATOM     42  N   UNL     1       4.223  -1.269 -16.960  1.00  0.00    -0.254 NA
ATOM     43  C   UNL     1       5.301  -1.635 -16.374  1.00  0.00     0.185 C 
ATOM     44  N   UNL     1       5.484  -2.163 -15.150  1.00  0.00    -0.370 N 
ATOM     45  N   UNL     1       6.468  -1.495 -17.023  1.00  0.00    -0.370 N 
ATOM     46  H   UNL     1       6.396  -2.174 -14.727  1.00  0.00     0.159 HD
ATOM     47  H   UNL     1       4.703  -2.349 -14.527  1.00  0.00     0.159 HD
ATOM     48  H   UNL     1       6.418  -1.112 -17.957  1.00  0.00     0.159 HD
ATOM     49  H   UNL     1       7.308  -1.967 -16.739  1.00  0.00     0.159 HD
ENDBRANCH  41  42
ENDBRANCH  40  41
ENDBRANCH  39  40
ENDBRANCH  38  39
ENDBRANCH  36  38
ENDBRANCH   5  34
BRANCH   8  50
ATOM     50  O   UNL     1       8.301  -1.751 -13.643  1.00  0.00    -0.245 OA
BRANCH  50  51
ATOM     51  S   UNL     1       9.253  -2.233 -14.871  1.00  0.00     0.397 S 
ATOM     52  O   UNL     1       8.567  -3.289 -15.580  1.00  0.00    -0.169 OA
ATOM     53  O   UNL     1      10.612  -2.393 -14.398  1.00  0.00    -0.169 OA
BRANCH  51  54
ATOM     54  O   UNL     1       9.214  -0.955 -15.846  1.00  0.00    -0.264 OA
ATOM     55  H   UNL     1       9.466  -0.169 -15.319  1.00  0.00     0.236 HD
ENDBRANCH  51  54
ENDBRANCH  50  51
ENDBRANCH   8  50
TORSDOF 19
ENDMDL
MODEL 20
REMARK VINA RESULT:    -5.507      3.231      6.973
REMARK INTER + INTRA:         -16.127
REMARK INTER:                 -12.517
REMARK INTRA:                  -3.609
REMARK UNBOUND:                -4.985
REMARK SMILES CC[C@@H](C)[C@@H](NC(=O)[C@@H](O)Cc1ccc(O)c(Cl)c1)C(=O)N1[C@H](C(=O)NCCCCN=C(N)N)C[C@H]2CC[C@H](OS(=O)(=O)O)C[C@@H]21
REMARK SMILES IDX 22 1 36 2 46 3 35 4 23 5 45 6 37 7 39 8 38 9 20 10 21 11
REMARK SMILES IDX 5 12 6 13 7 14 8 15 9 17 11 18 12 19 17 20 19 21 15 22 14 23
REMARK SMILES IDX 13 24 18 25 16 26 10 28 3 30 4 31 2 32 1 33 24 34 25 35
REMARK SMILES IDX 26 36 27 38 28 39 29 40 30 41 31 42 32 43 33 44 34 45 40 50
REMARK SMILES IDX 41 51 42 52 43 53 44 54
REMARK H PARENT 6 16 16 27 10 29 26 37 33 46 33 47 34 48 34 49 44 55
ROOT
ATOM      1  N   UNL     1       7.827  -6.861   1.443  1.00  0.00    -0.326 N 
ATOM      2  C   UNL     1       7.497  -4.544   1.705  1.00  0.00     0.014 C 
ATOM      3  C   UNL     1       7.877  -5.815   2.470  1.00  0.00     0.091 C 
ATOM      4  C   UNL     1       6.487  -5.055   0.689  1.00  0.00     0.041 C 
ATOM      5  C   UNL     1       7.205  -6.328   0.206  1.00  0.00     0.175 C 
ATOM      6  C   UNL     1       9.203  -5.569   3.188  1.00  0.00     0.059 C 
ATOM      7  C   UNL     1       7.098  -3.436   2.659  1.00  0.00     0.008 C 
ATOM      8  C   UNL     1       9.406  -4.104   3.631  1.00  0.00     0.143 C 
ATOM      9  C   UNL     1       8.066  -3.376   3.859  1.00  0.00     0.034 C 
ENDROOT
BRANCH   1  10
ATOM     10  C   UNL     1       8.058  -8.222   1.550  1.00  0.00     0.246 C 
ATOM     11  O   UNL     1       7.147  -9.010   1.275  1.00  0.00    -0.272 OA
BRANCH  10  12
ATOM     12  C   UNL     1       9.467  -8.729   1.972  1.00  0.00     0.174 C 
BRANCH  12  13
ATOM     13  N   UNL     1      10.481  -8.203   1.059  1.00  0.00    -0.342 N 
ATOM     14  C   UNL     1      11.671  -7.627   1.445  1.00  0.00     0.249 C 
ATOM     15  O   UNL     1      12.027  -7.516   2.612  1.00  0.00    -0.272 OA
ATOM     16  H   UNL     1      10.258  -8.084   0.074  1.00  0.00     0.164 HD
BRANCH  14  17
ATOM     17  C   UNL     1      12.520  -7.154   0.247  1.00  0.00     0.207 C 
BRANCH  17  18
ATOM     18  C   UNL     1      13.420  -8.288  -0.253  1.00  0.00     0.077 C 
BRANCH  18  19
ATOM     19  C   UNL     1      13.174  -8.599  -1.713  1.00  0.00    -0.043 A 
ATOM     20  C   UNL     1      11.643  -8.885  -3.572  1.00  0.00     0.083 A 
ATOM     21  C   UNL     1      11.873  -8.550  -2.237  1.00  0.00     0.028 A 
ATOM     22  C   UNL     1      12.706  -9.273  -4.388  1.00  0.00     0.134 A 
ATOM     23  C   UNL     1      13.999  -9.327  -3.881  1.00  0.00     0.048 A 
ATOM     24  C   UNL     1      14.233  -8.993  -2.545  1.00  0.00     0.008 A 
ATOM     25  Cl  UNL     1      10.037  -8.818  -4.199  1.00  0.00    -0.080 Cl
BRANCH  22  26
ATOM     26  O   UNL     1      12.527  -9.622  -5.700  1.00  0.00    -0.506 OA
ATOM     27  H   UNL     1      12.727  -8.828  -6.230  1.00  0.00     0.293 HD
ENDBRANCH  22  26
ENDBRANCH  18  19
ENDBRANCH  17  18
BRANCH  17  28
ATOM     28  O   UNL     1      13.332  -6.023   0.603  1.00  0.00    -0.383 OA
ATOM     29  H   UNL     1      13.320  -5.423  -0.178  1.00  0.00     0.211 HD
ENDBRANCH  17  28
ENDBRANCH  14  17
ENDBRANCH  12  13
BRANCH  12  30
ATOM     30  C   UNL     1       9.534 -10.275   2.104  1.00  0.00     0.018 C 
ATOM     31  C   UNL     1       8.738 -10.753   3.329  1.00  0.00     0.010 C 
BRANCH  30  32
ATOM     32  C   UNL     1      10.977 -10.833   2.156  1.00  0.00     0.002 C 
ATOM     33  C   UNL     1      11.487 -11.442   0.857  1.00  0.00     0.004 C 
ENDBRANCH  30  32
ENDBRANCH  12  30
ENDBRANCH  10  12
ENDBRANCH   1  10
BRANCH   5  34
ATOM     34  C   UNL     1       8.287  -6.006  -0.859  1.00  0.00     0.242 C 
ATOM     35  O   UNL     1       9.208  -6.781  -1.117  1.00  0.00    -0.273 OA
ATOM     36  N   UNL     1       8.173  -4.769  -1.453  1.00  0.00    -0.354 N 
ATOM     37  H   UNL     1       7.461  -4.123  -1.112  1.00  0.00     0.163 HD
BRANCH  36  38
ATOM     38  C   UNL     1       8.959  -4.392  -2.610  1.00  0.00     0.116 C 
BRANCH  38  39
ATOM     39  C   UNL     1       8.042  -4.179  -3.812  1.00  0.00     0.023 C 
BRANCH  39  40
ATOM     40  C   UNL     1       8.201  -5.269  -4.867  1.00  0.00     0.026 C 
BRANCH  40  41
ATOM     41  C   UNL     1       7.356  -6.493  -4.514  1.00  0.00     0.146 C 
BRANCH  41  42
ATOM     42  N   UNL     1       6.155  -6.074  -3.803  1.00  0.00    -0.254 NA
ATOM     43  C   UNL     1       5.062  -6.718  -3.974  1.00  0.00     0.185 C 
ATOM     44  N   UNL     1       4.800  -7.790  -4.744  1.00  0.00    -0.370 N 
ATOM     45  N   UNL     1       3.964  -6.313  -3.313  1.00  0.00    -0.370 N 
ATOM     46  H   UNL     1       3.852  -8.039  -4.970  1.00  0.00     0.159 HD
ATOM     47  H   UNL     1       5.522  -8.234  -5.302  1.00  0.00     0.159 HD
ATOM     48  H   UNL     1       4.077  -5.515  -2.703  1.00  0.00     0.159 HD
ATOM     49  H   UNL     1       3.149  -6.890  -3.207  1.00  0.00     0.159 HD
ENDBRANCH  41  42
ENDBRANCH  40  41
ENDBRANCH  39  40
ENDBRANCH  38  39
ENDBRANCH  36  38
ENDBRANCH   5  34
BRANCH   8  50
ATOM     50  O   UNL     1      10.147  -3.390   2.640  1.00  0.00    -0.245 OA
BRANCH  50  51
ATOM     51  S   UNL     1      11.701  -3.004   2.923  1.00  0.00     0.397 S 
ATOM     52  O   UNL     1      12.078  -1.960   1.996  1.00  0.00    -0.169 OA
ATOM     53  O   UNL     1      12.485  -4.214   3.063  1.00  0.00    -0.169 OA
BRANCH  51  54
ATOM     54  O   UNL     1      11.615  -2.299   4.365  1.00  0.00    -0.264 OA
ATOM     55  H   UNL     1      12.135  -2.840   4.994  1.00  0.00     0.236 HD
ENDBRANCH  51  54
ENDBRANCH  50  51
ENDBRANCH   8  50
TORSDOF 19
ENDMDL
MODEL 21
REMARK VINA RESULT:    -5.493      3.027      6.860
REMARK INTER + INTRA:         -16.098
REMARK INTER:                 -11.840
REMARK INTRA:                  -4.258
REMARK UNBOUND:                -4.985
REMARK SMILES CC[C@@H](C)[C@@H](NC(=O)[C@@H](O)Cc1ccc(O)c(Cl)c1)C(=O)N1[C@H](C(=O)NCCCCN=C(N)N)C[C@H]2CC[C@H](OS(=O)(=O)O)C[C@@H]21
REMARK SMILES IDX 22 1 36 2 46 3 35 4 23 5 45 6 37 7 39 8 38 9 20 10 21 11
REMARK SMILES IDX 5 12 6 13 7 14 8 15 9 17 11 18 12 19 17 20 19 21 15 22 14 23
REMARK SMILES IDX 13 24 18 25 16 26 10 28 3 30 4 31 2 32 1 33 24 34 25 35
REMARK SMILES IDX 26 36 27 38 28 39 29 40 30 41 31 42 32 43 33 44 34 45 40 50
REMARK SMILES IDX 41 51 42 52 43 53 44 54
REMARK H PARENT 6 16 16 27 10 29 26 37 33 46 33 47 34 48 34 49 44 55
ROOT
ATOM      1  N   UNL     1       9.480  -6.991  -1.832  1.00  0.00    -0.326 N 
ATOM      2  C   UNL     1       9.596  -6.294   0.414  1.00  0.00     0.014 C 
ATOM      3  C   UNL     1       8.651  -6.901  -0.627  1.00  0.00     0.091 C 
ATOM      4  C   UNL     1      10.449  -5.350  -0.419  1.00  0.00     0.041 C 
ATOM      5  C   UNL     1      10.751  -6.252  -1.630  1.00  0.00     0.175 C 
ATOM      6  C   UNL     1       8.064  -8.190  -0.054  1.00  0.00     0.059 C 
ATOM      7  C   UNL     1       8.821  -5.748   1.597  1.00  0.00     0.008 C 
ATOM      8  C   UNL     1       7.888  -8.164   1.480  1.00  0.00     0.143 C 
ATOM      9  C   UNL     1       7.708  -6.731   2.018  1.00  0.00     0.034 C 
ENDROOT
BRANCH   1  10
ATOM     10  C   UNL     1       9.158  -7.445  -3.100  1.00  0.00     0.246 C 
ATOM     11  O   UNL     1       9.631  -8.517  -3.492  1.00  0.00    -0.272 OA
BRANCH  10  12
ATOM     12  C   UNL     1       8.178  -6.621  -3.984  1.00  0.00     0.174 C 
BRANCH  12  13
ATOM     13  N   UNL     1       7.563  -5.558  -3.190  1.00  0.00    -0.342 N 
ATOM     14  C   UNL     1       7.380  -4.261  -3.613  1.00  0.00     0.249 C 
ATOM     15  O   UNL     1       7.691  -3.856  -4.726  1.00  0.00    -0.272 OA
ATOM     16  H   UNL     1       7.399  -5.702  -2.196  1.00  0.00     0.164 HD
BRANCH  14  17
ATOM     17  C   UNL     1       6.720  -3.371  -2.538  1.00  0.00     0.207 C 
BRANCH  17  18
ATOM     18  C   UNL     1       6.086  -4.236  -1.443  1.00  0.00     0.077 C 
BRANCH  18  19
ATOM     19  C   UNL     1       6.333  -3.666  -0.064  1.00  0.00    -0.043 A 
ATOM     20  C   UNL     1       5.655  -3.386   2.248  1.00  0.00     0.083 A 
ATOM     21  C   UNL     1       5.451  -3.953   0.989  1.00  0.00     0.028 A 
ATOM     22  C   UNL     1       6.736  -2.531   2.462  1.00  0.00     0.134 A 
ATOM     23  C   UNL     1       7.618  -2.238   1.428  1.00  0.00     0.048 A 
ATOM     24  C   UNL     1       7.416  -2.803   0.166  1.00  0.00     0.008 A 
ATOM     25  Cl  UNL     1       4.560  -3.750   3.530  1.00  0.00    -0.080 Cl
BRANCH  22  26
ATOM     26  O   UNL     1       6.971  -1.943   3.675  1.00  0.00    -0.506 OA
ATOM     27  H   UNL     1       7.919  -2.065   3.867  1.00  0.00     0.293 HD
ENDBRANCH  22  26
ENDBRANCH  18  19
ENDBRANCH  17  18
BRANCH  17  28
ATOM     28  O   UNL     1       5.715  -2.522  -3.115  1.00  0.00    -0.383 OA
ATOM     29  H   UNL     1       4.877  -2.733  -2.645  1.00  0.00     0.211 HD
ENDBRANCH  17  28
ENDBRANCH  14  17
ENDBRANCH  12  13
BRANCH  12  30
ATOM     30  C   UNL     1       7.125  -7.510  -4.700  1.00  0.00     0.018 C 
ATOM     31  C   UNL     1       7.065  -7.184  -6.200  1.00  0.00     0.010 C 
BRANCH  30  32
ATOM     32  C   UNL     1       5.710  -7.419  -4.079  1.00  0.00     0.002 C 
ATOM     33  C   UNL     1       4.676  -6.680  -4.919  1.00  0.00     0.004 C 
ENDBRANCH  30  32
ENDBRANCH  12  30
ENDBRANCH  10  12
ENDBRANCH   1  10
BRANCH   5  34
ATOM     34  C   UNL     1      11.917  -7.232  -1.336  1.00  0.00     0.242 C 
ATOM     35  O   UNL     1      13.063  -6.844  -1.110  1.00  0.00    -0.273 OA
ATOM     36  N   UNL     1      11.589  -8.568  -1.399  1.00  0.00    -0.354 N 
ATOM     37  H   UNL     1      10.652  -8.830  -1.708  1.00  0.00     0.163 HD
BRANCH  36  38
ATOM     38  C   UNL     1      12.490  -9.608  -0.946  1.00  0.00     0.116 C 
BRANCH  38  39
ATOM     39  C   UNL     1      12.257 -10.883  -1.752  1.00  0.00     0.023 C 
BRANCH  39  40
ATOM     40  C   UNL     1      13.433 -11.220  -2.662  1.00  0.00     0.026 C 
BRANCH  40  41
ATOM     41  C   UNL     1      14.155  -9.949  -3.108  1.00  0.00     0.146 C 
BRANCH  41  42
ATOM     42  N   UNL     1      14.230  -9.910  -4.563  1.00  0.00    -0.254 NA
ATOM     43  C   UNL     1      13.400  -9.191  -5.220  1.00  0.00     0.185 C 
ATOM     44  N   UNL     1      12.398  -8.405  -4.782  1.00  0.00    -0.370 N 
ATOM     45  N   UNL     1      13.482  -9.172  -6.561  1.00  0.00    -0.370 N 
ATOM     46  H   UNL     1      11.678  -8.095  -5.411  1.00  0.00     0.159 HD
ATOM     47  H   UNL     1      12.203  -8.293  -3.792  1.00  0.00     0.159 HD
ATOM     48  H   UNL     1      14.217  -9.731  -6.973  1.00  0.00     0.159 HD
ATOM     49  H   UNL     1      13.038  -8.468  -7.123  1.00  0.00     0.159 HD
ENDBRANCH  41  42
ENDBRANCH  40  41
ENDBRANCH  39  40
ENDBRANCH  38  39
ENDBRANCH  36  38
ENDBRANCH   5  34
BRANCH   8  50
ATOM     50  O   UNL     1       9.027  -8.746   2.114  1.00  0.00    -0.245 OA
BRANCH  50  51
ATOM     51  S   UNL     1       8.927 -10.253   2.719  1.00  0.00     0.397 S 
ATOM     52  O   UNL     1       7.554 -10.689   2.606  1.00  0.00    -0.169 OA
ATOM     53  O   UNL     1       9.645 -10.321   3.975  1.00  0.00    -0.169 OA
BRANCH  51  54
ATOM     54  O   UNL     1       9.748 -11.107   1.631  1.00  0.00    -0.264 OA
ATOM     55  H   UNL     1      10.293 -10.481   1.111  1.00  0.00     0.236 HD
ENDBRANCH  51  54
ENDBRANCH  50  51
ENDBRANCH   8  50
TORSDOF 19
ENDMDL
MODEL 22
REMARK VINA RESULT:    -5.476     11.356     14.722
REMARK INTER + INTRA:         -16.062
REMARK INTER:                 -11.405
REMARK INTRA:                  -4.657
REMARK UNBOUND:                -4.985
REMARK SMILES CC[C@@H](C)[C@@H](NC(=O)[C@@H](O)Cc1ccc(O)c(Cl)c1)C(=O)N1[C@H](C(=O)NCCCCN=C(N)N)C[C@H]2CC[C@H](OS(=O)(=O)O)C[C@@H]21
REMARK SMILES IDX 22 1 36 2 46 3 35 4 23 5 45 6 37 7 39 8 38 9 20 10 21 11
REMARK SMILES IDX 5 12 6 13 7 14 8 15 9 17 11 18 12 19 17 20 19 21 15 22 14 23
REMARK SMILES IDX 13 24 18 25 16 26 10 28 3 30 4 31 2 32 1 33 24 34 25 35
REMARK SMILES IDX 26 36 27 38 28 39 29 40 30 41 31 42 32 43 33 44 34 45 40 50
REMARK SMILES IDX 41 51 42 52 43 53 44 54
REMARK H PARENT 6 16 16 27 10 29 26 37 33 46 33 47 34 48 34 49 44 55
ROOT
ATOM      1  N   UNL     1       8.426  -1.070 -14.479  1.00  0.00    -0.326 N 
ATOM      2  C   UNL     1       8.418  -2.497 -12.606  1.00  0.00     0.014 C 
ATOM      3  C   UNL     1       8.615  -1.037 -13.026  1.00  0.00     0.091 C 
ATOM      4  C   UNL     1       8.998  -3.265 -13.784  1.00  0.00     0.041 C 
ATOM      5  C   UNL     1       8.382  -2.475 -14.954  1.00  0.00     0.175 C 
ATOM      6  C   UNL     1       7.678  -0.164 -12.193  1.00  0.00     0.059 C 
ATOM      7  C   UNL     1       8.970  -2.740 -11.216  1.00  0.00     0.008 C 
ATOM      8  C   UNL     1       7.419  -0.711 -10.773  1.00  0.00     0.143 C 
ATOM      9  C   UNL     1       8.583  -1.586 -10.267  1.00  0.00     0.034 C 
ENDROOT
BRANCH   1  10
ATOM     10  C   UNL     1       8.503  -0.046 -15.408  1.00  0.00     0.246 C 
ATOM     11  O   UNL     1       7.460   0.400 -15.899  1.00  0.00    -0.272 OA
BRANCH  10  12
ATOM     12  C   UNL     1       9.892   0.548 -15.781  1.00  0.00     0.174 C 
BRANCH  12  13
ATOM     13  N   UNL     1      10.921  -0.486 -15.679  1.00  0.00    -0.342 N 
ATOM     14  C   UNL     1      11.808  -0.820 -16.678  1.00  0.00     0.249 C 
ATOM     15  O   UNL     1      11.851  -0.260 -17.766  1.00  0.00    -0.272 OA
ATOM     16  H   UNL     1      10.904  -1.138 -14.898  1.00  0.00     0.164 HD
BRANCH  14  17
ATOM     17  C   UNL     1      12.760  -1.965 -16.271  1.00  0.00     0.207 C 
BRANCH  17  18
ATOM     18  C   UNL     1      13.898  -1.430 -15.396  1.00  0.00     0.077 C 
BRANCH  18  19
ATOM     19  C   UNL     1      13.666  -1.724 -13.931  1.00  0.00    -0.043 A 
ATOM     20  C   UNL     1      12.769  -3.155 -12.190  1.00  0.00     0.083 A 
ATOM     21  C   UNL     1      13.026  -2.910 -13.540  1.00  0.00     0.028 A 
ATOM     22  C   UNL     1      13.148  -2.220 -11.226  1.00  0.00     0.134 A 
ATOM     23  C   UNL     1      13.783  -1.042 -11.600  1.00  0.00     0.048 A 
ATOM     24  C   UNL     1      14.040  -0.792 -12.950  1.00  0.00     0.008 A 
ATOM     25  Cl  UNL     1      11.981  -4.618 -11.728  1.00  0.00    -0.080 Cl
BRANCH  22  26
ATOM     26  O   UNL     1      12.909  -2.412  -9.892  1.00  0.00    -0.506 OA
ATOM     27  H   UNL     1      13.477  -1.781  -9.412  1.00  0.00     0.293 HD
ENDBRANCH  22  26
ENDBRANCH  18  19
ENDBRANCH  17  18
BRANCH  17  28
ATOM     28  O   UNL     1      13.312  -2.613 -17.428  1.00  0.00    -0.383 OA
ATOM     29  H   UNL     1      12.923  -3.517 -17.445  1.00  0.00     0.211 HD
ENDBRANCH  17  28
ENDBRANCH  14  17
ENDBRANCH  12  13
BRANCH  12  30
ATOM     30  C   UNL     1      10.243   1.816 -14.956  1.00  0.00     0.018 C 
ATOM     31  C   UNL     1      10.335   3.051 -15.865  1.00  0.00     0.010 C 
BRANCH  30  32
ATOM     32  C   UNL     1      11.538   1.674 -14.119  1.00  0.00     0.002 C 
ATOM     33  C   UNL     1      12.779   2.315 -14.726  1.00  0.00     0.004 C 
ENDBRANCH  30  32
ENDBRANCH  12  30
ENDBRANCH  10  12
ENDBRANCH   1  10
BRANCH   5  34
ATOM     34  C   UNL     1       6.921  -2.916 -15.236  1.00  0.00     0.242 C 
ATOM     35  O   UNL     1       6.325  -3.717 -14.516  1.00  0.00    -0.273 OA
ATOM     36  N   UNL     1       6.360  -2.389 -16.377  1.00  0.00    -0.354 N 
ATOM     37  H   UNL     1       6.944  -1.826 -16.997  1.00  0.00     0.163 HD
BRANCH  36  38
ATOM     38  C   UNL     1       4.949  -2.519 -16.677  1.00  0.00     0.116 C 
BRANCH  38  39
ATOM     39  C   UNL     1       4.278  -1.149 -16.618  1.00  0.00     0.023 C 
BRANCH  39  40
ATOM     40  C   UNL     1       2.778  -1.244 -16.360  1.00  0.00     0.026 C 
BRANCH  40  41
ATOM     41  C   UNL     1       2.407  -0.546 -15.052  1.00  0.00     0.146 C 
BRANCH  41  42
ATOM     42  N   UNL     1       2.221  -1.537 -14.000  1.00  0.00    -0.254 NA
ATOM     43  C   UNL     1       3.050  -1.588 -13.026  1.00  0.00     0.185 C 
ATOM     44  N   UNL     1       4.140  -0.840 -12.776  1.00  0.00    -0.370 N 
ATOM     45  N   UNL     1       2.863  -2.512 -12.068  1.00  0.00    -0.370 N 
ATOM     46  H   UNL     1       4.830  -1.145 -12.111  1.00  0.00     0.159 HD
ATOM     47  H   UNL     1       4.420  -0.084 -13.393  1.00  0.00     0.159 HD
ATOM     48  H   UNL     1       2.058  -3.113 -12.176  1.00  0.00     0.159 HD
ATOM     49  H   UNL     1       3.314  -2.465 -11.172  1.00  0.00     0.159 HD
ENDBRANCH  41  42
ENDBRANCH  40  41
ENDBRANCH  39  40
ENDBRANCH  38  39
ENDBRANCH  36  38
ENDBRANCH   5  34
BRANCH   8  50
ATOM     50  O   UNL     1       6.225  -1.494 -10.760  1.00  0.00    -0.245 OA
BRANCH  50  51
ATOM     51  S   UNL     1       5.490  -1.815  -9.344  1.00  0.00     0.397 S 
ATOM     52  O   UNL     1       5.974  -0.868  -8.365  1.00  0.00    -0.169 OA
ATOM     53  O   UNL     1       5.513  -3.242  -9.097  1.00  0.00    -0.169 OA
BRANCH  51  54
ATOM     54  O   UNL     1       3.970  -1.389  -9.651  1.00  0.00    -0.264 OA
ATOM     55  H   UNL     1       3.399  -2.160  -9.455  1.00  0.00     0.236 HD
ENDBRANCH  51  54
ENDBRANCH  50  51
ENDBRANCH   8  50
TORSDOF 19
ENDMDL
MODEL 23
REMARK VINA RESULT:    -5.460      8.991     12.063
REMARK INTER + INTRA:         -16.032
REMARK INTER:                 -12.408
REMARK INTRA:                  -3.624
REMARK UNBOUND:                -4.985
REMARK SMILES CC[C@@H](C)[C@@H](NC(=O)[C@@H](O)Cc1ccc(O)c(Cl)c1)C(=O)N1[C@H](C(=O)NCCCCN=C(N)N)C[C@H]2CC[C@H](OS(=O)(=O)O)C[C@@H]21
REMARK SMILES IDX 22 1 36 2 46 3 35 4 23 5 45 6 37 7 39 8 38 9 20 10 21 11
REMARK SMILES IDX 5 12 6 13 7 14 8 15 9 17 11 18 12 19 17 20 19 21 15 22 14 23
REMARK SMILES IDX 13 24 18 25 16 26 10 28 3 30 4 31 2 32 1 33 24 34 25 35
REMARK SMILES IDX 26 36 27 38 28 39 29 40 30 41 31 42 32 43 33 44 34 45 40 50
REMARK SMILES IDX 41 51 42 52 43 53 44 54
REMARK H PARENT 6 16 16 27 10 29 26 37 33 46 33 47 34 48 34 49 44 55
ROOT
ATOM      1  N   UNL     1       5.664  -1.816 -10.460  1.00  0.00    -0.326 N 
ATOM      2  C   UNL     1       6.823  -0.957 -12.321  1.00  0.00     0.014 C 
ATOM      3  C   UNL     1       6.560  -2.246 -11.537  1.00  0.00     0.091 C 
ATOM      4  C   UNL     1       6.828   0.103 -11.230  1.00  0.00     0.041 C 
ATOM      5  C   UNL     1       5.593  -0.334 -10.420  1.00  0.00     0.175 C 
ATOM      6  C   UNL     1       6.062  -3.311 -12.512  1.00  0.00     0.059 C 
ATOM      7  C   UNL     1       8.036  -1.105 -13.218  1.00  0.00     0.008 C 
ATOM      8  C   UNL     1       6.646  -3.173 -13.935  1.00  0.00     0.143 C 
ATOM      9  C   UNL     1       8.021  -2.474 -13.931  1.00  0.00     0.034 C 
ENDROOT
BRANCH   1  10
ATOM     10  C   UNL     1       5.105  -2.546  -9.425  1.00  0.00     0.246 C 
ATOM     11  O   UNL     1       4.180  -3.328  -9.673  1.00  0.00    -0.272 OA
BRANCH  10  12
ATOM     12  C   UNL     1       5.679  -2.401  -7.986  1.00  0.00     0.174 C 
BRANCH  12  13
ATOM     13  N   UNL     1       5.733  -3.710  -7.336  1.00  0.00    -0.342 N 
ATOM     14  C   UNL     1       6.758  -4.151  -6.530  1.00  0.00     0.249 C 
ATOM     15  O   UNL     1       7.738  -3.475  -6.243  1.00  0.00    -0.272 OA
ATOM     16  H   UNL     1       5.071  -4.434  -7.606  1.00  0.00     0.164 HD
BRANCH  14  17
ATOM     17  C   UNL     1       6.531  -5.585  -6.008  1.00  0.00     0.207 C 
BRANCH  17  18
ATOM     18  C   UNL     1       6.941  -5.690  -4.535  1.00  0.00     0.077 C 
BRANCH  18  19
ATOM     19  C   UNL     1       5.830  -5.248  -3.610  1.00  0.00    -0.043 A 
ATOM     20  C   UNL     1       4.723  -3.505  -2.336  1.00  0.00     0.083 A 
ATOM     21  C   UNL     1       5.719  -3.901  -3.229  1.00  0.00     0.028 A 
ATOM     22  C   UNL     1       3.835  -4.448  -1.817  1.00  0.00     0.134 A 
ATOM     23  C   UNL     1       3.933  -5.784  -2.185  1.00  0.00     0.048 A 
ATOM     24  C   UNL     1       4.931  -6.184  -3.078  1.00  0.00     0.008 A 
ATOM     25  Cl  UNL     1       4.603  -1.846  -1.881  1.00  0.00    -0.080 Cl
BRANCH  22  26
ATOM     26  O   UNL     1       2.849  -4.108  -0.931  1.00  0.00    -0.506 OA
ATOM     27  H   UNL     1       2.006  -4.401  -1.324  1.00  0.00     0.293 HD
ENDBRANCH  22  26
ENDBRANCH  18  19
ENDBRANCH  17  18
BRANCH  17  28
ATOM     28  O   UNL     1       7.276  -6.541  -6.779  1.00  0.00    -0.383 OA
ATOM     29  H   UNL     1       6.927  -6.481  -7.697  1.00  0.00     0.211 HD
ENDBRANCH  17  28
ENDBRANCH  14  17
ENDBRANCH  12  13
BRANCH  12  30
ATOM     30  C   UNL     1       4.914  -1.350  -7.138  1.00  0.00     0.018 C 
ATOM     31  C   UNL     1       5.888  -0.345  -6.505  1.00  0.00     0.010 C 
BRANCH  30  32
ATOM     32  C   UNL     1       4.007  -1.971  -6.048  1.00  0.00     0.002 C 
ATOM     33  C   UNL     1       2.549  -2.165  -6.447  1.00  0.00     0.004 C 
ENDBRANCH  30  32
ENDBRANCH  12  30
ENDBRANCH  10  12
ENDBRANCH   1  10
BRANCH   5  34
ATOM     34  C   UNL     1       4.276   0.171 -11.067  1.00  0.00     0.242 C 
ATOM     35  O   UNL     1       3.515  -0.577 -11.680  1.00  0.00    -0.273 OA
ATOM     36  N   UNL     1       4.049   1.525 -10.952  1.00  0.00    -0.354 N 
ATOM     37  H   UNL     1       4.774   2.111 -10.537  1.00  0.00     0.163 HD
BRANCH  36  38
ATOM     38  C   UNL     1       2.780   2.128 -11.303  1.00  0.00     0.116 C 
BRANCH  38  39
ATOM     39  C   UNL     1       3.012   3.324 -12.223  1.00  0.00     0.023 C 
BRANCH  39  40
ATOM     40  C   UNL     1       2.270   3.192 -13.549  1.00  0.00     0.026 C 
BRANCH  40  41
ATOM     41  C   UNL     1       3.222   2.751 -14.661  1.00  0.00     0.146 C 
BRANCH  41  42
ATOM     42  N   UNL     1       2.542   1.817 -15.549  1.00  0.00    -0.254 NA
ATOM     43  C   UNL     1       2.829   0.570 -15.496  1.00  0.00     0.185 C 
ATOM     44  N   UNL     1       3.705  -0.084 -14.712  1.00  0.00    -0.370 N 
ATOM     45  N   UNL     1       2.194  -0.274 -16.326  1.00  0.00    -0.370 N 
ATOM     46  H   UNL     1       4.004  -1.016 -14.944  1.00  0.00     0.159 HD
ATOM     47  H   UNL     1       4.262   0.401 -14.015  1.00  0.00     0.159 HD
ATOM     48  H   UNL     1       1.509   0.137 -16.946  1.00  0.00     0.159 HD
ATOM     49  H   UNL     1       2.184  -1.269 -16.187  1.00  0.00     0.159 HD
ENDBRANCH  41  42
ENDBRANCH  40  41
ENDBRANCH  39  40
ENDBRANCH  38  39
ENDBRANCH  36  38
ENDBRANCH   5  34
BRANCH   8  50
ATOM     50  O   UNL     1       5.756  -2.420 -14.760  1.00  0.00    -0.245 OA
BRANCH  50  51
ATOM     51  S   UNL     1       5.634  -2.775 -16.342  1.00  0.00     0.397 S 
ATOM     52  O   UNL     1       6.888  -2.433 -16.975  1.00  0.00    -0.169 OA
ATOM     53  O   UNL     1       4.369  -2.290 -16.853  1.00  0.00    -0.169 OA
BRANCH  51  54
ATOM     54  O   UNL     1       5.577  -4.382 -16.322  1.00  0.00    -0.264 OA
ATOM     55  H   UNL     1       5.149  -4.676 -17.152  1.00  0.00     0.236 HD
ENDBRANCH  51  54
ENDBRANCH  50  51
ENDBRANCH   8  50
TORSDOF 19
ENDMDL
MODEL 24
REMARK VINA RESULT:    -5.460      7.115     12.087
REMARK INTER + INTRA:         -16.031
REMARK INTER:                 -14.074
REMARK INTRA:                  -1.956
REMARK UNBOUND:                -4.985
REMARK SMILES CC[C@@H](C)[C@@H](NC(=O)[C@@H](O)Cc1ccc(O)c(Cl)c1)C(=O)N1[C@H](C(=O)NCCCCN=C(N)N)C[C@H]2CC[C@H](OS(=O)(=O)O)C[C@@H]21
REMARK SMILES IDX 22 1 36 2 46 3 35 4 23 5 45 6 37 7 39 8 38 9 20 10 21 11
REMARK SMILES IDX 5 12 6 13 7 14 8 15 9 17 11 18 12 19 17 20 19 21 15 22 14 23
REMARK SMILES IDX 13 24 18 25 16 26 10 28 3 30 4 31 2 32 1 33 24 34 25 35
REMARK SMILES IDX 26 36 27 38 28 39 29 40 30 41 31 42 32 43 33 44 34 45 40 50
REMARK SMILES IDX 41 51 42 52 43 53 44 54
REMARK H PARENT 6 16 16 27 10 29 26 37 33 46 33 47 34 48 34 49 44 55
ROOT
ATOM      1  N   UNL     1       5.903  -2.622  -6.559  1.00  0.00    -0.326 N 
ATOM      2  C   UNL     1       6.417  -2.632  -4.262  1.00  0.00     0.014 C 
ATOM      3  C   UNL     1       5.248  -2.689  -5.249  1.00  0.00     0.091 C 
ATOM      4  C   UNL     1       7.404  -1.712  -4.964  1.00  0.00     0.041 C 
ATOM      5  C   UNL     1       7.337  -2.280  -6.393  1.00  0.00     0.175 C 
ATOM      6  C   UNL     1       4.401  -3.918  -4.925  1.00  0.00     0.059 C 
ATOM      7  C   UNL     1       5.934  -2.280  -2.869  1.00  0.00     0.008 C 
ATOM      8  C   UNL     1       4.389  -4.286  -3.426  1.00  0.00     0.143 C 
ATOM      9  C   UNL     1       4.647  -3.061  -2.526  1.00  0.00     0.034 C 
ENDROOT
BRANCH   1  10
ATOM     10  C   UNL     1       5.350  -2.615  -7.828  1.00  0.00     0.246 C 
ATOM     11  O   UNL     1       5.851  -3.325  -8.707  1.00  0.00    -0.272 OA
BRANCH  10  12
ATOM     12  C   UNL     1       4.088  -1.748  -8.111  1.00  0.00     0.174 C 
BRANCH  12  13
ATOM     13  N   UNL     1       3.680  -1.901  -9.507  1.00  0.00    -0.342 N 
ATOM     14  C   UNL     1       2.609  -2.649  -9.940  1.00  0.00     0.249 C 
ATOM     15  O   UNL     1       1.852  -3.254  -9.190  1.00  0.00    -0.272 OA
ATOM     16  H   UNL     1       4.300  -1.587 -10.250  1.00  0.00     0.164 HD
BRANCH  14  17
ATOM     17  C   UNL     1       2.448  -2.627 -11.475  1.00  0.00     0.207 C 
BRANCH  17  18
ATOM     18  C   UNL     1       2.618  -1.201 -12.010  1.00  0.00     0.077 C 
BRANCH  18  19
ATOM     19  C   UNL     1       3.173  -1.192 -13.417  1.00  0.00    -0.043 A 
ATOM     20  C   UNL     1       5.067  -1.250 -14.931  1.00  0.00     0.083 A 
ATOM     21  C   UNL     1       4.554  -1.308 -13.635  1.00  0.00     0.028 A 
ATOM     22  C   UNL     1       4.206  -1.074 -16.015  1.00  0.00     0.134 A 
ATOM     23  C   UNL     1       2.836  -0.958 -15.814  1.00  0.00     0.048 A 
ATOM     24  C   UNL     1       2.320  -1.015 -14.517  1.00  0.00     0.008 A 
ATOM     25  Cl  UNL     1       6.768  -1.394 -15.178  1.00  0.00    -0.080 Cl
BRANCH  22  26
ATOM     26  O   UNL     1       4.663  -1.001 -17.303  1.00  0.00    -0.506 OA
ATOM     27  H   UNL     1       4.166  -0.282 -17.736  1.00  0.00     0.293 HD
ENDBRANCH  22  26
ENDBRANCH  18  19
ENDBRANCH  17  18
BRANCH  17  28
ATOM     28  O   UNL     1       1.162  -3.133 -11.868  1.00  0.00    -0.383 OA
ATOM     29  H   UNL     1       0.548  -2.920 -11.128  1.00  0.00     0.211 HD
ENDBRANCH  17  28
ENDBRANCH  14  17
ENDBRANCH  12  13
BRANCH  12  30
ATOM     30  C   UNL     1       4.279  -0.261  -7.709  1.00  0.00     0.018 C 
ATOM     31  C   UNL     1       3.052   0.574  -8.105  1.00  0.00     0.010 C 
BRANCH  30  32
ATOM     32  C   UNL     1       5.566   0.378  -8.285  1.00  0.00     0.002 C 
ATOM     33  C   UNL     1       5.374   1.202  -9.551  1.00  0.00     0.004 C 
ENDBRANCH  30  32
ENDBRANCH  12  30
ENDBRANCH  10  12
ENDBRANCH   1  10
BRANCH   5  34
ATOM     34  C   UNL     1       8.226  -3.543  -6.549  1.00  0.00     0.242 C 
ATOM     35  O   UNL     1       9.029  -3.672  -7.472  1.00  0.00    -0.273 OA
ATOM     36  N   UNL     1       8.011  -4.529  -5.613  1.00  0.00    -0.354 N 
ATOM     37  H   UNL     1       7.248  -4.414  -4.944  1.00  0.00     0.163 HD
BRANCH  36  38
ATOM     38  C   UNL     1       8.891  -5.671  -5.477  1.00  0.00     0.116 C 
BRANCH  38  39
ATOM     39  C   UNL     1       8.081  -6.963  -5.566  1.00  0.00     0.023 C 
BRANCH  39  40
ATOM     40  C   UNL     1       8.594  -8.038  -4.614  1.00  0.00     0.026 C 
BRANCH  40  41
ATOM     41  C   UNL     1      10.109  -7.931  -4.441  1.00  0.00     0.146 C 
BRANCH  41  42
ATOM     42  N   UNL     1      10.511  -8.586  -3.203  1.00  0.00    -0.254 NA
ATOM     43  C   UNL     1      11.151  -9.693  -3.251  1.00  0.00     0.185 C 
ATOM     44  N   UNL     1      11.550 -10.416  -4.314  1.00  0.00    -0.370 N 
ATOM     45  N   UNL     1      11.508 -10.284  -2.099  1.00  0.00    -0.370 N 
ATOM     46  H   UNL     1      11.824 -11.378  -4.206  1.00  0.00     0.159 HD
ATOM     47  H   UNL     1      11.374 -10.107  -5.265  1.00  0.00     0.159 HD
ATOM     48  H   UNL     1      11.252  -9.799  -1.249  1.00  0.00     0.159 HD
ATOM     49  H   UNL     1      12.201 -11.009  -2.051  1.00  0.00     0.159 HD
ENDBRANCH  41  42
ENDBRANCH  40  41
ENDBRANCH  39  40
ENDBRANCH  38  39
ENDBRANCH  36  38
ENDBRANCH   5  34
BRANCH   8  50
ATOM     50  O   UNL     1       5.390  -5.267  -3.154  1.00  0.00    -0.245 OA
BRANCH  50  51
ATOM     51  S   UNL     1       4.948  -6.743  -2.630  1.00  0.00     0.397 S 
ATOM     52  O   UNL     1       5.448  -6.907  -1.284  1.00  0.00    -0.169 OA
ATOM     53  O   UNL     1       5.210  -7.724  -3.663  1.00  0.00    -0.169 OA
BRANCH  51  54
ATOM     54  O   UNL     1       3.354  -6.585  -2.490  1.00  0.00    -0.264 OA
ATOM     55  H   UNL     1       3.069  -5.874  -3.100  1.00  0.00     0.236 HD
ENDBRANCH  51  54
ENDBRANCH  50  51
ENDBRANCH   8  50
TORSDOF 19
ENDMDL
MODEL 25
REMARK VINA RESULT:    -5.448      3.004      5.735
REMARK INTER + INTRA:         -16.006
REMARK INTER:                 -12.088
REMARK INTRA:                  -3.918
REMARK UNBOUND:                -4.985
REMARK SMILES CC[C@@H](C)[C@@H](NC(=O)[C@@H](O)Cc1ccc(O)c(Cl)c1)C(=O)N1[C@H](C(=O)NCCCCN=C(N)N)C[C@H]2CC[C@H](OS(=O)(=O)O)C[C@@H]21
REMARK SMILES IDX 22 1 36 2 46 3 35 4 23 5 45 6 37 7 39 8 38 9 20 10 21 11
REMARK SMILES IDX 5 12 6 13 7 14 8 15 9 17 11 18 12 19 17 20 19 21 15 22 14 23
REMARK SMILES IDX 13 24 18 25 16 26 10 28 3 30 4 31 2 32 1 33 24 34 25 35
REMARK SMILES IDX 26 36 27 38 28 39 29 40 30 41 31 42 32 43 33 44 34 45 40 50
REMARK SMILES IDX 41 51 42 52 43 53 44 54
REMARK H PARENT 6 16 16 27 10 29 26 37 33 46 33 47 34 48 34 49 44 55
ROOT
ATOM      1  N   UNL     1       8.456  -7.106  -0.754  1.00  0.00    -0.326 N 
ATOM      2  C   UNL     1       7.838  -7.359   1.503  1.00  0.00     0.014 C 
ATOM      3  C   UNL     1       9.018  -7.000   0.596  1.00  0.00     0.091 C 
ATOM      4  C   UNL     1       7.096  -8.407   0.689  1.00  0.00     0.041 C 
ATOM      5  C   UNL     1       7.116  -7.740  -0.698  1.00  0.00     0.175 C 
ATOM      6  C   UNL     1       9.578  -5.651   1.043  1.00  0.00     0.059 C 
ATOM      7  C   UNL     1       8.314  -7.702   2.901  1.00  0.00     0.008 C 
ATOM      8  C   UNL     1       9.441  -5.393   2.559  1.00  0.00     0.143 C 
ATOM      9  C   UNL     1       9.395  -6.705   3.368  1.00  0.00     0.034 C 
ENDROOT
BRANCH   1  10
ATOM     10  C   UNL     1       9.060  -6.913  -1.985  1.00  0.00     0.246 C 
ATOM     11  O   UNL     1       8.733  -5.938  -2.669  1.00  0.00    -0.272 OA
BRANCH  10  12
ATOM     12  C   UNL     1      10.166  -7.900  -2.459  1.00  0.00     0.174 C 
BRANCH  12  13
ATOM     13  N   UNL     1      11.389  -7.689  -1.685  1.00  0.00    -0.342 N 
ATOM     14  C   UNL     1      11.863  -8.536  -0.709  1.00  0.00     0.249 C 
ATOM     15  O   UNL     1      11.319  -9.588  -0.396  1.00  0.00    -0.272 OA
ATOM     16  H   UNL     1      11.859  -6.788  -1.723  1.00  0.00     0.164 HD
BRANCH  14  17
ATOM     17  C   UNL     1      13.169  -8.027  -0.061  1.00  0.00     0.207 C 
BRANCH  17  18
ATOM     18  C   UNL     1      13.421  -6.565  -0.443  1.00  0.00     0.077 C 
BRANCH  18  19
ATOM     19  C   UNL     1      13.175  -5.631   0.721  1.00  0.00    -0.043 A 
ATOM     20  C   UNL     1      12.712  -3.405   1.569  1.00  0.00     0.083 A 
ATOM     21  C   UNL     1      12.890  -4.275   0.492  1.00  0.00     0.028 A 
ATOM     22  C   UNL     1      12.819  -3.881   2.876  1.00  0.00     0.134 A 
ATOM     23  C   UNL     1      13.100  -5.221   3.116  1.00  0.00     0.048 A 
ATOM     24  C   UNL     1      13.281  -6.094   2.041  1.00  0.00     0.008 A 
ATOM     25  Cl  UNL     1      12.363  -1.744   1.268  1.00  0.00    -0.080 Cl
BRANCH  22  26
ATOM     26  O   UNL     1      12.663  -3.065   3.963  1.00  0.00    -0.506 OA
ATOM     27  H   UNL     1      11.941  -2.446   3.747  1.00  0.00     0.293 HD
ENDBRANCH  22  26
ENDBRANCH  18  19
ENDBRANCH  17  18
BRANCH  17  28
ATOM     28  O   UNL     1      14.292  -8.826  -0.466  1.00  0.00    -0.383 OA
ATOM     29  H   UNL     1      14.976  -8.707   0.231  1.00  0.00     0.211 HD
ENDBRANCH  17  28
ENDBRANCH  14  17
ENDBRANCH  12  13
BRANCH  12  30
ATOM     30  C   UNL     1      10.414  -7.833  -3.990  1.00  0.00     0.018 C 
ATOM     31  C   UNL     1       9.258  -8.488  -4.761  1.00  0.00     0.010 C 
BRANCH  30  32
ATOM     32  C   UNL     1      11.764  -8.452  -4.428  1.00  0.00     0.002 C 
ATOM     33  C   UNL     1      11.790  -9.973  -4.500  1.00  0.00     0.004 C 
ENDBRANCH  30  32
ENDBRANCH  12  30
ENDBRANCH  10  12
ENDBRANCH   1  10
BRANCH   5  34
ATOM     34  C   UNL     1       5.996  -6.673  -0.835  1.00  0.00     0.242 C 
ATOM     35  O   UNL     1       6.042  -5.592  -0.249  1.00  0.00    -0.273 OA
ATOM     36  N   UNL     1       4.925  -7.046  -1.615  1.00  0.00    -0.354 N 
ATOM     37  H   UNL     1       4.888  -8.000  -1.977  1.00  0.00     0.163 HD
BRANCH  36  38
ATOM     38  C   UNL     1       3.902  -6.106  -2.025  1.00  0.00     0.116 C 
BRANCH  38  39
ATOM     39  C   UNL     1       4.216  -5.575  -3.422  1.00  0.00     0.023 C 
BRANCH  39  40
ATOM     40  C   UNL     1       4.426  -6.693  -4.437  1.00  0.00     0.026 C 
BRANCH  40  41
ATOM     41  C   UNL     1       5.848  -6.657  -4.997  1.00  0.00     0.146 C 
BRANCH  41  42
ATOM     42  N   UNL     1       5.925  -5.690  -6.084  1.00  0.00    -0.254 NA
ATOM     43  C   UNL     1       6.754  -4.717  -6.008  1.00  0.00     0.185 C 
ATOM     44  N   UNL     1       7.632  -4.402  -5.039  1.00  0.00    -0.370 N 
ATOM     45  N   UNL     1       6.806  -3.834  -7.018  1.00  0.00    -0.370 N 
ATOM     46  H   UNL     1       8.042  -3.484  -4.997  1.00  0.00     0.159 HD
ATOM     47  H   UNL     1       7.734  -4.973  -4.205  1.00  0.00     0.159 HD
ATOM     48  H   UNL     1       6.181  -4.004  -7.795  1.00  0.00     0.159 HD
ATOM     49  H   UNL     1       7.573  -3.198  -7.146  1.00  0.00     0.159 HD
ENDBRANCH  41  42
ENDBRANCH  40  41
ENDBRANCH  39  40
ENDBRANCH  38  39
ENDBRANCH  36  38
ENDBRANCH   5  34
BRANCH   8  50
ATOM     50  O   UNL     1       8.248  -4.654   2.825  1.00  0.00    -0.245 OA
BRANCH  50  51
ATOM     51  S   UNL     1       8.347  -3.072   3.187  1.00  0.00     0.397 S 
ATOM     52  O   UNL     1       7.133  -2.694   3.874  1.00  0.00    -0.169 OA
ATOM     53  O   UNL     1       8.828  -2.339   2.034  1.00  0.00    -0.169 OA
BRANCH  51  54
ATOM     54  O   UNL     1       9.505  -3.055   4.303  1.00  0.00    -0.264 OA
ATOM     55  H   UNL     1       9.253  -3.689   5.005  1.00  0.00     0.236 HD
ENDBRANCH  51  54
ENDBRANCH  50  51
ENDBRANCH   8  50
TORSDOF 19
ENDMDL
MODEL 26
REMARK VINA RESULT:    -5.429      3.390      5.091
REMARK INTER + INTRA:         -15.968
REMARK INTER:                 -12.380
REMARK INTRA:                  -3.588
REMARK UNBOUND:                -4.985
REMARK SMILES CC[C@@H](C)[C@@H](NC(=O)[C@@H](O)Cc1ccc(O)c(Cl)c1)C(=O)N1[C@H](C(=O)NCCCCN=C(N)N)C[C@H]2CC[C@H](OS(=O)(=O)O)C[C@@H]21
REMARK SMILES IDX 22 1 36 2 46 3 35 4 23 5 45 6 37 7 39 8 38 9 20 10 21 11
REMARK SMILES IDX 5 12 6 13 7 14 8 15 9 17 11 18 12 19 17 20 19 21 15 22 14 23
REMARK SMILES IDX 13 24 18 25 16 26 10 28 3 30 4 31 2 32 1 33 24 34 25 35
REMARK SMILES IDX 26 36 27 38 28 39 29 40 30 41 31 42 32 43 33 44 34 45 40 50
REMARK SMILES IDX 41 51 42 52 43 53 44 54
REMARK H PARENT 6 16 16 27 10 29 26 37 33 46 33 47 34 48 34 49 44 55
ROOT
ATOM      1  N   UNL     1       8.511  -6.295  -0.037  1.00  0.00    -0.326 N 
ATOM      2  C   UNL     1       8.475  -5.421  -2.223  1.00  0.00     0.014 C 
ATOM      3  C   UNL     1       8.373  -6.728  -1.431  1.00  0.00     0.091 C 
ATOM      4  C   UNL     1       9.470  -4.611  -1.406  1.00  0.00     0.041 C 
ATOM      5  C   UNL     1       8.934  -4.874   0.014  1.00  0.00     0.175 C 
ATOM      6  C   UNL     1       7.088  -7.444  -1.843  1.00  0.00     0.059 C 
ATOM      7  C   UNL     1       8.764  -5.695  -3.686  1.00  0.00     0.008 C 
ATOM      8  C   UNL     1       6.683  -7.197  -3.313  1.00  0.00     0.143 C 
ATOM      9  C   UNL     1       7.900  -6.866  -4.201  1.00  0.00     0.034 C 
ENDROOT
BRANCH   1  10
ATOM     10  C   UNL     1       8.516  -7.043   1.128  1.00  0.00     0.246 C 
ATOM     11  O   UNL     1       7.500  -7.069   1.830  1.00  0.00    -0.272 OA
BRANCH  10  12
ATOM     12  C   UNL     1       9.782  -7.866   1.506  1.00  0.00     0.174 C 
BRANCH  12  13
ATOM     13  N   UNL     1      10.987  -7.117   1.151  1.00  0.00    -0.342 N 
ATOM     14  C   UNL     1      12.065  -6.916   1.983  1.00  0.00     0.249 C 
ATOM     15  O   UNL     1      12.146  -7.370   3.118  1.00  0.00    -0.272 OA
ATOM     16  H   UNL     1      10.999  -6.553   0.305  1.00  0.00     0.164 HD
BRANCH  14  17
ATOM     17  C   UNL     1      13.176  -6.070   1.325  1.00  0.00     0.207 C 
BRANCH  17  18
ATOM     18  C   UNL     1      13.762  -6.804   0.115  1.00  0.00     0.077 C 
BRANCH  18  19
ATOM     19  C   UNL     1      13.275  -6.214  -1.190  1.00  0.00    -0.043 A 
ATOM     20  C   UNL     1      12.364  -6.507  -3.419  1.00  0.00     0.083 A 
ATOM     21  C   UNL     1      12.767  -7.048  -2.198  1.00  0.00     0.028 A 
ATOM     22  C   UNL     1      12.467  -5.133  -3.642  1.00  0.00     0.134 A 
ATOM     23  C   UNL     1      12.967  -4.295  -2.652  1.00  0.00     0.048 A 
ATOM     24  C   UNL     1      13.373  -4.835  -1.429  1.00  0.00     0.008 A 
ATOM     25  Cl  UNL     1      11.744  -7.548  -4.646  1.00  0.00    -0.080 Cl
BRANCH  22  26
ATOM     26  O   UNL     1      12.094  -4.557  -4.826  1.00  0.00    -0.506 OA
ATOM     27  H   UNL     1      11.132  -4.409  -4.775  1.00  0.00     0.293 HD
ENDBRANCH  22  26
ENDBRANCH  18  19
ENDBRANCH  17  18
BRANCH  17  28
ATOM     28  O   UNL     1      14.227  -5.778   2.260  1.00  0.00    -0.383 OA
ATOM     29  H   UNL     1      14.766  -6.598   2.328  1.00  0.00     0.211 HD
ENDBRANCH  17  28
ENDBRANCH  14  17
ENDBRANCH  12  13
BRANCH  12  30
ATOM     30  C   UNL     1       9.772  -9.295   0.899  1.00  0.00     0.018 C 
ATOM     31  C   UNL     1      10.158 -10.340   1.956  1.00  0.00     0.010 C 
BRANCH  30  32
ATOM     32  C   UNL     1      10.671  -9.445  -0.352  1.00  0.00     0.002 C 
ATOM     33  C   UNL     1      11.831 -10.422  -0.207  1.00  0.00     0.004 C 
ENDBRANCH  30  32
ENDBRANCH  12  30
ENDBRANCH  10  12
ENDBRANCH   1  10
BRANCH   5  34
ATOM     34  C   UNL     1       7.730  -3.953   0.350  1.00  0.00     0.242 C 
ATOM     35  O   UNL     1       7.682  -2.776  -0.007  1.00  0.00    -0.273 OA
ATOM     36  N   UNL     1       6.747  -4.533   1.121  1.00  0.00    -0.354 N 
ATOM     37  H   UNL     1       6.900  -5.474   1.486  1.00  0.00     0.163 HD
BRANCH  36  38
ATOM     38  C   UNL     1       5.466  -3.897   1.346  1.00  0.00     0.116 C 
BRANCH  38  39
ATOM     39  C   UNL     1       5.078  -4.019   2.818  1.00  0.00     0.023 C 
BRANCH  39  40
ATOM     40  C   UNL     1       4.612  -2.693   3.409  1.00  0.00     0.026 C 
BRANCH  40  41
ATOM     41  C   UNL     1       5.199  -2.486   4.806  1.00  0.00     0.146 C 
BRANCH  41  42
ATOM     42  N   UNL     1       4.123  -2.397   5.784  1.00  0.00    -0.254 NA
ATOM     43  C   UNL     1       4.395  -2.477   7.032  1.00  0.00     0.185 C 
ATOM     44  N   UNL     1       5.578  -2.639   7.652  1.00  0.00    -0.370 N 
ATOM     45  N   UNL     1       3.388  -2.398   7.918  1.00  0.00    -0.370 N 
ATOM     46  H   UNL     1       5.618  -2.929   8.614  1.00  0.00     0.159 HD
ATOM     47  H   UNL     1       6.448  -2.703   7.132  1.00  0.00     0.159 HD
ATOM     48  H   UNL     1       2.462  -2.267   7.534  1.00  0.00     0.159 HD
ATOM     49  H   UNL     1       3.536  -2.215   8.895  1.00  0.00     0.159 HD
ENDBRANCH  41  42
ENDBRANCH  40  41
ENDBRANCH  39  40
ENDBRANCH  38  39
ENDBRANCH  36  38
ENDBRANCH   5  34
BRANCH   8  50
ATOM     50  O   UNL     1       5.757  -6.113  -3.390  1.00  0.00    -0.245 OA
BRANCH  50  51
ATOM     51  S   UNL     1       4.431  -6.255  -4.321  1.00  0.00     0.397 S 
ATOM     52  O   UNL     1       4.543  -7.484  -5.074  1.00  0.00    -0.169 OA
ATOM     53  O   UNL     1       4.154  -4.990  -4.969  1.00  0.00    -0.169 OA
BRANCH  51  54
ATOM     54  O   UNL     1       3.280  -6.515  -3.228  1.00  0.00    -0.264 OA
ATOM     55  H   UNL     1       3.028  -7.459  -3.279  1.00  0.00     0.236 HD
ENDBRANCH  51  54
ENDBRANCH  50  51
ENDBRANCH   8  50
TORSDOF 19
ENDMDL
MODEL 27
REMARK VINA RESULT:    -5.397      3.866      6.046
REMARK INTER + INTRA:         -15.903
REMARK INTER:                 -13.916
REMARK INTRA:                  -1.987
REMARK UNBOUND:                -4.985
REMARK SMILES CC[C@@H](C)[C@@H](NC(=O)[C@@H](O)Cc1ccc(O)c(Cl)c1)C(=O)N1[C@H](C(=O)NCCCCN=C(N)N)C[C@H]2CC[C@H](OS(=O)(=O)O)C[C@@H]21
REMARK SMILES IDX 22 1 36 2 46 3 35 4 23 5 45 6 37 7 39 8 38 9 20 10 21 11
REMARK SMILES IDX 5 12 6 13 7 14 8 15 9 17 11 18 12 19 17 20 19 21 15 22 14 23
REMARK SMILES IDX 13 24 18 25 16 26 10 28 3 30 4 31 2 32 1 33 24 34 25 35
REMARK SMILES IDX 26 36 27 38 28 39 29 40 30 41 31 42 32 43 33 44 34 45 40 50
REMARK SMILES IDX 41 51 42 52 43 53 44 54
REMARK H PARENT 6 16 16 27 10 29 26 37 33 46 33 47 34 48 34 49 44 55
ROOT
ATOM      1  N   UNL     1       8.265  -6.117   1.113  1.00  0.00    -0.326 N 
ATOM      2  C   UNL     1       8.227  -5.216  -1.062  1.00  0.00     0.014 C 
ATOM      3  C   UNL     1       8.442  -6.518  -0.286  1.00  0.00     0.091 C 
ATOM      4  C   UNL     1       8.810  -4.168  -0.126  1.00  0.00     0.041 C 
ATOM      5  C   UNL     1       8.213  -4.637   1.214  1.00  0.00     0.175 C 
ATOM      6  C   UNL     1       7.506  -7.581  -0.858  1.00  0.00     0.059 C 
ATOM      7  C   UNL     1       8.763  -5.331  -2.475  1.00  0.00     0.008 C 
ATOM      8  C   UNL     1       7.227  -7.417  -2.368  1.00  0.00     0.143 C 
ATOM      9  C   UNL     1       8.379  -6.692  -3.093  1.00  0.00     0.034 C 
ENDROOT
BRANCH   1  10
ATOM     10  C   UNL     1       8.361  -6.869   2.271  1.00  0.00     0.246 C 
ATOM     11  O   UNL     1       7.333  -7.132   2.903  1.00  0.00    -0.272 OA
BRANCH  10  12
ATOM     12  C   UNL     1       9.751  -7.402   2.727  1.00  0.00     0.174 C 
BRANCH  12  13
ATOM     13  N   UNL     1      10.788  -6.943   1.804  1.00  0.00    -0.342 N 
ATOM     14  C   UNL     1      12.115  -6.770   2.129  1.00  0.00     0.249 C 
ATOM     15  O   UNL     1      12.583  -7.010   3.234  1.00  0.00    -0.272 OA
ATOM     16  H   UNL     1      10.524  -6.557   0.900  1.00  0.00     0.164 HD
BRANCH  14  17
ATOM     17  C   UNL     1      12.957  -6.258   0.941  1.00  0.00     0.207 C 
BRANCH  17  18
ATOM     18  C   UNL     1      12.168  -6.380  -0.367  1.00  0.00     0.077 C 
BRANCH  18  19
ATOM     19  C   UNL     1      12.687  -7.505  -1.234  1.00  0.00    -0.043 A 
ATOM     20  C   UNL     1      12.613  -9.827  -1.932  1.00  0.00     0.083 A 
ATOM     21  C   UNL     1      12.100  -8.778  -1.167  1.00  0.00     0.028 A 
ATOM     22  C   UNL     1      13.712  -9.612  -2.764  1.00  0.00     0.134 A 
ATOM     23  C   UNL     1      14.303  -8.356  -2.840  1.00  0.00     0.048 A 
ATOM     24  C   UNL     1      13.793  -7.304  -2.074  1.00  0.00     0.008 A 
ATOM     25  Cl  UNL     1      11.879 -11.384  -1.836  1.00  0.00    -0.080 Cl
BRANCH  22  26
ATOM     26  O   UNL     1      14.256 -10.611  -3.524  1.00  0.00    -0.506 OA
ATOM     27  H   UNL     1      15.216 -10.444  -3.562  1.00  0.00     0.293 HD
ENDBRANCH  22  26
ENDBRANCH  18  19
ENDBRANCH  17  18
BRANCH  17  28
ATOM     28  O   UNL     1      14.187  -6.991   0.825  1.00  0.00    -0.383 OA
ATOM     29  H   UNL     1      14.905  -6.318   0.827  1.00  0.00     0.211 HD
ENDBRANCH  17  28
ENDBRANCH  14  17
ENDBRANCH  12  13
BRANCH  12  30
ATOM     30  C   UNL     1       9.769  -8.942   2.921  1.00  0.00     0.018 C 
ATOM     31  C   UNL     1       9.332  -9.659   1.634  1.00  0.00     0.010 C 
BRANCH  30  32
ATOM     32  C   UNL     1       8.914  -9.428   4.117  1.00  0.00     0.002 C 
ATOM     33  C   UNL     1       9.150 -10.871   4.541  1.00  0.00     0.004 C 
ENDBRANCH  30  32
ENDBRANCH  12  30
ENDBRANCH  10  12
ENDBRANCH   1  10
BRANCH   5  34
ATOM     34  C   UNL     1       6.750  -4.149   1.390  1.00  0.00     0.242 C 
ATOM     35  O   UNL     1       6.036  -3.851   0.433  1.00  0.00    -0.273 OA
ATOM     36  N   UNL     1       6.329  -4.023   2.695  1.00  0.00    -0.354 N 
ATOM     37  H   UNL     1       7.004  -4.169   3.446  1.00  0.00     0.163 HD
BRANCH  36  38
ATOM     38  C   UNL     1       4.942  -3.790   3.041  1.00  0.00     0.116 C 
BRANCH  38  39
ATOM     39  C   UNL     1       4.811  -2.476   3.806  1.00  0.00     0.023 C 
BRANCH  39  40
ATOM     40  C   UNL     1       3.936  -2.609   5.048  1.00  0.00     0.026 C 
BRANCH  40  41
ATOM     41  C   UNL     1       4.642  -2.032   6.274  1.00  0.00     0.146 C 
BRANCH  41  42
ATOM     42  N   UNL     1       4.140  -2.676   7.481  1.00  0.00    -0.254 NA
ATOM     43  C   UNL     1       4.918  -2.832   8.485  1.00  0.00     0.185 C 
ATOM     44  N   UNL     1       6.208  -2.484   8.644  1.00  0.00    -0.370 N 
ATOM     45  N   UNL     1       4.438  -3.433   9.586  1.00  0.00    -0.370 N 
ATOM     46  H   UNL     1       6.760  -2.883   9.384  1.00  0.00     0.159 HD
ATOM     47  H   UNL     1       6.725  -2.007   7.911  1.00  0.00     0.159 HD
ATOM     48  H   UNL     1       3.469  -3.720   9.554  1.00  0.00     0.159 HD
ATOM     49  H   UNL     1       4.896  -3.380  10.479  1.00  0.00     0.159 HD
ENDBRANCH  41  42
ENDBRANCH  40  41
ENDBRANCH  39  40
ENDBRANCH  38  39
ENDBRANCH  36  38
ENDBRANCH   5  34
BRANCH   8  50
ATOM     50  O   UNL     1       6.026  -6.672  -2.566  1.00  0.00    -0.245 OA
BRANCH  50  51
ATOM     51  S   UNL     1       5.109  -6.961  -3.879  1.00  0.00     0.397 S 
ATOM     52  O   UNL     1       5.768  -6.369  -5.022  1.00  0.00    -0.169 OA
ATOM     53  O   UNL     1       3.721  -6.682  -3.573  1.00  0.00    -0.169 OA
BRANCH  51  54
ATOM     54  O   UNL     1       5.269  -8.551  -4.056  1.00  0.00    -0.264 OA
ATOM     55  H   UNL     1       4.944  -8.786  -4.949  1.00  0.00     0.236 HD
ENDBRANCH  51  54
ENDBRANCH  50  51
ENDBRANCH   8  50
TORSDOF 19
ENDMDL
MODEL 28
REMARK VINA RESULT:    -5.396      2.134      3.311
REMARK INTER + INTRA:         -15.902
REMARK INTER:                 -11.714
REMARK INTRA:                  -4.188
REMARK UNBOUND:                -4.985
REMARK SMILES CC[C@@H](C)[C@@H](NC(=O)[C@@H](O)Cc1ccc(O)c(Cl)c1)C(=O)N1[C@H](C(=O)NCCCCN=C(N)N)C[C@H]2CC[C@H](OS(=O)(=O)O)C[C@@H]21
REMARK SMILES IDX 22 1 36 2 46 3 35 4 23 5 45 6 37 7 39 8 38 9 20 10 21 11
REMARK SMILES IDX 5 12 6 13 7 14 8 15 9 17 11 18 12 19 17 20 19 21 15 22 14 23
REMARK SMILES IDX 13 24 18 25 16 26 10 28 3 30 4 31 2 32 1 33 24 34 25 35
REMARK SMILES IDX 26 36 27 38 28 39 29 40 30 41 31 42 32 43 33 44 34 45 40 50
REMARK SMILES IDX 41 51 42 52 43 53 44 54
REMARK H PARENT 6 16 16 27 10 29 26 37 33 46 33 47 34 48 34 49 44 55
ROOT
ATOM      1  N   UNL     1       9.315  -7.197  -0.759  1.00  0.00    -0.326 N 
ATOM      2  C   UNL     1       9.115  -5.592  -2.470  1.00  0.00     0.014 C 
ATOM      3  C   UNL     1       9.595  -7.018  -2.187  1.00  0.00     0.091 C 
ATOM      4  C   UNL     1       9.444  -4.865  -1.175  1.00  0.00     0.041 C 
ATOM      5  C   UNL     1       8.943  -5.897  -0.148  1.00  0.00     0.175 C 
ATOM      6  C   UNL     1       8.919  -7.961  -3.181  1.00  0.00     0.059 C 
ATOM      7  C   UNL     1       9.685  -5.077  -3.777  1.00  0.00     0.008 C 
ATOM      8  C   UNL     1       8.635  -7.316  -4.555  1.00  0.00     0.143 C 
ATOM      9  C   UNL     1       9.613  -6.166  -4.868  1.00  0.00     0.034 C 
ENDROOT
BRANCH   1  10
ATOM     10  C   UNL     1       9.554  -8.285   0.063  1.00  0.00     0.246 C 
ATOM     11  O   UNL     1       8.595  -8.900   0.540  1.00  0.00    -0.272 OA
BRANCH  10  12
ATOM     12  C   UNL     1      11.019  -8.736   0.332  1.00  0.00     0.174 C 
BRANCH  12  13
ATOM     13  N   UNL     1      11.876  -7.564   0.515  1.00  0.00    -0.342 N 
ATOM     14  C   UNL     1      12.232  -7.029   1.732  1.00  0.00     0.249 C 
ATOM     15  O   UNL     1      11.889  -7.497   2.811  1.00  0.00    -0.272 OA
ATOM     16  H   UNL     1      12.107  -6.980  -0.284  1.00  0.00     0.164 HD
BRANCH  14  17
ATOM     17  C   UNL     1      13.131  -5.782   1.594  1.00  0.00     0.207 C 
BRANCH  17  18
ATOM     18  C   UNL     1      12.821  -4.771   2.703  1.00  0.00     0.077 C 
BRANCH  18  19
ATOM     19  C   UNL     1      11.587  -3.955   2.390  1.00  0.00    -0.043 A 
ATOM     20  C   UNL     1       9.220  -3.520   2.694  1.00  0.00     0.083 A 
ATOM     21  C   UNL     1      10.368  -4.243   3.022  1.00  0.00     0.028 A 
ATOM     22  C   UNL     1       9.282  -2.509   1.735  1.00  0.00     0.134 A 
ATOM     23  C   UNL     1      10.483  -2.213   1.101  1.00  0.00     0.048 A 
ATOM     24  C   UNL     1      11.633  -2.936   1.425  1.00  0.00     0.008 A 
ATOM     25  Cl  UNL     1       7.731  -3.888   3.482  1.00  0.00    -0.080 Cl
BRANCH  22  26
ATOM     26  O   UNL     1       8.182  -1.780   1.373  1.00  0.00    -0.506 OA
ATOM     27  H   UNL     1       7.605  -2.378   0.862  1.00  0.00     0.293 HD
ENDBRANCH  22  26
ENDBRANCH  18  19
ENDBRANCH  17  18
BRANCH  17  28
ATOM     28  O   UNL     1      12.952  -5.154   0.314  1.00  0.00    -0.383 OA
ATOM     29  H   UNL     1      12.944  -5.883  -0.347  1.00  0.00     0.211 HD
ENDBRANCH  17  28
ENDBRANCH  14  17
ENDBRANCH  12  13
BRANCH  12  30
ATOM     30  C   UNL     1      11.560  -9.700  -0.757  1.00  0.00     0.018 C 
ATOM     31  C   UNL     1      12.067 -11.007  -0.127  1.00  0.00     0.010 C 
BRANCH  30  32
ATOM     32  C   UNL     1      12.662  -9.077  -1.648  1.00  0.00     0.002 C 
ATOM     33  C   UNL     1      14.011  -9.784  -1.606  1.00  0.00     0.004 C 
ENDBRANCH  30  32
ENDBRANCH  12  30
ENDBRANCH  10  12
ENDBRANCH   1  10
BRANCH   5  34
ATOM     34  C   UNL     1       7.407  -5.804   0.053  1.00  0.00     0.242 C 
ATOM     35  O   UNL     1       6.686  -6.801   0.086  1.00  0.00    -0.273 OA
ATOM     36  N   UNL     1       6.903  -4.525   0.139  1.00  0.00    -0.354 N 
ATOM     37  H   UNL     1       7.534  -3.738  -0.016  1.00  0.00     0.163 HD
BRANCH  36  38
ATOM     38  C   UNL     1       5.538  -4.257   0.539  1.00  0.00     0.116 C 
BRANCH  38  39
ATOM     39  C   UNL     1       4.863  -3.355  -0.491  1.00  0.00     0.023 C 
BRANCH  39  40
ATOM     40  C   UNL     1       5.670  -3.237  -1.780  1.00  0.00     0.026 C 
BRANCH  40  41
ATOM     41  C   UNL     1       5.062  -4.104  -2.882  1.00  0.00     0.146 C 
BRANCH  41  42
ATOM     42  N   UNL     1       5.507  -5.482  -2.726  1.00  0.00    -0.254 NA
ATOM     43  C   UNL     1       4.641  -6.415  -2.591  1.00  0.00     0.185 C 
ATOM     44  N   UNL     1       3.297  -6.352  -2.566  1.00  0.00    -0.370 N 
ATOM     45  N   UNL     1       5.071  -7.679  -2.443  1.00  0.00    -0.370 N 
ATOM     46  H   UNL     1       2.754  -7.120  -2.211  1.00  0.00     0.159 HD
ATOM     47  H   UNL     1       2.803  -5.472  -2.678  1.00  0.00     0.159 HD
ATOM     48  H   UNL     1       6.073  -7.817  -2.460  1.00  0.00     0.159 HD
ATOM     49  H   UNL     1       4.473  -8.476  -2.570  1.00  0.00     0.159 HD
ENDBRANCH  41  42
ENDBRANCH  40  41
ENDBRANCH  39  40
ENDBRANCH  38  39
ENDBRANCH  36  38
ENDBRANCH   5  34
BRANCH   8  50
ATOM     50  O   UNL     1       7.303  -6.801  -4.588  1.00  0.00    -0.245 OA
BRANCH  50  51
ATOM     51  S   UNL     1       6.433  -6.912  -5.957  1.00  0.00     0.397 S 
ATOM     52  O   UNL     1       6.847  -8.110  -6.653  1.00  0.00    -0.169 OA
ATOM     53  O   UNL     1       6.399  -5.623  -6.617  1.00  0.00    -0.169 OA
BRANCH  51  54
ATOM     54  O   UNL     1       4.959  -7.220  -5.394  1.00  0.00    -0.264 OA
ATOM     55  H   UNL     1       4.330  -7.131  -6.139  1.00  0.00     0.236 HD
ENDBRANCH  51  54
ENDBRANCH  50  51
ENDBRANCH   8  50
TORSDOF 19
ENDMDL
MODEL 29
REMARK VINA RESULT:    -5.379      9.122     12.986
REMARK INTER + INTRA:         -15.868
REMARK INTER:                 -12.272
REMARK INTRA:                  -3.595
REMARK UNBOUND:                -4.985
REMARK SMILES CC[C@@H](C)[C@@H](NC(=O)[C@@H](O)Cc1ccc(O)c(Cl)c1)C(=O)N1[C@H](C(=O)NCCCCN=C(N)N)C[C@H]2CC[C@H](OS(=O)(=O)O)C[C@@H]21
REMARK SMILES IDX 22 1 36 2 46 3 35 4 23 5 45 6 37 7 39 8 38 9 20 10 21 11
REMARK SMILES IDX 5 12 6 13 7 14 8 15 9 17 11 18 12 19 17 20 19 21 15 22 14 23
REMARK SMILES IDX 13 24 18 25 16 26 10 28 3 30 4 31 2 32 1 33 24 34 25 35
REMARK SMILES IDX 26 36 27 38 28 39 29 40 30 41 31 42 32 43 33 44 34 45 40 50
REMARK SMILES IDX 41 51 42 52 43 53 44 54
REMARK H PARENT 6 16 16 27 10 29 26 37 33 46 33 47 34 48 34 49 44 55
ROOT
ATOM      1  N   UNL     1       4.119  -0.414   5.082  1.00  0.00    -0.326 N 
ATOM      2  C   UNL     1       3.000  -2.344   4.329  1.00  0.00     0.014 C 
ATOM      3  C   UNL     1       3.757  -1.105   3.842  1.00  0.00     0.091 C 
ATOM      4  C   UNL     1       2.277  -1.829   5.564  1.00  0.00     0.041 C 
ATOM      5  C   UNL     1       3.412  -1.031   6.232  1.00  0.00     0.175 C 
ATOM      6  C   UNL     1       4.881  -1.561   2.912  1.00  0.00     0.059 C 
ATOM      7  C   UNL     1       2.199  -2.968   3.204  1.00  0.00     0.008 C 
ATOM      8  C   UNL     1       4.546  -2.838   2.113  1.00  0.00     0.143 C 
ATOM      9  C   UNL     1       3.028  -3.010   1.904  1.00  0.00     0.034 C 
ENDROOT
BRANCH   1  10
ATOM     10  C   UNL     1       4.798   0.778   5.269  1.00  0.00     0.246 C 
ATOM     11  O   UNL     1       6.026   0.754   5.409  1.00  0.00    -0.272 OA
BRANCH  10  12
ATOM     12  C   UNL     1       4.011   2.120   5.255  1.00  0.00     0.174 C 
BRANCH  12  13
ATOM     13  N   UNL     1       3.770   2.571   6.626  1.00  0.00    -0.342 N 
ATOM     14  C   UNL     1       4.622   3.367   7.357  1.00  0.00     0.249 C 
ATOM     15  O   UNL     1       5.677   3.813   6.926  1.00  0.00    -0.272 OA
ATOM     16  H   UNL     1       3.016   2.155   7.167  1.00  0.00     0.164 HD
BRANCH  14  17
ATOM     17  C   UNL     1       4.094   3.655   8.779  1.00  0.00     0.207 C 
BRANCH  17  18
ATOM     18  C   UNL     1       2.571   3.498   8.827  1.00  0.00     0.077 C 
BRANCH  18  19
ATOM     19  C   UNL     1       2.158   2.246   9.567  1.00  0.00    -0.043 A 
ATOM     20  C   UNL     1       1.244  -0.001   9.551  1.00  0.00     0.083 A 
ATOM     21  C   UNL     1       1.671   1.134   8.862  1.00  0.00     0.028 A 
ATOM     22  C   UNL     1       1.299  -0.033  10.945  1.00  0.00     0.134 A 
ATOM     23  C   UNL     1       1.778   1.061  11.656  1.00  0.00     0.048 A 
ATOM     24  C   UNL     1       2.204   2.200  10.969  1.00  0.00     0.008 A 
ATOM     25  Cl  UNL     1       0.650  -1.357   8.667  1.00  0.00    -0.080 Cl
BRANCH  22  26
ATOM     26  O   UNL     1       0.881  -1.120  11.665  1.00  0.00    -0.506 OA
ATOM     27  H   UNL     1      -0.064  -1.245  11.461  1.00  0.00     0.293 HD
ENDBRANCH  22  26
ENDBRANCH  18  19
ENDBRANCH  17  18
BRANCH  17  28
ATOM     28  O   UNL     1       4.451   4.980   9.205  1.00  0.00    -0.383 OA
ATOM     29  H   UNL     1       4.390   4.975  10.187  1.00  0.00     0.211 HD
ENDBRANCH  17  28
ENDBRANCH  14  17
ENDBRANCH  12  13
BRANCH  12  30
ATOM     30  C   UNL     1       2.705   2.041   4.419  1.00  0.00     0.018 C 
ATOM     31  C   UNL     1       2.789   2.958   3.188  1.00  0.00     0.010 C 
BRANCH  30  32
ATOM     32  C   UNL     1       1.427   2.358   5.232  1.00  0.00     0.002 C 
ATOM     33  C   UNL     1       0.397   1.237   5.288  1.00  0.00     0.004 C 
ENDBRANCH  30  32
ENDBRANCH  12  30
ENDBRANCH  10  12
ENDBRANCH   1  10
BRANCH   5  34
ATOM     34  C   UNL     1       4.367  -1.955   7.034  1.00  0.00     0.242 C 
ATOM     35  O   UNL     1       5.060  -2.815   6.490  1.00  0.00    -0.273 OA
ATOM     36  N   UNL     1       4.342  -1.780   8.399  1.00  0.00    -0.354 N 
ATOM     37  H   UNL     1       3.659  -1.135   8.799  1.00  0.00     0.163 HD
BRANCH  36  38
ATOM     38  C   UNL     1       5.315  -2.398   9.276  1.00  0.00     0.116 C 
BRANCH  38  39
ATOM     39  C   UNL     1       4.611  -2.995  10.492  1.00  0.00     0.023 C 
BRANCH  39  40
ATOM     40  C   UNL     1       3.179  -3.421  10.185  1.00  0.00     0.026 C 
BRANCH  40  41
ATOM     41  C   UNL     1       2.759  -4.592  11.075  1.00  0.00     0.146 C 
BRANCH  41  42
ATOM     42  N   UNL     1       3.014  -5.850  10.385  1.00  0.00    -0.254 NA
ATOM     43  C   UNL     1       3.971  -6.605  10.778  1.00  0.00     0.185 C 
ATOM     44  N   UNL     1       4.848  -6.437  11.784  1.00  0.00    -0.370 N 
ATOM     45  N   UNL     1       4.192  -7.758  10.126  1.00  0.00    -0.370 N 
ATOM     46  H   UNL     1       5.692  -6.983  11.825  1.00  0.00     0.159 HD
ATOM     47  H   UNL     1       4.815  -5.623  12.390  1.00  0.00     0.159 HD
ATOM     48  H   UNL     1       3.569  -7.966   9.357  1.00  0.00     0.159 HD
ATOM     49  H   UNL     1       4.751  -8.500  10.508  1.00  0.00     0.159 HD
ENDBRANCH  41  42
ENDBRANCH  40  41
ENDBRANCH  39  40
ENDBRANCH  38  39
ENDBRANCH  36  38
ENDBRANCH   5  34
BRANCH   8  50
ATOM     50  O   UNL     1       5.043  -3.989   2.797  1.00  0.00    -0.245 OA
BRANCH  50  51
ATOM     51  S   UNL     1       6.648  -4.231   2.901  1.00  0.00     0.397 S 
ATOM     52  O   UNL     1       7.292  -3.378   1.928  1.00  0.00    -0.169 OA
ATOM     53  O   UNL     1       6.922  -5.652   2.966  1.00  0.00    -0.169 OA
BRANCH  51  54
ATOM     54  O   UNL     1       6.991  -3.594   4.337  1.00  0.00    -0.264 OA
ATOM     55  H   UNL     1       6.839  -4.285   5.014  1.00  0.00     0.236 HD
ENDBRANCH  51  54
ENDBRANCH  50  51
ENDBRANCH   8  50
TORSDOF 19
ENDMDL
MODEL 30
REMARK VINA RESULT:    -5.369      3.485      5.608
REMARK INTER + INTRA:         -15.848
REMARK INTER:                 -12.307
REMARK INTRA:                  -3.540
REMARK UNBOUND:                -4.985
REMARK SMILES CC[C@@H](C)[C@@H](NC(=O)[C@@H](O)Cc1ccc(O)c(Cl)c1)C(=O)N1[C@H](C(=O)NCCCCN=C(N)N)C[C@H]2CC[C@H](OS(=O)(=O)O)C[C@@H]21
REMARK SMILES IDX 22 1 36 2 46 3 35 4 23 5 45 6 37 7 39 8 38 9 20 10 21 11
REMARK SMILES IDX 5 12 6 13 7 14 8 15 9 17 11 18 12 19 17 20 19 21 15 22 14 23
REMARK SMILES IDX 13 24 18 25 16 26 10 28 3 30 4 31 2 32 1 33 24 34 25 35
REMARK SMILES IDX 26 36 27 38 28 39 29 40 30 41 31 42 32 43 33 44 34 45 40 50
REMARK SMILES IDX 41 51 42 52 43 53 44 54
REMARK H PARENT 6 16 16 27 10 29 26 37 33 46 33 47 34 48 34 49 44 55
ROOT
ATOM      1  N   UNL     1       7.896  -5.282   1.092  1.00  0.00    -0.326 N 
ATOM      2  C   UNL     1       8.134  -5.015  -1.235  1.00  0.00     0.014 C 
ATOM      3  C   UNL     1       8.151  -6.065  -0.120  1.00  0.00     0.091 C 
ATOM      4  C   UNL     1       8.736  -3.795  -0.554  1.00  0.00     0.041 C 
ATOM      5  C   UNL     1       7.982  -3.833   0.788  1.00  0.00     0.175 C 
ATOM      6  C   UNL     1       7.167  -7.174  -0.487  1.00  0.00     0.059 C 
ATOM      7  C   UNL     1       8.776  -5.554  -2.498  1.00  0.00     0.008 C 
ATOM      8  C   UNL     1       7.037  -7.413  -2.007  1.00  0.00     0.143 C 
ATOM      9  C   UNL     1       8.313  -7.001  -2.769  1.00  0.00     0.034 C 
ENDROOT
BRANCH   1  10
ATOM     10  C   UNL     1       7.817  -5.691   2.412  1.00  0.00     0.246 C 
ATOM     11  O   UNL     1       6.722  -5.667   2.985  1.00  0.00    -0.272 OA
BRANCH  10  12
ATOM     12  C   UNL     1       9.095  -6.212   3.132  1.00  0.00     0.174 C 
BRANCH  12  13
ATOM     13  N   UNL     1      10.168  -5.226   3.017  1.00  0.00    -0.342 N 
ATOM     14  C   UNL     1      10.174  -3.989   3.622  1.00  0.00     0.249 C 
ATOM     15  O   UNL     1       9.280  -3.584   4.355  1.00  0.00    -0.272 OA
ATOM     16  H   UNL     1      10.898  -5.355   2.321  1.00  0.00     0.164 HD
BRANCH  14  17
ATOM     17  C   UNL     1      11.441  -3.171   3.293  1.00  0.00     0.207 C 
BRANCH  17  18
ATOM     18  C   UNL     1      12.670  -4.084   3.240  1.00  0.00     0.077 C 
BRANCH  18  19
ATOM     19  C   UNL     1      13.040  -4.447   1.820  1.00  0.00    -0.043 A 
ATOM     20  C   UNL     1      12.761  -4.138  -0.570  1.00  0.00     0.083 A 
ATOM     21  C   UNL     1      12.455  -3.768   0.740  1.00  0.00     0.028 A 
ATOM     22  C   UNL     1      13.649  -5.188  -0.809  1.00  0.00     0.134 A 
ATOM     23  C   UNL     1      14.236  -5.869   0.251  1.00  0.00     0.048 A 
ATOM     24  C   UNL     1      13.930  -5.501   1.563  1.00  0.00     0.008 A 
ATOM     25  Cl  UNL     1      12.032  -3.292  -1.884  1.00  0.00    -0.080 Cl
BRANCH  22  26
ATOM     26  O   UNL     1      13.972  -5.594  -2.076  1.00  0.00    -0.506 OA
ATOM     27  H   UNL     1      13.242  -6.163  -2.382  1.00  0.00     0.293 HD
ENDBRANCH  22  26
ENDBRANCH  18  19
ENDBRANCH  17  18
BRANCH  17  28
ATOM     28  O   UNL     1      11.657  -2.137   4.267  1.00  0.00    -0.383 OA
ATOM     29  H   UNL     1      11.628  -2.581   5.145  1.00  0.00     0.211 HD
ENDBRANCH  17  28
ENDBRANCH  14  17
ENDBRANCH  12  13
BRANCH  12  30
ATOM     30  C   UNL     1       9.528  -7.620   2.642  1.00  0.00     0.018 C 
ATOM     31  C   UNL     1       9.298  -8.674   3.737  1.00  0.00     0.010 C 
BRANCH  30  32
ATOM     32  C   UNL     1      10.992  -7.681   2.144  1.00  0.00     0.002 C 
ATOM     33  C   UNL     1      11.163  -7.950   0.654  1.00  0.00     0.004 C 
ENDBRANCH  30  32
ENDBRANCH  12  30
ENDBRANCH  10  12
ENDBRANCH   1  10
BRANCH   5  34
ATOM     34  C   UNL     1       6.566  -3.211   0.667  1.00  0.00     0.242 C 
ATOM     35  O   UNL     1       6.141  -2.742  -0.389  1.00  0.00    -0.273 OA
ATOM     36  N   UNL     1       5.841  -3.172   1.837  1.00  0.00    -0.354 N 
ATOM     37  H   UNL     1       6.291  -3.466   2.704  1.00  0.00     0.163 HD
BRANCH  36  38
ATOM     38  C   UNL     1       4.434  -2.828   1.864  1.00  0.00     0.116 C 
BRANCH  38  39
ATOM     39  C   UNL     1       3.831  -3.217   3.212  1.00  0.00     0.023 C 
BRANCH  39  40
ATOM     40  C   UNL     1       4.799  -2.995   4.369  1.00  0.00     0.026 C 
BRANCH  40  41
ATOM     41  C   UNL     1       4.336  -1.834   5.249  1.00  0.00     0.146 C 
BRANCH  41  42
ATOM     42  N   UNL     1       3.646  -2.351   6.423  1.00  0.00    -0.254 NA
ATOM     43  C   UNL     1       4.253  -2.387   7.549  1.00  0.00     0.185 C 
ATOM     44  N   UNL     1       5.503  -2.007   7.871  1.00  0.00    -0.370 N 
ATOM     45  N   UNL     1       3.601  -2.872   8.619  1.00  0.00    -0.370 N 
ATOM     46  H   UNL     1       5.928  -2.316   8.729  1.00  0.00     0.159 HD
ATOM     47  H   UNL     1       6.131  -1.604   7.183  1.00  0.00     0.159 HD
ATOM     48  H   UNL     1       2.648  -3.173   8.464  1.00  0.00     0.159 HD
ATOM     49  H   UNL     1       3.911  -2.717   9.562  1.00  0.00     0.159 HD
ENDBRANCH  41  42
ENDBRANCH  40  41
ENDBRANCH  39  40
ENDBRANCH  38  39
ENDBRANCH  36  38
ENDBRANCH   5  34
BRANCH   8  50
ATOM     50  O   UNL     1       5.937  -6.666  -2.528  1.00  0.00    -0.245 OA
BRANCH  50  51
ATOM     51  S   UNL     1       5.305  -7.069  -3.972  1.00  0.00     0.397 S 
ATOM     52  O   UNL     1       5.307  -8.511  -4.073  1.00  0.00    -0.169 OA
ATOM     53  O   UNL     1       5.882  -6.234  -5.005  1.00  0.00    -0.169 OA
BRANCH  51  54
ATOM     54  O   UNL     1       3.764  -6.645  -3.794  1.00  0.00    -0.264 OA
ATOM     55  H   UNL     1       3.512  -6.818  -2.864  1.00  0.00     0.236 HD
ENDBRANCH  51  54
ENDBRANCH  50  51
ENDBRANCH   8  50
TORSDOF 19
ENDMDL
MODEL 31
REMARK VINA RESULT:    -5.366     12.472     15.767
REMARK INTER + INTRA:         -15.840
REMARK INTER:                 -11.622
REMARK INTRA:                  -4.218
REMARK UNBOUND:                -4.985
REMARK SMILES CC[C@@H](C)[C@@H](NC(=O)[C@@H](O)Cc1ccc(O)c(Cl)c1)C(=O)N1[C@H](C(=O)NCCCCN=C(N)N)C[C@H]2CC[C@H](OS(=O)(=O)O)C[C@@H]21
REMARK SMILES IDX 22 1 36 2 46 3 35 4 23 5 45 6 37 7 39 8 38 9 20 10 21 11
REMARK SMILES IDX 5 12 6 13 7 14 8 15 9 17 11 18 12 19 17 20 19 21 15 22 14 23
REMARK SMILES IDX 13 24 18 25 16 26 10 28 3 30 4 31 2 32 1 33 24 34 25 35
REMARK SMILES IDX 26 36 27 38 28 39 29 40 30 41 31 42 32 43 33 44 34 45 40 50
REMARK SMILES IDX 41 51 42 52 43 53 44 54
REMARK H PARENT 6 16 16 27 10 29 26 37 33 46 33 47 34 48 34 49 44 55
ROOT
ATOM      1  N   UNL     1       6.389  -0.185 -15.264  1.00  0.00    -0.326 N 
ATOM      2  C   UNL     1       6.417  -2.129 -13.937  1.00  0.00     0.014 C 
ATOM      3  C   UNL     1       6.524  -0.603 -13.866  1.00  0.00     0.091 C 
ATOM      4  C   UNL     1       7.090  -2.452 -15.262  1.00  0.00     0.041 C 
ATOM      5  C   UNL     1       6.462  -1.368 -16.157  1.00  0.00     0.175 C 
ATOM      6  C   UNL     1       5.500  -0.093 -12.855  1.00  0.00     0.059 C 
ATOM      7  C   UNL     1       6.935  -2.769 -12.664  1.00  0.00     0.008 C 
ATOM      8  C   UNL     1       5.230  -1.075 -11.694  1.00  0.00     0.143 C 
ATOM      9  C   UNL     1       6.435  -1.998 -11.424  1.00  0.00     0.034 C 
ENDROOT
BRANCH   1  10
ATOM     10  C   UNL     1       6.426   1.083 -15.819  1.00  0.00     0.246 C 
ATOM     11  O   UNL     1       5.412   1.530 -16.365  1.00  0.00    -0.272 OA
BRANCH  10  12
ATOM     12  C   UNL     1       7.725   1.932 -15.706  1.00  0.00     0.174 C 
BRANCH  12  13
ATOM     13  N   UNL     1       8.885   1.052 -15.563  1.00  0.00    -0.342 N 
ATOM     14  C   UNL     1       9.581   0.485 -16.607  1.00  0.00     0.249 C 
ATOM     15  O   UNL     1       9.318   0.680 -17.787  1.00  0.00    -0.272 OA
ATOM     16  H   UNL     1       9.122   0.676 -14.648  1.00  0.00     0.164 HD
BRANCH  14  17
ATOM     17  C   UNL     1      10.745  -0.410 -16.131  1.00  0.00     0.207 C 
BRANCH  17  18
ATOM     18  C   UNL     1      11.087  -0.110 -14.668  1.00  0.00     0.077 C 
BRANCH  18  19
ATOM     19  C   UNL     1      11.472  -1.362 -13.913  1.00  0.00    -0.043 A 
ATOM     20  C   UNL     1      11.008  -3.006 -12.191  1.00  0.00     0.083 A 
ATOM     21  C   UNL     1      10.626  -1.879 -12.920  1.00  0.00     0.028 A 
ATOM     22  C   UNL     1      12.233  -3.621 -12.447  1.00  0.00     0.134 A 
ATOM     23  C   UNL     1      13.081  -3.120 -13.428  1.00  0.00     0.048 A 
ATOM     24  C   UNL     1      12.703  -1.991 -14.158  1.00  0.00     0.008 A 
ATOM     25  Cl  UNL     1       9.954  -3.626 -10.974  1.00  0.00    -0.080 Cl
BRANCH  22  26
ATOM     26  O   UNL     1      12.655  -4.722 -11.751  1.00  0.00    -0.506 OA
ATOM     27  H   UNL     1      11.858  -5.241 -11.539  1.00  0.00     0.293 HD
ENDBRANCH  22  26
ENDBRANCH  18  19
ENDBRANCH  17  18
BRANCH  17  28
ATOM     28  O   UNL     1      11.913  -0.214 -16.943  1.00  0.00    -0.383 OA
ATOM     29  H   UNL     1      12.571  -0.880 -16.639  1.00  0.00     0.211 HD
ENDBRANCH  17  28
ENDBRANCH  14  17
ENDBRANCH  12  13
BRANCH  12  30
ATOM     30  C   UNL     1       7.649   2.999 -14.581  1.00  0.00     0.018 C 
ATOM     31  C   UNL     1       7.623   4.416 -15.174  1.00  0.00     0.010 C 
BRANCH  30  32
ATOM     32  C   UNL     1       8.783   2.881 -13.534  1.00  0.00     0.002 C 
ATOM     33  C   UNL     1       8.396   2.198 -12.229  1.00  0.00     0.004 C 
ENDBRANCH  30  32
ENDBRANCH  12  30
ENDBRANCH  10  12
ENDBRANCH   1  10
BRANCH   5  34
ATOM     34  C   UNL     1       5.046  -1.778 -16.644  1.00  0.00     0.242 C 
ATOM     35  O   UNL     1       4.807  -2.894 -17.105  1.00  0.00    -0.273 OA
ATOM     36  N   UNL     1       4.092  -0.787 -16.572  1.00  0.00    -0.354 N 
ATOM     37  H   UNL     1       4.379   0.152 -16.294  1.00  0.00     0.163 HD
BRANCH  36  38
ATOM     38  C   UNL     1       2.684  -1.054 -16.778  1.00  0.00     0.116 C 
BRANCH  38  39
ATOM     39  C   UNL     1       1.847   0.031 -16.104  1.00  0.00     0.023 C 
BRANCH  39  40
ATOM     40  C   UNL     1       2.181   0.188 -14.624  1.00  0.00     0.026 C 
BRANCH  40  41
ATOM     41  C   UNL     1       1.816   1.589 -14.132  1.00  0.00     0.146 C 
BRANCH  41  42
ATOM     42  N   UNL     1       2.252   2.582 -15.105  1.00  0.00    -0.254 NA
ATOM     43  C   UNL     1       3.312   3.264 -14.882  1.00  0.00     0.185 C 
ATOM     44  N   UNL     1       4.160   3.228 -13.838  1.00  0.00    -0.370 N 
ATOM     45  N   UNL     1       3.696   4.177 -15.789  1.00  0.00    -0.370 N 
ATOM     46  H   UNL     1       4.807   3.981 -13.676  1.00  0.00     0.159 HD
ATOM     47  H   UNL     1       4.028   2.582 -13.065  1.00  0.00     0.159 HD
ATOM     48  H   UNL     1       3.115   4.262 -16.612  1.00  0.00     0.159 HD
ATOM     49  H   UNL     1       4.619   4.573 -15.806  1.00  0.00     0.159 HD
ENDBRANCH  41  42
ENDBRANCH  40  41
ENDBRANCH  39  40
ENDBRANCH  38  39
ENDBRANCH  36  38
ENDBRANCH   5  34
BRANCH   8  50
ATOM     50  O   UNL     1       4.094  -1.887 -11.993  1.00  0.00    -0.245 OA
BRANCH  50  51
ATOM     51  S   UNL     1       2.912  -2.053 -10.889  1.00  0.00     0.397 S 
ATOM     52  O   UNL     1       1.846  -2.824 -11.488  1.00  0.00    -0.169 OA
ATOM     53  O   UNL     1       2.661  -0.778 -10.250  1.00  0.00    -0.169 OA
BRANCH  51  54
ATOM     54  O   UNL     1       3.598  -3.023  -9.806  1.00  0.00    -0.264 OA
ATOM     55  H   UNL     1       3.630  -2.544  -8.953  1.00  0.00     0.236 HD
ENDBRANCH  51  54
ENDBRANCH  50  51
ENDBRANCH   8  50
TORSDOF 19
ENDMDL
MODEL 32
REMARK VINA RESULT:    -5.358      3.056      6.942
REMARK INTER + INTRA:         -15.825
REMARK INTER:                 -11.024
REMARK INTRA:                  -4.800
REMARK UNBOUND:                -4.985
REMARK SMILES CC[C@@H](C)[C@@H](NC(=O)[C@@H](O)Cc1ccc(O)c(Cl)c1)C(=O)N1[C@H](C(=O)NCCCCN=C(N)N)C[C@H]2CC[C@H](OS(=O)(=O)O)C[C@@H]21
REMARK SMILES IDX 22 1 36 2 46 3 35 4 23 5 45 6 37 7 39 8 38 9 20 10 21 11
REMARK SMILES IDX 5 12 6 13 7 14 8 15 9 17 11 18 12 19 17 20 19 21 15 22 14 23
REMARK SMILES IDX 13 24 18 25 16 26 10 28 3 30 4 31 2 32 1 33 24 34 25 35
REMARK SMILES IDX 26 36 27 38 28 39 29 40 30 41 31 42 32 43 33 44 34 45 40 50
REMARK SMILES IDX 41 51 42 52 43 53 44 54
REMARK H PARENT 6 16 16 27 10 29 26 37 33 46 33 47 34 48 34 49 44 55
ROOT
ATOM      1  N   UNL     1       8.612  -7.023   1.273  1.00  0.00    -0.326 N 
ATOM      2  C   UNL     1       8.102  -4.859   2.045  1.00  0.00     0.014 C 
ATOM      3  C   UNL     1       9.040  -6.046   2.278  1.00  0.00     0.091 C 
ATOM      4  C   UNL     1       6.802  -5.534   1.638  1.00  0.00     0.041 C 
ATOM      5  C   UNL     1       7.339  -6.585   0.649  1.00  0.00     0.175 C 
ATOM      6  C   UNL     1      10.481  -5.541   2.228  1.00  0.00     0.059 C 
ATOM      7  C   UNL     1       8.111  -3.920   3.235  1.00  0.00     0.008 C 
ATOM      8  C   UNL     1      10.649  -4.092   2.735  1.00  0.00     0.143 C 
ATOM      9  C   UNL     1       9.551  -3.701   3.745  1.00  0.00     0.034 C 
ENDROOT
BRANCH   1  10
ATOM     10  C   UNL     1       9.084  -8.299   1.017  1.00  0.00     0.246 C 
ATOM     11  O   UNL     1       8.351  -9.268   1.244  1.00  0.00    -0.272 OA
BRANCH  10  12
ATOM     12  C   UNL     1      10.506  -8.484   0.412  1.00  0.00     0.174 C 
BRANCH  12  13
ATOM     13  N   UNL     1      10.646  -7.663  -0.790  1.00  0.00    -0.342 N 
ATOM     14  C   UNL     1      11.691  -6.802  -1.041  1.00  0.00     0.249 C 
ATOM     15  O   UNL     1      12.643  -6.647  -0.287  1.00  0.00    -0.272 OA
ATOM     16  H   UNL     1       9.861  -7.568  -1.430  1.00  0.00     0.164 HD
BRANCH  14  17
ATOM     17  C   UNL     1      11.544  -6.064  -2.389  1.00  0.00     0.207 C 
BRANCH  17  18
ATOM     18  C   UNL     1      11.617  -7.056  -3.554  1.00  0.00     0.077 C 
BRANCH  18  19
ATOM     19  C   UNL     1      10.291  -7.183  -4.269  1.00  0.00    -0.043 A 
ATOM     20  C   UNL     1       8.431  -6.164  -5.446  1.00  0.00     0.083 A 
ATOM     21  C   UNL     1       9.678  -6.052  -4.831  1.00  0.00     0.028 A 
ATOM     22  C   UNL     1       7.789  -7.401  -5.503  1.00  0.00     0.134 A 
ATOM     23  C   UNL     1       8.384  -8.529  -4.951  1.00  0.00     0.048 A 
ATOM     24  C   UNL     1       9.632  -8.420  -4.332  1.00  0.00     0.008 A 
ATOM     25  Cl  UNL     1       7.695  -4.763  -6.131  1.00  0.00    -0.080 Cl
BRANCH  22  26
ATOM     26  O   UNL     1       6.561  -7.557  -6.087  1.00  0.00    -0.506 OA
ATOM     27  H   UNL     1       6.034  -6.774  -5.845  1.00  0.00     0.293 HD
ENDBRANCH  22  26
ENDBRANCH  18  19
ENDBRANCH  17  18
BRANCH  17  28
ATOM     28  O   UNL     1      12.566  -5.067  -2.547  1.00  0.00    -0.383 OA
ATOM     29  H   UNL     1      12.099  -4.233  -2.781  1.00  0.00     0.211 HD
ENDBRANCH  17  28
ENDBRANCH  14  17
ENDBRANCH  12  13
BRANCH  12  30
ATOM     30  C   UNL     1      10.860  -9.974   0.156  1.00  0.00     0.018 C 
ATOM     31  C   UNL     1      11.220 -10.683   1.471  1.00  0.00     0.010 C 
BRANCH  30  32
ATOM     32  C   UNL     1      11.990 -10.175  -0.883  1.00  0.00     0.002 C 
ATOM     33  C   UNL     1      11.567 -10.847  -2.183  1.00  0.00     0.004 C 
ENDBRANCH  30  32
ENDBRANCH  12  30
ENDBRANCH  10  12
ENDBRANCH   1  10
BRANCH   5  34
ATOM     34  C   UNL     1       7.596  -5.972  -0.754  1.00  0.00     0.242 C 
ATOM     35  O   UNL     1       7.991  -6.647  -1.704  1.00  0.00    -0.273 OA
ATOM     36  N   UNL     1       7.402  -4.612  -0.843  1.00  0.00    -0.354 N 
ATOM     37  H   UNL     1       7.190  -4.089   0.008  1.00  0.00     0.163 HD
BRANCH  36  38
ATOM     38  C   UNL     1       7.386  -3.915  -2.112  1.00  0.00     0.116 C 
BRANCH  38  39
ATOM     39  C   UNL     1       5.994  -3.343  -2.372  1.00  0.00     0.023 C 
BRANCH  39  40
ATOM     40  C   UNL     1       5.430  -3.774  -3.722  1.00  0.00     0.026 C 
BRANCH  40  41
ATOM     41  C   UNL     1       4.421  -4.910  -3.550  1.00  0.00     0.146 C 
BRANCH  41  42
ATOM     42  N   UNL     1       5.094  -6.194  -3.703  1.00  0.00    -0.254 NA
ATOM     43  C   UNL     1       4.853  -7.138  -2.873  1.00  0.00     0.185 C 
ATOM     44  N   UNL     1       4.031  -7.165  -1.808  1.00  0.00    -0.370 N 
ATOM     45  N   UNL     1       5.487  -8.312  -3.029  1.00  0.00    -0.370 N 
ATOM     46  H   UNL     1       4.123  -7.881  -1.108  1.00  0.00     0.159 HD
ATOM     47  H   UNL     1       3.463  -6.363  -1.553  1.00  0.00     0.159 HD
ATOM     48  H   UNL     1       6.120  -8.379  -3.814  1.00  0.00     0.159 HD
ATOM     49  H   UNL     1       5.184  -9.157  -2.579  1.00  0.00     0.159 HD
ENDBRANCH  41  42
ENDBRANCH  40  41
ENDBRANCH  39  40
ENDBRANCH  38  39
ENDBRANCH  36  38
ENDBRANCH   5  34
BRANCH   8  50
ATOM     50  O   UNL     1      10.601  -3.180   1.637  1.00  0.00    -0.245 OA
BRANCH  50  51
ATOM     51  S   UNL     1      11.987  -2.598   1.016  1.00  0.00     0.397 S 
ATOM     52  O   UNL     1      11.931  -1.155   1.074  1.00  0.00    -0.169 OA
ATOM     53  O   UNL     1      12.300  -3.298  -0.213  1.00  0.00    -0.169 OA
BRANCH  51  54
ATOM     54  O   UNL     1      13.064  -3.039   2.126  1.00  0.00    -0.264 OA
ATOM     55  H   UNL     1      13.896  -3.262   1.661  1.00  0.00     0.236 HD
ENDBRANCH  51  54
ENDBRANCH  50  51
ENDBRANCH   8  50
TORSDOF 19
ENDMDL
MODEL 33
REMARK VINA RESULT:    -5.341     11.997     15.651
REMARK INTER + INTRA:         -15.790
REMARK INTER:                 -11.208
REMARK INTRA:                  -4.581
REMARK UNBOUND:                -4.985
REMARK SMILES CC[C@@H](C)[C@@H](NC(=O)[C@@H](O)Cc1ccc(O)c(Cl)c1)C(=O)N1[C@H](C(=O)NCCCCN=C(N)N)C[C@H]2CC[C@H](OS(=O)(=O)O)C[C@@H]21
REMARK SMILES IDX 22 1 36 2 46 3 35 4 23 5 45 6 37 7 39 8 38 9 20 10 21 11
REMARK SMILES IDX 5 12 6 13 7 14 8 15 9 17 11 18 12 19 17 20 19 21 15 22 14 23
REMARK SMILES IDX 13 24 18 25 16 26 10 28 3 30 4 31 2 32 1 33 24 34 25 35
REMARK SMILES IDX 26 36 27 38 28 39 29 40 30 41 31 42 32 43 33 44 34 45 40 50
REMARK SMILES IDX 41 51 42 52 43 53 44 54
REMARK H PARENT 6 16 16 27 10 29 26 37 33 46 33 47 34 48 34 49 44 55
ROOT
ATOM      1  N   UNL     1       5.927  -0.047 -15.285  1.00  0.00    -0.326 N 
ATOM      2  C   UNL     1       5.872  -2.232 -14.408  1.00  0.00     0.014 C 
ATOM      3  C   UNL     1       6.261  -0.790 -14.066  1.00  0.00     0.091 C 
ATOM      4  C   UNL     1       6.202  -2.325 -15.890  1.00  0.00     0.041 C 
ATOM      5  C   UNL     1       5.611  -0.992 -16.385  1.00  0.00     0.175 C 
ATOM      6  C   UNL     1       5.563  -0.398 -12.765  1.00  0.00     0.059 C 
ATOM      7  C   UNL     1       6.511  -3.209 -13.441  1.00  0.00     0.008 C 
ATOM      8  C   UNL     1       5.358  -1.577 -11.789  1.00  0.00     0.143 C 
ATOM      9  C   UNL     1       6.410  -2.686 -11.993  1.00  0.00     0.034 C 
ENDROOT
BRANCH   1  10
ATOM     10  C   UNL     1       6.078   1.298 -15.573  1.00  0.00     0.246 C 
ATOM     11  O   UNL     1       5.266   2.107 -15.111  1.00  0.00    -0.272 OA
BRANCH  10  12
ATOM     12  C   UNL     1       7.287   1.767 -16.434  1.00  0.00     0.174 C 
BRANCH  12  13
ATOM     13  N   UNL     1       8.497   1.057 -16.023  1.00  0.00    -0.342 N 
ATOM     14  C   UNL     1       9.244   0.233 -16.834  1.00  0.00     0.249 C 
ATOM     15  O   UNL     1       8.988   0.022 -18.013  1.00  0.00    -0.272 OA
ATOM     16  H   UNL     1       8.743   1.011 -15.037  1.00  0.00     0.164 HD
BRANCH  14  17
ATOM     17  C   UNL     1      10.455  -0.385 -16.103  1.00  0.00     0.207 C 
BRANCH  17  18
ATOM     18  C   UNL     1      10.621   0.245 -14.716  1.00  0.00     0.077 C 
BRANCH  18  19
ATOM     19  C   UNL     1      10.307  -0.738 -13.611  1.00  0.00    -0.043 A 
ATOM     20  C   UNL     1       9.506  -1.195 -11.368  1.00  0.00     0.083 A 
ATOM     21  C   UNL     1       9.748  -0.292 -12.404  1.00  0.00     0.028 A 
ATOM     22  C   UNL     1       9.821  -2.544 -11.530  1.00  0.00     0.134 A 
ATOM     23  C   UNL     1      10.375  -3.000 -12.720  1.00  0.00     0.048 A 
ATOM     24  C   UNL     1      10.620  -2.098 -13.758  1.00  0.00     0.008 A 
ATOM     25  Cl  UNL     1       8.818  -0.627  -9.891  1.00  0.00    -0.080 Cl
BRANCH  22  26
ATOM     26  O   UNL     1       9.611  -3.465 -10.539  1.00  0.00    -0.506 OA
ATOM     27  H   UNL     1      10.478  -3.634 -10.125  1.00  0.00     0.293 HD
ENDBRANCH  22  26
ENDBRANCH  18  19
ENDBRANCH  17  18
BRANCH  17  28
ATOM     28  O   UNL     1      11.664  -0.201 -16.858  1.00  0.00    -0.383 OA
ATOM     29  H   UNL     1      11.385   0.130 -17.741  1.00  0.00     0.211 HD
ENDBRANCH  17  28
ENDBRANCH  14  17
ENDBRANCH  12  13
BRANCH  12  30
ATOM     30  C   UNL     1       7.470   3.309 -16.421  1.00  0.00     0.018 C 
ATOM     31  C   UNL     1       7.590   3.857 -17.851  1.00  0.00     0.010 C 
BRANCH  30  32
ATOM     32  C   UNL     1       8.671   3.784 -15.566  1.00  0.00     0.002 C 
ATOM     33  C   UNL     1       8.370   4.010 -14.090  1.00  0.00     0.004 C 
ENDBRANCH  30  32
ENDBRANCH  12  30
ENDBRANCH  10  12
ENDBRANCH   1  10
BRANCH   5  34
ATOM     34  C   UNL     1       4.078  -1.091 -16.601  1.00  0.00     0.242 C 
ATOM     35  O   UNL     1       3.541  -2.102 -17.054  1.00  0.00    -0.273 OA
ATOM     36  N   UNL     1       3.369   0.051 -16.302  1.00  0.00    -0.354 N 
ATOM     37  H   UNL     1       3.882   0.895 -16.046  1.00  0.00     0.163 HD
BRANCH  36  38
ATOM     38  C   UNL     1       1.922   0.069 -16.239  1.00  0.00     0.116 C 
BRANCH  38  39
ATOM     39  C   UNL     1       1.464   0.976 -15.100  1.00  0.00     0.023 C 
BRANCH  39  40
ATOM     40  C   UNL     1       2.237   0.726 -13.809  1.00  0.00     0.026 C 
BRANCH  40  41
ATOM     41  C   UNL     1       2.412   2.025 -13.022  1.00  0.00     0.146 C 
BRANCH  41  42
ATOM     42  N   UNL     1       1.140   2.417 -12.429  1.00  0.00    -0.254 NA
ATOM     43  C   UNL     1       1.001   2.393 -11.157  1.00  0.00     0.185 C 
ATOM     44  N   UNL     1       1.878   2.047 -10.197  1.00  0.00    -0.370 N 
ATOM     45  N   UNL     1      -0.181   2.754 -10.630  1.00  0.00    -0.370 N 
ATOM     46  H   UNL     1       1.563   1.841  -9.264  1.00  0.00     0.159 HD
ATOM     47  H   UNL     1       2.826   1.761 -10.419  1.00  0.00     0.159 HD
ATOM     48  H   UNL     1      -0.896   3.037 -11.286  1.00  0.00     0.159 HD
ATOM     49  H   UNL     1      -0.295   2.987  -9.660  1.00  0.00     0.159 HD
ENDBRANCH  41  42
ENDBRANCH  40  41
ENDBRANCH  39  40
ENDBRANCH  38  39
ENDBRANCH  36  38
ENDBRANCH   5  34
BRANCH   8  50
ATOM     50  O   UNL     1       4.060  -2.144 -11.971  1.00  0.00    -0.245 OA
BRANCH  50  51
ATOM     51  S   UNL     1       3.012  -2.167 -10.727  1.00  0.00     0.397 S 
ATOM     52  O   UNL     1       2.665  -0.800 -10.411  1.00  0.00    -0.169 OA
ATOM     53  O   UNL     1       3.484  -3.085  -9.712  1.00  0.00    -0.169 OA
BRANCH  51  54
ATOM     54  O   UNL     1       1.702  -2.807 -11.404  1.00  0.00    -0.264 OA
ATOM     55  H   UNL     1       1.262  -3.367 -10.733  1.00  0.00     0.236 HD
ENDBRANCH  51  54
ENDBRANCH  50  51
ENDBRANCH   8  50
TORSDOF 19
ENDMDL
MODEL 34
REMARK VINA RESULT:    -5.337     10.976     15.310
REMARK INTER + INTRA:         -15.782
REMARK INTER:                 -12.269
REMARK INTRA:                  -3.514
REMARK UNBOUND:                -4.985
REMARK SMILES CC[C@@H](C)[C@@H](NC(=O)[C@@H](O)Cc1ccc(O)c(Cl)c1)C(=O)N1[C@H](C(=O)NCCCCN=C(N)N)C[C@H]2CC[C@H](OS(=O)(=O)O)C[C@@H]21
REMARK SMILES IDX 22 1 36 2 46 3 35 4 23 5 45 6 37 7 39 8 38 9 20 10 21 11
REMARK SMILES IDX 5 12 6 13 7 14 8 15 9 17 11 18 12 19 17 20 19 21 15 22 14 23
REMARK SMILES IDX 13 24 18 25 16 26 10 28 3 30 4 31 2 32 1 33 24 34 25 35
REMARK SMILES IDX 26 36 27 38 28 39 29 40 30 41 31 42 32 43 33 44 34 45 40 50
REMARK SMILES IDX 41 51 42 52 43 53 44 54
REMARK H PARENT 6 16 16 27 10 29 26 37 33 46 33 47 34 48 34 49 44 55
ROOT
ATOM      1  N   UNL     1       5.286  -1.265 -16.658  1.00  0.00    -0.326 N 
ATOM      2  C   UNL     1       7.558  -1.396 -17.263  1.00  0.00     0.014 C 
ATOM      3  C   UNL     1       6.387  -0.418 -17.128  1.00  0.00     0.091 C 
ATOM      4  C   UNL     1       6.874  -2.677 -17.714  1.00  0.00     0.041 C 
ATOM      5  C   UNL     1       5.670  -2.695 -16.754  1.00  0.00     0.175 C 
ATOM      6  C   UNL     1       6.831   0.748 -16.246  1.00  0.00     0.059 C 
ATOM      7  C   UNL     1       8.662  -0.803 -18.116  1.00  0.00     0.008 C 
ATOM      8  C   UNL     1       8.332   1.085 -16.371  1.00  0.00     0.143 C 
ATOM      9  C   UNL     1       8.906   0.674 -17.742  1.00  0.00     0.034 C 
ENDROOT
BRANCH   1  10
ATOM     10  C   UNL     1       3.971  -0.936 -16.377  1.00  0.00     0.246 C 
ATOM     11  O   UNL     1       3.074  -1.366 -17.110  1.00  0.00    -0.272 OA
BRANCH  10  12
ATOM     12  C   UNL     1       3.648  -0.072 -15.124  1.00  0.00     0.174 C 
BRANCH  12  13
ATOM     13  N   UNL     1       3.010  -0.898 -14.099  1.00  0.00    -0.342 N 
ATOM     14  C   UNL     1       3.417  -0.983 -12.787  1.00  0.00     0.249 C 
ATOM     15  O   UNL     1       4.353  -0.347 -12.320  1.00  0.00    -0.272 OA
ATOM     16  H   UNL     1       2.323  -1.597 -14.372  1.00  0.00     0.164 HD
BRANCH  14  17
ATOM     17  C   UNL     1       2.550  -1.954 -11.957  1.00  0.00     0.207 C 
BRANCH  17  18
ATOM     18  C   UNL     1       3.420  -3.052 -11.336  1.00  0.00     0.077 C 
BRANCH  18  19
ATOM     19  C   UNL     1       3.892  -2.678  -9.949  1.00  0.00    -0.043 A 
ATOM     20  C   UNL     1       3.437  -1.767  -7.748  1.00  0.00     0.083 A 
ATOM     21  C   UNL     1       2.988  -2.157  -9.010  1.00  0.00     0.028 A 
ATOM     22  C   UNL     1       4.786  -1.893  -7.416  1.00  0.00     0.134 A 
ATOM     23  C   UNL     1       5.692  -2.409  -8.336  1.00  0.00     0.048 A 
ATOM     24  C   UNL     1       5.246  -2.798  -9.601  1.00  0.00     0.008 A 
ATOM     25  Cl  UNL     1       2.311  -1.127  -6.608  1.00  0.00    -0.080 Cl
BRANCH  22  26
ATOM     26  O   UNL     1       5.274  -1.515  -6.194  1.00  0.00    -0.506 OA
ATOM     27  H   UNL     1       5.958  -0.841  -6.363  1.00  0.00     0.293 HD
ENDBRANCH  22  26
ENDBRANCH  18  19
ENDBRANCH  17  18
BRANCH  17  28
ATOM     28  O   UNL     1       1.528  -2.557 -12.767  1.00  0.00    -0.383 OA
ATOM     29  H   UNL     1       1.602  -2.138 -13.654  1.00  0.00     0.211 HD
ENDBRANCH  17  28
ENDBRANCH  14  17
ENDBRANCH  12  13
BRANCH  12  30
ATOM     30  C   UNL     1       2.817   1.194 -15.466  1.00  0.00     0.018 C 
ATOM     31  C   UNL     1       3.631   2.470 -15.199  1.00  0.00     0.010 C 
BRANCH  30  32
ATOM     32  C   UNL     1       1.459   1.265 -14.727  1.00  0.00     0.002 C 
ATOM     33  C   UNL     1       1.457   2.088 -13.445  1.00  0.00     0.004 C 
ENDBRANCH  30  32
ENDBRANCH  12  30
ENDBRANCH  10  12
ENDBRANCH   1  10
BRANCH   5  34
ATOM     34  C   UNL     1       6.058  -3.255 -15.359  1.00  0.00     0.242 C 
ATOM     35  O   UNL     1       6.230  -4.457 -15.157  1.00  0.00    -0.273 OA
ATOM     36  N   UNL     1       6.144  -2.317 -14.355  1.00  0.00    -0.354 N 
ATOM     37  H   UNL     1       5.873  -1.354 -14.558  1.00  0.00     0.163 HD
BRANCH  36  38
ATOM     38  C   UNL     1       6.700  -2.626 -13.054  1.00  0.00     0.116 C 
BRANCH  38  39
ATOM     39  C   UNL     1       8.161  -2.189 -12.997  1.00  0.00     0.023 C 
BRANCH  39  40
ATOM     40  C   UNL     1       8.794  -2.444 -11.633  1.00  0.00     0.026 C 
BRANCH  40  41
ATOM     41  C   UNL     1      10.112  -3.203 -11.781  1.00  0.00     0.146 C 
BRANCH  41  42
ATOM     42  N   UNL     1      11.156  -2.293 -12.233  1.00  0.00    -0.254 NA
ATOM     43  C   UNL     1      12.259  -2.766 -12.678  1.00  0.00     0.185 C 
ATOM     44  N   UNL     1      12.660  -4.043 -12.817  1.00  0.00    -0.370 N 
ATOM     45  N   UNL     1      13.211  -1.910 -13.086  1.00  0.00    -0.370 N 
ATOM     46  H   UNL     1      13.632  -4.264 -12.948  1.00  0.00     0.159 HD
ATOM     47  H   UNL     1      12.057  -4.821 -12.568  1.00  0.00     0.159 HD
ATOM     48  H   UNL     1      12.986  -0.927 -13.024  1.00  0.00     0.159 HD
ATOM     49  H   UNL     1      13.988  -2.193 -13.657  1.00  0.00     0.159 HD
ENDBRANCH  41  42
ENDBRANCH  40  41
ENDBRANCH  39  40
ENDBRANCH  38  39
ENDBRANCH  36  38
ENDBRANCH   5  34
BRANCH   8  50
ATOM     50  O   UNL     1       9.072   0.414 -15.351  1.00  0.00    -0.245 OA
BRANCH  50  51
ATOM     51  S   UNL     1       9.835   1.285 -14.208  1.00  0.00     0.397 S 
ATOM     52  O   UNL     1       8.927   1.455 -13.096  1.00  0.00    -0.169 OA
ATOM     53  O   UNL     1      10.503   2.413 -14.822  1.00  0.00    -0.169 OA
BRANCH  51  54
ATOM     54  O   UNL     1      10.962   0.257 -13.700  1.00  0.00    -0.264 OA
ATOM     55  H   UNL     1      10.507  -0.502 -13.282  1.00  0.00     0.236 HD
ENDBRANCH  51  54
ENDBRANCH  50  51
ENDBRANCH   8  50
TORSDOF 19
ENDMDL
MODEL 35
REMARK VINA RESULT:    -5.302      4.549      7.809
REMARK INTER + INTRA:         -15.712
REMARK INTER:                 -11.443
REMARK INTRA:                  -4.269
REMARK UNBOUND:                -4.985
REMARK SMILES CC[C@@H](C)[C@@H](NC(=O)[C@@H](O)Cc1ccc(O)c(Cl)c1)C(=O)N1[C@H](C(=O)NCCCCN=C(N)N)C[C@H]2CC[C@H](OS(=O)(=O)O)C[C@@H]21
REMARK SMILES IDX 22 1 36 2 46 3 35 4 23 5 45 6 37 7 39 8 38 9 20 10 21 11
REMARK SMILES IDX 5 12 6 13 7 14 8 15 9 17 11 18 12 19 17 20 19 21 15 22 14 23
REMARK SMILES IDX 13 24 18 25 16 26 10 28 3 30 4 31 2 32 1 33 24 34 25 35
REMARK SMILES IDX 26 36 27 38 28 39 29 40 30 41 31 42 32 43 33 44 34 45 40 50
REMARK SMILES IDX 41 51 42 52 43 53 44 54
REMARK H PARENT 6 16 16 27 10 29 26 37 33 46 33 47 34 48 34 49 44 55
ROOT
ATOM      1  N   UNL     1       5.371  -2.398  -1.016  1.00  0.00    -0.326 N 
ATOM      2  C   UNL     1       6.619  -4.391  -1.122  1.00  0.00     0.014 C 
ATOM      3  C   UNL     1       5.194  -3.852  -0.972  1.00  0.00     0.091 C 
ATOM      4  C   UNL     1       7.449  -3.351  -0.385  1.00  0.00     0.041 C 
ATOM      5  C   UNL     1       6.813  -2.059  -0.929  1.00  0.00     0.175 C 
ATOM      6  C   UNL     1       4.315  -4.508  -2.036  1.00  0.00     0.059 C 
ATOM      7  C   UNL     1       6.698  -5.844  -0.695  1.00  0.00     0.008 C 
ATOM      8  C   UNL     1       4.748  -5.944  -2.400  1.00  0.00     0.143 C 
ATOM      9  C   UNL     1       5.492  -6.637  -1.240  1.00  0.00     0.034 C 
ENDROOT
BRANCH   1  10
ATOM     10  C   UNL     1       4.432  -1.386  -0.909  1.00  0.00     0.246 C 
ATOM     11  O   UNL     1       4.062  -0.798  -1.931  1.00  0.00    -0.272 OA
BRANCH  10  12
ATOM     12  C   UNL     1       3.832  -1.040   0.485  1.00  0.00     0.174 C 
BRANCH  12  13
ATOM     13  N   UNL     1       4.840  -1.241   1.525  1.00  0.00    -0.342 N 
ATOM     14  C   UNL     1       5.644  -0.254   2.049  1.00  0.00     0.249 C 
ATOM     15  O   UNL     1       5.583   0.923   1.715  1.00  0.00    -0.272 OA
ATOM     16  H   UNL     1       5.112  -2.186   1.787  1.00  0.00     0.164 HD
BRANCH  14  17
ATOM     17  C   UNL     1       6.620  -0.786   3.120  1.00  0.00     0.207 C 
BRANCH  17  18
ATOM     18  C   UNL     1       6.224  -2.203   3.549  1.00  0.00     0.077 C 
BRANCH  18  19
ATOM     19  C   UNL     1       7.296  -3.213   3.207  1.00  0.00    -0.043 A 
ATOM     20  C   UNL     1       7.954  -5.495   2.715  1.00  0.00     0.083 A 
ATOM     21  C   UNL     1       6.957  -4.556   2.981  1.00  0.00     0.028 A 
ATOM     22  C   UNL     1       9.292  -5.101   2.676  1.00  0.00     0.134 A 
ATOM     23  C   UNL     1       9.642  -3.774   2.898  1.00  0.00     0.048 A 
ATOM     24  C   UNL     1       8.646  -2.832   3.166  1.00  0.00     0.008 A 
ATOM     25  Cl  UNL     1       7.518  -7.141   2.439  1.00  0.00    -0.080 Cl
BRANCH  22  26
ATOM     26  O   UNL     1      10.305  -5.988   2.430  1.00  0.00    -0.506 OA
ATOM     27  H   UNL     1      11.087  -5.459   2.184  1.00  0.00     0.293 HD
ENDBRANCH  22  26
ENDBRANCH  18  19
ENDBRANCH  17  18
BRANCH  17  28
ATOM     28  O   UNL     1       6.641   0.072   4.272  1.00  0.00    -0.383 OA
ATOM     29  H   UNL     1       6.387   0.967   3.949  1.00  0.00     0.211 HD
ENDBRANCH  17  28
ENDBRANCH  14  17
ENDBRANCH  12  13
BRANCH  12  30
ATOM     30  C   UNL     1       2.515  -1.807   0.778  1.00  0.00     0.018 C 
ATOM     31  C   UNL     1       1.437  -0.855   1.320  1.00  0.00     0.010 C 
BRANCH  30  32
ATOM     32  C   UNL     1       2.697  -3.007   1.740  1.00  0.00     0.002 C 
ATOM     33  C   UNL     1       2.081  -2.834   3.122  1.00  0.00     0.004 C 
ENDBRANCH  30  32
ENDBRANCH  12  30
ENDBRANCH  10  12
ENDBRANCH   1  10
BRANCH   5  34
ATOM     34  C   UNL     1       7.376  -1.688  -2.327  1.00  0.00     0.242 C 
ATOM     35  O   UNL     1       8.558  -1.396  -2.503  1.00  0.00    -0.273 OA
ATOM     36  N   UNL     1       6.447  -1.657  -3.343  1.00  0.00    -0.354 N 
ATOM     37  H   UNL     1       5.462  -1.791  -3.113  1.00  0.00     0.163 HD
BRANCH  36  38
ATOM     38  C   UNL     1       6.829  -1.544  -4.735  1.00  0.00     0.116 C 
BRANCH  38  39
ATOM     39  C   UNL     1       6.590  -2.873  -5.448  1.00  0.00     0.023 C 
BRANCH  39  40
ATOM     40  C   UNL     1       5.378  -2.828  -6.373  1.00  0.00     0.026 C 
BRANCH  40  41
ATOM     41  C   UNL     1       4.093  -3.113  -5.596  1.00  0.00     0.146 C 
BRANCH  41  42
ATOM     42  N   UNL     1       3.197  -1.967  -5.689  1.00  0.00    -0.254 NA
ATOM     43  C   UNL     1       2.178  -2.021  -6.462  1.00  0.00     0.185 C 
ATOM     44  N   UNL     1       1.750  -3.015  -7.261  1.00  0.00    -0.370 N 
ATOM     45  N   UNL     1       1.368  -0.952  -6.536  1.00  0.00    -0.370 N 
ATOM     46  H   UNL     1       1.081  -2.834  -7.991  1.00  0.00     0.159 HD
ATOM     47  H   UNL     1       2.239  -3.902  -7.317  1.00  0.00     0.159 HD
ATOM     48  H   UNL     1       1.614  -0.161  -5.957  1.00  0.00     0.159 HD
ATOM     49  H   UNL     1       0.441  -0.998  -6.922  1.00  0.00     0.159 HD
ENDBRANCH  41  42
ENDBRANCH  40  41
ENDBRANCH  39  40
ENDBRANCH  38  39
ENDBRANCH  36  38
ENDBRANCH   5  34
BRANCH   8  50
ATOM     50  O   UNL     1       5.606  -5.923  -3.541  1.00  0.00    -0.245 OA
BRANCH  50  51
ATOM     51  S   UNL     1       5.270  -6.875  -4.816  1.00  0.00     0.397 S 
ATOM     52  O   UNL     1       5.263  -8.247  -4.360  1.00  0.00    -0.169 OA
ATOM     53  O   UNL     1       6.060  -6.458  -5.956  1.00  0.00    -0.169 OA
BRANCH  51  54
ATOM     54  O   UNL     1       3.734  -6.505  -5.116  1.00  0.00    -0.264 OA
ATOM     55  H   UNL     1       3.291  -7.314  -5.445  1.00  0.00     0.236 HD
ENDBRANCH  51  54
ENDBRANCH  50  51
ENDBRANCH   8  50
TORSDOF 19
ENDMDL
MODEL 36
REMARK VINA RESULT:    -5.301      3.456      6.992
REMARK INTER + INTRA:         -15.710
REMARK INTER:                 -11.686
REMARK INTRA:                  -4.024
REMARK UNBOUND:                -4.985
REMARK SMILES CC[C@@H](C)[C@@H](NC(=O)[C@@H](O)Cc1ccc(O)c(Cl)c1)C(=O)N1[C@H](C(=O)NCCCCN=C(N)N)C[C@H]2CC[C@H](OS(=O)(=O)O)C[C@@H]21
REMARK SMILES IDX 22 1 36 2 46 3 35 4 23 5 45 6 37 7 39 8 38 9 20 10 21 11
REMARK SMILES IDX 5 12 6 13 7 14 8 15 9 17 11 18 12 19 17 20 19 21 15 22 14 23
REMARK SMILES IDX 13 24 18 25 16 26 10 28 3 30 4 31 2 32 1 33 24 34 25 35
REMARK SMILES IDX 26 36 27 38 28 39 29 40 30 41 31 42 32 43 33 44 34 45 40 50
REMARK SMILES IDX 41 51 42 52 43 53 44 54
REMARK H PARENT 6 16 16 27 10 29 26 37 33 46 33 47 34 48 34 49 44 55
ROOT
ATOM      1  N   UNL     1       9.555  -6.731  -1.421  1.00  0.00    -0.326 N 
ATOM      2  C   UNL     1      11.673  -5.726  -1.636  1.00  0.00     0.014 C 
ATOM      3  C   UNL     1      10.288  -5.529  -1.012  1.00  0.00     0.091 C 
ATOM      4  C   UNL     1      11.354  -6.442  -2.940  1.00  0.00     0.041 C 
ATOM      5  C   UNL     1      10.333  -7.480  -2.438  1.00  0.00     0.175 C 
ATOM      6  C   UNL     1      10.466  -5.262   0.482  1.00  0.00     0.059 C 
ATOM      7  C   UNL     1      12.441  -4.419  -1.675  1.00  0.00     0.008 C 
ATOM      8  C   UNL     1      11.772  -4.516   0.828  1.00  0.00     0.143 C 
ATOM      9  C   UNL     1      12.275  -3.652  -0.346  1.00  0.00     0.034 C 
ENDROOT
BRANCH   1  10
ATOM     10  C   UNL     1       8.245  -7.100  -1.167  1.00  0.00     0.246 C 
ATOM     11  O   UNL     1       8.017  -7.951  -0.300  1.00  0.00    -0.272 OA
BRANCH  10  12
ATOM     12  C   UNL     1       7.088  -6.408  -1.945  1.00  0.00     0.174 C 
BRANCH  12  13
ATOM     13  N   UNL     1       6.598  -5.256  -1.188  1.00  0.00    -0.342 N 
ATOM     14  C   UNL     1       6.567  -3.960  -1.654  1.00  0.00     0.249 C 
ATOM     15  O   UNL     1       6.926  -3.630  -2.777  1.00  0.00    -0.272 OA
ATOM     16  H   UNL     1       6.416  -5.348  -0.192  1.00  0.00     0.164 HD
BRANCH  14  17
ATOM     17  C   UNL     1       6.011  -2.967  -0.612  1.00  0.00     0.207 C 
BRANCH  17  18
ATOM     18  C   UNL     1       4.856  -3.601   0.170  1.00  0.00     0.077 C 
BRANCH  18  19
ATOM     19  C   UNL     1       5.049  -3.469   1.664  1.00  0.00    -0.043 A 
ATOM     20  C   UNL     1       4.200  -2.838   3.846  1.00  0.00     0.083 A 
ATOM     21  C   UNL     1       4.002  -3.006   2.475  1.00  0.00     0.028 A 
ATOM     22  C   UNL     1       5.440  -3.131   4.414  1.00  0.00     0.134 A 
ATOM     23  C   UNL     1       6.486  -3.591   3.622  1.00  0.00     0.048 A 
ATOM     24  C   UNL     1       6.292  -3.758   2.249  1.00  0.00     0.008 A 
ATOM     25  Cl  UNL     1       2.901  -2.267   4.827  1.00  0.00    -0.080 Cl
BRANCH  22  26
ATOM     26  O   UNL     1       5.685  -2.972   5.751  1.00  0.00    -0.506 OA
ATOM     27  H   UNL     1       6.038  -3.822   6.074  1.00  0.00     0.293 HD
ENDBRANCH  22  26
ENDBRANCH  18  19
ENDBRANCH  17  18
BRANCH  17  28
ATOM     28  O   UNL     1       5.553  -1.759  -1.242  1.00  0.00    -0.383 OA
ATOM     29  H   UNL     1       4.844  -2.030  -1.868  1.00  0.00     0.211 HD
ENDBRANCH  17  28
ENDBRANCH  14  17
ENDBRANCH  12  13
BRANCH  12  30
ATOM     30  C   UNL     1       5.950  -7.391  -2.329  1.00  0.00     0.018 C 
ATOM     31  C   UNL     1       5.893  -7.593  -3.851  1.00  0.00     0.010 C 
BRANCH  30  32
ATOM     32  C   UNL     1       4.559  -6.971  -1.795  1.00  0.00     0.002 C 
ATOM     33  C   UNL     1       3.706  -6.166  -2.766  1.00  0.00     0.004 C 
ENDBRANCH  30  32
ENDBRANCH  12  30
ENDBRANCH  10  12
ENDBRANCH   1  10
BRANCH   5  34
ATOM     34  C   UNL     1      11.034  -8.709  -1.799  1.00  0.00     0.242 C 
ATOM     35  O   UNL     1      11.894  -9.358  -2.394  1.00  0.00    -0.273 OA
ATOM     36  N   UNL     1      10.587  -9.051  -0.542  1.00  0.00    -0.354 N 
ATOM     37  H   UNL     1       9.789  -8.548  -0.151  1.00  0.00     0.163 HD
BRANCH  36  38
ATOM     38  C   UNL     1      11.269 -10.026   0.283  1.00  0.00     0.116 C 
BRANCH  38  39
ATOM     39  C   UNL     1      10.881  -9.829   1.746  1.00  0.00     0.023 C 
BRANCH  39  40
ATOM     40  C   UNL     1       9.445 -10.256   2.030  1.00  0.00     0.026 C 
BRANCH  40  41
ATOM     41  C   UNL     1       8.990  -9.752   3.400  1.00  0.00     0.146 C 
BRANCH  41  42
ATOM     42  N   UNL     1       9.674  -8.505   3.717  1.00  0.00    -0.254 NA
ATOM     43  C   UNL     1       9.158  -7.390   3.356  1.00  0.00     0.185 C 
ATOM     44  N   UNL     1       8.016  -7.141   2.689  1.00  0.00    -0.370 N 
ATOM     45  N   UNL     1       9.806  -6.252   3.654  1.00  0.00    -0.370 N 
ATOM     46  H   UNL     1       7.858  -6.245   2.261  1.00  0.00     0.159 HD
ATOM     47  H   UNL     1       7.395  -7.889   2.397  1.00  0.00     0.159 HD
ATOM     48  H   UNL     1      10.673  -6.350   4.165  1.00  0.00     0.159 HD
ATOM     49  H   UNL     1       9.365  -5.350   3.621  1.00  0.00     0.159 HD
ENDBRANCH  41  42
ENDBRANCH  40  41
ENDBRANCH  39  40
ENDBRANCH  38  39
ENDBRANCH  36  38
ENDBRANCH   5  34
BRANCH   8  50
ATOM     50  O   UNL     1      12.794  -5.451   1.173  1.00  0.00    -0.245 OA
BRANCH  50  51
ATOM     51  S   UNL     1      13.208  -5.649   2.734  1.00  0.00     0.397 S 
ATOM     52  O   UNL     1      14.594  -5.265   2.880  1.00  0.00    -0.169 OA
ATOM     53  O   UNL     1      12.720  -6.927   3.208  1.00  0.00    -0.169 OA
BRANCH  51  54
ATOM     54  O   UNL     1      12.355  -4.493   3.456  1.00  0.00    -0.264 OA
ATOM     55  H   UNL     1      11.541  -4.902   3.814  1.00  0.00     0.236 HD
ENDBRANCH  51  54
ENDBRANCH  50  51
ENDBRANCH   8  50
TORSDOF 19
ENDMDL
MODEL 37
REMARK VINA RESULT:    -5.262      3.433      5.223
REMARK INTER + INTRA:         -15.631
REMARK INTER:                 -11.084
REMARK INTRA:                  -4.547
REMARK UNBOUND:                -4.985
REMARK SMILES CC[C@@H](C)[C@@H](NC(=O)[C@@H](O)Cc1ccc(O)c(Cl)c1)C(=O)N1[C@H](C(=O)NCCCCN=C(N)N)C[C@H]2CC[C@H](OS(=O)(=O)O)C[C@@H]21
REMARK SMILES IDX 22 1 36 2 46 3 35 4 23 5 45 6 37 7 39 8 38 9 20 10 21 11
REMARK SMILES IDX 5 12 6 13 7 14 8 15 9 17 11 18 12 19 17 20 19 21 15 22 14 23
REMARK SMILES IDX 13 24 18 25 16 26 10 28 3 30 4 31 2 32 1 33 24 34 25 35
REMARK SMILES IDX 26 36 27 38 28 39 29 40 30 41 31 42 32 43 33 44 34 45 40 50
REMARK SMILES IDX 41 51 42 52 43 53 44 54
REMARK H PARENT 6 16 16 27 10 29 26 37 33 46 33 47 34 48 34 49 44 55
ROOT
ATOM      1  N   UNL     1       9.714  -5.881  -1.411  1.00  0.00    -0.326 N 
ATOM      2  C   UNL     1       9.188  -5.826  -3.704  1.00  0.00     0.014 C 
ATOM      3  C   UNL     1       9.127  -6.718  -2.461  1.00  0.00     0.091 C 
ATOM      4  C   UNL     1      10.479  -5.050  -3.497  1.00  0.00     0.041 C 
ATOM      5  C   UNL     1      10.335  -4.674  -2.010  1.00  0.00     0.175 C 
ATOM      6  C   UNL     1       7.688  -7.200  -2.283  1.00  0.00     0.059 C 
ATOM      7  C   UNL     1       9.008  -6.645  -4.968  1.00  0.00     0.008 C 
ATOM      8  C   UNL     1       6.924  -7.381  -3.612  1.00  0.00     0.143 C 
ATOM      9  C   UNL     1       7.874  -7.677  -4.790  1.00  0.00     0.034 C 
ENDROOT
BRANCH   1  10
ATOM     10  C   UNL     1       9.941  -6.163  -0.074  1.00  0.00     0.246 C 
ATOM     11  O   UNL     1      10.963  -5.727   0.467  1.00  0.00    -0.272 OA
BRANCH  10  12
ATOM     12  C   UNL     1       8.889  -6.984   0.726  1.00  0.00     0.174 C 
BRANCH  12  13
ATOM     13  N   UNL     1       8.215  -6.121   1.695  1.00  0.00    -0.342 N 
ATOM     14  C   UNL     1       7.023  -5.468   1.478  1.00  0.00     0.249 C 
ATOM     15  O   UNL     1       6.373  -5.562   0.444  1.00  0.00    -0.272 OA
ATOM     16  H   UNL     1       8.708  -5.824   2.534  1.00  0.00     0.164 HD
BRANCH  14  17
ATOM     17  C   UNL     1       6.579  -4.618   2.688  1.00  0.00     0.207 C 
BRANCH  17  18
ATOM     18  C   UNL     1       6.030  -3.267   2.220  1.00  0.00     0.077 C 
BRANCH  18  19
ATOM     19  C   UNL     1       4.677  -2.969   2.828  1.00  0.00    -0.043 A 
ATOM     20  C   UNL     1       3.305  -2.486   4.770  1.00  0.00     0.083 A 
ATOM     21  C   UNL     1       4.560  -2.711   4.203  1.00  0.00     0.028 A 
ATOM     22  C   UNL     1       2.162  -2.519   3.970  1.00  0.00     0.134 A 
ATOM     23  C   UNL     1       2.264  -2.774   2.607  1.00  0.00     0.048 A 
ATOM     24  C   UNL     1       3.518  -3.001   2.038  1.00  0.00     0.008 A 
ATOM     25  Cl  UNL     1       3.182  -2.171   6.461  1.00  0.00    -0.080 Cl
BRANCH  22  26
ATOM     26  O   UNL     1       0.909  -2.315   4.482  1.00  0.00    -0.506 OA
ATOM     27  H   UNL     1       0.871  -2.798   5.328  1.00  0.00     0.293 HD
ENDBRANCH  22  26
ENDBRANCH  18  19
ENDBRANCH  17  18
BRANCH  17  28
ATOM     28  O   UNL     1       7.672  -4.400   3.595  1.00  0.00    -0.383 OA
ATOM     29  H   UNL     1       8.076  -3.542   3.332  1.00  0.00     0.211 HD
ENDBRANCH  17  28
ENDBRANCH  14  17
ENDBRANCH  12  13
BRANCH  12  30
ATOM     30  C   UNL     1       9.492  -8.255   1.383  1.00  0.00     0.018 C 
ATOM     31  C   UNL     1      10.040  -9.214   0.315  1.00  0.00     0.010 C 
BRANCH  30  32
ATOM     32  C   UNL     1       8.505  -9.002   2.313  1.00  0.00     0.002 C 
ATOM     33  C   UNL     1       8.926  -9.087   3.774  1.00  0.00     0.004 C 
ENDBRANCH  30  32
ENDBRANCH  12  30
ENDBRANCH  10  12
ENDBRANCH   1  10
BRANCH   5  34
ATOM     34  C   UNL     1       9.421  -3.434  -1.820  1.00  0.00     0.242 C 
ATOM     35  O   UNL     1       8.578  -3.369  -0.926  1.00  0.00    -0.273 OA
ATOM     36  N   UNL     1       9.586  -2.436  -2.755  1.00  0.00    -0.354 N 
ATOM     37  H   UNL     1      10.216  -2.599  -3.541  1.00  0.00     0.163 HD
BRANCH  36  38
ATOM     38  C   UNL     1       8.978  -1.130  -2.607  1.00  0.00     0.116 C 
BRANCH  38  39
ATOM     39  C   UNL     1       8.117  -0.818  -3.828  1.00  0.00     0.023 C 
BRANCH  39  40
ATOM     40  C   UNL     1       6.648  -0.619  -3.469  1.00  0.00     0.026 C 
BRANCH  40  41
ATOM     41  C   UNL     1       6.339  -1.219  -2.097  1.00  0.00     0.146 C 
BRANCH  41  42
ATOM     42  N   UNL     1       5.022  -1.841  -2.117  1.00  0.00    -0.254 NA
ATOM     43  C   UNL     1       4.921  -3.113  -2.016  1.00  0.00     0.185 C 
ATOM     44  N   UNL     1       5.878  -4.049  -1.884  1.00  0.00    -0.370 N 
ATOM     45  N   UNL     1       3.698  -3.668  -2.041  1.00  0.00    -0.370 N 
ATOM     46  H   UNL     1       5.676  -5.018  -2.062  1.00  0.00     0.159 HD
ATOM     47  H   UNL     1       6.862  -3.802  -1.834  1.00  0.00     0.159 HD
ATOM     48  H   UNL     1       2.918  -3.030  -2.130  1.00  0.00     0.159 HD
ATOM     49  H   UNL     1       3.520  -4.608  -1.735  1.00  0.00     0.159 HD
ENDBRANCH  41  42
ENDBRANCH  40  41
ENDBRANCH  39  40
ENDBRANCH  38  39
ENDBRANCH  36  38
ENDBRANCH   5  34
BRANCH   8  50
ATOM     50  O   UNL     1       6.180  -6.200  -3.915  1.00  0.00    -0.245 OA
BRANCH  50  51
ATOM     51  S   UNL     1       4.633  -6.328  -4.399  1.00  0.00     0.397 S 
ATOM     52  O   UNL     1       4.488  -7.580  -5.105  1.00  0.00    -0.169 OA
ATOM     53  O   UNL     1       4.200  -5.073  -4.979  1.00  0.00    -0.169 OA
BRANCH  51  54
ATOM     54  O   UNL     1       3.859  -6.520  -3.002  1.00  0.00    -0.264 OA
ATOM     55  H   UNL     1       3.926  -7.464  -2.752  1.00  0.00     0.236 HD
ENDBRANCH  51  54
ENDBRANCH  50  51
ENDBRANCH   8  50
TORSDOF 19
ENDMDL
MODEL 38
REMARK VINA RESULT:    -5.262      6.068      9.050
REMARK INTER + INTRA:         -15.631
REMARK INTER:                 -13.221
REMARK INTRA:                  -2.409
REMARK UNBOUND:                -4.985
REMARK SMILES CC[C@@H](C)[C@@H](NC(=O)[C@@H](O)Cc1ccc(O)c(Cl)c1)C(=O)N1[C@H](C(=O)NCCCCN=C(N)N)C[C@H]2CC[C@H](OS(=O)(=O)O)C[C@@H]21
REMARK SMILES IDX 22 1 36 2 46 3 35 4 23 5 45 6 37 7 39 8 38 9 20 10 21 11
REMARK SMILES IDX 5 12 6 13 7 14 8 15 9 17 11 18 12 19 17 20 19 21 15 22 14 23
REMARK SMILES IDX 13 24 18 25 16 26 10 28 3 30 4 31 2 32 1 33 24 34 25 35
REMARK SMILES IDX 26 36 27 38 28 39 29 40 30 41 31 42 32 43 33 44 34 45 40 50
REMARK SMILES IDX 41 51 42 52 43 53 44 54
REMARK H PARENT 6 16 16 27 10 29 26 37 33 46 33 47 34 48 34 49 44 55
ROOT
ATOM      1  N   UNL     1       5.453  -3.777  -0.737  1.00  0.00    -0.326 N 
ATOM      2  C   UNL     1       7.402  -4.976  -1.287  1.00  0.00     0.014 C 
ATOM      3  C   UNL     1       6.022  -5.125  -0.641  1.00  0.00     0.091 C 
ATOM      4  C   UNL     1       7.811  -3.568  -0.885  1.00  0.00     0.041 C 
ATOM      5  C   UNL     1       6.498  -2.814  -1.162  1.00  0.00     0.175 C 
ATOM      6  C   UNL     1       5.287  -6.272  -1.330  1.00  0.00     0.059 C 
ATOM      7  C   UNL     1       8.299  -6.143  -0.923  1.00  0.00     0.008 C 
ATOM      8  C   UNL     1       6.220  -7.396  -1.832  1.00  0.00     0.143 C 
ATOM      9  C   UNL     1       7.524  -7.474  -1.013  1.00  0.00     0.034 C 
ENDROOT
BRANCH   1  10
ATOM     10  C   UNL     1       4.229  -3.297  -0.301  1.00  0.00     0.246 C 
ATOM     11  O   UNL     1       3.204  -3.930  -0.573  1.00  0.00    -0.272 OA
BRANCH  10  12
ATOM     12  C   UNL     1       4.176  -1.999   0.556  1.00  0.00     0.174 C 
BRANCH  12  13
ATOM     13  N   UNL     1       4.204  -2.339   1.978  1.00  0.00    -0.342 N 
ATOM     14  C   UNL     1       5.345  -2.457   2.740  1.00  0.00     0.249 C 
ATOM     15  O   UNL     1       6.475  -2.260   2.310  1.00  0.00    -0.272 OA
ATOM     16  H   UNL     1       3.361  -2.681   2.431  1.00  0.00     0.164 HD
BRANCH  14  17
ATOM     17  C   UNL     1       5.046  -2.844   4.204  1.00  0.00     0.207 C 
BRANCH  17  18
ATOM     18  C   UNL     1       4.626  -1.610   5.009  1.00  0.00     0.077 C 
BRANCH  18  19
ATOM     19  C   UNL     1       3.320  -1.833   5.738  1.00  0.00    -0.043 A 
ATOM     20  C   UNL     1       2.114  -2.467   7.744  1.00  0.00     0.083 A 
ATOM     21  C   UNL     1       3.319  -2.214   7.089  1.00  0.00     0.028 A 
ATOM     22  C   UNL     1       0.906  -2.342   7.058  1.00  0.00     0.134 A 
ATOM     23  C   UNL     1       0.892  -1.965   5.720  1.00  0.00     0.048 A 
ATOM     24  C   UNL     1       2.097  -1.713   5.060  1.00  0.00     0.008 A 
ATOM     25  Cl  UNL     1       2.133  -2.935   9.404  1.00  0.00    -0.080 Cl
BRANCH  22  26
ATOM     26  O   UNL     1      -0.301  -2.590   7.656  1.00  0.00    -0.506 OA
ATOM     27  H   UNL     1      -0.623  -1.736   7.999  1.00  0.00     0.293 HD
ENDBRANCH  22  26
ENDBRANCH  18  19
ENDBRANCH  17  18
BRANCH  17  28
ATOM     28  O   UNL     1       6.193  -3.449   4.823  1.00  0.00    -0.383 OA
ATOM     29  H   UNL     1       6.843  -2.723   4.959  1.00  0.00     0.211 HD
ENDBRANCH  17  28
ENDBRANCH  14  17
ENDBRANCH  12  13
BRANCH  12  30
ATOM     30  C   UNL     1       2.975  -1.087   0.188  1.00  0.00     0.018 C 
ATOM     31  C   UNL     1       3.417   0.381   0.080  1.00  0.00     0.010 C 
BRANCH  30  32
ATOM     32  C   UNL     1       1.779  -1.212   1.164  1.00  0.00     0.002 C 
ATOM     33  C   UNL     1       0.967   0.061   1.364  1.00  0.00     0.004 C 
ENDBRANCH  30  32
ENDBRANCH  12  30
ENDBRANCH  10  12
ENDBRANCH   1  10
BRANCH   5  34
ATOM     34  C   UNL     1       6.345  -2.465  -2.667  1.00  0.00     0.242 C 
ATOM     35  O   UNL     1       7.205  -1.841  -3.288  1.00  0.00    -0.273 OA
ATOM     36  N   UNL     1       5.156  -2.856  -3.241  1.00  0.00    -0.354 N 
ATOM     37  H   UNL     1       4.433  -3.261  -2.646  1.00  0.00     0.163 HD
BRANCH  36  38
ATOM     38  C   UNL     1       4.935  -2.806  -4.671  1.00  0.00     0.116 C 
BRANCH  38  39
ATOM     39  C   UNL     1       3.694  -1.969  -4.975  1.00  0.00     0.023 C 
BRANCH  39  40
ATOM     40  C   UNL     1       3.239  -2.107  -6.424  1.00  0.00     0.026 C 
BRANCH  40  41
ATOM     41  C   UNL     1       1.831  -1.539  -6.606  1.00  0.00     0.146 C 
BRANCH  41  42
ATOM     42  N   UNL     1       1.793  -0.159  -6.141  1.00  0.00    -0.254 NA
ATOM     43  C   UNL     1       0.665   0.431  -6.001  1.00  0.00     0.185 C 
ATOM     44  N   UNL     1      -0.582  -0.024  -6.217  1.00  0.00    -0.370 N 
ATOM     45  N   UNL     1       0.652   1.705  -5.576  1.00  0.00    -0.370 N 
ATOM     46  H   UNL     1      -1.354   0.615  -6.302  1.00  0.00     0.159 HD
ATOM     47  H   UNL     1      -0.756  -0.974  -6.530  1.00  0.00     0.159 HD
ATOM     48  H   UNL     1       1.552   2.122  -5.380  1.00  0.00     0.159 HD
ATOM     49  H   UNL     1      -0.175   2.151  -5.218  1.00  0.00     0.159 HD
ENDBRANCH  41  42
ENDBRANCH  40  41
ENDBRANCH  39  40
ENDBRANCH  38  39
ENDBRANCH  36  38
ENDBRANCH   5  34
BRANCH   8  50
ATOM     50  O   UNL     1       6.557  -7.178  -3.202  1.00  0.00    -0.245 OA
BRANCH  50  51
ATOM     51  S   UNL     1       5.887  -8.112  -4.353  1.00  0.00     0.397 S 
ATOM     52  O   UNL     1       6.956  -8.712  -5.119  1.00  0.00    -0.169 OA
ATOM     53  O   UNL     1       4.804  -7.394  -4.992  1.00  0.00    -0.169 OA
BRANCH  51  54
ATOM     54  O   UNL     1       5.247  -9.305  -3.485  1.00  0.00    -0.264 OA
ATOM     55  H   UNL     1       5.351 -10.134  -3.996  1.00  0.00     0.236 HD
ENDBRANCH  51  54
ENDBRANCH  50  51
ENDBRANCH   8  50
TORSDOF 19
ENDMDL
MODEL 39
REMARK VINA RESULT:    -5.254      4.238      7.615
REMARK INTER + INTRA:         -15.613
REMARK INTER:                 -10.865
REMARK INTRA:                  -4.748
REMARK UNBOUND:                -4.985
REMARK SMILES CC[C@@H](C)[C@@H](NC(=O)[C@@H](O)Cc1ccc(O)c(Cl)c1)C(=O)N1[C@H](C(=O)NCCCCN=C(N)N)C[C@H]2CC[C@H](OS(=O)(=O)O)C[C@@H]21
REMARK SMILES IDX 22 1 36 2 46 3 35 4 23 5 45 6 37 7 39 8 38 9 20 10 21 11
REMARK SMILES IDX 5 12 6 13 7 14 8 15 9 17 11 18 12 19 17 20 19 21 15 22 14 23
REMARK SMILES IDX 13 24 18 25 16 26 10 28 3 30 4 31 2 32 1 33 24 34 25 35
REMARK SMILES IDX 26 36 27 38 28 39 29 40 30 41 31 42 32 43 33 44 34 45 40 50
REMARK SMILES IDX 41 51 42 52 43 53 44 54
REMARK H PARENT 6 16 16 27 10 29 26 37 33 46 33 47 34 48 34 49 44 55
ROOT
ATOM      1  N   UNL     1       5.891  -2.903  -2.184  1.00  0.00    -0.326 N 
ATOM      2  C   UNL     1       5.053  -5.102  -2.267  1.00  0.00     0.014 C 
ATOM      3  C   UNL     1       5.245  -3.838  -3.110  1.00  0.00     0.091 C 
ATOM      4  C   UNL     1       4.773  -4.541  -0.882  1.00  0.00     0.041 C 
ATOM      5  C   UNL     1       5.857  -3.450  -0.805  1.00  0.00     0.175 C 
ATOM      6  C   UNL     1       5.988  -4.220  -4.390  1.00  0.00     0.059 C 
ATOM      7  C   UNL     1       4.045  -6.034  -2.909  1.00  0.00     0.008 C 
ATOM      8  C   UNL     1       5.676  -5.648  -4.887  1.00  0.00     0.143 C 
ATOM      9  C   UNL     1       4.284  -6.129  -4.431  1.00  0.00     0.034 C 
ENDROOT
BRANCH   1  10
ATOM     10  C   UNL     1       6.290  -1.592  -2.381  1.00  0.00     0.246 C 
ATOM     11  O   UNL     1       7.495  -1.340  -2.492  1.00  0.00    -0.272 OA
BRANCH  10  12
ATOM     12  C   UNL     1       5.215  -0.474  -2.502  1.00  0.00     0.174 C 
BRANCH  12  13
ATOM     13  N   UNL     1       4.131  -0.719  -1.552  1.00  0.00    -0.342 N 
ATOM     14  C   UNL     1       4.079  -0.227  -0.267  1.00  0.00     0.249 C 
ATOM     15  O   UNL     1       4.934   0.503   0.218  1.00  0.00    -0.272 OA
ATOM     16  H   UNL     1       3.433  -1.430  -1.757  1.00  0.00     0.164 HD
BRANCH  14  17
ATOM     17  C   UNL     1       2.813  -0.678   0.493  1.00  0.00     0.207 C 
BRANCH  17  18
ATOM     18  C   UNL     1       2.916  -2.159   0.872  1.00  0.00     0.077 C 
BRANCH  18  19
ATOM     19  C   UNL     1       3.562  -2.349   2.226  1.00  0.00    -0.043 A 
ATOM     20  C   UNL     1       4.077  -1.517   4.446  1.00  0.00     0.083 A 
ATOM     21  C   UNL     1       3.438  -1.361   3.215  1.00  0.00     0.028 A 
ATOM     22  C   UNL     1       4.843  -2.656   4.695  1.00  0.00     0.134 A 
ATOM     23  C   UNL     1       4.975  -3.642   3.725  1.00  0.00     0.048 A 
ATOM     24  C   UNL     1       4.338  -3.488   2.491  1.00  0.00     0.008 A 
ATOM     25  Cl  UNL     1       3.912  -0.292   5.649  1.00  0.00    -0.080 Cl
BRANCH  22  26
ATOM     26  O   UNL     1       5.497  -2.848   5.882  1.00  0.00    -0.506 OA
ATOM     27  H   UNL     1       5.980  -2.022   6.073  1.00  0.00     0.293 HD
ENDBRANCH  22  26
ENDBRANCH  18  19
ENDBRANCH  17  18
BRANCH  17  28
ATOM     28  O   UNL     1       1.633  -0.470  -0.299  1.00  0.00    -0.383 OA
ATOM     29  H   UNL     1       1.413  -1.343  -0.694  1.00  0.00     0.211 HD
ENDBRANCH  17  28
ENDBRANCH  14  17
ENDBRANCH  12  13
BRANCH  12  30
ATOM     30  C   UNL     1       4.700  -0.291  -3.955  1.00  0.00     0.018 C 
ATOM     31  C   UNL     1       4.503   1.197  -4.282  1.00  0.00     0.010 C 
BRANCH  30  32
ATOM     32  C   UNL     1       3.401  -1.078  -4.257  1.00  0.00     0.002 C 
ATOM     33  C   UNL     1       3.213  -1.491  -5.711  1.00  0.00     0.004 C 
ENDBRANCH  30  32
ENDBRANCH  12  30
ENDBRANCH  10  12
ENDBRANCH   1  10
BRANCH   5  34
ATOM     34  C   UNL     1       7.237  -4.041  -0.414  1.00  0.00     0.242 C 
ATOM     35  O   UNL     1       8.080  -4.357  -1.253  1.00  0.00    -0.273 OA
ATOM     36  N   UNL     1       7.429  -4.238   0.936  1.00  0.00    -0.354 N 
ATOM     37  H   UNL     1       6.649  -4.069   1.572  1.00  0.00     0.163 HD
BRANCH  36  38
ATOM     38  C   UNL     1       8.723  -4.575   1.492  1.00  0.00     0.116 C 
BRANCH  38  39
ATOM     39  C   UNL     1       8.613  -5.850   2.324  1.00  0.00     0.023 C 
BRANCH  39  40
ATOM     40  C   UNL     1       7.348  -6.642   2.013  1.00  0.00     0.026 C 
BRANCH  40  41
ATOM     41  C   UNL     1       7.688  -7.948   1.295  1.00  0.00     0.146 C 
BRANCH  41  42
ATOM     42  N   UNL     1       8.495  -7.666   0.115  1.00  0.00    -0.254 NA
ATOM     43  C   UNL     1       7.945  -7.663  -1.041  1.00  0.00     0.185 C 
ATOM     44  N   UNL     1       6.666  -7.889  -1.392  1.00  0.00    -0.370 N 
ATOM     45  N   UNL     1       8.706  -7.405  -2.117  1.00  0.00    -0.370 N 
ATOM     46  H   UNL     1       6.425  -8.096  -2.346  1.00  0.00     0.159 HD
ATOM     47  H   UNL     1       5.950  -8.087  -0.699  1.00  0.00     0.159 HD
ATOM     48  H   UNL     1       9.683  -7.215  -1.940  1.00  0.00     0.159 HD
ATOM     49  H   UNL     1       8.320  -7.154  -3.009  1.00  0.00     0.159 HD
ENDBRANCH  41  42
ENDBRANCH  40  41
ENDBRANCH  39  40
ENDBRANCH  38  39
ENDBRANCH  36  38
ENDBRANCH   5  34
BRANCH   8  50
ATOM     50  O   UNL     1       6.656  -6.563  -4.394  1.00  0.00    -0.245 OA
BRANCH  50  51
ATOM     51  S   UNL     1       6.813  -8.024  -5.092  1.00  0.00     0.397 S 
ATOM     52  O   UNL     1       6.627  -7.860  -6.517  1.00  0.00    -0.169 OA
ATOM     53  O   UNL     1       6.064  -9.007  -4.336  1.00  0.00    -0.169 OA
BRANCH  51  54
ATOM     54  O   UNL     1       8.378  -8.327  -4.887  1.00  0.00    -0.264 OA
ATOM     55  H   UNL     1       8.587  -9.154  -5.368  1.00  0.00     0.236 HD
ENDBRANCH  51  54
ENDBRANCH  50  51
ENDBRANCH   8  50
TORSDOF 19
ENDMDL
MODEL 40
REMARK VINA RESULT:    -5.248      4.430      8.081
REMARK INTER + INTRA:         -15.603
REMARK INTER:                 -11.974
REMARK INTRA:                  -3.628
REMARK UNBOUND:                -4.985
REMARK SMILES CC[C@@H](C)[C@@H](NC(=O)[C@@H](O)Cc1ccc(O)c(Cl)c1)C(=O)N1[C@H](C(=O)NCCCCN=C(N)N)C[C@H]2CC[C@H](OS(=O)(=O)O)C[C@@H]21
REMARK SMILES IDX 22 1 36 2 46 3 35 4 23 5 45 6 37 7 39 8 38 9 20 10 21 11
REMARK SMILES IDX 5 12 6 13 7 14 8 15 9 17 11 18 12 19 17 20 19 21 15 22 14 23
REMARK SMILES IDX 13 24 18 25 16 26 10 28 3 30 4 31 2 32 1 33 24 34 25 35
REMARK SMILES IDX 26 36 27 38 28 39 29 40 30 41 31 42 32 43 33 44 34 45 40 50
REMARK SMILES IDX 41 51 42 52 43 53 44 54
REMARK H PARENT 6 16 16 27 10 29 26 37 33 46 33 47 34 48 34 49 44 55
ROOT
ATOM      1  N   UNL     1       7.918  -4.010   1.045  1.00  0.00    -0.326 N 
ATOM      2  C   UNL     1       6.963  -6.128   0.662  1.00  0.00     0.014 C 
ATOM      3  C   UNL     1       8.293  -5.368   0.639  1.00  0.00     0.091 C 
ATOM      4  C   UNL     1       5.966  -5.071   0.213  1.00  0.00     0.041 C 
ATOM      5  C   UNL     1       6.441  -3.873   1.056  1.00  0.00     0.175 C 
ATOM      6  C   UNL     1       9.299  -6.130   1.500  1.00  0.00     0.059 C 
ATOM      7  C   UNL     1       7.068  -7.427  -0.112  1.00  0.00     0.008 C 
ATOM      8  C   UNL     1       9.085  -7.659   1.500  1.00  0.00     0.143 C 
ATOM      9  C   UNL     1       8.394  -8.147   0.210  1.00  0.00     0.034 C 
ENDROOT
BRANCH   1  10
ATOM     10  C   UNL     1       8.703  -2.878   1.186  1.00  0.00     0.246 C 
ATOM     11  O   UNL     1       8.698  -2.274   2.264  1.00  0.00    -0.272 OA
BRANCH  10  12
ATOM     12  C   UNL     1       9.603  -2.417   0.004  1.00  0.00     0.174 C 
BRANCH  12  13
ATOM     13  N   UNL     1       9.019  -2.848  -1.266  1.00  0.00    -0.342 N 
ATOM     14  C   UNL     1       8.065  -2.153  -1.974  1.00  0.00     0.249 C 
ATOM     15  O   UNL     1       7.614  -1.068  -1.627  1.00  0.00    -0.272 OA
ATOM     16  H   UNL     1       9.178  -3.797  -1.597  1.00  0.00     0.164 HD
BRANCH  14  17
ATOM     17  C   UNL     1       7.636  -2.878  -3.267  1.00  0.00     0.207 C 
BRANCH  17  18
ATOM     18  C   UNL     1       8.465  -4.152  -3.467  1.00  0.00     0.077 C 
BRANCH  18  19
ATOM     19  C   UNL     1       7.591  -5.383  -3.548  1.00  0.00    -0.043 A 
ATOM     20  C   UNL     1       5.422  -6.442  -3.310  1.00  0.00     0.083 A 
ATOM     21  C   UNL     1       6.216  -5.295  -3.282  1.00  0.00     0.028 A 
ATOM     22  C   UNL     1       5.994  -7.681  -3.602  1.00  0.00     0.134 A 
ATOM     23  C   UNL     1       7.355  -7.782  -3.867  1.00  0.00     0.048 A 
ATOM     24  C   UNL     1       8.152  -6.637  -3.838  1.00  0.00     0.008 A 
ATOM     25  Cl  UNL     1       3.734  -6.314  -2.980  1.00  0.00    -0.080 Cl
BRANCH  22  26
ATOM     26  O   UNL     1       5.258  -8.834  -3.630  1.00  0.00    -0.506 OA
ATOM     27  H   UNL     1       5.376  -9.220  -4.518  1.00  0.00     0.293 HD
ENDBRANCH  22  26
ENDBRANCH  18  19
ENDBRANCH  17  18
BRANCH  17  28
ATOM     28  O   UNL     1       7.789  -2.026  -4.414  1.00  0.00    -0.383 OA
ATOM     29  H   UNL     1       7.157  -2.363  -5.089  1.00  0.00     0.211 HD
ENDBRANCH  17  28
ENDBRANCH  14  17
ENDBRANCH  12  13
BRANCH  12  30
ATOM     30  C   UNL     1      11.079  -2.870   0.161  1.00  0.00     0.018 C 
ATOM     31  C   UNL     1      11.992  -1.668   0.453  1.00  0.00     0.010 C 
BRANCH  30  32
ATOM     32  C   UNL     1      11.618  -3.665  -1.053  1.00  0.00     0.002 C 
ATOM     33  C   UNL     1      12.037  -5.099  -0.759  1.00  0.00     0.004 C 
ENDBRANCH  30  32
ENDBRANCH  12  30
ENDBRANCH  10  12
ENDBRANCH   1  10
BRANCH   5  34
ATOM     34  C   UNL     1       5.893  -3.941   2.507  1.00  0.00     0.242 C 
ATOM     35  O   UNL     1       6.385  -4.677   3.362  1.00  0.00    -0.273 OA
ATOM     36  N   UNL     1       4.786  -3.160   2.752  1.00  0.00    -0.354 N 
ATOM     37  H   UNL     1       4.352  -2.664   1.972  1.00  0.00     0.163 HD
BRANCH  36  38
ATOM     38  C   UNL     1       4.278  -2.936   4.089  1.00  0.00     0.116 C 
BRANCH  38  39
ATOM     39  C   UNL     1       3.789  -1.496   4.224  1.00  0.00     0.023 C 
BRANCH  39  40
ATOM     40  C   UNL     1       2.323  -1.340   3.835  1.00  0.00     0.026 C 
BRANCH  40  41
ATOM     41  C   UNL     1       1.508  -2.550   4.293  1.00  0.00     0.146 C 
BRANCH  41  42
ATOM     42  N   UNL     1       0.389  -2.108   5.113  1.00  0.00    -0.254 NA
ATOM     43  C   UNL     1       0.523  -2.040   6.385  1.00  0.00     0.185 C 
ATOM     44  N   UNL     1       1.587  -2.321   7.158  1.00  0.00    -0.370 N 
ATOM     45  N   UNL     1      -0.522  -1.634   7.124  1.00  0.00    -0.370 N 
ATOM     46  H   UNL     1       1.479  -2.458   8.149  1.00  0.00     0.159 HD
ATOM     47  H   UNL     1       2.469  -2.630   6.760  1.00  0.00     0.159 HD
ATOM     48  H   UNL     1      -1.363  -1.393   6.617  1.00  0.00     0.159 HD
ATOM     49  H   UNL     1      -0.430  -1.331   8.077  1.00  0.00     0.159 HD
ENDBRANCH  41  42
ENDBRANCH  40  41
ENDBRANCH  39  40
ENDBRANCH  38  39
ENDBRANCH  36  38
ENDBRANCH   5  34
BRANCH   8  50
ATOM     50  O   UNL     1       8.282  -8.043   2.617  1.00  0.00    -0.245 OA
BRANCH  50  51
ATOM     51  S   UNL     1       8.998  -8.611   3.962  1.00  0.00     0.397 S 
ATOM     52  O   UNL     1      10.164  -9.366   3.563  1.00  0.00    -0.169 OA
ATOM     53  O   UNL     1       7.996  -9.171   4.846  1.00  0.00    -0.169 OA
BRANCH  51  54
ATOM     54  O   UNL     1       9.558  -7.264   4.639  1.00  0.00    -0.264 OA
ATOM     55  H   UNL     1      10.520  -7.381   4.782  1.00  0.00     0.236 HD
ENDBRANCH  51  54
ENDBRANCH  50  51
ENDBRANCH   8  50
TORSDOF 19
ENDMDL
MODEL 41
REMARK VINA RESULT:    -5.218      7.227     12.136
REMARK INTER + INTRA:         -15.541
REMARK INTER:                 -13.258
REMARK INTRA:                  -2.283
REMARK UNBOUND:                -4.985
REMARK SMILES CC[C@@H](C)[C@@H](NC(=O)[C@@H](O)Cc1ccc(O)c(Cl)c1)C(=O)N1[C@H](C(=O)NCCCCN=C(N)N)C[C@H]2CC[C@H](OS(=O)(=O)O)C[C@@H]21
REMARK SMILES IDX 22 1 36 2 46 3 35 4 23 5 45 6 37 7 39 8 38 9 20 10 21 11
REMARK SMILES IDX 5 12 6 13 7 14 8 15 9 17 11 18 12 19 17 20 19 21 15 22 14 23
REMARK SMILES IDX 13 24 18 25 16 26 10 28 3 30 4 31 2 32 1 33 24 34 25 35
REMARK SMILES IDX 26 36 27 38 28 39 29 40 30 41 31 42 32 43 33 44 34 45 40 50
REMARK SMILES IDX 41 51 42 52 43 53 44 54
REMARK H PARENT 6 16 16 27 10 29 26 37 33 46 33 47 34 48 34 49 44 55
ROOT
ATOM      1  N   UNL     1       3.332  -0.790   3.813  1.00  0.00    -0.326 N 
ATOM      2  C   UNL     1       5.685  -0.772   3.893  1.00  0.00     0.014 C 
ATOM      3  C   UNL     1       4.479  -0.021   3.322  1.00  0.00     0.091 C 
ATOM      4  C   UNL     1       5.225  -2.221   3.858  1.00  0.00     0.041 C 
ATOM      5  C   UNL     1       3.796  -2.066   4.413  1.00  0.00     0.175 C 
ATOM      6  C   UNL     1       4.591   1.449   3.723  1.00  0.00     0.059 C 
ATOM      7  C   UNL     1       6.959  -0.380   3.171  1.00  0.00     0.008 C 
ATOM      8  C   UNL     1       6.046   1.952   3.843  1.00  0.00     0.143 C 
ATOM      9  C   UNL     1       7.012   1.147   2.950  1.00  0.00     0.034 C 
ENDROOT
BRANCH   1  10
ATOM     10  C   UNL     1       1.978  -0.597   3.602  1.00  0.00     0.246 C 
ATOM     11  O   UNL     1       1.259  -0.288   4.558  1.00  0.00    -0.272 OA
BRANCH  10  12
ATOM     12  C   UNL     1       1.399  -0.732   2.164  1.00  0.00     0.174 C 
BRANCH  12  13
ATOM     13  N   UNL     1       2.471  -1.053   1.223  1.00  0.00    -0.342 N 
ATOM     14  C   UNL     1       2.700  -2.299   0.682  1.00  0.00     0.249 C 
ATOM     15  O   UNL     1       2.006  -3.281   0.912  1.00  0.00    -0.272 OA
ATOM     16  H   UNL     1       3.217  -0.382   1.061  1.00  0.00     0.164 HD
BRANCH  14  17
ATOM     17  C   UNL     1       3.919  -2.321  -0.265  1.00  0.00     0.207 C 
BRANCH  17  18
ATOM     18  C   UNL     1       4.993  -3.276   0.266  1.00  0.00     0.077 C 
BRANCH  18  19
ATOM     19  C   UNL     1       5.017  -4.578  -0.503  1.00  0.00    -0.043 A 
ATOM     20  C   UNL     1       6.065  -6.709  -0.997  1.00  0.00     0.083 A 
ATOM     21  C   UNL     1       6.017  -5.530  -0.251  1.00  0.00     0.028 A 
ATOM     22  C   UNL     1       5.120  -6.942  -1.996  1.00  0.00     0.134 A 
ATOM     23  C   UNL     1       4.124  -6.008  -2.255  1.00  0.00     0.048 A 
ATOM     24  C   UNL     1       4.074  -4.826  -1.512  1.00  0.00     0.008 A 
ATOM     25  Cl  UNL     1       7.302  -7.867  -0.674  1.00  0.00    -0.080 Cl
BRANCH  22  26
ATOM     26  O   UNL     1       5.133  -8.078  -2.760  1.00  0.00    -0.506 OA
ATOM     27  H   UNL     1       4.257  -8.141  -3.184  1.00  0.00     0.293 HD
ENDBRANCH  22  26
ENDBRANCH  18  19
ENDBRANCH  17  18
BRANCH  17  28
ATOM     28  O   UNL     1       4.481  -1.007  -0.416  1.00  0.00    -0.383 OA
ATOM     29  H   UNL     1       4.382  -0.776  -1.367  1.00  0.00     0.211 HD
ENDBRANCH  17  28
ENDBRANCH  14  17
ENDBRANCH  12  13
BRANCH  12  30
ATOM     30  C   UNL     1       0.581   0.514   1.728  1.00  0.00     0.018 C 
ATOM     31  C   UNL     1      -0.253   0.208   0.474  1.00  0.00     0.010 C 
BRANCH  30  32
ATOM     32  C   UNL     1       1.447   1.776   1.496  1.00  0.00     0.002 C 
ATOM     33  C   UNL     1       0.814   2.848   0.619  1.00  0.00     0.004 C 
ENDBRANCH  30  32
ENDBRANCH  12  30
ENDBRANCH  10  12
ENDBRANCH   1  10
BRANCH   5  34
ATOM     34  C   UNL     1       3.791  -1.979   5.963  1.00  0.00     0.242 C 
ATOM     35  O   UNL     1       4.827  -2.002   6.627  1.00  0.00    -0.273 OA
ATOM     36  N   UNL     1       2.543  -1.929   6.542  1.00  0.00    -0.354 N 
ATOM     37  H   UNL     1       1.720  -2.034   5.947  1.00  0.00     0.163 HD
BRANCH  36  38
ATOM     38  C   UNL     1       2.354  -1.631   7.947  1.00  0.00     0.116 C 
BRANCH  38  39
ATOM     39  C   UNL     1       2.116  -2.923   8.723  1.00  0.00     0.023 C 
BRANCH  39  40
ATOM     40  C   UNL     1       3.303  -3.302   9.603  1.00  0.00     0.026 C 
BRANCH  40  41
ATOM     41  C   UNL     1       2.851  -4.163  10.782  1.00  0.00     0.146 C 
BRANCH  41  42
ATOM     42  N   UNL     1       3.042  -5.573  10.464  1.00  0.00    -0.254 NA
ATOM     43  C   UNL     1       4.132  -6.155  10.799  1.00  0.00     0.185 C 
ATOM     44  N   UNL     1       5.211  -5.670  11.439  1.00  0.00    -0.370 N 
ATOM     45  N   UNL     1       4.290  -7.453  10.493  1.00  0.00    -0.370 N 
ATOM     46  H   UNL     1       6.086  -6.166  11.419  1.00  0.00     0.159 HD
ATOM     47  H   UNL     1       5.254  -4.706  11.756  1.00  0.00     0.159 HD
ATOM     48  H   UNL     1       3.518  -7.899  10.016  1.00  0.00     0.159 HD
ATOM     49  H   UNL     1       4.992  -8.031  10.919  1.00  0.00     0.159 HD
ENDBRANCH  41  42
ENDBRANCH  40  41
ENDBRANCH  39  40
ENDBRANCH  38  39
ENDBRANCH  36  38
ENDBRANCH   5  34
BRANCH   8  50
ATOM     50  O   UNL     1       6.490   1.852   5.196  1.00  0.00    -0.245 OA
BRANCH  50  51
ATOM     51  S   UNL     1       7.015   3.183   5.969  1.00  0.00     0.397 S 
ATOM     52  O   UNL     1       6.019   3.550   6.951  1.00  0.00    -0.169 OA
ATOM     53  O   UNL     1       7.519   4.138   5.005  1.00  0.00    -0.169 OA
BRANCH  51  54
ATOM     54  O   UNL     1       8.265   2.614   6.805  1.00  0.00    -0.264 OA
ATOM     55  H   UNL     1       9.036   2.580   6.202  1.00  0.00     0.236 HD
ENDBRANCH  51  54
ENDBRANCH  50  51
ENDBRANCH   8  50
TORSDOF 19
ENDMDL
MODEL 42
REMARK VINA RESULT:    -5.191      5.183      8.496
REMARK INTER + INTRA:         -15.486
REMARK INTER:                 -12.538
REMARK INTRA:                  -2.948
REMARK UNBOUND:                -4.985
REMARK SMILES CC[C@@H](C)[C@@H](NC(=O)[C@@H](O)Cc1ccc(O)c(Cl)c1)C(=O)N1[C@H](C(=O)NCCCCN=C(N)N)C[C@H]2CC[C@H](OS(=O)(=O)O)C[C@@H]21
REMARK SMILES IDX 22 1 36 2 46 3 35 4 23 5 45 6 37 7 39 8 38 9 20 10 21 11
REMARK SMILES IDX 5 12 6 13 7 14 8 15 9 17 11 18 12 19 17 20 19 21 15 22 14 23
REMARK SMILES IDX 13 24 18 25 16 26 10 28 3 30 4 31 2 32 1 33 24 34 25 35
REMARK SMILES IDX 26 36 27 38 28 39 29 40 30 41 31 42 32 43 33 44 34 45 40 50
REMARK SMILES IDX 41 51 42 52 43 53 44 54
REMARK H PARENT 6 16 16 27 10 29 26 37 33 46 33 47 34 48 34 49 44 55
ROOT
ATOM      1  N   UNL     1       4.839  -4.236  -0.316  1.00  0.00    -0.326 N 
ATOM      2  C   UNL     1       6.345  -5.818  -1.195  1.00  0.00     0.014 C 
ATOM      3  C   UNL     1       4.881  -5.371  -1.243  1.00  0.00     0.091 C 
ATOM      4  C   UNL     1       6.729  -5.552   0.253  1.00  0.00     0.041 C 
ATOM      5  C   UNL     1       6.109  -4.156   0.447  1.00  0.00     0.175 C 
ATOM      6  C   UNL     1       4.497  -5.129  -2.702  1.00  0.00     0.059 C 
ATOM      7  C   UNL     1       6.503  -7.215  -1.761  1.00  0.00     0.008 C 
ATOM      8  C   UNL     1       5.237  -6.047  -3.699  1.00  0.00     0.143 C 
ATOM      9  C   UNL     1       5.670  -7.378  -3.050  1.00  0.00     0.034 C 
ENDROOT
BRANCH   1  10
ATOM     10  C   UNL     1       3.773  -3.438   0.063  1.00  0.00     0.246 C 
ATOM     11  O   UNL     1       2.628  -3.769  -0.266  1.00  0.00    -0.272 OA
BRANCH  10  12
ATOM     12  C   UNL     1       4.032  -2.172   0.929  1.00  0.00     0.174 C 
BRANCH  12  13
ATOM     13  N   UNL     1       4.144  -2.545   2.338  1.00  0.00    -0.342 N 
ATOM     14  C   UNL     1       5.170  -2.169   3.176  1.00  0.00     0.249 C 
ATOM     15  O   UNL     1       6.098  -1.447   2.836  1.00  0.00    -0.272 OA
ATOM     16  H   UNL     1       3.535  -3.266   2.719  1.00  0.00     0.164 HD
BRANCH  14  17
ATOM     17  C   UNL     1       5.013  -2.738   4.603  1.00  0.00     0.207 C 
BRANCH  17  18
ATOM     18  C   UNL     1       4.645  -1.624   5.587  1.00  0.00     0.077 C 
BRANCH  18  19
ATOM     19  C   UNL     1       3.278  -1.841   6.197  1.00  0.00    -0.043 A 
ATOM     20  C   UNL     1       1.890  -2.338   8.123  1.00  0.00     0.083 A 
ATOM     21  C   UNL     1       3.148  -2.089   7.572  1.00  0.00     0.028 A 
ATOM     22  C   UNL     1       0.759  -2.344   7.307  1.00  0.00     0.134 A 
ATOM     23  C   UNL     1       0.874  -2.100   5.943  1.00  0.00     0.048 A 
ATOM     24  C   UNL     1       2.131  -1.852   5.388  1.00  0.00     0.008 A 
ATOM     25  Cl  UNL     1       1.750  -2.640   9.815  1.00  0.00    -0.080 Cl
BRANCH  22  26
ATOM     26  O   UNL     1      -0.493  -2.594   7.799  1.00  0.00    -0.506 OA
ATOM     27  H   UNL     1      -0.550  -3.557   7.945  1.00  0.00     0.293 HD
ENDBRANCH  22  26
ENDBRANCH  18  19
ENDBRANCH  17  18
BRANCH  17  28
ATOM     28  O   UNL     1       6.222  -3.379   5.039  1.00  0.00    -0.383 OA
ATOM     29  H   UNL     1       6.831  -3.366   4.266  1.00  0.00     0.211 HD
ENDBRANCH  17  28
ENDBRANCH  14  17
ENDBRANCH  12  13
BRANCH  12  30
ATOM     30  C   UNL     1       2.976  -1.058   0.694  1.00  0.00     0.018 C 
ATOM     31  C   UNL     1       3.636   0.330   0.700  1.00  0.00     0.010 C 
BRANCH  30  32
ATOM     32  C   UNL     1       1.801  -1.093   1.701  1.00  0.00     0.002 C 
ATOM     33  C   UNL     1       1.410   0.255   2.293  1.00  0.00     0.004 C 
ENDBRANCH  30  32
ENDBRANCH  12  30
ENDBRANCH  10  12
ENDBRANCH   1  10
BRANCH   5  34
ATOM     34  C   UNL     1       7.024  -3.040  -0.123  1.00  0.00     0.242 C 
ATOM     35  O   UNL     1       6.848  -2.549  -1.238  1.00  0.00    -0.273 OA
ATOM     36  N   UNL     1       8.078  -2.677   0.686  1.00  0.00    -0.354 N 
ATOM     37  H   UNL     1       8.242  -3.204   1.545  1.00  0.00     0.163 HD
BRANCH  36  38
ATOM     38  C   UNL     1       8.898  -1.515   0.413  1.00  0.00     0.116 C 
BRANCH  38  39
ATOM     39  C   UNL     1      10.276  -1.955  -0.075  1.00  0.00     0.023 C 
BRANCH  39  40
ATOM     40  C   UNL     1      10.535  -3.438   0.171  1.00  0.00     0.026 C 
BRANCH  40  41
ATOM     41  C   UNL     1      11.186  -3.655   1.537  1.00  0.00     0.146 C 
BRANCH  41  42
ATOM     42  N   UNL     1      10.158  -3.905   2.538  1.00  0.00    -0.254 NA
ATOM     43  C   UNL     1      10.232  -3.330   3.679  1.00  0.00     0.185 C 
ATOM     44  N   UNL     1      11.153  -2.474   4.158  1.00  0.00    -0.370 N 
ATOM     45  N   UNL     1       9.277  -3.577   4.590  1.00  0.00    -0.370 N 
ATOM     46  H   UNL     1      11.221  -2.294   5.146  1.00  0.00     0.159 HD
ATOM     47  H   UNL     1      11.940  -2.167   3.595  1.00  0.00     0.159 HD
ATOM     48  H   UNL     1       8.539  -4.207   4.306  1.00  0.00     0.159 HD
ATOM     49  H   UNL     1       9.133  -2.999   5.399  1.00  0.00     0.159 HD
ENDBRANCH  41  42
ENDBRANCH  40  41
ENDBRANCH  39  40
ENDBRANCH  38  39
ENDBRANCH  36  38
ENDBRANCH   5  34
BRANCH   8  50
ATOM     50  O   UNL     1       6.400  -5.389  -4.201  1.00  0.00    -0.245 OA
BRANCH  50  51
ATOM     51  S   UNL     1       7.079  -5.904  -5.587  1.00  0.00     0.397 S 
ATOM     52  O   UNL     1       6.069  -5.864  -6.621  1.00  0.00    -0.169 OA
ATOM     53  O   UNL     1       7.858  -7.098  -5.332  1.00  0.00    -0.169 OA
BRANCH  51  54
ATOM     54  O   UNL     1       8.100  -4.709  -5.925  1.00  0.00    -0.264 OA
ATOM     55  H   UNL     1       7.653  -4.103  -6.552  1.00  0.00     0.236 HD
ENDBRANCH  51  54
ENDBRANCH  50  51
ENDBRANCH   8  50
TORSDOF 19
ENDMDL
MODEL 43
REMARK VINA RESULT:    -5.190     11.780     15.394
REMARK INTER + INTRA:         -15.484
REMARK INTER:                 -11.034
REMARK INTRA:                  -4.450
REMARK UNBOUND:                -4.985
REMARK SMILES CC[C@@H](C)[C@@H](NC(=O)[C@@H](O)Cc1ccc(O)c(Cl)c1)C(=O)N1[C@H](C(=O)NCCCCN=C(N)N)C[C@H]2CC[C@H](OS(=O)(=O)O)C[C@@H]21
REMARK SMILES IDX 22 1 36 2 46 3 35 4 23 5 45 6 37 7 39 8 38 9 20 10 21 11
REMARK SMILES IDX 5 12 6 13 7 14 8 15 9 17 11 18 12 19 17 20 19 21 15 22 14 23
REMARK SMILES IDX 13 24 18 25 16 26 10 28 3 30 4 31 2 32 1 33 24 34 25 35
REMARK SMILES IDX 26 36 27 38 28 39 29 40 30 41 31 42 32 43 33 44 34 45 40 50
REMARK SMILES IDX 41 51 42 52 43 53 44 54
REMARK H PARENT 6 16 16 27 10 29 26 37 33 46 33 47 34 48 34 49 44 55
ROOT
ATOM      1  N   UNL     1       7.326  -0.707 -15.337  1.00  0.00    -0.326 N 
ATOM      2  C   UNL     1       7.921  -2.643 -14.138  1.00  0.00     0.014 C 
ATOM      3  C   UNL     1       7.799  -1.122 -14.014  1.00  0.00     0.091 C 
ATOM      4  C   UNL     1       8.361  -2.827 -15.582  1.00  0.00     0.041 C 
ATOM      5  C   UNL     1       7.406  -1.846 -16.285  1.00  0.00     0.175 C 
ATOM      6  C   UNL     1       6.928  -0.804 -12.800  1.00  0.00     0.059 C 
ATOM      7  C   UNL     1       8.776  -3.211 -13.022  1.00  0.00     0.008 C 
ATOM      8  C   UNL     1       7.050  -1.837 -11.659  1.00  0.00     0.143 C 
ATOM      9  C   UNL     1       8.415  -2.555 -11.672  1.00  0.00     0.034 C 
ENDROOT
BRANCH   1  10
ATOM     10  C   UNL     1       7.052   0.559 -15.826  1.00  0.00     0.246 C 
ATOM     11  O   UNL     1       5.945   1.061 -15.608  1.00  0.00    -0.272 OA
BRANCH  10  12
ATOM     12  C   UNL     1       8.156   1.338 -16.599  1.00  0.00     0.174 C 
BRANCH  12  13
ATOM     13  N   UNL     1       9.470   1.034 -16.033  1.00  0.00    -0.342 N 
ATOM     14  C   UNL     1      10.439   0.274 -16.648  1.00  0.00     0.249 C 
ATOM     15  O   UNL     1      10.316  -0.215 -17.764  1.00  0.00    -0.272 OA
ATOM     16  H   UNL     1       9.656   1.239 -15.054  1.00  0.00     0.164 HD
BRANCH  14  17
ATOM     17  C   UNL     1      11.711   0.120 -15.787  1.00  0.00     0.207 C 
BRANCH  17  18
ATOM     18  C   UNL     1      11.384   0.332 -14.306  1.00  0.00     0.077 C 
BRANCH  18  19
ATOM     19  C   UNL     1      11.788  -0.859 -13.466  1.00  0.00    -0.043 A 
ATOM     20  C   UNL     1      12.008  -1.925 -11.298  1.00  0.00     0.083 A 
ATOM     21  C   UNL     1      11.589  -0.846 -12.076  1.00  0.00     0.028 A 
ATOM     22  C   UNL     1      12.628  -3.021 -11.900  1.00  0.00     0.134 A 
ATOM     23  C   UNL     1      12.831  -3.047 -13.275  1.00  0.00     0.048 A 
ATOM     24  C   UNL     1      12.414  -1.967 -14.056  1.00  0.00     0.008 A 
ATOM     25  Cl  UNL     1      11.755  -1.891  -9.592  1.00  0.00    -0.080 Cl
BRANCH  22  26
ATOM     26  O   UNL     1      13.065  -4.098 -11.177  1.00  0.00    -0.506 OA
ATOM     27  H   UNL     1      12.345  -4.335 -10.564  1.00  0.00     0.293 HD
ENDBRANCH  22  26
ENDBRANCH  18  19
ENDBRANCH  17  18
BRANCH  17  28
ATOM     28  O   UNL     1      12.724   1.056 -16.190  1.00  0.00    -0.383 OA
ATOM     29  H   UNL     1      13.543   0.528 -16.327  1.00  0.00     0.211 HD
ENDBRANCH  17  28
ENDBRANCH  14  17
ENDBRANCH  12  13
BRANCH  12  30
ATOM     30  C   UNL     1       7.878   2.864 -16.666  1.00  0.00     0.018 C 
ATOM     31  C   UNL     1       7.198   3.238 -17.992  1.00  0.00     0.010 C 
BRANCH  30  32
ATOM     32  C   UNL     1       9.140   3.735 -16.451  1.00  0.00     0.002 C 
ATOM     33  C   UNL     1       8.993   4.850 -15.423  1.00  0.00     0.004 C 
ENDBRANCH  30  32
ENDBRANCH  12  30
ENDBRANCH  10  12
ENDBRANCH   1  10
BRANCH   5  34
ATOM     34  C   UNL     1       6.005  -2.474 -16.510  1.00  0.00     0.242 C 
ATOM     35  O   UNL     1       5.839  -3.688 -16.629  1.00  0.00    -0.273 OA
ATOM     36  N   UNL     1       4.970  -1.573 -16.621  1.00  0.00    -0.354 N 
ATOM     37  H   UNL     1       5.186  -0.575 -16.634  1.00  0.00     0.163 HD
BRANCH  36  38
ATOM     38  C   UNL     1       3.581  -1.985 -16.616  1.00  0.00     0.116 C 
BRANCH  38  39
ATOM     39  C   UNL     1       2.677  -0.760 -16.503  1.00  0.00     0.023 C 
BRANCH  39  40
ATOM     40  C   UNL     1       2.996   0.088 -15.276  1.00  0.00     0.026 C 
BRANCH  40  41
ATOM     41  C   UNL     1       2.517  -0.604 -14.000  1.00  0.00     0.146 C 
BRANCH  41  42
ATOM     42  N   UNL     1       3.288  -0.124 -12.861  1.00  0.00    -0.254 NA
ATOM     43  C   UNL     1       2.851   0.861 -12.170  1.00  0.00     0.185 C 
ATOM     44  N   UNL     1       1.727   1.587 -12.312  1.00  0.00    -0.370 N 
ATOM     45  N   UNL     1       3.580   1.290 -11.126  1.00  0.00    -0.370 N 
ATOM     46  H   UNL     1       1.631   2.477 -11.855  1.00  0.00     0.159 HD
ATOM     47  H   UNL     1       1.054   1.388 -13.045  1.00  0.00     0.159 HD
ATOM     48  H   UNL     1       4.439   0.791 -10.943  1.00  0.00     0.159 HD
ATOM     49  H   UNL     1       3.203   1.883 -10.407  1.00  0.00     0.159 HD
ENDBRANCH  41  42
ENDBRANCH  40  41
ENDBRANCH  39  40
ENDBRANCH  38  39
ENDBRANCH  36  38
ENDBRANCH   5  34
BRANCH   8  50
ATOM     50  O   UNL     1       6.020  -2.819 -11.774  1.00  0.00    -0.245 OA
BRANCH  50  51
ATOM     51  S   UNL     1       4.829  -2.867 -10.669  1.00  0.00     0.397 S 
ATOM     52  O   UNL     1       5.334  -3.546  -9.497  1.00  0.00    -0.169 OA
ATOM     53  O   UNL     1       3.591  -3.268 -11.305  1.00  0.00    -0.169 OA
BRANCH  51  54
ATOM     54  O   UNL     1       4.694  -1.319 -10.254  1.00  0.00    -0.264 OA
ATOM     55  H   UNL     1       3.996  -0.920 -10.812  1.00  0.00     0.236 HD
ENDBRANCH  51  54
ENDBRANCH  50  51
ENDBRANCH   8  50
TORSDOF 19
ENDMDL
MODEL 44
REMARK VINA RESULT:    -5.122      2.768      6.405
REMARK INTER + INTRA:         -15.347
REMARK INTER:                 -11.878
REMARK INTRA:                  -3.470
REMARK UNBOUND:                -4.985
REMARK SMILES CC[C@@H](C)[C@@H](NC(=O)[C@@H](O)Cc1ccc(O)c(Cl)c1)C(=O)N1[C@H](C(=O)NCCCCN=C(N)N)C[C@H]2CC[C@H](OS(=O)(=O)O)C[C@@H]21
REMARK SMILES IDX 22 1 36 2 46 3 35 4 23 5 45 6 37 7 39 8 38 9 20 10 21 11
REMARK SMILES IDX 5 12 6 13 7 14 8 15 9 17 11 18 12 19 17 20 19 21 15 22 14 23
REMARK SMILES IDX 13 24 18 25 16 26 10 28 3 30 4 31 2 32 1 33 24 34 25 35
REMARK SMILES IDX 26 36 27 38 28 39 29 40 30 41 31 42 32 43 33 44 34 45 40 50
REMARK SMILES IDX 41 51 42 52 43 53 44 54
REMARK H PARENT 6 16 16 27 10 29 26 37 33 46 33 47 34 48 34 49 44 55
ROOT
ATOM      1  N   UNL     1      12.194  -6.796  -1.040  1.00  0.00    -0.326 N 
ATOM      2  C   UNL     1      11.354  -8.989  -1.205  1.00  0.00     0.014 C 
ATOM      3  C   UNL     1      12.041  -8.016  -0.242  1.00  0.00     0.091 C 
ATOM      4  C   UNL     1      11.955  -8.610  -2.550  1.00  0.00     0.041 C 
ATOM      5  C   UNL     1      11.874  -7.075  -2.462  1.00  0.00     0.175 C 
ATOM      6  C   UNL     1      11.216  -7.944   1.042  1.00  0.00     0.059 C 
ATOM      7  C   UNL     1      11.477 -10.417  -0.711  1.00  0.00     0.008 C 
ATOM      8  C   UNL     1      10.491  -9.262   1.390  1.00  0.00     0.143 C 
ATOM      9  C   UNL     1      11.216 -10.492   0.808  1.00  0.00     0.034 C 
ENDROOT
BRANCH   1  10
ATOM     10  C   UNL     1      12.767  -5.581  -0.703  1.00  0.00     0.246 C 
ATOM     11  O   UNL     1      13.725  -5.165  -1.364  1.00  0.00    -0.272 OA
BRANCH  10  12
ATOM     12  C   UNL     1      12.168  -4.749   0.467  1.00  0.00     0.174 C 
BRANCH  12  13
ATOM     13  N   UNL     1      10.806  -4.330   0.136  1.00  0.00    -0.342 N 
ATOM     14  C   UNL     1       9.712  -4.478   0.958  1.00  0.00     0.249 C 
ATOM     15  O   UNL     1       9.764  -4.957   2.084  1.00  0.00    -0.272 OA
ATOM     16  H   UNL     1      10.580  -4.061  -0.819  1.00  0.00     0.164 HD
BRANCH  14  17
ATOM     17  C   UNL     1       8.410  -3.953   0.316  1.00  0.00     0.207 C 
BRANCH  17  18
ATOM     18  C   UNL     1       7.300  -5.004   0.422  1.00  0.00     0.077 C 
BRANCH  18  19
ATOM     19  C   UNL     1       5.925  -4.378   0.353  1.00  0.00    -0.043 A 
ATOM     20  C   UNL     1       4.140  -3.105   1.392  1.00  0.00     0.083 A 
ATOM     21  C   UNL     1       5.428  -3.640   1.439  1.00  0.00     0.028 A 
ATOM     22  C   UNL     1       3.342  -3.305   0.265  1.00  0.00     0.134 A 
ATOM     23  C   UNL     1       3.821  -4.034  -0.817  1.00  0.00     0.048 A 
ATOM     24  C   UNL     1       5.110  -4.572  -0.772  1.00  0.00     0.008 A 
ATOM     25  Cl  UNL     1       3.547  -2.201   2.735  1.00  0.00    -0.080 Cl
BRANCH  22  26
ATOM     26  O   UNL     1       2.069  -2.809   0.177  1.00  0.00    -0.506 OA
ATOM     27  H   UNL     1       2.079  -1.934   0.608  1.00  0.00     0.293 HD
ENDBRANCH  22  26
ENDBRANCH  18  19
ENDBRANCH  17  18
BRANCH  17  28
ATOM     28  O   UNL     1       8.614  -3.613  -1.064  1.00  0.00    -0.383 OA
ATOM     29  H   UNL     1       7.815  -3.110  -1.342  1.00  0.00     0.211 HD
ENDBRANCH  17  28
ENDBRANCH  14  17
ENDBRANCH  12  13
BRANCH  12  30
ATOM     30  C   UNL     1      13.071  -3.555   0.878  1.00  0.00     0.018 C 
ATOM     31  C   UNL     1      13.974  -3.935   2.062  1.00  0.00     0.010 C 
BRANCH  30  32
ATOM     32  C   UNL     1      12.283  -2.263   1.203  1.00  0.00     0.002 C 
ATOM     33  C   UNL     1      13.079  -1.177   1.917  1.00  0.00     0.004 C 
ENDBRANCH  30  32
ENDBRANCH  12  30
ENDBRANCH  10  12
ENDBRANCH   1  10
BRANCH   5  34
ATOM     34  C   UNL     1      10.455  -6.556  -2.818  1.00  0.00     0.242 C 
ATOM     35  O   UNL     1       9.616  -6.292  -1.958  1.00  0.00    -0.273 OA
ATOM     36  N   UNL     1      10.186  -6.465  -4.166  1.00  0.00    -0.354 N 
ATOM     37  H   UNL     1      10.880  -6.813  -4.830  1.00  0.00     0.163 HD
BRANCH  36  38
ATOM     38  C   UNL     1       9.003  -5.803  -4.675  1.00  0.00     0.116 C 
BRANCH  38  39
ATOM     39  C   UNL     1       8.204  -6.768  -5.548  1.00  0.00     0.023 C 
BRANCH  39  40
ATOM     40  C   UNL     1       8.047  -8.142  -4.904  1.00  0.00     0.026 C 
BRANCH  40  41
ATOM     41  C   UNL     1       6.576  -8.434  -4.605  1.00  0.00     0.146 C 
BRANCH  41  42
ATOM     42  N   UNL     1       5.736  -7.413  -5.217  1.00  0.00    -0.254 NA
ATOM     43  C   UNL     1       4.813  -6.856  -4.527  1.00  0.00     0.185 C 
ATOM     44  N   UNL     1       4.450  -7.055  -3.246  1.00  0.00    -0.370 N 
ATOM     45  N   UNL     1       4.047  -5.920  -5.110  1.00  0.00    -0.370 N 
ATOM     46  H   UNL     1       3.559  -6.731  -2.910  1.00  0.00     0.159 HD
ATOM     47  H   UNL     1       4.934  -7.721  -2.652  1.00  0.00     0.159 HD
ATOM     48  H   UNL     1       4.260  -5.703  -6.074  1.00  0.00     0.159 HD
ATOM     49  H   UNL     1       3.476  -5.281  -4.586  1.00  0.00     0.159 HD
ENDBRANCH  41  42
ENDBRANCH  40  41
ENDBRANCH  39  40
ENDBRANCH  38  39
ENDBRANCH  36  38
ENDBRANCH   5  34
BRANCH   8  50
ATOM     50  O   UNL     1       9.158  -9.237   0.880  1.00  0.00    -0.245 OA
BRANCH  50  51
ATOM     51  S   UNL     1       7.903  -9.197   1.914  1.00  0.00     0.397 S 
ATOM     52  O   UNL     1       7.999  -7.978   2.684  1.00  0.00    -0.169 OA
ATOM     53  O   UNL     1       7.757 -10.489   2.551  1.00  0.00    -0.169 OA
BRANCH  51  54
ATOM     54  O   UNL     1       6.656  -8.991   0.920  1.00  0.00    -0.264 OA
ATOM     55  H   UNL     1       6.553  -8.029   0.766  1.00  0.00     0.236 HD
ENDBRANCH  51  54
ENDBRANCH  50  51
ENDBRANCH   8  50
TORSDOF 19
ENDMDL
MODEL 45
REMARK VINA RESULT:    -5.112      4.716      9.143
REMARK INTER + INTRA:         -15.327
REMARK INTER:                 -12.136
REMARK INTRA:                  -3.191
REMARK UNBOUND:                -4.985
REMARK SMILES CC[C@@H](C)[C@@H](NC(=O)[C@@H](O)Cc1ccc(O)c(Cl)c1)C(=O)N1[C@H](C(=O)NCCCCN=C(N)N)C[C@H]2CC[C@H](OS(=O)(=O)O)C[C@@H]21
REMARK SMILES IDX 22 1 36 2 46 3 35 4 23 5 45 6 37 7 39 8 38 9 20 10 21 11
REMARK SMILES IDX 5 12 6 13 7 14 8 15 9 17 11 18 12 19 17 20 19 21 15 22 14 23
REMARK SMILES IDX 13 24 18 25 16 26 10 28 3 30 4 31 2 32 1 33 24 34 25 35
REMARK SMILES IDX 26 36 27 38 28 39 29 40 30 41 31 42 32 43 33 44 34 45 40 50
REMARK SMILES IDX 41 51 42 52 43 53 44 54
REMARK H PARENT 6 16 16 27 10 29 26 37 33 46 33 47 34 48 34 49 44 55
ROOT
ATOM      1  N   UNL     1       7.350  -5.880  -5.109  1.00  0.00    -0.326 N 
ATOM      2  C   UNL     1       8.455  -7.862  -4.481  1.00  0.00     0.014 C 
ATOM      3  C   UNL     1       8.649  -6.349  -4.619  1.00  0.00     0.091 C 
ATOM      4  C   UNL     1       7.522  -8.186  -5.639  1.00  0.00     0.041 C 
ATOM      5  C   UNL     1       6.507  -7.037  -5.501  1.00  0.00     0.175 C 
ATOM      6  C   UNL     1       9.159  -5.805  -3.285  1.00  0.00     0.059 C 
ATOM      7  C   UNL     1       9.790  -8.574  -4.380  1.00  0.00     0.008 C 
ATOM      8  C   UNL     1      10.040  -6.803  -2.503  1.00  0.00     0.143 C 
ATOM      9  C   UNL     1      10.742  -7.811  -3.436  1.00  0.00     0.034 C 
ENDROOT
BRANCH   1  10
ATOM     10  C   UNL     1       6.934  -4.601  -5.437  1.00  0.00     0.246 C 
ATOM     11  O   UNL     1       7.048  -4.212  -6.604  1.00  0.00    -0.272 OA
BRANCH  10  12
ATOM     12  C   UNL     1       6.296  -3.698  -4.341  1.00  0.00     0.174 C 
BRANCH  12  13
ATOM     13  N   UNL     1       5.380  -2.738  -4.957  1.00  0.00    -0.342 N 
ATOM     14  C   UNL     1       4.142  -3.048  -5.473  1.00  0.00     0.249 C 
ATOM     15  O   UNL     1       3.653  -4.170  -5.448  1.00  0.00    -0.272 OA
ATOM     16  H   UNL     1       5.710  -1.805  -5.189  1.00  0.00     0.164 HD
BRANCH  14  17
ATOM     17  C   UNL     1       3.422  -1.820  -6.071  1.00  0.00     0.207 C 
BRANCH  17  18
ATOM     18  C   UNL     1       4.362  -1.051  -7.006  1.00  0.00     0.077 C 
BRANCH  18  19
ATOM     19  C   UNL     1       4.468  -1.711  -8.362  1.00  0.00    -0.043 A 
ATOM     20  C   UNL     1       3.410  -2.712 -10.302  1.00  0.00     0.083 A 
ATOM     21  C   UNL     1       3.309  -2.059  -9.073  1.00  0.00     0.028 A 
ATOM     22  C   UNL     1       4.665  -3.023 -10.826  1.00  0.00     0.134 A 
ATOM     23  C   UNL     1       5.821  -2.684 -10.133  1.00  0.00     0.048 A 
ATOM     24  C   UNL     1       5.723  -2.032  -8.902  1.00  0.00     0.008 A 
ATOM     25  Cl  UNL     1       1.974  -3.131 -11.161  1.00  0.00    -0.080 Cl
BRANCH  22  26
ATOM     26  O   UNL     1       4.814  -3.672 -12.022  1.00  0.00    -0.506 OA
ATOM     27  H   UNL     1       5.734  -3.995 -12.053  1.00  0.00     0.293 HD
ENDBRANCH  22  26
ENDBRANCH  18  19
ENDBRANCH  17  18
BRANCH  17  28
ATOM     28  O   UNL     1       2.955  -0.940  -5.036  1.00  0.00    -0.383 OA
ATOM     29  H   UNL     1       3.760  -0.607  -4.578  1.00  0.00     0.211 HD
ENDBRANCH  17  28
ENDBRANCH  14  17
ENDBRANCH  12  13
BRANCH  12  30
ATOM     30  C   UNL     1       7.356  -3.010  -3.439  1.00  0.00     0.018 C 
ATOM     31  C   UNL     1       6.686  -2.043  -2.449  1.00  0.00     0.010 C 
BRANCH  30  32
ATOM     32  C   UNL     1       8.465  -2.276  -4.231  1.00  0.00     0.002 C 
ATOM     33  C   UNL     1       8.302  -0.765  -4.333  1.00  0.00     0.004 C 
ENDBRANCH  30  32
ENDBRANCH  12  30
ENDBRANCH  10  12
ENDBRANCH   1  10
BRANCH   5  34
ATOM     34  C   UNL     1       5.446  -7.339  -4.409  1.00  0.00     0.242 C 
ATOM     35  O   UNL     1       5.187  -8.485  -4.043  1.00  0.00    -0.273 OA
ATOM     36  N   UNL     1       4.778  -6.238  -3.921  1.00  0.00    -0.354 N 
ATOM     37  H   UNL     1       4.952  -5.328  -4.350  1.00  0.00     0.163 HD
BRANCH  36  38
ATOM     38  C   UNL     1       3.918  -6.308  -2.758  1.00  0.00     0.116 C 
BRANCH  38  39
ATOM     39  C   UNL     1       4.503  -5.462  -1.629  1.00  0.00     0.023 C 
BRANCH  39  40
ATOM     40  C   UNL     1       3.764  -4.141  -1.449  1.00  0.00     0.026 C 
BRANCH  40  41
ATOM     41  C   UNL     1       4.156  -3.475  -0.130  1.00  0.00     0.146 C 
BRANCH  41  42
ATOM     42  N   UNL     1       5.372  -4.089   0.389  1.00  0.00    -0.254 NA
ATOM     43  C   UNL     1       5.587  -4.101   1.651  1.00  0.00     0.185 C 
ATOM     44  N   UNL     1       4.841  -3.616   2.660  1.00  0.00    -0.370 N 
ATOM     45  N   UNL     1       6.715  -4.668   2.108  1.00  0.00    -0.370 N 
ATOM     46  H   UNL     1       5.241  -3.476   3.572  1.00  0.00     0.159 HD
ATOM     47  H   UNL     1       3.946  -3.166   2.493  1.00  0.00     0.159 HD
ATOM     48  H   UNL     1       7.331  -5.067   1.412  1.00  0.00     0.159 HD
ATOM     49  H   UNL     1       6.843  -4.927   3.070  1.00  0.00     0.159 HD
ENDBRANCH  41  42
ENDBRANCH  40  41
ENDBRANCH  39  40
ENDBRANCH  38  39
ENDBRANCH  36  38
ENDBRANCH   5  34
BRANCH   8  50
ATOM     50  O   UNL     1       9.245  -7.531  -1.567  1.00  0.00    -0.245 OA
BRANCH  50  51
ATOM     51  S   UNL     1       9.537  -7.377   0.026  1.00  0.00     0.397 S 
ATOM     52  O   UNL     1       9.592  -8.702   0.599  1.00  0.00    -0.169 OA
ATOM     53  O   UNL     1       8.685  -6.344   0.579  1.00  0.00    -0.169 OA
BRANCH  51  54
ATOM     54  O   UNL     1      11.049  -6.831   0.038  1.00  0.00    -0.264 OA
ATOM     55  H   UNL     1      11.207  -6.409   0.907  1.00  0.00     0.236 HD
ENDBRANCH  51  54
ENDBRANCH  50  51
ENDBRANCH   8  50
TORSDOF 19
ENDMDL
MODEL 46
REMARK VINA RESULT:    -5.069      3.475      6.876
REMARK INTER + INTRA:         -15.239
REMARK INTER:                 -12.775
REMARK INTRA:                  -2.464
REMARK UNBOUND:                -4.985
REMARK SMILES CC[C@@H](C)[C@@H](NC(=O)[C@@H](O)Cc1ccc(O)c(Cl)c1)C(=O)N1[C@H](C(=O)NCCCCN=C(N)N)C[C@H]2CC[C@H](OS(=O)(=O)O)C[C@@H]21
REMARK SMILES IDX 22 1 36 2 46 3 35 4 23 5 45 6 37 7 39 8 38 9 20 10 21 11
REMARK SMILES IDX 5 12 6 13 7 14 8 15 9 17 11 18 12 19 17 20 19 21 15 22 14 23
REMARK SMILES IDX 13 24 18 25 16 26 10 28 3 30 4 31 2 32 1 33 24 34 25 35
REMARK SMILES IDX 26 36 27 38 28 39 29 40 30 41 31 42 32 43 33 44 34 45 40 50
REMARK SMILES IDX 41 51 42 52 43 53 44 54
REMARK H PARENT 6 16 16 27 10 29 26 37 33 46 33 47 34 48 34 49 44 55
ROOT
ATOM      1  N   UNL     1       9.224  -5.905  -0.730  1.00  0.00    -0.326 N 
ATOM      2  C   UNL     1       7.278  -7.091  -1.321  1.00  0.00     0.014 C 
ATOM      3  C   UNL     1       7.892  -5.688  -1.302  1.00  0.00     0.091 C 
ATOM      4  C   UNL     1       7.857  -7.727  -0.066  1.00  0.00     0.041 C 
ATOM      5  C   UNL     1       9.326  -7.283  -0.189  1.00  0.00     0.175 C 
ATOM      6  C   UNL     1       7.794  -5.100  -2.708  1.00  0.00     0.059 C 
ATOM      7  C   UNL     1       5.773  -7.022  -1.492  1.00  0.00     0.008 C 
ATOM      8  C   UNL     1       6.557  -5.578  -3.498  1.00  0.00     0.143 C 
ATOM      9  C   UNL     1       5.395  -5.980  -2.566  1.00  0.00     0.034 C 
ENDROOT
BRANCH   1  10
ATOM     10  C   UNL     1      10.230  -4.995  -0.453  1.00  0.00     0.246 C 
ATOM     11  O   UNL     1      11.177  -4.888  -1.239  1.00  0.00    -0.272 OA
BRANCH  10  12
ATOM     12  C   UNL     1      10.126  -4.099   0.816  1.00  0.00     0.174 C 
BRANCH  12  13
ATOM     13  N   UNL     1       8.754  -4.113   1.324  1.00  0.00    -0.342 N 
ATOM     14  C   UNL     1       8.376  -4.579   2.563  1.00  0.00     0.249 C 
ATOM     15  O   UNL     1       9.160  -5.014   3.397  1.00  0.00    -0.272 OA
ATOM     16  H   UNL     1       7.980  -3.930   0.690  1.00  0.00     0.164 HD
BRANCH  14  17
ATOM     17  C   UNL     1       6.854  -4.475   2.799  1.00  0.00     0.207 C 
BRANCH  17  18
ATOM     18  C   UNL     1       6.546  -3.397   3.842  1.00  0.00     0.077 C 
BRANCH  18  19
ATOM     19  C   UNL     1       5.074  -3.052   3.877  1.00  0.00    -0.043 A 
ATOM     20  C   UNL     1       2.946  -2.800   2.739  1.00  0.00     0.083 A 
ATOM     21  C   UNL     1       4.292  -3.166   2.716  1.00  0.00     0.028 A 
ATOM     22  C   UNL     1       2.373  -2.318   3.917  1.00  0.00     0.134 A 
ATOM     23  C   UNL     1       3.136  -2.200   5.073  1.00  0.00     0.048 A 
ATOM     24  C   UNL     1       4.484  -2.564   5.053  1.00  0.00     0.008 A 
ATOM     25  Cl  UNL     1       2.002  -2.947   1.303  1.00  0.00    -0.080 Cl
BRANCH  22  26
ATOM     26  O   UNL     1       1.061  -1.937   3.985  1.00  0.00    -0.506 OA
ATOM     27  H   UNL     1       0.644  -2.215   3.148  1.00  0.00     0.293 HD
ENDBRANCH  22  26
ENDBRANCH  18  19
ENDBRANCH  17  18
BRANCH  17  28
ATOM     28  O   UNL     1       6.311  -5.731   3.236  1.00  0.00    -0.383 OA
ATOM     29  H   UNL     1       5.681  -5.517   3.961  1.00  0.00     0.211 HD
ENDBRANCH  17  28
ENDBRANCH  14  17
ENDBRANCH  12  13
BRANCH  12  30
ATOM     30  C   UNL     1      10.656  -2.660   0.579  1.00  0.00     0.018 C 
ATOM     31  C   UNL     1      11.924  -2.401   1.407  1.00  0.00     0.010 C 
BRANCH  30  32
ATOM     32  C   UNL     1       9.605  -1.557   0.856  1.00  0.00     0.002 C 
ATOM     33  C   UNL     1      10.056  -0.451   1.802  1.00  0.00     0.004 C 
ENDBRANCH  30  32
ENDBRANCH  12  30
ENDBRANCH  10  12
ENDBRANCH   1  10
BRANCH   5  34
ATOM     34  C   UNL     1      10.120  -8.197  -1.160  1.00  0.00     0.242 C 
ATOM     35  O   UNL     1      10.234  -7.943  -2.359  1.00  0.00    -0.273 OA
ATOM     36  N   UNL     1      10.642  -9.339  -0.594  1.00  0.00    -0.354 N 
ATOM     37  H   UNL     1      10.413  -9.555   0.377  1.00  0.00     0.163 HD
BRANCH  36  38
ATOM     38  C   UNL     1      11.584 -10.188  -1.294  1.00  0.00     0.116 C 
BRANCH  38  39
ATOM     39  C   UNL     1      13.011  -9.737  -0.993  1.00  0.00     0.023 C 
BRANCH  39  40
ATOM     40  C   UNL     1      14.044 -10.461  -1.850  1.00  0.00     0.026 C 
BRANCH  40  41
ATOM     41  C   UNL     1      13.395 -11.041  -3.107  1.00  0.00     0.146 C 
BRANCH  41  42
ATOM     42  N   UNL     1      13.888 -10.339  -4.284  1.00  0.00    -0.254 NA
ATOM     43  C   UNL     1      13.095  -9.588  -4.952  1.00  0.00     0.185 C 
ATOM     44  N   UNL     1      11.795  -9.306  -4.750  1.00  0.00    -0.370 N 
ATOM     45  N   UNL     1      13.568  -8.953  -6.037  1.00  0.00    -0.370 N 
ATOM     46  H   UNL     1      11.238  -8.901  -5.483  1.00  0.00     0.159 HD
ATOM     47  H   UNL     1      11.282  -9.693  -3.963  1.00  0.00     0.159 HD
ATOM     48  H   UNL     1      14.543  -9.105  -6.255  1.00  0.00     0.159 HD
ATOM     49  H   UNL     1      13.092  -8.179  -6.465  1.00  0.00     0.159 HD
ENDBRANCH  41  42
ENDBRANCH  40  41
ENDBRANCH  39  40
ENDBRANCH  38  39
ENDBRANCH  36  38
ENDBRANCH   5  34
BRANCH   8  50
ATOM     50  O   UNL     1       6.897  -6.702  -4.309  1.00  0.00    -0.245 OA
BRANCH  50  51
ATOM     51  S   UNL     1       6.068  -6.983  -5.680  1.00  0.00     0.397 S 
ATOM     52  O   UNL     1       6.265  -5.853  -6.560  1.00  0.00    -0.169 OA
ATOM     53  O   UNL     1       4.745  -7.473  -5.357  1.00  0.00    -0.169 OA
BRANCH  51  54
ATOM     54  O   UNL     1       6.900  -8.195  -6.333  1.00  0.00    -0.264 OA
ATOM     55  H   UNL     1       7.617  -7.808  -6.874  1.00  0.00     0.236 HD
ENDBRANCH  51  54
ENDBRANCH  50  51
ENDBRANCH   8  50
TORSDOF 19
ENDMDL
MODEL 47
REMARK VINA RESULT:    -4.991      6.556     11.282
REMARK INTER + INTRA:         -15.082
REMARK INTER:                 -11.557
REMARK INTRA:                  -3.525
REMARK UNBOUND:                -4.985
REMARK SMILES CC[C@@H](C)[C@@H](NC(=O)[C@@H](O)Cc1ccc(O)c(Cl)c1)C(=O)N1[C@H](C(=O)NCCCCN=C(N)N)C[C@H]2CC[C@H](OS(=O)(=O)O)C[C@@H]21
REMARK SMILES IDX 22 1 36 2 46 3 35 4 23 5 45 6 37 7 39 8 38 9 20 10 21 11
REMARK SMILES IDX 5 12 6 13 7 14 8 15 9 17 11 18 12 19 17 20 19 21 15 22 14 23
REMARK SMILES IDX 13 24 18 25 16 26 10 28 3 30 4 31 2 32 1 33 24 34 25 35
REMARK SMILES IDX 26 36 27 38 28 39 29 40 30 41 31 42 32 43 33 44 34 45 40 50
REMARK SMILES IDX 41 51 42 52 43 53 44 54
REMARK H PARENT 6 16 16 27 10 29 26 37 33 46 33 47 34 48 34 49 44 55
ROOT
ATOM      1  N   UNL     1       5.781  -4.381  -5.972  1.00  0.00    -0.326 N 
ATOM      2  C   UNL     1       5.786  -6.329  -4.651  1.00  0.00     0.014 C 
ATOM      3  C   UNL     1       6.386  -5.715  -5.919  1.00  0.00     0.091 C 
ATOM      4  C   UNL     1       4.382  -5.747  -4.628  1.00  0.00     0.041 C 
ATOM      5  C   UNL     1       4.691  -4.278  -4.971  1.00  0.00     0.175 C 
ATOM      6  C   UNL     1       7.908  -5.816  -5.832  1.00  0.00     0.059 C 
ATOM      7  C   UNL     1       5.967  -7.835  -4.640  1.00  0.00     0.008 C 
ATOM      8  C   UNL     1       8.405  -7.057  -5.058  1.00  0.00     0.143 C 
ATOM      9  C   UNL     1       7.388  -8.215  -5.107  1.00  0.00     0.034 C 
ENDROOT
BRANCH   1  10
ATOM     10  C   UNL     1       5.933  -3.374  -6.910  1.00  0.00     0.246 C 
ATOM     11  O   UNL     1       7.013  -3.260  -7.499  1.00  0.00    -0.272 OA
BRANCH  10  12
ATOM     12  C   UNL     1       4.732  -2.438  -7.233  1.00  0.00     0.174 C 
BRANCH  12  13
ATOM     13  N   UNL     1       4.483  -2.426  -8.674  1.00  0.00    -0.342 N 
ATOM     14  C   UNL     1       3.239  -2.489  -9.261  1.00  0.00     0.249 C 
ATOM     15  O   UNL     1       2.189  -2.536  -8.632  1.00  0.00    -0.272 OA
ATOM     16  H   UNL     1       5.258  -2.547  -9.320  1.00  0.00     0.164 HD
BRANCH  14  17
ATOM     17  C   UNL     1       3.307  -2.474 -10.803  1.00  0.00     0.207 C 
BRANCH  17  18
ATOM     18  C   UNL     1       4.078  -1.243 -11.293  1.00  0.00     0.077 C 
BRANCH  18  19
ATOM     19  C   UNL     1       4.385  -1.325 -12.771  1.00  0.00    -0.043 A 
ATOM     20  C   UNL     1       5.835  -2.035 -14.582  1.00  0.00     0.083 A 
ATOM     21  C   UNL     1       5.528  -2.004 -13.221  1.00  0.00     0.028 A 
ATOM     22  C   UNL     1       5.006  -1.388 -15.499  1.00  0.00     0.134 A 
ATOM     23  C   UNL     1       3.871  -0.712 -15.068  1.00  0.00     0.048 A 
ATOM     24  C   UNL     1       3.562  -0.678 -13.706  1.00  0.00     0.008 A 
ATOM     25  Cl  UNL     1       7.244  -2.875 -15.114  1.00  0.00    -0.080 Cl
BRANCH  22  26
ATOM     26  O   UNL     1       5.272  -1.382 -16.842  1.00  0.00    -0.506 OA
ATOM     27  H   UNL     1       4.519  -0.939 -17.274  1.00  0.00     0.293 HD
ENDBRANCH  22  26
ENDBRANCH  18  19
ENDBRANCH  17  18
BRANCH  17  28
ATOM     28  O   UNL     1       1.991  -2.472 -11.379  1.00  0.00    -0.383 OA
ATOM     29  H   UNL     1       2.053  -1.928 -12.197  1.00  0.00     0.211 HD
ENDBRANCH  17  28
ENDBRANCH  14  17
ENDBRANCH  12  13
BRANCH  12  30
ATOM     30  C   UNL     1       4.911  -1.010  -6.650  1.00  0.00     0.018 C 
ATOM     31  C   UNL     1       3.662  -0.581  -5.864  1.00  0.00     0.010 C 
BRANCH  30  32
ATOM     32  C   UNL     1       5.261   0.056  -7.715  1.00  0.00     0.002 C 
ATOM     33  C   UNL     1       4.301   1.236  -7.796  1.00  0.00     0.004 C 
ENDBRANCH  30  32
ENDBRANCH  12  30
ENDBRANCH  10  12
ENDBRANCH   1  10
BRANCH   5  34
ATOM     34  C   UNL     1       5.164  -3.487  -3.722  1.00  0.00     0.242 C 
ATOM     35  O   UNL     1       6.322  -3.088  -3.596  1.00  0.00    -0.273 OA
ATOM     36  N   UNL     1       4.211  -3.311  -2.744  1.00  0.00    -0.354 N 
ATOM     37  H   UNL     1       3.305  -3.767  -2.853  1.00  0.00     0.163 HD
BRANCH  36  38
ATOM     38  C   UNL     1       4.413  -2.421  -1.619  1.00  0.00     0.116 C 
BRANCH  38  39
ATOM     39  C   UNL     1       4.617  -3.235  -0.344  1.00  0.00     0.023 C 
BRANCH  39  40
ATOM     40  C   UNL     1       6.085  -3.553  -0.084  1.00  0.00     0.026 C 
BRANCH  40  41
ATOM     41  C   UNL     1       6.226  -4.848   0.716  1.00  0.00     0.146 C 
BRANCH  41  42
ATOM     42  N   UNL     1       6.097  -5.994  -0.174  1.00  0.00    -0.254 NA
ATOM     43  C   UNL     1       7.111  -6.744  -0.393  1.00  0.00     0.185 C 
ATOM     44  N   UNL     1       8.366  -6.663   0.085  1.00  0.00    -0.370 N 
ATOM     45  N   UNL     1       6.972  -7.793  -1.220  1.00  0.00    -0.370 N 
ATOM     46  H   UNL     1       9.116  -7.167  -0.356  1.00  0.00     0.159 HD
ATOM     47  H   UNL     1       8.642  -5.935   0.737  1.00  0.00     0.159 HD
ATOM     48  H   UNL     1       6.053  -7.931  -1.618  1.00  0.00     0.159 HD
ATOM     49  H   UNL     1       7.632  -8.548  -1.256  1.00  0.00     0.159 HD
ENDBRANCH  41  42
ENDBRANCH  40  41
ENDBRANCH  39  40
ENDBRANCH  38  39
ENDBRANCH  36  38
ENDBRANCH   5  34
BRANCH   8  50
ATOM     50  O   UNL     1       8.642  -6.719  -3.691  1.00  0.00    -0.245 OA
BRANCH  50  51
ATOM     51  S   UNL     1      10.087  -7.051  -3.021  1.00  0.00     0.397 S 
ATOM     52  O   UNL     1      11.076  -7.061  -4.075  1.00  0.00    -0.169 OA
ATOM     53  O   UNL     1       9.951  -8.157  -2.096  1.00  0.00    -0.169 OA
BRANCH  51  54
ATOM     54  O   UNL     1      10.373  -5.721  -2.164  1.00  0.00    -0.264 OA
ATOM     55  H   UNL     1      11.245  -5.826  -1.733  1.00  0.00     0.236 HD
ENDBRANCH  51  54
ENDBRANCH  50  51
ENDBRANCH   8  50
TORSDOF 19
ENDMDL
MODEL 48
REMARK VINA RESULT:    -4.989      5.670     10.733
REMARK INTER + INTRA:         -15.079
REMARK INTER:                 -12.889
REMARK INTRA:                  -2.190
REMARK UNBOUND:                -4.985
REMARK SMILES CC[C@@H](C)[C@@H](NC(=O)[C@@H](O)Cc1ccc(O)c(Cl)c1)C(=O)N1[C@H](C(=O)NCCCCN=C(N)N)C[C@H]2CC[C@H](OS(=O)(=O)O)C[C@@H]21
REMARK SMILES IDX 22 1 36 2 46 3 35 4 23 5 45 6 37 7 39 8 38 9 20 10 21 11
REMARK SMILES IDX 5 12 6 13 7 14 8 15 9 17 11 18 12 19 17 20 19 21 15 22 14 23
REMARK SMILES IDX 13 24 18 25 16 26 10 28 3 30 4 31 2 32 1 33 24 34 25 35
REMARK SMILES IDX 26 36 27 38 28 39 29 40 30 41 31 42 32 43 33 44 34 45 40 50
REMARK SMILES IDX 41 51 42 52 43 53 44 54
REMARK H PARENT 6 16 16 27 10 29 26 37 33 46 33 47 34 48 34 49 44 55
ROOT
ATOM      1  N   UNL     1       4.260  -2.077   3.439  1.00  0.00    -0.326 N 
ATOM      2  C   UNL     1       5.131  -0.699   5.137  1.00  0.00     0.014 C 
ATOM      3  C   UNL     1       3.828  -1.304   4.607  1.00  0.00     0.091 C 
ATOM      4  C   UNL     1       5.921  -0.437   3.864  1.00  0.00     0.041 C 
ATOM      5  C   UNL     1       5.672  -1.758   3.113  1.00  0.00     0.175 C 
ATOM      6  C   UNL     1       3.140  -2.046   5.752  1.00  0.00     0.059 C 
ATOM      7  C   UNL     1       4.849   0.450   6.086  1.00  0.00     0.008 C 
ATOM      8  C   UNL     1       3.394  -1.419   7.140  1.00  0.00     0.143 C 
ATOM      9  C   UNL     1       3.697   0.090   7.047  1.00  0.00     0.034 C 
ENDROOT
BRANCH   1  10
ATOM     10  C   UNL     1       3.514  -2.827   2.546  1.00  0.00     0.246 C 
ATOM     11  O   UNL     1       3.015  -3.892   2.925  1.00  0.00    -0.272 OA
BRANCH  10  12
ATOM     12  C   UNL     1       3.284  -2.295   1.101  1.00  0.00     0.174 C 
BRANCH  12  13
ATOM     13  N   UNL     1       4.354  -2.763   0.221  1.00  0.00    -0.342 N 
ATOM     14  C   UNL     1       4.219  -3.744  -0.735  1.00  0.00     0.249 C 
ATOM     15  O   UNL     1       3.166  -4.321  -0.975  1.00  0.00    -0.272 OA
ATOM     16  H   UNL     1       5.316  -2.490   0.409  1.00  0.00     0.164 HD
BRANCH  14  17
ATOM     17  C   UNL     1       5.536  -4.026  -1.489  1.00  0.00     0.207 C 
BRANCH  17  18
ATOM     18  C   UNL     1       6.089  -5.402  -1.104  1.00  0.00     0.077 C 
BRANCH  18  19
ATOM     19  C   UNL     1       6.363  -6.258  -2.320  1.00  0.00    -0.043 A 
ATOM     20  C   UNL     1       7.515  -6.615  -4.425  1.00  0.00     0.083 A 
ATOM     21  C   UNL     1       7.301  -5.847  -3.279  1.00  0.00     0.028 A 
ATOM     22  C   UNL     1       6.795  -7.794  -4.620  1.00  0.00     0.134 A 
ATOM     23  C   UNL     1       5.863  -8.213  -3.677  1.00  0.00     0.048 A 
ATOM     24  C   UNL     1       5.645  -7.446  -2.531  1.00  0.00     0.008 A 
ATOM     25  Cl  UNL     1       8.672  -6.092  -5.592  1.00  0.00    -0.080 Cl
BRANCH  22  26
ATOM     26  O   UNL     1       6.963  -8.574  -5.731  1.00  0.00    -0.506 OA
ATOM     27  H   UNL     1       6.176  -9.147  -5.793  1.00  0.00     0.293 HD
ENDBRANCH  22  26
ENDBRANCH  18  19
ENDBRANCH  17  18
BRANCH  17  28
ATOM     28  O   UNL     1       6.521  -3.020  -1.205  1.00  0.00    -0.383 OA
ATOM     29  H   UNL     1       6.059  -2.155  -1.296  1.00  0.00     0.211 HD
ENDBRANCH  17  28
ENDBRANCH  14  17
ENDBRANCH  12  13
BRANCH  12  30
ATOM     30  C   UNL     1       3.108  -0.753   1.051  1.00  0.00     0.018 C 
ATOM     31  C   UNL     1       1.670  -0.380   0.656  1.00  0.00     0.010 C 
BRANCH  30  32
ATOM     32  C   UNL     1       4.117  -0.042   0.117  1.00  0.00     0.002 C 
ATOM     33  C   UNL     1       4.358   1.431   0.419  1.00  0.00     0.004 C 
ENDBRANCH  30  32
ENDBRANCH  12  30
ENDBRANCH  10  12
ENDBRANCH   1  10
BRANCH   5  34
ATOM     34  C   UNL     1       6.618  -2.884   3.607  1.00  0.00     0.242 C 
ATOM     35  O   UNL     1       6.195  -3.939   4.079  1.00  0.00    -0.273 OA
ATOM     36  N   UNL     1       7.962  -2.596   3.529  1.00  0.00    -0.354 N 
ATOM     37  H   UNL     1       8.248  -1.659   3.241  1.00  0.00     0.163 HD
BRANCH  36  38
ATOM     38  C   UNL     1       8.983  -3.602   3.741  1.00  0.00     0.116 C 
BRANCH  38  39
ATOM     39  C   UNL     1       9.761  -3.831   2.448  1.00  0.00     0.023 C 
BRANCH  39  40
ATOM     40  C   UNL     1      11.120  -3.139   2.456  1.00  0.00     0.026 C 
BRANCH  40  41
ATOM     41  C   UNL     1      12.223  -4.105   2.022  1.00  0.00     0.146 C 
BRANCH  41  42
ATOM     42  N   UNL     1      12.651  -4.907   3.161  1.00  0.00    -0.254 NA
ATOM     43  C   UNL     1      13.838  -4.772   3.620  1.00  0.00     0.185 C 
ATOM     44  N   UNL     1      14.836  -3.965   3.216  1.00  0.00    -0.370 N 
ATOM     45  N   UNL     1      14.214  -5.524   4.667  1.00  0.00    -0.370 N 
ATOM     46  H   UNL     1      15.783  -4.136   3.506  1.00  0.00     0.159 HD
ATOM     47  H   UNL     1      14.718  -3.318   2.442  1.00  0.00     0.159 HD
ATOM     48  H   UNL     1      13.517  -6.154   5.040  1.00  0.00     0.159 HD
ATOM     49  H   UNL     1      15.023  -5.314   5.225  1.00  0.00     0.159 HD
ENDBRANCH  41  42
ENDBRANCH  40  41
ENDBRANCH  39  40
ENDBRANCH  38  39
ENDBRANCH  36  38
ENDBRANCH   5  34
BRANCH   8  50
ATOM     50  O   UNL     1       4.497  -2.065   7.775  1.00  0.00    -0.245 OA
BRANCH  50  51
ATOM     51  S   UNL     1       4.264  -2.863   9.173  1.00  0.00     0.397 S 
ATOM     52  O   UNL     1       5.151  -4.004   9.189  1.00  0.00    -0.169 OA
ATOM     53  O   UNL     1       2.845  -2.999   9.424  1.00  0.00    -0.169 OA
BRANCH  51  54
ATOM     54  O   UNL     1       4.861  -1.830  10.252  1.00  0.00    -0.264 OA
ATOM     55  H   UNL     1       5.814  -2.029  10.360  1.00  0.00     0.236 HD
ENDBRANCH  51  54
ENDBRANCH  50  51
ENDBRANCH   8  50
TORSDOF 19
ENDMDL
MODEL 49
REMARK VINA RESULT:    -4.949      2.688      3.933
REMARK INTER + INTRA:         -14.997
REMARK INTER:                 -10.352
REMARK INTRA:                  -4.645
REMARK UNBOUND:                -4.985
REMARK SMILES CC[C@@H](C)[C@@H](NC(=O)[C@@H](O)Cc1ccc(O)c(Cl)c1)C(=O)N1[C@H](C(=O)NCCCCN=C(N)N)C[C@H]2CC[C@H](OS(=O)(=O)O)C[C@@H]21
REMARK SMILES IDX 22 1 36 2 46 3 35 4 23 5 45 6 37 7 39 8 38 9 20 10 21 11
REMARK SMILES IDX 5 12 6 13 7 14 8 15 9 17 11 18 12 19 17 20 19 21 15 22 14 23
REMARK SMILES IDX 13 24 18 25 16 26 10 28 3 30 4 31 2 32 1 33 24 34 25 35
REMARK SMILES IDX 26 36 27 38 28 39 29 40 30 41 31 42 32 43 33 44 34 45 40 50
REMARK SMILES IDX 41 51 42 52 43 53 44 54
REMARK H PARENT 6 16 16 27 10 29 26 37 33 46 33 47 34 48 34 49 44 55
ROOT
ATOM      1  N   UNL     1       9.608  -7.184  -1.943  1.00  0.00    -0.326 N 
ATOM      2  C   UNL     1       9.016  -5.992  -3.886  1.00  0.00     0.014 C 
ATOM      3  C   UNL     1       8.991  -7.389  -3.257  1.00  0.00     0.091 C 
ATOM      4  C   UNL     1      10.312  -5.406  -3.347  1.00  0.00     0.041 C 
ATOM      5  C   UNL     1      10.210  -5.830  -1.870  1.00  0.00     0.175 C 
ATOM      6  C   UNL     1       7.559  -7.917  -3.311  1.00  0.00     0.059 C 
ATOM      7  C   UNL     1       8.801  -6.068  -5.384  1.00  0.00     0.008 C 
ATOM      8  C   UNL     1       6.757  -7.417  -4.532  1.00  0.00     0.143 C 
ATOM      9  C   UNL     1       7.673  -7.066  -5.722  1.00  0.00     0.034 C 
ENDROOT
BRANCH   1  10
ATOM     10  C   UNL     1       9.873  -8.096  -0.936  1.00  0.00     0.246 C 
ATOM     11  O   UNL     1       8.943  -8.496  -0.228  1.00  0.00    -0.272 OA
BRANCH  10  12
ATOM     12  C   UNL     1      11.323  -8.627  -0.744  1.00  0.00     0.174 C 
BRANCH  12  13
ATOM     13  N   UNL     1      12.210  -7.530  -0.362  1.00  0.00    -0.342 N 
ATOM     14  C   UNL     1      12.436  -7.109   0.929  1.00  0.00     0.249 C 
ATOM     15  O   UNL     1      11.932  -7.633   1.915  1.00  0.00    -0.272 OA
ATOM     16  H   UNL     1      12.574  -6.903  -1.076  1.00  0.00     0.164 HD
BRANCH  14  17
ATOM     17  C   UNL     1      13.411  -5.915   1.005  1.00  0.00     0.207 C 
BRANCH  17  18
ATOM     18  C   UNL     1      14.346  -5.909  -0.208  1.00  0.00     0.077 C 
BRANCH  18  19
ATOM     19  C   UNL     1      13.892  -4.926  -1.263  1.00  0.00    -0.043 A 
ATOM     20  C   UNL     1      13.807  -4.221  -3.583  1.00  0.00     0.083 A 
ATOM     21  C   UNL     1      14.184  -5.155  -2.617  1.00  0.00     0.028 A 
ATOM     22  C   UNL     1      13.139  -3.056  -3.204  1.00  0.00     0.134 A 
ATOM     23  C   UNL     1      12.843  -2.817  -1.868  1.00  0.00     0.048 A 
ATOM     24  C   UNL     1      13.221  -3.749  -0.898  1.00  0.00     0.008 A 
ATOM     25  Cl  UNL     1      14.175  -4.520  -5.241  1.00  0.00    -0.080 Cl
BRANCH  22  26
ATOM     26  O   UNL     1      12.758  -2.107  -4.114  1.00  0.00    -0.506 OA
ATOM     27  H   UNL     1      13.411  -2.135  -4.838  1.00  0.00     0.293 HD
ENDBRANCH  22  26
ENDBRANCH  18  19
ENDBRANCH  17  18
BRANCH  17  28
ATOM     28  O   UNL     1      14.193  -5.961   2.210  1.00  0.00    -0.383 OA
ATOM     29  H   UNL     1      14.589  -5.066   2.311  1.00  0.00     0.211 HD
ENDBRANCH  17  28
ENDBRANCH  14  17
ENDBRANCH  12  13
BRANCH  12  30
ATOM     30  C   UNL     1      11.844  -9.407  -1.982  1.00  0.00     0.018 C 
ATOM     31  C   UNL     1      12.317 -10.813  -1.582  1.00  0.00     0.010 C 
BRANCH  30  32
ATOM     32  C   UNL     1      12.964  -8.669  -2.755  1.00  0.00     0.002 C 
ATOM     33  C   UNL     1      12.587  -8.194  -4.152  1.00  0.00     0.004 C 
ENDBRANCH  30  32
ENDBRANCH  12  30
ENDBRANCH  10  12
ENDBRANCH   1  10
BRANCH   5  34
ATOM     34  C   UNL     1       9.302  -4.867  -1.060  1.00  0.00     0.242 C 
ATOM     35  O   UNL     1       9.477  -3.649  -1.052  1.00  0.00    -0.273 OA
ATOM     36  N   UNL     1       8.322  -5.478  -0.311  1.00  0.00    -0.354 N 
ATOM     37  H   UNL     1       8.302  -6.498  -0.264  1.00  0.00     0.163 HD
BRANCH  36  38
ATOM     38  C   UNL     1       7.259  -4.731   0.329  1.00  0.00     0.116 C 
BRANCH  38  39
ATOM     39  C   UNL     1       7.327  -4.924   1.842  1.00  0.00     0.023 C 
BRANCH  39  40
ATOM     40  C   UNL     1       7.173  -6.385   2.251  1.00  0.00     0.026 C 
BRANCH  40  41
ATOM     41  C   UNL     1       8.488  -6.937   2.800  1.00  0.00     0.146 C 
BRANCH  41  42
ATOM     42  N   UNL     1       8.222  -8.092   3.648  1.00  0.00    -0.254 NA
ATOM     43  C   UNL     1       8.895  -9.168   3.480  1.00  0.00     0.185 C 
ATOM     44  N   UNL     1       9.874  -9.449   2.601  1.00  0.00    -0.370 N 
ATOM     45  N   UNL     1       8.631 -10.223   4.268  1.00  0.00    -0.370 N 
ATOM     46  H   UNL     1      10.142 -10.401   2.418  1.00  0.00     0.159 HD
ATOM     47  H   UNL     1      10.209  -8.757   1.937  1.00  0.00     0.159 HD
ATOM     48  H   UNL     1       7.911 -10.093   4.966  1.00  0.00     0.159 HD
ATOM     49  H   UNL     1       9.258 -11.002   4.362  1.00  0.00     0.159 HD
ENDBRANCH  41  42
ENDBRANCH  40  41
ENDBRANCH  39  40
ENDBRANCH  38  39
ENDBRANCH  36  38
ENDBRANCH   5  34
BRANCH   8  50
ATOM     50  O   UNL     1       6.005  -6.255  -4.182  1.00  0.00    -0.245 OA
BRANCH  50  51
ATOM     51  S   UNL     1       4.403  -6.220  -4.466  1.00  0.00     0.397 S 
ATOM     52  O   UNL     1       3.724  -6.204  -3.190  1.00  0.00    -0.169 OA
ATOM     53  O   UNL     1       4.070  -7.186  -5.492  1.00  0.00    -0.169 OA
BRANCH  51  54
ATOM     54  O   UNL     1       4.204  -4.750  -5.086  1.00  0.00    -0.264 OA
ATOM     55  H   UNL     1       4.406  -4.099  -4.383  1.00  0.00     0.236 HD
ENDBRANCH  51  54
ENDBRANCH  50  51
ENDBRANCH   8  50
TORSDOF 19
ENDMDL
MODEL 50
REMARK VINA RESULT:    -4.930      5.130      8.927
REMARK INTER + INTRA:         -14.959
REMARK INTER:                 -11.496
REMARK INTRA:                  -3.464
REMARK UNBOUND:                -4.985
REMARK SMILES CC[C@@H](C)[C@@H](NC(=O)[C@@H](O)Cc1ccc(O)c(Cl)c1)C(=O)N1[C@H](C(=O)NCCCCN=C(N)N)C[C@H]2CC[C@H](OS(=O)(=O)O)C[C@@H]21
REMARK SMILES IDX 22 1 36 2 46 3 35 4 23 5 45 6 37 7 39 8 38 9 20 10 21 11
REMARK SMILES IDX 5 12 6 13 7 14 8 15 9 17 11 18 12 19 17 20 19 21 15 22 14 23
REMARK SMILES IDX 13 24 18 25 16 26 10 28 3 30 4 31 2 32 1 33 24 34 25 35
REMARK SMILES IDX 26 36 27 38 28 39 29 40 30 41 31 42 32 43 33 44 34 45 40 50
REMARK SMILES IDX 41 51 42 52 43 53 44 54
REMARK H PARENT 6 16 16 27 10 29 26 37 33 46 33 47 34 48 34 49 44 55
ROOT
ATOM      1  N   UNL     1       4.480  -3.378   2.677  1.00  0.00    -0.326 N 
ATOM      2  C   UNL     1       2.498  -2.223   3.206  1.00  0.00     0.014 C 
ATOM      3  C   UNL     1       3.767  -2.816   3.827  1.00  0.00     0.091 C 
ATOM      4  C   UNL     1       2.192  -3.196   2.077  1.00  0.00     0.041 C 
ATOM      5  C   UNL     1       3.601  -3.374   1.481  1.00  0.00     0.175 C 
ATOM      6  C   UNL     1       4.458  -1.727   4.646  1.00  0.00     0.059 C 
ATOM      7  C   UNL     1       1.447  -1.961   4.266  1.00  0.00     0.008 C 
ATOM      8  C   UNL     1       3.481  -0.713   5.280  1.00  0.00     0.143 C 
ATOM      9  C   UNL     1       2.086  -1.324   5.519  1.00  0.00     0.034 C 
ENDROOT
BRANCH   1  10
ATOM     10  C   UNL     1       5.684  -4.060   2.626  1.00  0.00     0.246 C 
ATOM     11  O   UNL     1       5.995  -4.802   3.564  1.00  0.00    -0.272 OA
BRANCH  10  12
ATOM     12  C   UNL     1       6.597  -3.912   1.374  1.00  0.00     0.174 C 
BRANCH  12  13
ATOM     13  N   UNL     1       6.899  -5.231   0.818  1.00  0.00    -0.342 N 
ATOM     14  C   UNL     1       6.251  -5.804  -0.253  1.00  0.00     0.249 C 
ATOM     15  O   UNL     1       5.358  -5.252  -0.884  1.00  0.00    -0.272 OA
ATOM     16  H   UNL     1       7.504  -5.867   1.330  1.00  0.00     0.164 HD
BRANCH  14  17
ATOM     17  C   UNL     1       6.786  -7.212  -0.590  1.00  0.00     0.207 C 
BRANCH  17  18
ATOM     18  C   UNL     1       8.275  -7.148  -0.945  1.00  0.00     0.077 C 
BRANCH  18  19
ATOM     19  C   UNL     1       9.143  -7.682   0.172  1.00  0.00    -0.043 A 
ATOM     20  C   UNL     1      11.126  -7.514   1.558  1.00  0.00     0.083 A 
ATOM     21  C   UNL     1      10.301  -6.992   0.561  1.00  0.00     0.028 A 
ATOM     22  C   UNL     1      10.802  -8.725   2.170  1.00  0.00     0.134 A 
ATOM     23  C   UNL     1       9.657  -9.419   1.794  1.00  0.00     0.048 A 
ATOM     24  C   UNL     1       8.831  -8.900   0.795  1.00  0.00     0.008 A 
ATOM     25  Cl  UNL     1      12.545  -6.651   2.023  1.00  0.00    -0.080 Cl
BRANCH  22  26
ATOM     26  O   UNL     1      11.585  -9.282   3.145  1.00  0.00    -0.506 OA
ATOM     27  H   UNL     1      12.174  -8.575   3.468  1.00  0.00     0.293 HD
ENDBRANCH  22  26
ENDBRANCH  18  19
ENDBRANCH  17  18
BRANCH  17  28
ATOM     28  O   UNL     1       6.060  -7.793  -1.684  1.00  0.00    -0.383 OA
ATOM     29  H   UNL     1       6.189  -7.188  -2.449  1.00  0.00     0.211 HD
ENDBRANCH  17  28
ENDBRANCH  14  17
ENDBRANCH  12  13
BRANCH  12  30
ATOM     30  C   UNL     1       7.878  -3.083   1.661  1.00  0.00     0.018 C 
ATOM     31  C   UNL     1       9.078  -4.006   1.927  1.00  0.00     0.010 C 
BRANCH  30  32
ATOM     32  C   UNL     1       7.717  -2.072   2.821  1.00  0.00     0.002 C 
ATOM     33  C   UNL     1       7.370  -0.649   2.402  1.00  0.00     0.004 C 
ENDBRANCH  30  32
ENDBRANCH  12  30
ENDBRANCH  10  12
ENDBRANCH   1  10
BRANCH   5  34
ATOM     34  C   UNL     1       3.972  -2.205   0.530  1.00  0.00     0.242 C 
ATOM     35  O   UNL     1       4.255  -1.082   0.947  1.00  0.00    -0.273 OA
ATOM     36  N   UNL     1       3.908  -2.500  -0.813  1.00  0.00    -0.354 N 
ATOM     37  H   UNL     1       3.551  -3.413  -1.099  1.00  0.00     0.163 HD
BRANCH  36  38
ATOM     38  C   UNL     1       4.424  -1.604  -1.827  1.00  0.00     0.116 C 
BRANCH  38  39
ATOM     39  C   UNL     1       5.285  -2.384  -2.819  1.00  0.00     0.023 C 
BRANCH  39  40
ATOM     40  C   UNL     1       4.745  -2.309  -4.243  1.00  0.00     0.026 C 
BRANCH  40  41
ATOM     41  C   UNL     1       4.447  -3.708  -4.783  1.00  0.00     0.146 C 
BRANCH  41  42
ATOM     42  N   UNL     1       4.034  -4.580  -3.692  1.00  0.00    -0.254 NA
ATOM     43  C   UNL     1       3.977  -5.845  -3.879  1.00  0.00     0.185 C 
ATOM     44  N   UNL     1       4.250  -6.570  -4.979  1.00  0.00    -0.370 N 
ATOM     45  N   UNL     1       3.590  -6.632  -2.861  1.00  0.00    -0.370 N 
ATOM     46  H   UNL     1       3.930  -7.521  -5.059  1.00  0.00     0.159 HD
ATOM     47  H   UNL     1       4.570  -6.135  -5.839  1.00  0.00     0.159 HD
ATOM     48  H   UNL     1       3.374  -6.165  -1.991  1.00  0.00     0.159 HD
ATOM     49  H   UNL     1       3.745  -7.624  -2.851  1.00  0.00     0.159 HD
ENDBRANCH  41  42
ENDBRANCH  40  41
ENDBRANCH  39  40
ENDBRANCH  38  39
ENDBRANCH  36  38
ENDBRANCH   5  34
BRANCH   8  50
ATOM     50  O   UNL     1       3.338   0.426   4.431  1.00  0.00    -0.245 OA
BRANCH  50  51
ATOM     51  S   UNL     1       3.079   1.891   5.090  1.00  0.00     0.397 S 
ATOM     52  O   UNL     1       3.644   1.889   6.420  1.00  0.00    -0.169 OA
ATOM     53  O   UNL     1       1.710   2.298   4.847  1.00  0.00    -0.169 OA
BRANCH  51  54
ATOM     54  O   UNL     1       4.039   2.831   4.207  1.00  0.00    -0.264 OA
ATOM     55  H   UNL     1       3.509   3.185   3.464  1.00  0.00     0.236 HD
ENDBRANCH  51  54
ENDBRANCH  50  51
ENDBRANCH   8  50
TORSDOF 19
ENDMDL
