MODEL 1
REMARK VINA RESULT:    -5.377      0.000      0.000
REMARK INTER + INTRA:         -10.370
REMARK INTER:                  -9.148
REMARK INTRA:                  -1.222
REMARK UNBOUND:                -1.222
REMARK SMILES CC[C@H](C)[C@@H]1NC(=O)[C@H]2CSC(=N2)[C@@H]([C@@H](C)CC)NC(=O)c2csc(n2)CNC(=O)[C@H]2N=C1O[C@@H]2C
REMARK SMILES IDX 27 1 25 2 22 3 26 4 23 5 24 6 20 7 19 8 21 9 14 11 12 12
REMARK SMILES IDX 11 13 10 14 13 15 9 16 15 18 16 19 17 20 18 21 28 22 29 23
REMARK SMILES IDX 30 24 31 26 32 27 35 28 33 29 34 30 36 31 5 32 6 33 7 34
REMARK SMILES IDX 8 35 3 38 4 39 2 40 1 41
REMARK H PARENT 19 10 28 25 6 36
REMARK Flexibility Score:   91.900
ROOT
ATOM      1  C   UNL     1      -8.976  -6.327   7.818  1.00  0.00     0.183 C 
ENDROOT
BRANCH   1   2
ATOM      2  C   UNL     1      -9.097  -7.006   6.484  1.00  0.00     0.113 A 
ATOM      3  C   UNL     1      -8.529  -7.734   4.456  1.00  0.00     0.139 A 
ATOM      4  N   UNL     1      -8.083  -7.177   5.656  1.00  0.00    -0.234 NA
ATOM      5  C   UNL     1      -9.878  -8.028   4.428  1.00  0.00     0.101 A 
ATOM      6  S   UNL     1     -10.611  -7.580   5.915  1.00  0.00    -0.125 S 
BRANCH   3   7
ATOM      7  C   UNL     1      -7.595  -7.924   3.344  1.00  0.00     0.271 C 
ATOM      8  N   UNL     1      -7.442  -6.774   2.609  1.00  0.00    -0.341 N 
ATOM      9  O   UNL     1      -7.049  -8.990   3.088  1.00  0.00    -0.267 OA
ATOM     10  H   UNL     1      -7.944  -5.958   2.959  1.00  0.00     0.164 HD
BRANCH   8  11
ATOM     11  C   UNL     1      -6.730  -6.701   1.344  1.00  0.00     0.140 C 
BRANCH  11  12
ATOM     12  C   UNL     1      -5.236  -6.861   1.636  1.00  0.00     0.091 C 
ATOM     13  S   UNL     1      -4.396  -8.328   1.188  1.00  0.00    -0.106 SA
ATOM     14  C   UNL     1      -2.808  -7.535   1.522  1.00  0.00     0.113 C 
ATOM     15  N   UNL     1      -4.562  -5.962   2.282  1.00  0.00    -0.267 NA
ATOM     16  C   UNL     1      -3.161  -6.436   2.512  1.00  0.00     0.205 CG0
ATOM     17  G   UNL     1      -2.978  -6.927   3.958  1.00  0.00     0.000 G0
ENDBRANCH  11  12
BRANCH  11  18
ATOM     18  C   UNL     1      -7.318  -7.614   0.237  1.00  0.00     0.015 C 
ATOM     19  C   UNL     1      -8.851  -7.582   0.275  1.00  0.00     0.010 C 
BRANCH  18  20
ATOM     20  C   UNL     1      -6.783  -7.331  -1.182  1.00  0.00     0.002 C 
ATOM     21  C   UNL     1      -6.443  -5.862  -1.408  1.00  0.00     0.004 C 
ENDBRANCH  18  20
ENDBRANCH  11  18
ENDBRANCH   8  11
ENDBRANCH   3   7
ENDBRANCH   1   2
BRANCH   1  22
ATOM     22  N   UNL     1      -7.723  -5.604   7.823  1.00  0.00    -0.348 N 
ATOM     23  C   UNL     1      -6.682  -5.856   8.675  1.00  0.00     0.249 C 
ATOM     24  O   UNL     1      -6.675  -6.787   9.472  1.00  0.00    -0.272 OA
ATOM     25  H   UNL     1      -7.629  -4.793   7.213  1.00  0.00     0.163 HD
BRANCH  23  26
ATOM     26  C   UNL     1      -5.506  -4.887   8.479  1.00  0.00     0.238 C 
ATOM     27  N   UNL     1      -4.249  -5.668   8.310  1.00  0.00    -0.236 NA
ATOM     28  C   UNL     1      -5.649  -4.068   7.208  1.00  0.00     0.206 C 
ATOM     29  C   UNL     1      -3.938  -5.467   7.064  1.00  0.00     0.208 C 
ATOM     30  O   UNL     1      -4.727  -4.670   6.301  1.00  0.00    -0.474 OA
ATOM     31  C   UNL     1      -5.256  -2.610   7.405  1.00  0.00     0.056 C 
BRANCH  29  32
ATOM     32  C   UNL     1      -2.767  -6.091   6.312  1.00  0.00     0.171 C 
BRANCH  32  33
ATOM     33  N   UNL     1      -2.893  -5.873   4.879  1.00  0.00    -0.342 N 
ATOM     34  C   UNL     1      -2.963  -6.906   3.976  1.00  0.00     0.246 CG0
ATOM     35  O   UNL     1      -2.897  -8.089   4.303  1.00  0.00    -0.273 OA
ATOM     36  H   UNL     1      -2.898  -4.936   4.490  1.00  0.00     0.164 HD
ATOM     37  G   UNL     1      -3.154  -6.464   2.516  1.00  0.00     0.000 G0
ENDBRANCH  32  33
BRANCH  32  38
ATOM     38  C   UNL     1      -1.419  -5.569   6.876  1.00  0.00     0.017 C 
ATOM     39  C   UNL     1      -0.274  -6.497   6.450  1.00  0.00     0.010 C 
BRANCH  38  40
ATOM     40  C   UNL     1      -1.134  -4.099   6.490  1.00  0.00     0.002 C 
ATOM     41  C   UNL     1      -1.088  -3.154   7.684  1.00  0.00     0.004 C 
ENDBRANCH  38  40
ENDBRANCH  32  38
ENDBRANCH  29  32
ENDBRANCH  23  26
ENDBRANCH   1  22
TORSDOF 4
ENDMDL
MODEL 2
REMARK VINA RESULT:    -4.949      3.417      7.651
REMARK INTER + INTRA:          -9.642
REMARK INTER:                  -8.474
REMARK INTRA:                  -1.168
REMARK UNBOUND:                -1.222
REMARK SMILES CC[C@H](C)[C@@H]1NC(=O)[C@H]2CSC(=N2)[C@@H]([C@@H](C)CC)NC(=O)c2csc(n2)CNC(=O)[C@H]2N=C1O[C@@H]2C
REMARK SMILES IDX 27 1 25 2 22 3 26 4 23 5 24 6 20 7 19 8 21 9 14 11 12 12
REMARK SMILES IDX 11 13 10 14 13 15 9 16 15 18 16 19 17 20 18 21 28 22 29 23
REMARK SMILES IDX 30 24 31 26 32 27 35 28 33 29 34 30 36 31 5 32 6 33 7 34
REMARK SMILES IDX 8 35 3 38 4 39 2 40 1 41
REMARK H PARENT 19 10 28 25 6 36
REMARK Flexibility Score:   91.900
ROOT
ATOM      1  C   UNL     1      -6.086  -5.339   6.814  1.00  0.00     0.183 C 
ENDROOT
BRANCH   1   2
ATOM      2  C   UNL     1      -4.877  -4.869   7.571  1.00  0.00     0.113 A 
ATOM      3  C   UNL     1      -2.957  -4.961   8.698  1.00  0.00     0.139 A 
ATOM      4  N   UNL     1      -3.872  -5.657   7.906  1.00  0.00    -0.234 NA
ATOM      5  C   UNL     1      -3.268  -3.630   8.896  1.00  0.00     0.101 A 
ATOM      6  S   UNL     1      -4.740  -3.242   8.102  1.00  0.00    -0.125 S 
BRANCH   3   7
ATOM      7  C   UNL     1      -1.806  -5.659   9.274  1.00  0.00     0.271 C 
ATOM      8  N   UNL     1      -0.655  -5.405   8.570  1.00  0.00    -0.341 N 
ATOM      9  O   UNL     1      -1.878  -6.404  10.244  1.00  0.00    -0.267 OA
ATOM     10  H   UNL     1      -0.748  -4.745   7.799  1.00  0.00     0.164 HD
BRANCH   8  11
ATOM     11  C   UNL     1       0.605  -6.097   8.785  1.00  0.00     0.140 C 
BRANCH  11  12
ATOM     12  C   UNL     1       0.988  -6.793   7.476  1.00  0.00     0.091 C 
ATOM     13  S   UNL     1       2.632  -6.728   6.885  1.00  0.00    -0.106 SA
ATOM     14  C   UNL     1       2.256  -8.000   5.661  1.00  0.00     0.113 C 
ATOM     15  N   UNL     1       0.109  -7.384   6.730  1.00  0.00    -0.267 NA
ATOM     16  C   UNL     1       0.752  -7.876   5.470  1.00  0.00     0.205 CG0
ATOM     17  G   UNL     1       0.428  -6.946   4.290  1.00  0.00     0.000 G0
ENDBRANCH  11  12
BRANCH  11  18
ATOM     18  C   UNL     1       1.700  -5.222   9.447  1.00  0.00     0.015 C 
ATOM     19  C   UNL     1       1.710  -3.818   8.826  1.00  0.00     0.010 C 
BRANCH  18  20
ATOM     20  C   UNL     1       1.630  -5.157  10.986  1.00  0.00     0.002 C 
ATOM     21  C   UNL     1       1.559  -6.533  11.638  1.00  0.00     0.004 C 
ENDBRANCH  18  20
ENDBRANCH  11  18
ENDBRANCH   8  11
ENDBRANCH   3   7
ENDBRANCH   1   2
BRANCH   1  22
ATOM     22  N   UNL     1      -5.664  -5.628   5.461  1.00  0.00    -0.348 N 
ATOM     23  C   UNL     1      -5.244  -4.690   4.558  1.00  0.00     0.249 C 
ATOM     24  O   UNL     1      -5.101  -3.505   4.838  1.00  0.00    -0.272 OA
ATOM     25  H   UNL     1      -5.764  -6.582   5.117  1.00  0.00     0.163 HD
BRANCH  23  26
ATOM     26  C   UNL     1      -4.914  -5.292   3.184  1.00  0.00     0.238 C 
ATOM     27  N   UNL     1      -3.509  -4.954   2.824  1.00  0.00    -0.236 NA
ATOM     28  C   UNL     1      -4.977  -6.810   3.198  1.00  0.00     0.206 C 
ATOM     29  C   UNL     1      -2.902  -6.102   2.887  1.00  0.00     0.208 C 
ATOM     30  O   UNL     1      -3.608  -7.213   3.209  1.00  0.00    -0.474 OA
ATOM     31  C   UNL     1      -5.642  -7.379   1.952  1.00  0.00     0.056 C 
BRANCH  29  32
ATOM     32  C   UNL     1      -1.409  -6.347   2.683  1.00  0.00     0.171 C 
BRANCH  32  33
ATOM     33  N   UNL     1      -0.862  -7.149   3.766  1.00  0.00    -0.342 N 
ATOM     34  C   UNL     1       0.398  -6.944   4.276  1.00  0.00     0.246 CG0
ATOM     35  O   UNL     1       1.165  -6.089   3.842  1.00  0.00    -0.273 OA
ATOM     36  H   UNL     1      -1.385  -7.922   4.162  1.00  0.00     0.164 HD
ATOM     37  G   UNL     1       0.764  -7.858   5.457  1.00  0.00     0.000 G0
ENDBRANCH  32  33
BRANCH  32  38
ATOM     38  C   UNL     1      -1.149  -6.975   1.288  1.00  0.00     0.017 C 
ATOM     39  C   UNL     1      -2.378  -6.790   0.389  1.00  0.00     0.010 C 
BRANCH  38  40
ATOM     40  C   UNL     1       0.135  -6.436   0.615  1.00  0.00     0.002 C 
ATOM     41  C   UNL     1       1.328  -7.375   0.740  1.00  0.00     0.004 C 
ENDBRANCH  38  40
ENDBRANCH  32  38
ENDBRANCH  29  32
ENDBRANCH  23  26
ENDBRANCH   1  22
TORSDOF 4
ENDMDL
MODEL 3
REMARK VINA RESULT:    -4.445      4.457      8.573
REMARK INTER + INTRA:          -8.784
REMARK INTER:                  -7.031
REMARK INTRA:                  -1.753
REMARK UNBOUND:                -1.222
REMARK SMILES CC[C@H](C)[C@@H]1NC(=O)[C@H]2CSC(=N2)[C@@H]([C@@H](C)CC)NC(=O)c2csc(n2)CNC(=O)[C@H]2N=C1O[C@@H]2C
REMARK SMILES IDX 27 1 25 2 22 3 26 4 23 5 24 6 20 7 19 8 21 9 14 11 12 12
REMARK SMILES IDX 11 13 10 14 13 15 9 16 15 18 16 19 17 20 18 21 28 22 29 23
REMARK SMILES IDX 30 24 31 26 32 27 35 28 33 29 34 30 36 31 5 32 6 33 7 34
REMARK SMILES IDX 8 35 3 38 4 39 2 40 1 41
REMARK H PARENT 19 10 28 25 6 36
REMARK Flexibility Score:   91.900
ROOT
ATOM      1  C   UNL     1      -5.160  -5.793   5.532  1.00  0.00     0.183 C 
ENDROOT
BRANCH   1   2
ATOM      2  C   UNL     1      -5.188  -4.770   6.632  1.00  0.00     0.113 A 
ATOM      3  C   UNL     1      -5.109  -3.919   8.690  1.00  0.00     0.139 A 
ATOM      4  N   UNL     1      -4.878  -5.038   7.887  1.00  0.00    -0.234 NA
ATOM      5  C   UNL     1      -5.538  -2.801   8.002  1.00  0.00     0.101 A 
ATOM      6  S   UNL     1      -5.682  -3.154   6.329  1.00  0.00    -0.125 S 
BRANCH   3   7
ATOM      7  C   UNL     1      -4.930  -4.008  10.141  1.00  0.00     0.271 C 
ATOM      8  N   UNL     1      -3.819  -3.318  10.557  1.00  0.00    -0.341 N 
ATOM      9  O   UNL     1      -5.667  -4.650  10.879  1.00  0.00    -0.267 OA
ATOM     10  H   UNL     1      -3.316  -2.811   9.829  1.00  0.00     0.164 HD
BRANCH   8  11
ATOM     11  C   UNL     1      -3.279  -3.375  11.906  1.00  0.00     0.140 C 
BRANCH  11  12
ATOM     12  C   UNL     1      -1.838  -3.886  11.814  1.00  0.00     0.091 C 
ATOM     13  S   UNL     1      -0.525  -2.969  12.514  1.00  0.00    -0.106 SA
ATOM     14  C   UNL     1       0.590  -4.371  12.289  1.00  0.00     0.113 C 
ATOM     15  N   UNL     1      -1.532  -4.962  11.160  1.00  0.00    -0.267 NA
ATOM     16  C   UNL     1      -0.047  -5.153  11.152  1.00  0.00     0.205 CG0
ATOM     17  G   UNL     1       0.553  -4.733   9.800  1.00  0.00     0.000 G0
ENDBRANCH  11  12
BRANCH  11  18
ATOM     18  C   UNL     1      -3.500  -2.080  12.728  1.00  0.00     0.015 C 
ATOM     19  C   UNL     1      -4.336  -1.073  11.927  1.00  0.00     0.010 C 
BRANCH  18  20
ATOM     20  C   UNL     1      -4.084  -2.303  14.138  1.00  0.00     0.002 C 
ATOM     21  C   UNL     1      -5.608  -2.325  14.154  1.00  0.00     0.004 C 
ENDBRANCH  18  20
ENDBRANCH  11  18
ENDBRANCH   8  11
ENDBRANCH   3   7
ENDBRANCH   1   2
BRANCH   1  22
ATOM     22  N   UNL     1      -3.814  -6.316   5.462  1.00  0.00    -0.348 N 
ATOM     23  C   UNL     1      -2.794  -5.750   4.746  1.00  0.00     0.249 C 
ATOM     24  O   UNL     1      -2.901  -4.682   4.154  1.00  0.00    -0.272 OA
ATOM     25  H   UNL     1      -3.620  -7.214   5.902  1.00  0.00     0.163 HD
BRANCH  23  26
ATOM     26  C   UNL     1      -1.493  -6.564   4.818  1.00  0.00     0.238 C 
ATOM     27  N   UNL     1      -0.385  -5.679   5.274  1.00  0.00    -0.236 NA
ATOM     28  C   UNL     1      -1.575  -7.677   5.849  1.00  0.00     0.206 C 
ATOM     29  C   UNL     1      -0.115  -6.129   6.463  1.00  0.00     0.208 C 
ATOM     30  O   UNL     1      -0.809  -7.188   6.948  1.00  0.00    -0.474 OA
ATOM     31  C   UNL     1      -0.948  -8.975   5.358  1.00  0.00     0.056 C 
BRANCH  29  32
ATOM     32  C   UNL     1       0.902  -5.548   7.441  1.00  0.00     0.171 C 
BRANCH  32  33
ATOM     33  N   UNL     1       0.476  -5.752   8.816  1.00  0.00    -0.342 N 
ATOM     34  C   UNL     1       0.532  -4.758   9.764  1.00  0.00     0.246 CG0
ATOM     35  O   UNL     1       0.968  -3.633   9.532  1.00  0.00    -0.273 OA
ATOM     36  H   UNL     1       0.153  -6.658   9.136  1.00  0.00     0.164 HD
ATOM     37  G   UNL     1      -0.021  -5.160  11.142  1.00  0.00     0.000 G0
ENDBRANCH  32  33
BRANCH  32  38
ATOM     38  C   UNL     1       2.314  -6.128   7.164  1.00  0.00     0.017 C 
ATOM     39  C   UNL     1       3.388  -5.199   7.744  1.00  0.00     0.010 C 
BRANCH  38  40
ATOM     40  C   UNL     1       2.480  -7.578   7.672  1.00  0.00     0.002 C 
ATOM     41  C   UNL     1       2.607  -8.605   6.555  1.00  0.00     0.004 C 
ENDBRANCH  38  40
ENDBRANCH  32  38
ENDBRANCH  29  32
ENDBRANCH  23  26
ENDBRANCH   1  22
TORSDOF 4
ENDMDL
MODEL 4
REMARK VINA RESULT:    -4.152      8.824     11.847
REMARK INTER + INTRA:          -8.286
REMARK INTER:                  -6.739
REMARK INTRA:                  -1.546
REMARK UNBOUND:                -1.222
REMARK SMILES CC[C@H](C)[C@@H]1NC(=O)[C@H]2CSC(=N2)[C@@H]([C@@H](C)CC)NC(=O)c2csc(n2)CNC(=O)[C@H]2N=C1O[C@@H]2C
REMARK SMILES IDX 27 1 25 2 22 3 26 4 23 5 24 6 20 7 19 8 21 9 14 11 12 12
REMARK SMILES IDX 11 13 10 14 13 15 9 16 15 18 16 19 17 20 18 21 28 22 29 23
REMARK SMILES IDX 30 24 31 26 32 27 35 28 33 29 34 30 36 31 5 32 6 33 7 34
REMARK SMILES IDX 8 35 3 38 4 39 2 40 1 41
REMARK H PARENT 19 10 28 25 6 36
REMARK Flexibility Score:   91.900
ROOT
ATOM      1  C   UNL     1      -4.806   2.430   8.417  1.00  0.00     0.183 C 
ENDROOT
BRANCH   1   2
ATOM      2  C   UNL     1      -3.767   1.349   8.324  1.00  0.00     0.113 A 
ATOM      3  C   UNL     1      -2.067   0.154   7.519  1.00  0.00     0.139 A 
ATOM      4  N   UNL     1      -2.801   1.339   7.425  1.00  0.00    -0.234 NA
ATOM      5  C   UNL     1      -2.468  -0.687   8.538  1.00  0.00     0.101 A 
ATOM      6  S   UNL     1      -3.797  -0.003   9.381  1.00  0.00    -0.125 S 
BRANCH   3   7
ATOM      7  C   UNL     1      -1.002  -0.126   6.554  1.00  0.00     0.271 C 
ATOM      8  N   UNL     1      -0.159   0.947   6.405  1.00  0.00    -0.341 N 
ATOM      9  O   UNL     1      -0.904  -1.179   5.936  1.00  0.00    -0.267 OA
ATOM     10  H   UNL     1      -0.354   1.747   7.006  1.00  0.00     0.164 HD
BRANCH   8  11
ATOM     11  C   UNL     1       0.876   1.038   5.388  1.00  0.00     0.140 C 
BRANCH  11  12
ATOM     12  C   UNL     1       1.241   2.516   5.221  1.00  0.00     0.091 C 
ATOM     13  S   UNL     1       1.861   3.436   6.572  1.00  0.00    -0.106 SA
ATOM     14  C   UNL     1       2.321   4.782   5.460  1.00  0.00     0.113 C 
ATOM     15  N   UNL     1       1.039   3.152   4.110  1.00  0.00    -0.267 NA
ATOM     16  C   UNL     1       1.388   4.598   4.274  1.00  0.00     0.205 CG0
ATOM     17  G   UNL     1       0.122   5.453   4.440  1.00  0.00     0.000 G0
ENDBRANCH  11  12
BRANCH  11  18
ATOM     18  C   UNL     1       2.057   0.057   5.601  1.00  0.00     0.015 C 
ATOM     19  C   UNL     1       3.203   0.381   4.634  1.00  0.00     0.010 C 
BRANCH  18  20
ATOM     20  C   UNL     1       2.559  -0.042   7.056  1.00  0.00     0.002 C 
ATOM     21  C   UNL     1       4.068  -0.240   7.153  1.00  0.00     0.004 C 
ENDBRANCH  18  20
ENDBRANCH  11  18
ENDBRANCH   8  11
ENDBRANCH   3   7
ENDBRANCH   1   2
BRANCH   1  22
ATOM     22  N   UNL     1      -4.931   3.024   7.104  1.00  0.00    -0.348 N 
ATOM     23  C   UNL     1      -4.312   4.178   6.709  1.00  0.00     0.249 C 
ATOM     24  O   UNL     1      -3.513   4.787   7.411  1.00  0.00    -0.272 OA
ATOM     25  H   UNL     1      -5.589   2.609   6.446  1.00  0.00     0.163 HD
BRANCH  23  26
ATOM     26  C   UNL     1      -4.680   4.590   5.276  1.00  0.00     0.238 C 
ATOM     27  N   UNL     1      -3.914   5.813   4.904  1.00  0.00    -0.236 NA
ATOM     28  C   UNL     1      -4.278   3.535   4.260  1.00  0.00     0.206 C 
ATOM     29  C   UNL     1      -3.081   5.380   4.005  1.00  0.00     0.208 C 
ATOM     30  O   UNL     1      -3.111   4.075   3.642  1.00  0.00    -0.474 OA
ATOM     31  C   UNL     1      -5.340   3.320   3.189  1.00  0.00     0.056 C 
BRANCH  29  32
ATOM     32  C   UNL     1      -1.990   6.195   3.317  1.00  0.00     0.171 C 
BRANCH  32  33
ATOM     33  N   UNL     1      -0.721   5.485   3.336  1.00  0.00    -0.342 N 
ATOM     34  C   UNL     1       0.107   5.475   4.433  1.00  0.00     0.246 CG0
ATOM     35  O   UNL     1      -0.147   6.083   5.470  1.00  0.00    -0.273 OA
ATOM     36  H   UNL     1      -0.382   4.995   2.515  1.00  0.00     0.164 HD
ATOM     37  G   UNL     1       1.372   4.616   4.269  1.00  0.00     0.000 G0
ENDBRANCH  32  33
BRANCH  32  38
ATOM     38  C   UNL     1      -2.429   6.589   1.883  1.00  0.00     0.017 C 
ATOM     39  C   UNL     1      -2.050   8.048   1.597  1.00  0.00     0.010 C 
BRANCH  38  40
ATOM     40  C   UNL     1      -1.876   5.635   0.799  1.00  0.00     0.002 C 
ATOM     41  C   UNL     1      -2.951   4.793   0.123  1.00  0.00     0.004 C 
ENDBRANCH  38  40
ENDBRANCH  32  38
ENDBRANCH  29  32
ENDBRANCH  23  26
ENDBRANCH   1  22
TORSDOF 4
ENDMDL
MODEL 5
REMARK VINA RESULT:    -4.043      1.865      2.447
REMARK INTER + INTRA:          -8.100
REMARK INTER:                  -7.190
REMARK INTRA:                  -0.910
REMARK UNBOUND:                -1.222
REMARK SMILES CC[C@H](C)[C@@H]1NC(=O)[C@H]2CSC(=N2)[C@@H]([C@@H](C)CC)NC(=O)c2csc(n2)CNC(=O)[C@H]2N=C1O[C@@H]2C
REMARK SMILES IDX 27 1 25 2 22 3 26 4 23 5 24 6 20 7 19 8 21 9 14 11 12 12
REMARK SMILES IDX 11 13 10 14 13 15 9 16 15 18 16 19 17 20 18 21 28 22 29 23
REMARK SMILES IDX 30 24 31 26 32 27 35 28 33 29 34 30 36 31 5 32 6 33 7 34
REMARK SMILES IDX 8 35 3 38 4 39 2 40 1 41
REMARK H PARENT 19 10 28 25 6 36
REMARK Flexibility Score:   91.900
ROOT
ATOM      1  C   UNL     1      -8.362  -6.538   6.874  1.00  0.00     0.183 C 
ENDROOT
BRANCH   1   2
ATOM      2  C   UNL     1      -7.976  -7.191   5.578  1.00  0.00     0.113 A 
ATOM      3  C   UNL     1      -6.874  -7.561   3.677  1.00  0.00     0.139 A 
ATOM      4  N   UNL     1      -6.901  -6.862   4.885  1.00  0.00    -0.234 NA
ATOM      5  C   UNL     1      -7.913  -8.456   3.510  1.00  0.00     0.101 A 
ATOM      6  S   UNL     1      -8.957  -8.410   4.872  1.00  0.00    -0.125 S 
BRANCH   3   7
ATOM      7  C   UNL     1      -5.824  -7.286   2.694  1.00  0.00     0.271 C 
ATOM      8  N   UNL     1      -5.303  -6.025   2.850  1.00  0.00    -0.341 N 
ATOM      9  O   UNL     1      -5.483  -8.076   1.823  1.00  0.00    -0.267 OA
ATOM     10  H   UNL     1      -5.671  -5.490   3.636  1.00  0.00     0.164 HD
BRANCH   8  11
ATOM     11  C   UNL     1      -4.383  -5.399   1.914  1.00  0.00     0.140 C 
BRANCH  11  12
ATOM     12  C   UNL     1      -2.964  -5.573   2.464  1.00  0.00     0.091 C 
ATOM     13  S   UNL     1      -2.233  -7.158   2.552  1.00  0.00    -0.106 SA
ATOM     14  C   UNL     1      -0.628  -6.413   2.905  1.00  0.00     0.113 C 
ATOM     15  N   UNL     1      -2.288  -4.578   2.947  1.00  0.00    -0.267 NA
ATOM     16  C   UNL     1      -0.987  -5.063   3.506  1.00  0.00     0.205 CG0
ATOM     17  G   UNL     1      -1.047  -5.148   5.040  1.00  0.00     0.000 G0
ENDBRANCH  11  12
BRANCH  11  18
ATOM     18  C   UNL     1      -4.605  -5.816   0.438  1.00  0.00     0.015 C 
ATOM     19  C   UNL     1      -5.771  -5.025  -0.171  1.00  0.00     0.010 C 
BRANCH  18  20
ATOM     20  C   UNL     1      -3.347  -5.739  -0.450  1.00  0.00     0.002 C 
ATOM     21  C   UNL     1      -3.659  -5.864  -1.937  1.00  0.00     0.004 C 
ENDBRANCH  18  20
ENDBRANCH  11  18
ENDBRANCH   8  11
ENDBRANCH   3   7
ENDBRANCH   1   2
BRANCH   1  22
ATOM     22  N   UNL     1      -7.433  -5.455   7.107  1.00  0.00    -0.348 N 
ATOM     23  C   UNL     1      -6.627  -5.342   8.207  1.00  0.00     0.249 C 
ATOM     24  O   UNL     1      -6.551  -6.204   9.076  1.00  0.00    -0.272 OA
ATOM     25  H   UNL     1      -7.429  -4.671   6.455  1.00  0.00     0.163 HD
BRANCH  23  26
ATOM     26  C   UNL     1      -5.788  -4.056   8.201  1.00  0.00     0.238 C 
ATOM     27  N   UNL     1      -4.368  -4.394   8.499  1.00  0.00    -0.236 NA
ATOM     28  C   UNL     1      -5.770  -3.394   6.834  1.00  0.00     0.206 C 
ATOM     29  C   UNL     1      -3.765  -4.167   7.370  1.00  0.00     0.208 C 
ATOM     30  O   UNL     1      -4.480  -3.710   6.313  1.00  0.00    -0.474 OA
ATOM     31  C   UNL     1      -5.904  -1.879   6.915  1.00  0.00     0.056 C 
BRANCH  29  32
ATOM     32  C   UNL     1      -2.290  -4.414   7.067  1.00  0.00     0.171 C 
BRANCH  32  33
ATOM     33  N   UNL     1      -2.048  -4.418   5.633  1.00  0.00    -0.342 N 
ATOM     34  C   UNL     1      -1.018  -5.123   5.057  1.00  0.00     0.246 CG0
ATOM     35  O   UNL     1      -0.210  -5.781   5.707  1.00  0.00    -0.273 OA
ATOM     36  H   UNL     1      -2.617  -3.862   5.003  1.00  0.00     0.164 HD
ATOM     37  G   UNL     1      -0.971  -5.043   3.522  1.00  0.00     0.000 G0
ENDBRANCH  32  33
BRANCH  32  38
ATOM     38  C   UNL     1      -1.402  -3.387   7.817  1.00  0.00     0.017 C 
ATOM     39  C   UNL     1      -1.785  -1.960   7.406  1.00  0.00     0.010 C 
BRANCH  38  40
ATOM     40  C   UNL     1      -1.439  -3.566   9.352  1.00  0.00     0.002 C 
ATOM     41  C   UNL     1      -0.393  -4.541   9.878  1.00  0.00     0.004 C 
ENDBRANCH  38  40
ENDBRANCH  32  38
ENDBRANCH  29  32
ENDBRANCH  23  26
ENDBRANCH   1  22
TORSDOF 4
ENDMDL
MODEL 6
REMARK VINA RESULT:    -4.026      6.926      9.996
REMARK INTER + INTRA:          -8.071
REMARK INTER:                  -6.123
REMARK INTRA:                  -1.948
REMARK UNBOUND:                -1.222
REMARK SMILES CC[C@H](C)[C@@H]1NC(=O)[C@H]2CSC(=N2)[C@@H]([C@@H](C)CC)NC(=O)c2csc(n2)CNC(=O)[C@H]2N=C1O[C@@H]2C
REMARK SMILES IDX 27 1 25 2 22 3 26 4 23 5 24 6 20 7 19 8 21 9 14 11 12 12
REMARK SMILES IDX 11 13 10 14 13 15 9 16 15 18 16 19 17 20 18 21 28 22 29 23
REMARK SMILES IDX 30 24 31 26 32 27 35 28 33 29 34 30 36 31 5 32 6 33 7 34
REMARK SMILES IDX 8 35 3 38 4 39 2 40 1 41
REMARK H PARENT 19 10 28 25 6 36
REMARK Flexibility Score:   91.900
ROOT
ATOM      1  C   UNL     1      -5.461  -0.491   8.126  1.00  0.00     0.183 C 
ENDROOT
BRANCH   1   2
ATOM      2  C   UNL     1      -4.406  -1.558   8.178  1.00  0.00     0.113 A 
ATOM      3  C   UNL     1      -2.416  -2.536   7.950  1.00  0.00     0.139 A 
ATOM      4  N   UNL     1      -3.127  -1.334   7.938  1.00  0.00    -0.234 NA
ATOM      5  C   UNL     1      -3.176  -3.646   8.260  1.00  0.00     0.101 A 
ATOM      6  S   UNL     1      -4.811  -3.191   8.517  1.00  0.00    -0.125 S 
BRANCH   3   7
ATOM      7  C   UNL     1      -0.992  -2.548   7.610  1.00  0.00     0.271 C 
ATOM      8  N   UNL     1      -0.482  -1.276   7.521  1.00  0.00    -0.341 N 
ATOM      9  O   UNL     1      -0.351  -3.570   7.400  1.00  0.00    -0.267 OA
ATOM     10  H   UNL     1      -1.131  -0.524   7.747  1.00  0.00     0.164 HD
BRANCH   8  11
ATOM     11  C   UNL     1       0.847  -0.962   7.021  1.00  0.00     0.140 C 
BRANCH  11  12
ATOM     12  C   UNL     1       0.683  -0.169   5.721  1.00  0.00     0.091 C 
ATOM     13  S   UNL     1       2.068   0.570   4.952  1.00  0.00    -0.106 SA
ATOM     14  C   UNL     1       1.088   0.897   3.471  1.00  0.00     0.113 C 
ATOM     15  N   UNL     1      -0.479   0.045   5.188  1.00  0.00    -0.267 NA
ATOM     16  C   UNL     1      -0.340   0.934   3.992  1.00  0.00     0.205 CG0
ATOM     17  G   UNL     1      -0.759   2.374   4.328  1.00  0.00     0.000 G0
ENDBRANCH  11  12
BRANCH  11  18
ATOM     18  C   UNL     1       1.793  -0.351   8.086  1.00  0.00     0.015 C 
ATOM     19  C   UNL     1       1.088   0.785   8.840  1.00  0.00     0.010 C 
BRANCH  18  20
ATOM     20  C   UNL     1       2.413  -1.374   9.059  1.00  0.00     0.002 C 
ATOM     21  C   UNL     1       3.348  -0.734  10.080  1.00  0.00     0.004 C 
ENDBRANCH  18  20
ENDBRANCH  11  18
ENDBRANCH   8  11
ENDBRANCH   3   7
ENDBRANCH   1   2
BRANCH   1  22
ATOM     22  N   UNL     1      -4.786   0.787   8.153  1.00  0.00    -0.348 N 
ATOM     23  C   UNL     1      -5.414   2.002   8.094  1.00  0.00     0.249 C 
ATOM     24  O   UNL     1      -6.633   2.129   8.098  1.00  0.00    -0.272 OA
ATOM     25  H   UNL     1      -3.767   0.798   8.127  1.00  0.00     0.163 HD
BRANCH  23  26
ATOM     26  C   UNL     1      -4.429   3.181   8.086  1.00  0.00     0.238 C 
ATOM     27  N   UNL     1      -3.319   2.887   7.137  1.00  0.00    -0.236 NA
ATOM     28  C   UNL     1      -5.075   4.457   7.573  1.00  0.00     0.206 C 
ATOM     29  C   UNL     1      -3.522   3.731   6.170  1.00  0.00     0.208 C 
ATOM     30  O   UNL     1      -4.563   4.596   6.248  1.00  0.00    -0.474 OA
ATOM     31  C   UNL     1      -4.670   5.682   8.381  1.00  0.00     0.056 C 
BRANCH  29  32
ATOM     32  C   UNL     1      -2.721   3.833   4.875  1.00  0.00     0.171 C 
BRANCH  32  33
ATOM     33  N   UNL     1      -2.121   2.552   4.533  1.00  0.00    -0.342 N 
ATOM     34  C   UNL     1      -0.777   2.406   4.287  1.00  0.00     0.246 CG0
ATOM     35  O   UNL     1       0.014   3.345   4.310  1.00  0.00    -0.273 OA
ATOM     36  H   UNL     1      -2.690   1.719   4.428  1.00  0.00     0.164 HD
ATOM     37  G   UNL     1      -0.336   0.961   4.001  1.00  0.00     0.000 G0
ENDBRANCH  32  33
BRANCH  32  38
ATOM     38  C   UNL     1      -3.605   4.399   3.733  1.00  0.00     0.017 C 
ATOM     39  C   UNL     1      -2.773   5.319   2.830  1.00  0.00     0.010 C 
BRANCH  38  40
ATOM     40  C   UNL     1      -4.319   3.295   2.919  1.00  0.00     0.002 C 
ATOM     41  C   UNL     1      -5.782   3.107   3.299  1.00  0.00     0.004 C 
ENDBRANCH  38  40
ENDBRANCH  32  38
ENDBRANCH  29  32
ENDBRANCH  23  26
ENDBRANCH   1  22
TORSDOF 4
ENDMDL
MODEL 7
REMARK VINA RESULT:    -3.960      4.241      7.982
REMARK INTER + INTRA:          -7.960
REMARK INTER:                  -7.845
REMARK INTRA:                  -0.115
REMARK UNBOUND:                -1.222
REMARK SMILES CC[C@H](C)[C@@H]1NC(=O)[C@H]2CSC(=N2)[C@@H]([C@@H](C)CC)NC(=O)c2csc(n2)CNC(=O)[C@H]2N=C1O[C@@H]2C
REMARK SMILES IDX 27 1 25 2 22 3 26 4 23 5 24 6 20 7 19 8 21 9 14 11 12 12
REMARK SMILES IDX 11 13 10 14 13 15 9 16 15 18 16 19 17 20 18 21 28 22 29 23
REMARK SMILES IDX 30 24 31 26 32 27 35 28 33 29 34 30 36 31 5 32 6 33 7 34
REMARK SMILES IDX 8 35 3 38 4 39 2 40 1 41
REMARK H PARENT 19 10 28 25 6 36
REMARK Flexibility Score:   91.900
ROOT
ATOM      1  C   UNL     1      -0.663  -6.339   2.479  1.00  0.00     0.183 C 
ENDROOT
BRANCH   1   2
ATOM      2  C   UNL     1      -1.825  -6.045   3.384  1.00  0.00     0.113 A 
ATOM      3  C   UNL     1      -2.946  -5.575   5.252  1.00  0.00     0.139 A 
ATOM      4  N   UNL     1      -1.694  -5.659   4.640  1.00  0.00    -0.234 NA
ATOM      5  C   UNL     1      -4.011  -5.848   4.415  1.00  0.00     0.101 A 
ATOM      6  S   UNL     1      -3.443  -6.240   2.844  1.00  0.00    -0.125 S 
BRANCH   3   7
ATOM      7  C   UNL     1      -3.045  -5.261   6.679  1.00  0.00     0.271 C 
ATOM      8  N   UNL     1      -3.816  -6.180   7.347  1.00  0.00    -0.341 N 
ATOM      9  O   UNL     1      -2.529  -4.279   7.196  1.00  0.00    -0.267 OA
ATOM     10  H   UNL     1      -4.160  -6.958   6.786  1.00  0.00     0.164 HD
BRANCH   8  11
ATOM     11  C   UNL     1      -4.249  -6.034   8.727  1.00  0.00     0.140 C 
BRANCH  11  12
ATOM     12  C   UNL     1      -3.067  -5.489   9.535  1.00  0.00     0.091 C 
ATOM     13  S   UNL     1      -3.086  -3.849  10.139  1.00  0.00    -0.106 SA
ATOM     14  C   UNL     1      -1.646  -4.199  11.170  1.00  0.00     0.113 C 
ATOM     15  N   UNL     1      -1.993  -6.186   9.735  1.00  0.00    -0.267 NA
ATOM     16  C   UNL     1      -0.973  -5.363  10.458  1.00  0.00     0.205 CG0
ATOM     17  G   UNL     1       0.109  -4.856   9.491  1.00  0.00     0.000 G0
ENDBRANCH  11  12
BRANCH  11  18
ATOM     18  C   UNL     1      -5.597  -5.286   8.890  1.00  0.00     0.015 C 
ATOM     19  C   UNL     1      -5.904  -4.457   7.635  1.00  0.00     0.010 C 
BRANCH  18  20
ATOM     20  C   UNL     1      -6.790  -6.184   9.277  1.00  0.00     0.002 C 
ATOM     21  C   UNL     1      -7.431  -5.784  10.600  1.00  0.00     0.004 C 
ENDBRANCH  18  20
ENDBRANCH  11  18
ENDBRANCH   8  11
ENDBRANCH   3   7
ENDBRANCH   1   2
BRANCH   1  22
ATOM     22  N   UNL     1       0.486  -6.592   3.318  1.00  0.00    -0.348 N 
ATOM     23  C   UNL     1       0.699  -7.746   4.022  1.00  0.00     0.249 C 
ATOM     24  O   UNL     1      -0.033  -8.726   3.943  1.00  0.00    -0.272 OA
ATOM     25  H   UNL     1       1.149  -5.833   3.473  1.00  0.00     0.163 HD
BRANCH  23  26
ATOM     26  C   UNL     1       1.980  -7.699   4.869  1.00  0.00     0.238 C 
ATOM     27  N   UNL     1       2.118  -6.347   5.477  1.00  0.00    -0.236 NA
ATOM     28  C   UNL     1       1.925  -8.667   6.038  1.00  0.00     0.206 C 
ATOM     29  C   UNL     1       1.917  -6.567   6.742  1.00  0.00     0.208 C 
ATOM     30  O   UNL     1       1.678  -7.832   7.168  1.00  0.00    -0.474 OA
ATOM     31  C   UNL     1       3.243  -9.399   6.253  1.00  0.00     0.056 C 
BRANCH  29  32
ATOM     32  C   UNL     1       1.868  -5.516   7.847  1.00  0.00     0.171 C 
BRANCH  32  33
ATOM     33  N   UNL     1       0.820  -5.822   8.808  1.00  0.00    -0.342 N 
ATOM     34  C   UNL     1       0.147  -4.848   9.506  1.00  0.00     0.246 CG0
ATOM     35  O   UNL     1       0.394  -3.650   9.392  1.00  0.00    -0.273 OA
ATOM     36  H   UNL     1       0.572  -6.781   9.026  1.00  0.00     0.164 HD
ATOM     37  G   UNL     1      -0.964  -5.377  10.428  1.00  0.00     0.000 G0
ENDBRANCH  32  33
BRANCH  32  38
ATOM     38  C   UNL     1       3.260  -5.363   8.514  1.00  0.00     0.017 C 
ATOM     39  C   UNL     1       3.631  -3.879   8.625  1.00  0.00     0.010 C 
BRANCH  38  40
ATOM     40  C   UNL     1       3.355  -6.078   9.882  1.00  0.00     0.002 C 
ATOM     41  C   UNL     1       3.953  -7.476   9.799  1.00  0.00     0.004 C 
ENDBRANCH  38  40
ENDBRANCH  32  38
ENDBRANCH  29  32
ENDBRANCH  23  26
ENDBRANCH   1  22
TORSDOF 4
ENDMDL
MODEL 8
REMARK VINA RESULT:    -3.773      9.158     12.562
REMARK INTER + INTRA:          -7.641
REMARK INTER:                  -6.173
REMARK INTRA:                  -1.467
REMARK UNBOUND:                -1.222
REMARK SMILES CC[C@H](C)[C@@H]1NC(=O)[C@H]2CSC(=N2)[C@@H]([C@@H](C)CC)NC(=O)c2csc(n2)CNC(=O)[C@H]2N=C1O[C@@H]2C
REMARK SMILES IDX 27 1 25 2 22 3 26 4 23 5 24 6 20 7 19 8 21 9 14 11 12 12
REMARK SMILES IDX 11 13 10 14 13 15 9 16 15 18 16 19 17 20 18 21 28 22 29 23
REMARK SMILES IDX 30 24 31 26 32 27 35 28 33 29 34 30 36 31 5 32 6 33 7 34
REMARK SMILES IDX 8 35 3 38 4 39 2 40 1 41
REMARK H PARENT 19 10 28 25 6 36
REMARK Flexibility Score:   91.900
ROOT
ATOM      1  C   UNL     1       3.802   3.048   4.968  1.00  0.00     0.183 C 
ENDROOT
BRANCH   1   2
ATOM      2  C   UNL     1       3.202   3.494   3.666  1.00  0.00     0.113 A 
ATOM      3  C   UNL     1       1.677   4.225   2.214  1.00  0.00     0.139 A 
ATOM      4  N   UNL     1       1.995   4.019   3.558  1.00  0.00    -0.234 NA
ATOM      5  C   UNL     1       2.688   3.900   1.331  1.00  0.00     0.101 A 
ATOM      6  S   UNL     1       4.052   3.304   2.186  1.00  0.00    -0.125 S 
BRANCH   3   7
ATOM      7  C   UNL     1       0.346   4.708   1.841  1.00  0.00     0.271 C 
ATOM      8  N   UNL     1      -0.260   5.371   2.880  1.00  0.00    -0.341 N 
ATOM      9  O   UNL     1      -0.168   4.511   0.747  1.00  0.00    -0.267 OA
ATOM     10  H   UNL     1       0.302   5.477   3.723  1.00  0.00     0.164 HD
BRANCH   8  11
ATOM     11  C   UNL     1      -1.649   5.800   2.875  1.00  0.00     0.140 C 
BRANCH  11  12
ATOM     12  C   UNL     1      -2.341   5.164   4.085  1.00  0.00     0.091 C 
ATOM     13  S   UNL     1      -2.968   6.164   5.375  1.00  0.00    -0.106 SA
ATOM     14  C   UNL     1      -3.842   4.744   6.067  1.00  0.00     0.113 C 
ATOM     15  N   UNL     1      -2.420   3.880   4.234  1.00  0.00    -0.267 NA
ATOM     16  C   UNL     1      -3.049   3.553   5.553  1.00  0.00     0.205 CG0
ATOM     17  G   UNL     1      -1.984   3.127   6.577  1.00  0.00     0.000 G0
ENDBRANCH  11  12
BRANCH  11  18
ATOM     18  C   UNL     1      -1.837   7.328   2.699  1.00  0.00     0.015 C 
ATOM     19  C   UNL     1      -0.570   8.077   3.135  1.00  0.00     0.010 C 
BRANCH  18  20
ATOM     20  C   UNL     1      -2.292   7.764   1.291  1.00  0.00     0.002 C 
ATOM     21  C   UNL     1      -1.246   8.598   0.559  1.00  0.00     0.004 C 
ENDBRANCH  18  20
ENDBRANCH  11  18
ENDBRANCH   8  11
ENDBRANCH   3   7
ENDBRANCH   1   2
BRANCH   1  22
ATOM     22  N   UNL     1       3.045   1.903   5.423  1.00  0.00    -0.348 N 
ATOM     23  C   UNL     1       3.191   0.631   4.942  1.00  0.00     0.249 C 
ATOM     24  O   UNL     1       4.048   0.316   4.124  1.00  0.00    -0.272 OA
ATOM     25  H   UNL     1       2.288   2.056   6.089  1.00  0.00     0.163 HD
BRANCH  23  26
ATOM     26  C   UNL     1       2.209  -0.363   5.579  1.00  0.00     0.238 C 
ATOM     27  N   UNL     1       1.622   0.244   6.806  1.00  0.00    -0.236 NA
ATOM     28  C   UNL     1       1.029  -0.661   4.669  1.00  0.00     0.206 C 
ATOM     29  C   UNL     1       0.382   0.447   6.474  1.00  0.00     0.208 C 
ATOM     30  O   UNL     1      -0.045   0.084   5.240  1.00  0.00    -0.474 OA
ATOM     31  C   UNL     1       0.651  -2.136   4.667  1.00  0.00     0.056 C 
BRANCH  29  32
ATOM     32  C   UNL     1      -0.684   1.124   7.331  1.00  0.00     0.171 C 
BRANCH  32  33
ATOM     33  N   UNL     1      -1.695   1.757   6.498  1.00  0.00    -0.342 N 
ATOM     34  C   UNL     1      -1.983   3.099   6.573  1.00  0.00     0.246 CG0
ATOM     35  O   UNL     1      -1.430   3.860   7.362  1.00  0.00    -0.273 OA
ATOM     36  H   UNL     1      -2.256   1.213   5.851  1.00  0.00     0.164 HD
ATOM     37  G   UNL     1      -3.041   3.580   5.566  1.00  0.00     0.000 G0
ENDBRANCH  32  33
BRANCH  32  38
ATOM     38  C   UNL     1      -1.291   0.114   8.340  1.00  0.00     0.017 C 
ATOM     39  C   UNL     1      -0.920   0.514   9.774  1.00  0.00     0.010 C 
BRANCH  38  40
ATOM     40  C   UNL     1      -2.819  -0.058   8.174  1.00  0.00     0.002 C 
ATOM     41  C   UNL     1      -3.637   0.858   9.075  1.00  0.00     0.004 C 
ENDBRANCH  38  40
ENDBRANCH  32  38
ENDBRANCH  29  32
ENDBRANCH  23  26
ENDBRANCH   1  22
TORSDOF 4
ENDMDL
MODEL 9
REMARK VINA RESULT:    -3.749      7.879     10.952
REMARK INTER + INTRA:          -7.601
REMARK INTER:                  -5.705
REMARK INTRA:                  -1.897
REMARK UNBOUND:                -1.222
REMARK SMILES CC[C@H](C)[C@@H]1NC(=O)[C@H]2CSC(=N2)[C@@H]([C@@H](C)CC)NC(=O)c2csc(n2)CNC(=O)[C@H]2N=C1O[C@@H]2C
REMARK SMILES IDX 27 1 25 2 22 3 26 4 23 5 24 6 20 7 19 8 21 9 14 11 12 12
REMARK SMILES IDX 11 13 10 14 13 15 9 16 15 18 16 19 17 20 18 21 28 22 29 23
REMARK SMILES IDX 30 24 31 26 32 27 35 28 33 29 34 30 36 31 5 32 6 33 7 34
REMARK SMILES IDX 8 35 3 38 4 39 2 40 1 41
REMARK H PARENT 19 10 28 25 6 36
REMARK Flexibility Score:   91.900
ROOT
ATOM      1  C   UNL     1      -5.097   2.293   7.884  1.00  0.00     0.183 C 
ENDROOT
BRANCH   1   2
ATOM      2  C   UNL     1      -4.456   0.946   8.059  1.00  0.00     0.113 A 
ATOM      3  C   UNL     1      -2.936  -0.676   7.900  1.00  0.00     0.139 A 
ATOM      4  N   UNL     1      -3.205   0.684   7.729  1.00  0.00    -0.234 NA
ATOM      5  C   UNL     1      -3.988  -1.406   8.418  1.00  0.00     0.101 A 
ATOM      6  S   UNL     1      -5.346  -0.387   8.672  1.00  0.00    -0.125 S 
BRANCH   3   7
ATOM      7  C   UNL     1      -1.637  -1.222   7.503  1.00  0.00     0.271 C 
ATOM      8  N   UNL     1      -0.697  -0.232   7.353  1.00  0.00    -0.341 N 
ATOM      9  O   UNL     1      -1.433  -2.412   7.298  1.00  0.00    -0.267 OA
ATOM     10  H   UNL     1      -1.009   0.711   7.582  1.00  0.00     0.164 HD
BRANCH   8  11
ATOM     11  C   UNL     1       0.627  -0.441   6.789  1.00  0.00     0.140 C 
BRANCH  11  12
ATOM     12  C   UNL     1       0.650   0.196   5.396  1.00  0.00     0.091 C 
ATOM     13  S   UNL     1       2.145   0.308   4.497  1.00  0.00    -0.106 SA
ATOM     14  C   UNL     1       1.230   0.774   3.011  1.00  0.00     0.113 C 
ATOM     15  N   UNL     1      -0.404   0.734   4.870  1.00  0.00    -0.267 NA
ATOM     16  C   UNL     1      -0.058   1.368   3.559  1.00  0.00     0.205 CG0
ATOM     17  G   UNL     1       0.065   2.894   3.703  1.00  0.00     0.000 G0
ENDBRANCH  11  12
BRANCH  11  18
ATOM     18  C   UNL     1       1.787  -0.055   7.743  1.00  0.00     0.015 C 
ATOM     19  C   UNL     1       1.636   1.399   8.207  1.00  0.00     0.010 C 
BRANCH  18  20
ATOM     20  C   UNL     1       1.984  -1.011   8.937  1.00  0.00     0.002 C 
ATOM     21  C   UNL     1       2.124  -2.469   8.516  1.00  0.00     0.004 C 
ENDBRANCH  18  20
ENDBRANCH  11  18
ENDBRANCH   8  11
ENDBRANCH   3   7
ENDBRANCH   1   2
BRANCH   1  22
ATOM     22  N   UNL     1      -4.035   3.257   7.699  1.00  0.00    -0.348 N 
ATOM     23  C   UNL     1      -4.225   4.575   7.384  1.00  0.00     0.249 C 
ATOM     24  O   UNL     1      -5.332   5.096   7.308  1.00  0.00    -0.272 OA
ATOM     25  H   UNL     1      -3.071   2.926   7.718  1.00  0.00     0.163 HD
BRANCH  23  26
ATOM     26  C   UNL     1      -2.905   5.338   7.196  1.00  0.00     0.238 C 
ATOM     27  N   UNL     1      -2.026   4.577   6.266  1.00  0.00    -0.236 NA
ATOM     28  C   UNL     1      -3.119   6.691   6.539  1.00  0.00     0.206 C 
ATOM     29  C   UNL     1      -2.000   5.324   5.203  1.00  0.00     0.208 C 
ATOM     30  O   UNL     1      -2.682   6.496   5.195  1.00  0.00    -0.474 OA
ATOM     31  C   UNL     1      -2.272   7.788   7.170  1.00  0.00     0.056 C 
BRANCH  29  32
ATOM     32  C   UNL     1      -1.301   4.999   3.886  1.00  0.00     0.171 C 
BRANCH  32  33
ATOM     33  N   UNL     1      -1.176   3.561   3.705  1.00  0.00    -0.342 N 
ATOM     34  C   UNL     1       0.040   2.919   3.693  1.00  0.00     0.246 CG0
ATOM     35  O   UNL     1       1.111   3.510   3.807  1.00  0.00    -0.273 OA
ATOM     36  H   UNL     1      -1.991   2.980   3.543  1.00  0.00     0.164 HD
ATOM     37  G   UNL     1      -0.049   1.391   3.549  1.00  0.00     0.000 G0
ENDBRANCH  32  33
BRANCH  32  38
ATOM     38  C   UNL     1      -2.030   5.686   2.701  1.00  0.00     0.017 C 
ATOM     39  C   UNL     1      -1.014   6.113   1.634  1.00  0.00     0.010 C 
BRANCH  38  40
ATOM     40  C   UNL     1      -3.155   4.813   2.099  1.00  0.00     0.002 C 
ATOM     41  C   UNL     1      -3.221   4.867   0.578  1.00  0.00     0.004 C 
ENDBRANCH  38  40
ENDBRANCH  32  38
ENDBRANCH  29  32
ENDBRANCH  23  26
ENDBRANCH   1  22
TORSDOF 4
ENDMDL
MODEL 10
REMARK VINA RESULT:    -3.619     10.396     14.001
REMARK INTER + INTRA:          -7.379
REMARK INTER:                  -5.443
REMARK INTRA:                  -1.937
REMARK UNBOUND:                -1.222
REMARK SMILES CC[C@H](C)[C@@H]1NC(=O)[C@H]2CSC(=N2)[C@@H]([C@@H](C)CC)NC(=O)c2csc(n2)CNC(=O)[C@H]2N=C1O[C@@H]2C
REMARK SMILES IDX 27 1 25 2 22 3 26 4 23 5 24 6 20 7 19 8 21 9 14 11 12 12
REMARK SMILES IDX 11 13 10 14 13 15 9 16 15 18 16 19 17 20 18 21 28 22 29 23
REMARK SMILES IDX 30 24 31 26 32 27 35 28 33 29 34 30 36 31 5 32 6 33 7 34
REMARK SMILES IDX 8 35 3 38 4 39 2 40 1 41
REMARK H PARENT 19 10 28 25 6 36
REMARK Flexibility Score:   91.900
ROOT
ATOM      1  C   UNL     1       4.028   7.754   3.237  1.00  0.00     0.183 C 
ENDROOT
BRANCH   1   2
ATOM      2  C   UNL     1       4.517   6.606   4.072  1.00  0.00     0.113 A 
ATOM      3  C   UNL     1       4.942   4.505   4.684  1.00  0.00     0.139 A 
ATOM      4  N   UNL     1       4.548   5.355   3.648  1.00  0.00    -0.234 NA
ATOM      5  C   UNL     1       5.259   5.150   5.864  1.00  0.00     0.101 A 
ATOM      6  S   UNL     1       5.039   6.843   5.690  1.00  0.00    -0.125 S 
BRANCH   3   7
ATOM      7  C   UNL     1       4.954   3.055   4.477  1.00  0.00     0.271 C 
ATOM      8  N   UNL     1       4.020   2.669   3.548  1.00  0.00    -0.341 N 
ATOM      9  O   UNL     1       5.687   2.287   5.088  1.00  0.00    -0.267 OA
ATOM     10  H   UNL     1       3.499   3.425   3.106  1.00  0.00     0.164 HD
BRANCH   8  11
ATOM     11  C   UNL     1       3.668   1.286   3.269  1.00  0.00     0.140 C 
BRANCH  11  12
ATOM     12  C   UNL     1       2.282   1.024   3.865  1.00  0.00     0.091 C 
ATOM     13  S   UNL     1       1.381  -0.406   3.420  1.00  0.00    -0.106 SA
ATOM     14  C   UNL     1       0.204  -0.094   4.753  1.00  0.00     0.113 C 
ATOM     15  N   UNL     1       1.700   1.875   4.650  1.00  0.00    -0.267 NA
ATOM     16  C   UNL     1       0.320   1.404   4.986  1.00  0.00     0.205 CG0
ATOM     17  G   UNL     1      -0.734   2.165   4.165  1.00  0.00     0.000 G0
ENDBRANCH  11  12
BRANCH  11  18
ATOM     18  C   UNL     1       3.873   0.870   1.790  1.00  0.00     0.015 C 
ATOM     19  C   UNL     1       3.852   2.104   0.879  1.00  0.00     0.010 C 
BRANCH  18  20
ATOM     20  C   UNL     1       5.120   0.000   1.532  1.00  0.00     0.002 C 
ATOM     21  C   UNL     1       5.691  -0.616   2.805  1.00  0.00     0.004 C 
ENDBRANCH  18  20
ENDBRANCH  11  18
ENDBRANCH   8  11
ENDBRANCH   3   7
ENDBRANCH   1   2
BRANCH   1  22
ATOM     22  N   UNL     1       2.791   7.339   2.612  1.00  0.00    -0.348 N 
ATOM     23  C   UNL     1       1.557   7.420   3.197  1.00  0.00     0.249 C 
ATOM     24  O   UNL     1       1.364   7.937   4.292  1.00  0.00    -0.272 OA
ATOM     25  H   UNL     1       2.839   6.874   1.706  1.00  0.00     0.163 HD
BRANCH  23  26
ATOM     26  C   UNL     1       0.440   6.851   2.310  1.00  0.00     0.238 C 
ATOM     27  N   UNL     1       0.149   5.450   2.725  1.00  0.00    -0.236 NA
ATOM     28  C   UNL     1      -0.867   7.606   2.486  1.00  0.00     0.206 C 
ATOM     29  C   UNL     1      -1.035   5.536   3.255  1.00  0.00     0.208 C 
ATOM     30  O   UNL     1      -1.666   6.736   3.286  1.00  0.00    -0.474 OA
ATOM     31  C   UNL     1      -1.584   7.848   1.165  1.00  0.00     0.056 C 
BRANCH  29  32
ATOM     32  C   UNL     1      -1.812   4.405   3.922  1.00  0.00     0.171 C 
BRANCH  32  33
ATOM     33  N   UNL     1      -0.911   3.480   4.592  1.00  0.00    -0.342 N 
ATOM     34  C   UNL     1      -0.731   2.184   4.172  1.00  0.00     0.246 CG0
ATOM     35  O   UNL     1      -1.335   1.699   3.218  1.00  0.00    -0.273 OA
ATOM     36  H   UNL     1      -0.404   3.755   5.427  1.00  0.00     0.164 HD
ATOM     37  G   UNL     1       0.308   1.391   4.980  1.00  0.00     0.000 G0
ENDBRANCH  32  33
BRANCH  32  38
ATOM     38  C   UNL     1      -2.893   4.977   4.876  1.00  0.00     0.017 C 
ATOM     39  C   UNL     1      -4.270   4.406   4.514  1.00  0.00     0.010 C 
BRANCH  38  40
ATOM     40  C   UNL     1      -2.559   4.756   6.369  1.00  0.00     0.002 C 
ATOM     41  C   UNL     1      -3.703   4.140   7.164  1.00  0.00     0.004 C 
ENDBRANCH  38  40
ENDBRANCH  32  38
ENDBRANCH  29  32
ENDBRANCH  23  26
ENDBRANCH   1  22
TORSDOF 4
ENDMDL
