MODEL 1
REMARK VINA RESULT:    -5.015      0.000      0.000
REMARK INTER + INTRA:         -10.165
REMARK INTER:                  -8.533
REMARK INTRA:                  -1.632
REMARK UNBOUND:                -1.632
REMARK SMILES CC[C@H](C)[C@@H]1NC(=O)[C@H]2CSC(=N2)[C@@H]([C@@H](C)CC)NC(=O)c2csc(n2)CNC(=O)[C@H]2N=C1O[C@@H]2C
REMARK SMILES IDX 27 1 25 2 22 3 26 4 23 5 24 6 20 7 19 8 21 9 14 11 12 12
REMARK SMILES IDX 11 13 10 14 13 15 9 16 15 18 16 19 17 20 18 21 28 22 29 23
REMARK SMILES IDX 30 24 31 26 32 27 35 28 33 29 34 30 36 31 5 32 6 33 7 34
REMARK SMILES IDX 8 35 3 38 4 39 2 40 1 41
REMARK H PARENT 19 10 28 25 6 36
REMARK Flexibility Score:   91.900
ROOT
ATOM      1  C   UNL     1       2.615   5.811   2.386  1.00  0.00     0.183 C 
ENDROOT
BRANCH   1   2
ATOM      2  C   UNL     1       2.562   6.256   0.953  1.00  0.00     0.113 A 
ATOM      3  C   UNL     1       3.088   7.365  -0.907  1.00  0.00     0.139 A 
ATOM      4  N   UNL     1       3.471   7.034   0.394  1.00  0.00    -0.234 NA
ATOM      5  C   UNL     1       1.913   6.773  -1.326  1.00  0.00     0.101 A 
ATOM      6  S   UNL     1       1.257   5.806  -0.068  1.00  0.00    -0.125 S 
BRANCH   3   7
ATOM      7  C   UNL     1       3.894   8.304  -1.692  1.00  0.00     0.271 C 
ATOM      8  N   UNL     1       5.033   8.676  -1.021  1.00  0.00    -0.341 N 
ATOM      9  O   UNL     1       3.567   8.725  -2.794  1.00  0.00    -0.267 OA
ATOM     10  H   UNL     1       5.182   8.223  -0.120  1.00  0.00     0.164 HD
BRANCH   8  11
ATOM     11  C   UNL     1       5.931   9.732  -1.460  1.00  0.00     0.140 C 
BRANCH  11  12
ATOM     12  C   UNL     1       5.460  11.043  -0.826  1.00  0.00     0.091 C 
ATOM     13  S   UNL     1       6.535  12.418  -0.728  1.00  0.00    -0.106 SA
ATOM     14  C   UNL     1       5.154  13.481  -0.256  1.00  0.00     0.113 C 
ATOM     15  N   UNL     1       4.291  11.161  -0.279  1.00  0.00    -0.267 NA
ATOM     16  C   UNL     1       4.151  12.512   0.350  1.00  0.00     0.205 CG0
ATOM     17  G   UNL     1       4.329  12.428   1.875  1.00  0.00     0.000 G0
ENDBRANCH  11  12
BRANCH  11  18
ATOM     18  C   UNL     1       7.434   9.388  -1.297  1.00  0.00     0.015 C 
ATOM     19  C   UNL     1       7.634   8.394  -0.146  1.00  0.00     0.010 C 
BRANCH  18  20
ATOM     20  C   UNL     1       8.128   8.904  -2.586  1.00  0.00     0.002 C 
ATOM     21  C   UNL     1       9.555   8.423  -2.349  1.00  0.00     0.004 C 
ENDBRANCH  18  20
ENDBRANCH  11  18
ENDBRANCH   8  11
ENDBRANCH   3   7
ENDBRANCH   1   2
BRANCH   1  22
ATOM     22  N   UNL     1       2.163   6.917   3.200  1.00  0.00    -0.348 N 
ATOM     23  C   UNL     1       2.756   7.322   4.364  1.00  0.00     0.249 C 
ATOM     24  O   UNL     1       3.794   6.833   4.795  1.00  0.00    -0.272 OA
ATOM     25  H   UNL     1       1.292   7.382   2.944  1.00  0.00     0.163 HD
BRANCH  23  26
ATOM     26  C   UNL     1       2.016   8.489   5.035  1.00  0.00     0.238 C 
ATOM     27  N   UNL     1       2.943   9.647   5.167  1.00  0.00    -0.236 NA
ATOM     28  C   UNL     1       0.858   8.989   4.189  1.00  0.00     0.206 C 
ATOM     29  C   UNL     1       2.460  10.512   4.326  1.00  0.00     0.208 C 
ATOM     30  O   UNL     1       1.344  10.205   3.621  1.00  0.00    -0.474 OA
ATOM     31  C   UNL     1      -0.381   9.301   5.018  1.00  0.00     0.056 C 
BRANCH  29  32
ATOM     32  C   UNL     1       3.058  11.875   3.987  1.00  0.00     0.171 C 
BRANCH  32  33
ATOM     33  N   UNL     1       3.127  12.068   2.547  1.00  0.00    -0.342 N 
ATOM     34  C   UNL     1       4.291  12.404   1.899  1.00  0.00     0.246 CG0
ATOM     35  O   UNL     1       5.354  12.592   2.486  1.00  0.00    -0.273 OA
ATOM     36  H   UNL     1       2.297  11.996   1.968  1.00  0.00     0.164 HD
ATOM     37  G   UNL     1       4.164  12.503   0.370  1.00  0.00     0.000 G0
ENDBRANCH  32  33
BRANCH  32  38
ATOM     38  C   UNL     1       2.272  13.006   4.702  1.00  0.00     0.017 C 
ATOM     39  C   UNL     1       1.771  12.517   6.067  1.00  0.00     0.010 C 
BRANCH  38  40
ATOM     40  C   UNL     1       3.082  14.316   4.828  1.00  0.00     0.002 C 
ATOM     41  C   UNL     1       4.373  14.160   5.621  1.00  0.00     0.004 C 
ENDBRANCH  38  40
ENDBRANCH  32  38
ENDBRANCH  29  32
ENDBRANCH  23  26
ENDBRANCH   1  22
TORSDOF 4
ENDMDL
MODEL 2
REMARK VINA RESULT:    -4.989      1.989      6.305
REMARK INTER + INTRA:         -10.121
REMARK INTER:                  -8.657
REMARK INTRA:                  -1.464
REMARK UNBOUND:                -1.632
REMARK SMILES CC[C@H](C)[C@@H]1NC(=O)[C@H]2CSC(=N2)[C@@H]([C@@H](C)CC)NC(=O)c2csc(n2)CNC(=O)[C@H]2N=C1O[C@@H]2C
REMARK SMILES IDX 27 1 25 2 22 3 26 4 23 5 24 6 20 7 19 8 21 9 14 11 12 12
REMARK SMILES IDX 11 13 10 14 13 15 9 16 15 18 16 19 17 20 18 21 28 22 29 23
REMARK SMILES IDX 30 24 31 26 32 27 35 28 33 29 34 30 36 31 5 32 6 33 7 34
REMARK SMILES IDX 8 35 3 38 4 39 2 40 1 41
REMARK H PARENT 19 10 28 25 6 36
REMARK Flexibility Score:   91.900
ROOT
ATOM      1  C   UNL     1       2.856   6.092  -1.492  1.00  0.00     0.183 C 
ENDROOT
BRANCH   1   2
ATOM      2  C   UNL     1       2.219   6.049  -0.133  1.00  0.00     0.113 A 
ATOM      3  C   UNL     1       1.990   6.283   2.072  1.00  0.00     0.139 A 
ATOM      4  N   UNL     1       2.758   6.586   0.946  1.00  0.00    -0.234 NA
ATOM      5  C   UNL     1       0.842   5.564   1.804  1.00  0.00     0.101 A 
ATOM      6  S   UNL     1       0.728   5.236   0.123  1.00  0.00    -0.125 S 
BRANCH   3   7
ATOM      7  C   UNL     1       2.447   6.691   3.402  1.00  0.00     0.271 C 
ATOM      8  N   UNL     1       2.390   8.054   3.561  1.00  0.00    -0.341 N 
ATOM      9  O   UNL     1       2.859   5.908   4.249  1.00  0.00    -0.267 OA
ATOM     10  H   UNL     1       2.001   8.573   2.775  1.00  0.00     0.164 HD
BRANCH   8  11
ATOM     11  C   UNL     1       2.948   8.768   4.698  1.00  0.00     0.140 C 
BRANCH  11  12
ATOM     12  C   UNL     1       3.032  10.251   4.326  1.00  0.00     0.091 C 
ATOM     13  S   UNL     1       1.596  11.247   4.319  1.00  0.00    -0.106 SA
ATOM     14  C   UNL     1       2.611  12.732   4.170  1.00  0.00     0.113 C 
ATOM     15  N   UNL     1       4.140  10.799   3.935  1.00  0.00    -0.267 NA
ATOM     16  C   UNL     1       3.897  12.222   3.538  1.00  0.00     0.205 CG0
ATOM     17  G   UNL     1       3.844  12.362   2.008  1.00  0.00     0.000 G0
ENDBRANCH  11  12
BRANCH  11  18
ATOM     18  C   UNL     1       2.266   8.434   6.049  1.00  0.00     0.015 C 
ATOM     19  C   UNL     1       2.600   9.504   7.096  1.00  0.00     0.010 C 
BRANCH  18  20
ATOM     20  C   UNL     1       0.746   8.188   5.960  1.00  0.00     0.002 C 
ATOM     21  C   UNL     1       0.285   7.001   6.798  1.00  0.00     0.004 C 
ENDBRANCH  18  20
ENDBRANCH  11  18
ENDBRANCH   8  11
ENDBRANCH   3   7
ENDBRANCH   1   2
BRANCH   1  22
ATOM     22  N   UNL     1       3.983   6.996  -1.412  1.00  0.00    -0.348 N 
ATOM     23  C   UNL     1       4.083   8.178  -2.093  1.00  0.00     0.249 C 
ATOM     24  O   UNL     1       3.178   8.636  -2.782  1.00  0.00    -0.272 OA
ATOM     25  H   UNL     1       4.803   6.702  -0.883  1.00  0.00     0.163 HD
BRANCH  23  26
ATOM     26  C   UNL     1       5.421   8.893  -1.851  1.00  0.00     0.238 C 
ATOM     27  N   UNL     1       5.203  10.366  -1.881  1.00  0.00    -0.236 NA
ATOM     28  C   UNL     1       5.984   8.594  -0.472  1.00  0.00     0.206 C 
ATOM     29  C   UNL     1       5.390  10.721  -0.645  1.00  0.00     0.208 C 
ATOM     30  O   UNL     1       5.722   9.781   0.275  1.00  0.00    -0.474 OA
ATOM     31  C   UNL     1       7.488   8.356  -0.494  1.00  0.00     0.056 C 
BRANCH  29  32
ATOM     32  C   UNL     1       5.224  12.125  -0.072  1.00  0.00     0.171 C 
BRANCH  32  33
ATOM     33  N   UNL     1       5.060  12.080   1.373  1.00  0.00    -0.342 N 
ATOM     34  C   UNL     1       3.870  12.374   1.993  1.00  0.00     0.246 CG0
ATOM     35  O   UNL     1       2.863  12.721   1.381  1.00  0.00    -0.273 OA
ATOM     36  H   UNL     1       5.841  11.863   1.983  1.00  0.00     0.164 HD
ATOM     37  G   UNL     1       3.890  12.210   3.522  1.00  0.00     0.000 G0
ENDBRANCH  32  33
BRANCH  32  38
ATOM     38  C   UNL     1       6.404  13.033  -0.508  1.00  0.00     0.017 C 
ATOM     39  C   UNL     1       5.934  14.488  -0.625  1.00  0.00     0.010 C 
BRANCH  38  40
ATOM     40  C   UNL     1       7.637  12.905   0.416  1.00  0.00     0.002 C 
ATOM     41  C   UNL     1       8.869  12.348  -0.285  1.00  0.00     0.004 C 
ENDBRANCH  38  40
ENDBRANCH  32  38
ENDBRANCH  29  32
ENDBRANCH  23  26
ENDBRANCH   1  22
TORSDOF 4
ENDMDL
MODEL 3
REMARK VINA RESULT:    -4.598      2.842      3.345
REMARK INTER + INTRA:          -9.456
REMARK INTER:                  -7.886
REMARK INTRA:                  -1.570
REMARK UNBOUND:                -1.632
REMARK SMILES CC[C@H](C)[C@@H]1NC(=O)[C@H]2CSC(=N2)[C@@H]([C@@H](C)CC)NC(=O)c2csc(n2)CNC(=O)[C@H]2N=C1O[C@@H]2C
REMARK SMILES IDX 27 1 25 2 22 3 26 4 23 5 24 6 20 7 19 8 21 9 14 11 12 12
REMARK SMILES IDX 11 13 10 14 13 15 9 16 15 18 16 19 17 20 18 21 28 22 29 23
REMARK SMILES IDX 30 24 31 26 32 27 35 28 33 29 34 30 36 31 5 32 6 33 7 34
REMARK SMILES IDX 8 35 3 38 4 39 2 40 1 41
REMARK H PARENT 19 10 28 25 6 36
REMARK Flexibility Score:   91.900
ROOT
ATOM      1  C   UNL     1       1.728   5.359   1.272  1.00  0.00     0.183 C 
ENDROOT
BRANCH   1   2
ATOM      2  C   UNL     1       2.262   6.183   0.136  1.00  0.00     0.113 A 
ATOM      3  C   UNL     1       3.489   7.697  -0.945  1.00  0.00     0.139 A 
ATOM      4  N   UNL     1       3.308   6.982   0.241  1.00  0.00    -0.234 NA
ATOM      5  C   UNL     1       2.599   7.373  -1.950  1.00  0.00     0.101 A 
ATOM      6  S   UNL     1       1.499   6.175  -1.402  1.00  0.00    -0.125 S 
BRANCH   3   7
ATOM      7  C   UNL     1       4.532   8.722  -1.031  1.00  0.00     0.271 C 
ATOM      8  N   UNL     1       5.696   8.311  -0.428  1.00  0.00    -0.341 N 
ATOM      9  O   UNL     1       4.367   9.819  -1.548  1.00  0.00    -0.267 OA
ATOM     10  H   UNL     1       5.690   7.360  -0.061  1.00  0.00     0.164 HD
BRANCH   8  11
ATOM     11  C   UNL     1       6.841   9.174  -0.189  1.00  0.00     0.140 C 
BRANCH  11  12
ATOM     12  C   UNL     1       6.947   9.407   1.321  1.00  0.00     0.091 C 
ATOM     13  S   UNL     1       8.386   8.931   2.193  1.00  0.00    -0.106 SA
ATOM     14  C   UNL     1       7.825   9.848   3.644  1.00  0.00     0.113 C 
ATOM     15  N   UNL     1       5.963   9.889   2.012  1.00  0.00    -0.267 NA
ATOM     16  C   UNL     1       6.315   9.903   3.467  1.00  0.00     0.205 CG0
ATOM     17  G   UNL     1       5.638   8.738   4.207  1.00  0.00     0.000 G0
ENDBRANCH  11  12
BRANCH  11  18
ATOM     18  C   UNL     1       8.136   8.717  -0.909  1.00  0.00     0.015 C 
ATOM     19  C   UNL     1       8.089   7.209  -1.187  1.00  0.00     0.010 C 
BRANCH  18  20
ATOM     20  C   UNL     1       8.481   9.514  -2.183  1.00  0.00     0.002 C 
ATOM     21  C   UNL     1       7.609  10.752  -2.365  1.00  0.00     0.004 C 
ENDBRANCH  18  20
ENDBRANCH  11  18
ENDBRANCH   8  11
ENDBRANCH   3   7
ENDBRANCH   1   2
BRANCH   1  22
ATOM     22  N   UNL     1       1.518   6.249   2.392  1.00  0.00    -0.348 N 
ATOM     23  C   UNL     1       0.846   5.917   3.536  1.00  0.00     0.249 C 
ATOM     24  O   UNL     1       0.422   4.790   3.764  1.00  0.00    -0.272 OA
ATOM     25  H   UNL     1       1.812   7.221   2.300  1.00  0.00     0.163 HD
BRANCH  23  26
ATOM     26  C   UNL     1       0.735   7.089   4.523  1.00  0.00     0.238 C 
ATOM     27  N   UNL     1       1.802   6.964   5.556  1.00  0.00    -0.236 NA
ATOM     28  C   UNL     1       0.980   8.427   3.847  1.00  0.00     0.206 C 
ATOM     29  C   UNL     1       2.598   7.954   5.283  1.00  0.00     0.208 C 
ATOM     30  O   UNL     1       2.299   8.786   4.256  1.00  0.00    -0.474 OA
ATOM     31  C   UNL     1       0.014   9.506   4.319  1.00  0.00     0.056 C 
BRANCH  29  32
ATOM     32  C   UNL     1       3.916   8.273   5.983  1.00  0.00     0.171 C 
BRANCH  32  33
ATOM     33  N   UNL     1       4.716   9.193   5.190  1.00  0.00    -0.342 N 
ATOM     34  C   UNL     1       5.612   8.765   4.239  1.00  0.00     0.246 CG0
ATOM     35  O   UNL     1       5.824   7.579   4.005  1.00  0.00    -0.273 OA
ATOM     36  H   UNL     1       4.665  10.195   5.339  1.00  0.00     0.164 HD
ATOM     37  G   UNL     1       6.313   9.897   3.470  1.00  0.00     0.000 G0
ENDBRANCH  32  33
BRANCH  32  38
ATOM     38  C   UNL     1       3.654   8.800   7.419  1.00  0.00     0.017 C 
ATOM     39  C   UNL     1       3.328   7.631   8.357  1.00  0.00     0.010 C 
BRANCH  38  40
ATOM     40  C   UNL     1       4.815   9.662   7.966  1.00  0.00     0.002 C 
ATOM     41  C   UNL     1       4.556  10.220   9.359  1.00  0.00     0.004 C 
ENDBRANCH  38  40
ENDBRANCH  32  38
ENDBRANCH  29  32
ENDBRANCH  23  26
ENDBRANCH   1  22
TORSDOF 4
ENDMDL
MODEL 4
REMARK VINA RESULT:    -4.058     14.318     18.411
REMARK INTER + INTRA:          -8.537
REMARK INTER:                  -8.048
REMARK INTRA:                  -0.489
REMARK UNBOUND:                -1.632
REMARK SMILES CC[C@H](C)[C@@H]1NC(=O)[C@H]2CSC(=N2)[C@@H]([C@@H](C)CC)NC(=O)c2csc(n2)CNC(=O)[C@H]2N=C1O[C@@H]2C
REMARK SMILES IDX 27 1 25 2 22 3 26 4 23 5 24 6 20 7 19 8 21 9 14 11 12 12
REMARK SMILES IDX 11 13 10 14 13 15 9 16 15 18 16 19 17 20 18 21 28 22 29 23
REMARK SMILES IDX 30 24 31 26 32 27 35 28 33 29 34 30 36 31 5 32 6 33 7 34
REMARK SMILES IDX 8 35 3 38 4 39 2 40 1 41
REMARK H PARENT 19 10 28 25 6 36
REMARK Flexibility Score:   91.900
ROOT
ATOM      1  C   UNL     1      -2.343  -7.123   7.694  1.00  0.00     0.183 C 
ENDROOT
BRANCH   1   2
ATOM      2  C   UNL     1      -2.677  -7.420   9.127  1.00  0.00     0.113 A 
ATOM      3  C   UNL     1      -2.548  -7.371  11.352  1.00  0.00     0.139 A 
ATOM      4  N   UNL     1      -2.121  -6.799  10.152  1.00  0.00    -0.234 NA
ATOM      5  C   UNL     1      -3.472  -8.387  11.204  1.00  0.00     0.101 A 
ATOM      6  S   UNL     1      -3.799  -8.652   9.540  1.00  0.00    -0.125 S 
BRANCH   3   7
ATOM      7  C   UNL     1      -1.987  -6.911  12.624  1.00  0.00     0.271 C 
ATOM      8  N   UNL     1      -1.490  -5.635  12.525  1.00  0.00    -0.341 N 
ATOM      9  O   UNL     1      -1.940  -7.599  13.636  1.00  0.00    -0.267 OA
ATOM     10  H   UNL     1      -1.623  -5.179  11.623  1.00  0.00     0.164 HD
BRANCH   8  11
ATOM     11  C   UNL     1      -0.709  -4.979  13.561  1.00  0.00     0.140 C 
BRANCH  11  12
ATOM     12  C   UNL     1      -0.637  -3.488  13.223  1.00  0.00     0.091 C 
ATOM     13  S   UNL     1      -2.097  -2.535  13.097  1.00  0.00    -0.106 SA
ATOM     14  C   UNL     1      -1.119  -1.017  13.068  1.00  0.00     0.113 C 
ATOM     15  N   UNL     1       0.485  -2.899  12.948  1.00  0.00    -0.267 NA
ATOM     16  C   UNL     1       0.236  -1.477  12.553  1.00  0.00     0.205 CG0
ATOM     17  G   UNL     1       0.323  -1.309  11.027  1.00  0.00     0.000 G0
ENDBRANCH  11  12
BRANCH  11  18
ATOM     18  C   UNL     1      -1.148  -5.338  15.004  1.00  0.00     0.015 C 
ATOM     19  C   UNL     1      -0.075  -6.190  15.694  1.00  0.00     0.010 C 
BRANCH  18  20
ATOM     20  C   UNL     1      -1.554  -4.131  15.873  1.00  0.00     0.002 C 
ATOM     21  C   UNL     1      -0.974  -4.190  17.282  1.00  0.00     0.004 C 
ENDBRANCH  18  20
ENDBRANCH  11  18
ENDBRANCH   8  11
ENDBRANCH   3   7
ENDBRANCH   1   2
BRANCH   1  22
ATOM     22  N   UNL     1      -1.016  -6.548   7.669  1.00  0.00    -0.348 N 
ATOM     23  C   UNL     1      -0.724  -5.279   7.249  1.00  0.00     0.249 C 
ATOM     24  O   UNL     1      -1.581  -4.463   6.928  1.00  0.00    -0.272 OA
ATOM     25  H   UNL     1      -0.224  -7.148   7.896  1.00  0.00     0.163 HD
BRANCH  23  26
ATOM     26  C   UNL     1       0.780  -4.971   7.284  1.00  0.00     0.238 C 
ATOM     27  N   UNL     1       0.980  -3.495   7.277  1.00  0.00    -0.236 NA
ATOM     28  C   UNL     1       1.432  -5.463   8.566  1.00  0.00     0.206 C 
ATOM     29  C   UNL     1       1.437  -3.251   8.468  1.00  0.00     0.208 C 
ATOM     30  O   UNL     1       1.623  -4.277   9.335  1.00  0.00    -0.474 OA
ATOM     31  C   UNL     1       2.790  -6.108   8.321  1.00  0.00     0.056 C 
BRANCH  29  32
ATOM     32  C   UNL     1       1.755  -1.876   9.051  1.00  0.00     0.171 C 
BRANCH  32  33
ATOM     33  N   UNL     1       1.494  -1.845  10.481  1.00  0.00    -0.342 N 
ATOM     34  C   UNL     1       0.336  -1.330  11.013  1.00  0.00     0.246 CG0
ATOM     35  O   UNL     1      -0.554  -0.835  10.326  1.00  0.00    -0.273 OA
ATOM     36  H   UNL     1       2.185  -2.174  11.147  1.00  0.00     0.164 HD
ATOM     37  G   UNL     1       0.231  -1.446  12.542  1.00  0.00     0.000 G0
ENDBRANCH  32  33
BRANCH  32  38
ATOM     38  C   UNL     1       3.208  -1.462   8.702  1.00  0.00     0.017 C 
ATOM     39  C   UNL     1       4.199  -2.482   9.276  1.00  0.00     0.010 C 
BRANCH  38  40
ATOM     40  C   UNL     1       3.427  -1.247   7.186  1.00  0.00     0.002 C 
ATOM     41  C   UNL     1       4.713  -1.872   6.662  1.00  0.00     0.004 C 
ENDBRANCH  38  40
ENDBRANCH  32  38
ENDBRANCH  29  32
ENDBRANCH  23  26
ENDBRANCH   1  22
TORSDOF 4
ENDMDL
MODEL 5
REMARK VINA RESULT:    -3.987      1.997      2.376
REMARK INTER + INTRA:          -8.415
REMARK INTER:                  -7.573
REMARK INTRA:                  -0.842
REMARK UNBOUND:                -1.632
REMARK SMILES CC[C@H](C)[C@@H]1NC(=O)[C@H]2CSC(=N2)[C@@H]([C@@H](C)CC)NC(=O)c2csc(n2)CNC(=O)[C@H]2N=C1O[C@@H]2C
REMARK SMILES IDX 27 1 25 2 22 3 26 4 23 5 24 6 20 7 19 8 21 9 14 11 12 12
REMARK SMILES IDX 11 13 10 14 13 15 9 16 15 18 16 19 17 20 18 21 28 22 29 23
REMARK SMILES IDX 30 24 31 26 32 27 35 28 33 29 34 30 36 31 5 32 6 33 7 34
REMARK SMILES IDX 8 35 3 38 4 39 2 40 1 41
REMARK H PARENT 19 10 28 25 6 36
REMARK Flexibility Score:   91.900
ROOT
ATOM      1  C   UNL     1       1.029   5.900   1.919  1.00  0.00     0.183 C 
ENDROOT
BRANCH   1   2
ATOM      2  C   UNL     1       2.168   6.315   1.033  1.00  0.00     0.113 A 
ATOM      3  C   UNL     1       3.937   7.462   0.311  1.00  0.00     0.139 A 
ATOM      4  N   UNL     1       3.079   7.205   1.382  1.00  0.00    -0.234 NA
ATOM      5  C   UNL     1       3.686   6.707  -0.818  1.00  0.00     0.101 A 
ATOM      6  S   UNL     1       2.341   5.674  -0.550  1.00  0.00    -0.125 S 
BRANCH   3   7
ATOM      7  C   UNL     1       4.970   8.493   0.430  1.00  0.00     0.271 C 
ATOM      8  N   UNL     1       4.674   9.597  -0.332  1.00  0.00    -0.341 N 
ATOM      9  O   UNL     1       5.985   8.364   1.103  1.00  0.00    -0.267 OA
ATOM     10  H   UNL     1       3.780   9.568  -0.820  1.00  0.00     0.164 HD
BRANCH   8  11
ATOM     11  C   UNL     1       5.593  10.700  -0.564  1.00  0.00     0.140 C 
BRANCH  11  12
ATOM     12  C   UNL     1       5.853  11.384   0.781  1.00  0.00     0.091 C 
ATOM     13  S   UNL     1       7.479  11.514   1.411  1.00  0.00    -0.106 SA
ATOM     14  C   UNL     1       6.911  12.672   2.674  1.00  0.00     0.113 C 
ATOM     15  N   UNL     1       4.888  11.821   1.528  1.00  0.00    -0.267 NA
ATOM     16  C   UNL     1       5.434  12.341   2.821  1.00  0.00     0.205 CG0
ATOM     17  G   UNL     1       5.214  11.327   3.955  1.00  0.00     0.000 G0
ENDBRANCH  11  12
BRANCH  11  18
ATOM     18  C   UNL     1       6.843  10.314  -1.395  1.00  0.00     0.015 C 
ATOM     19  C   UNL     1       6.551   9.082  -2.261  1.00  0.00     0.010 C 
BRANCH  18  20
ATOM     20  C   UNL     1       7.440  11.463  -2.233  1.00  0.00     0.002 C 
ATOM     21  C   UNL     1       8.827  11.144  -2.780  1.00  0.00     0.004 C 
ENDBRANCH  18  20
ENDBRANCH  11  18
ENDBRANCH   8  11
ENDBRANCH   3   7
ENDBRANCH   1   2
BRANCH   1  22
ATOM     22  N   UNL     1       0.833   6.951   2.892  1.00  0.00    -0.348 N 
ATOM     23  C   UNL     1       1.370   6.958   4.151  1.00  0.00     0.249 C 
ATOM     24  O   UNL     1       2.150   6.102   4.554  1.00  0.00    -0.272 OA
ATOM     25  H   UNL     1       0.182   7.703   2.669  1.00  0.00     0.163 HD
BRANCH  23  26
ATOM     26  C   UNL     1       0.939   8.180   4.975  1.00  0.00     0.238 C 
ATOM     27  N   UNL     1       2.073   8.617   5.835  1.00  0.00    -0.236 NA
ATOM     28  C   UNL     1       0.612   9.374   4.095  1.00  0.00     0.206 C 
ATOM     29  C   UNL     1       2.424   9.753   5.310  1.00  0.00     0.208 C 
ATOM     30  O   UNL     1       1.743  10.231   4.239  1.00  0.00    -0.474 OA
ATOM     31  C   UNL     1      -0.629  10.123   4.563  1.00  0.00     0.056 C 
BRANCH  29  32
ATOM     32  C   UNL     1       3.598  10.627   5.744  1.00  0.00     0.171 C 
BRANCH  32  33
ATOM     33  N   UNL     1       4.021  11.503   4.663  1.00  0.00    -0.342 N 
ATOM     34  C   UNL     1       5.199  11.319   3.979  1.00  0.00     0.246 CG0
ATOM     35  O   UNL     1       5.995  10.421   4.243  1.00  0.00    -0.273 OA
ATOM     36  H   UNL     1       3.471  12.313   4.399  1.00  0.00     0.164 HD
ATOM     37  G   UNL     1       5.433  12.318   2.835  1.00  0.00     0.000 G0
ENDBRANCH  32  33
BRANCH  32  38
ATOM     38  C   UNL     1       3.243  11.407   7.038  1.00  0.00     0.017 C 
ATOM     39  C   UNL     1       1.851  12.036   6.909  1.00  0.00     0.010 C 
BRANCH  38  40
ATOM     40  C   UNL     1       3.361  10.543   8.314  1.00  0.00     0.002 C 
ATOM     41  C   UNL     1       4.585   9.635   8.325  1.00  0.00     0.004 C 
ENDBRANCH  38  40
ENDBRANCH  32  38
ENDBRANCH  29  32
ENDBRANCH  23  26
ENDBRANCH   1  22
TORSDOF 4
ENDMDL
MODEL 6
REMARK VINA RESULT:    -3.972     11.460     14.682
REMARK INTER + INTRA:          -8.390
REMARK INTER:                  -6.277
REMARK INTRA:                  -2.113
REMARK UNBOUND:                -1.632
REMARK SMILES CC[C@H](C)[C@@H]1NC(=O)[C@H]2CSC(=N2)[C@@H]([C@@H](C)CC)NC(=O)c2csc(n2)CNC(=O)[C@H]2N=C1O[C@@H]2C
REMARK SMILES IDX 27 1 25 2 22 3 26 4 23 5 24 6 20 7 19 8 21 9 14 11 12 12
REMARK SMILES IDX 11 13 10 14 13 15 9 16 15 18 16 19 17 20 18 21 28 22 29 23
REMARK SMILES IDX 30 24 31 26 32 27 35 28 33 29 34 30 36 31 5 32 6 33 7 34
REMARK SMILES IDX 8 35 3 38 4 39 2 40 1 41
REMARK H PARENT 19 10 28 25 6 36
REMARK Flexibility Score:   91.900
ROOT
ATOM      1  C   UNL     1       3.660  -3.138   4.301  1.00  0.00     0.183 C 
ENDROOT
BRANCH   1   2
ATOM      2  C   UNL     1       4.759  -2.326   4.924  1.00  0.00     0.113 A 
ATOM      3  C   UNL     1       5.751  -0.718   6.106  1.00  0.00     0.139 A 
ATOM      4  N   UNL     1       4.549  -1.360   5.799  1.00  0.00    -0.234 NA
ATOM      5  C   UNL     1       6.862  -1.259   5.491  1.00  0.00     0.101 A 
ATOM      6  S   UNL     1       6.401  -2.577   4.491  1.00  0.00    -0.125 S 
BRANCH   3   7
ATOM      7  C   UNL     1       5.752   0.454   6.984  1.00  0.00     0.271 C 
ATOM      8  N   UNL     1       6.230   0.150   8.234  1.00  0.00    -0.341 N 
ATOM      9  O   UNL     1       5.342   1.558   6.645  1.00  0.00    -0.267 OA
ATOM     10  H   UNL     1       6.556  -0.807   8.360  1.00  0.00     0.164 HD
BRANCH   8  11
ATOM     11  C   UNL     1       6.178   1.054   9.372  1.00  0.00     0.140 C 
BRANCH  11  12
ATOM     12  C   UNL     1       5.435   0.342  10.505  1.00  0.00     0.091 C 
ATOM     13  S   UNL     1       6.300  -0.227  11.914  1.00  0.00    -0.106 SA
ATOM     14  C   UNL     1       4.738  -0.530  12.766  1.00  0.00     0.113 C 
ATOM     15  N   UNL     1       4.170   0.071  10.433  1.00  0.00    -0.267 NA
ATOM     16  C   UNL     1       3.745  -0.720  11.631  1.00  0.00     0.205 CG0
ATOM     17  G   UNL     1       3.597  -2.210  11.280  1.00  0.00     0.000 G0
ENDBRANCH  11  12
BRANCH  11  18
ATOM     18  C   UNL     1       7.546   1.688   9.735  1.00  0.00     0.015 C 
ATOM     19  C   UNL     1       8.691   0.892   9.096  1.00  0.00     0.010 C 
BRANCH  18  20
ATOM     20  C   UNL     1       7.662   3.193   9.422  1.00  0.00     0.002 C 
ATOM     21  C   UNL     1       6.313   3.852   9.156  1.00  0.00     0.004 C 
ENDBRANCH  18  20
ENDBRANCH  11  18
ENDBRANCH   8  11
ENDBRANCH   3   7
ENDBRANCH   1   2
BRANCH   1  22
ATOM     22  N   UNL     1       2.623  -3.296   5.296  1.00  0.00    -0.348 N 
ATOM     23  C   UNL     1       2.080  -4.495   5.673  1.00  0.00     0.249 C 
ATOM     24  O   UNL     1       2.485  -5.575   5.258  1.00  0.00    -0.272 OA
ATOM     25  H   UNL     1       2.197  -2.458   5.691  1.00  0.00     0.163 HD
BRANCH  23  26
ATOM     26  C   UNL     1       0.958  -4.341   6.710  1.00  0.00     0.238 C 
ATOM     27  N   UNL     1       1.403  -4.928   8.005  1.00  0.00    -0.236 NA
ATOM     28  C   UNL     1       0.655  -2.882   7.008  1.00  0.00     0.206 C 
ATOM     29  C   UNL     1       1.539  -3.888   8.772  1.00  0.00     0.208 C 
ATOM     30  O   UNL     1       1.259  -2.656   8.281  1.00  0.00    -0.474 OA
ATOM     31  C   UNL     1      -0.838  -2.607   7.122  1.00  0.00     0.056 C 
BRANCH  29  32
ATOM     32  C   UNL     1       2.049  -3.886  10.211  1.00  0.00     0.171 C 
BRANCH  32  33
ATOM     33  N   UNL     1       2.379  -2.537  10.643  1.00  0.00    -0.342 N 
ATOM     34  C   UNL     1       3.557  -2.231  11.282  1.00  0.00     0.246 CG0
ATOM     35  O   UNL     1       4.407  -3.074  11.560  1.00  0.00    -0.273 OA
ATOM     36  H   UNL     1       1.726  -1.772  10.518  1.00  0.00     0.164 HD
ATOM     37  G   UNL     1       3.739  -0.739  11.602  1.00  0.00     0.000 G0
ENDBRANCH  32  33
BRANCH  32  38
ATOM     38  C   UNL     1       1.026  -4.578  11.150  1.00  0.00     0.017 C 
ATOM     39  C   UNL     1       1.737  -5.610  12.034  1.00  0.00     0.010 C 
BRANCH  38  40
ATOM     40  C   UNL     1       0.208  -3.574  11.994  1.00  0.00     0.002 C 
ATOM     41  C   UNL     1      -1.047  -3.070  11.294  1.00  0.00     0.004 C 
ENDBRANCH  38  40
ENDBRANCH  32  38
ENDBRANCH  29  32
ENDBRANCH  23  26
ENDBRANCH   1  22
TORSDOF 4
ENDMDL
MODEL 7
REMARK VINA RESULT:    -3.890     12.312     16.261
REMARK INTER + INTRA:          -8.251
REMARK INTER:                  -6.417
REMARK INTRA:                  -1.833
REMARK UNBOUND:                -1.632
REMARK SMILES CC[C@H](C)[C@@H]1NC(=O)[C@H]2CSC(=N2)[C@@H]([C@@H](C)CC)NC(=O)c2csc(n2)CNC(=O)[C@H]2N=C1O[C@@H]2C
REMARK SMILES IDX 27 1 25 2 22 3 26 4 23 5 24 6 20 7 19 8 21 9 14 11 12 12
REMARK SMILES IDX 11 13 10 14 13 15 9 16 15 18 16 19 17 20 18 21 28 22 29 23
REMARK SMILES IDX 30 24 31 26 32 27 35 28 33 29 34 30 36 31 5 32 6 33 7 34
REMARK SMILES IDX 8 35 3 38 4 39 2 40 1 41
REMARK H PARENT 19 10 28 25 6 36
REMARK Flexibility Score:   91.900
ROOT
ATOM      1  C   UNL     1       7.179  -2.726  12.822  1.00  0.00     0.183 C 
ENDROOT
BRANCH   1   2
ATOM      2  C   UNL     1       5.738  -3.013  13.133  1.00  0.00     0.113 A 
ATOM      3  C   UNL     1       3.518  -2.821  13.092  1.00  0.00     0.139 A 
ATOM      4  N   UNL     1       4.727  -2.440  12.506  1.00  0.00    -0.234 NA
ATOM      5  C   UNL     1       3.644  -3.730  14.124  1.00  0.00     0.101 A 
ATOM      6  S   UNL     1       5.299  -4.099  14.387  1.00  0.00    -0.125 S 
BRANCH   3   7
ATOM      7  C   UNL     1       2.260  -2.231  12.627  1.00  0.00     0.271 C 
ATOM      8  N   UNL     1       1.807  -2.843  11.484  1.00  0.00    -0.341 N 
ATOM      9  O   UNL     1       1.707  -1.287  13.176  1.00  0.00    -0.267 OA
ATOM     10  H   UNL     1       2.363  -3.633  11.157  1.00  0.00     0.164 HD
BRANCH   8  11
ATOM     11  C   UNL     1       0.691  -2.361  10.687  1.00  0.00     0.140 C 
BRANCH  11  12
ATOM     12  C   UNL     1       1.015  -2.629   9.215  1.00  0.00     0.091 C 
ATOM     13  S   UNL     1       0.518  -4.122   8.454  1.00  0.00    -0.106 SA
ATOM     14  C   UNL     1       0.934  -3.449   6.831  1.00  0.00     0.113 C 
ATOM     15  N   UNL     1       1.723  -1.806   8.507  1.00  0.00    -0.267 NA
ATOM     16  C   UNL     1       1.968  -2.378   7.145  1.00  0.00     0.205 CG0
ATOM     17  G   UNL     1       3.391  -2.948   7.037  1.00  0.00     0.000 G0
ENDBRANCH  11  12
BRANCH  11  18
ATOM     18  C   UNL     1      -0.695  -2.844  11.186  1.00  0.00     0.015 C 
ATOM     19  C   UNL     1      -0.546  -4.116  12.031  1.00  0.00     0.010 C 
BRANCH  18  20
ATOM     20  C   UNL     1      -1.524  -1.772  11.923  1.00  0.00     0.002 C 
ATOM     21  C   UNL     1      -1.959  -2.210  13.317  1.00  0.00     0.004 C 
ENDBRANCH  18  20
ENDBRANCH  11  18
ENDBRANCH   8  11
ENDBRANCH   3   7
ENDBRANCH   1   2
BRANCH   1  22
ATOM     22  N   UNL     1       7.213  -1.955  11.599  1.00  0.00    -0.348 N 
ATOM     23  C   UNL     1       8.093  -2.162  10.572  1.00  0.00     0.249 C 
ATOM     24  O   UNL     1       8.895  -3.089  10.550  1.00  0.00    -0.272 OA
ATOM     25  H   UNL     1       6.601  -1.144  11.521  1.00  0.00     0.163 HD
BRANCH  23  26
ATOM     26  C   UNL     1       7.923  -1.150   9.430  1.00  0.00     0.238 C 
ATOM     27  N   UNL     1       7.755  -1.883   8.144  1.00  0.00    -0.236 NA
ATOM     28  C   UNL     1       6.662  -0.317   9.590  1.00  0.00     0.206 C 
ATOM     29  C   UNL     1       6.516  -1.652   7.829  1.00  0.00     0.208 C 
ATOM     30  O   UNL     1       5.756  -0.873   8.638  1.00  0.00    -0.474 OA
ATOM     31  C   UNL     1       6.884   1.151   9.251  1.00  0.00     0.056 C 
BRANCH  29  32
ATOM     32  C   UNL     1       5.766  -2.223   6.629  1.00  0.00     0.171 C 
BRANCH  32  33
ATOM     33  N   UNL     1       4.343  -1.939   6.722  1.00  0.00    -0.342 N 
ATOM     34  C   UNL     1       3.413  -2.904   7.028  1.00  0.00     0.246 CG0
ATOM     35  O   UNL     1       3.707  -4.081   7.220  1.00  0.00    -0.273 OA
ATOM     36  H   UNL     1       3.979  -1.012   6.525  1.00  0.00     0.164 HD
ATOM     37  G   UNL     1       1.969  -2.385   7.135  1.00  0.00     0.000 G0
ENDBRANCH  32  33
BRANCH  32  38
ATOM     38  C   UNL     1       6.390  -1.709   5.305  1.00  0.00     0.017 C 
ATOM     39  C   UNL     1       6.137  -2.716   4.176  1.00  0.00     0.010 C 
BRANCH  38  40
ATOM     40  C   UNL     1       5.905  -0.291   4.921  1.00  0.00     0.002 C 
ATOM     41  C   UNL     1       6.933   0.799   5.194  1.00  0.00     0.004 C 
ENDBRANCH  38  40
ENDBRANCH  32  38
ENDBRANCH  29  32
ENDBRANCH  23  26
ENDBRANCH   1  22
TORSDOF 4
ENDMDL
MODEL 8
REMARK VINA RESULT:    -3.771     12.686     16.262
REMARK INTER + INTRA:          -8.048
REMARK INTER:                  -6.203
REMARK INTRA:                  -1.844
REMARK UNBOUND:                -1.632
REMARK SMILES CC[C@H](C)[C@@H]1NC(=O)[C@H]2CSC(=N2)[C@@H]([C@@H](C)CC)NC(=O)c2csc(n2)CNC(=O)[C@H]2N=C1O[C@@H]2C
REMARK SMILES IDX 27 1 25 2 22 3 26 4 23 5 24 6 20 7 19 8 21 9 14 11 12 12
REMARK SMILES IDX 11 13 10 14 13 15 9 16 15 18 16 19 17 20 18 21 28 22 29 23
REMARK SMILES IDX 30 24 31 26 32 27 35 28 33 29 34 30 36 31 5 32 6 33 7 34
REMARK SMILES IDX 8 35 3 38 4 39 2 40 1 41
REMARK H PARENT 19 10 28 25 6 36
REMARK Flexibility Score:   91.900
ROOT
ATOM      1  C   UNL     1       6.395  -2.476   4.808  1.00  0.00     0.183 C 
ENDROOT
BRANCH   1   2
ATOM      2  C   UNL     1       6.839  -1.282   5.603  1.00  0.00     0.113 A 
ATOM      3  C   UNL     1       7.320  -0.018   7.375  1.00  0.00     0.139 A 
ATOM      4  N   UNL     1       7.020  -1.301   6.911  1.00  0.00    -0.234 NA
ATOM      5  C   UNL     1       7.417   0.940   6.385  1.00  0.00     0.101 A 
ATOM      6  S   UNL     1       7.105   0.237   4.850  1.00  0.00    -0.125 S 
BRANCH   3   7
ATOM      7  C   UNL     1       7.464   0.227   8.812  1.00  0.00     0.271 C 
ATOM      8  N   UNL     1       8.536  -0.453   9.335  1.00  0.00    -0.341 N 
ATOM      9  O   UNL     1       6.698   0.926   9.463  1.00  0.00    -0.267 OA
ATOM     10  H   UNL     1       9.097  -0.977   8.664  1.00  0.00     0.164 HD
BRANCH   8  11
ATOM     11  C   UNL     1       8.822  -0.557  10.757  1.00  0.00     0.140 C 
BRANCH  11  12
ATOM     12  C   UNL     1       8.497  -1.987  11.198  1.00  0.00     0.091 C 
ATOM     13  S   UNL     1       9.779  -3.106  11.599  1.00  0.00    -0.106 SA
ATOM     14  C   UNL     1       8.575  -4.255  12.298  1.00  0.00     0.113 C 
ATOM     15  N   UNL     1       7.282  -2.440  11.220  1.00  0.00    -0.267 NA
ATOM     16  C   UNL     1       7.281  -3.891  11.586  1.00  0.00     0.205 CG0
ATOM     17  G   UNL     1       7.079  -4.770  10.341  1.00  0.00     0.000 G0
ENDBRANCH  11  12
BRANCH  11  18
ATOM     18  C   UNL     1      10.216  -0.012  11.161  1.00  0.00     0.015 C 
ATOM     19  C   UNL     1      11.049   0.304   9.912  1.00  0.00     0.010 C 
BRANCH  18  20
ATOM     20  C   UNL     1      10.183   1.184  12.134  1.00  0.00     0.002 C 
ATOM     21  C   UNL     1       8.873   1.962  12.076  1.00  0.00     0.004 C 
ENDBRANCH  18  20
ENDBRANCH  11  18
ENDBRANCH   8  11
ENDBRANCH   3   7
ENDBRANCH   1   2
BRANCH   1  22
ATOM     22  N   UNL     1       5.421  -3.188   5.604  1.00  0.00    -0.348 N 
ATOM     23  C   UNL     1       4.095  -3.309   5.289  1.00  0.00     0.249 C 
ATOM     24  O   UNL     1       3.612  -2.891   4.242  1.00  0.00    -0.272 OA
ATOM     25  H   UNL     1       5.711  -3.557   6.509  1.00  0.00     0.163 HD
BRANCH  23  26
ATOM     26  C   UNL     1       3.297  -4.075   6.355  1.00  0.00     0.238 C 
ATOM     27  N   UNL     1       4.079  -5.263   6.795  1.00  0.00    -0.236 NA
ATOM     28  C   UNL     1       3.079  -3.244   7.608  1.00  0.00     0.206 C 
ATOM     29  C   UNL     1       4.414  -4.964   8.014  1.00  0.00     0.208 C 
ATOM     30  O   UNL     1       4.005  -3.787   8.548  1.00  0.00    -0.474 OA
ATOM     31  C   UNL     1       1.672  -3.392   8.170  1.00  0.00     0.056 C 
BRANCH  29  32
ATOM     32  C   UNL     1       5.296  -5.797   8.940  1.00  0.00     0.171 C 
BRANCH  32  33
ATOM     33  N   UNL     1       5.733  -5.013  10.085  1.00  0.00    -0.342 N 
ATOM     34  C   UNL     1       7.060  -4.787  10.365  1.00  0.00     0.246 CG0
ATOM     35  O   UNL     1       7.976  -5.247   9.688  1.00  0.00    -0.273 OA
ATOM     36  H   UNL     1       5.064  -4.633  10.746  1.00  0.00     0.164 HD
ATOM     37  G   UNL     1       7.308  -3.885  11.585  1.00  0.00     0.000 G0
ENDBRANCH  32  33
BRANCH  32  38
ATOM     38  C   UNL     1       4.567  -7.102   9.356  1.00  0.00     0.017 C 
ATOM     39  C   UNL     1       5.569  -8.260   9.445  1.00  0.00     0.010 C 
BRANCH  38  40
ATOM     40  C   UNL     1       3.756  -6.948  10.663  1.00  0.00     0.002 C 
ATOM     41  C   UNL     1       2.281  -6.646  10.433  1.00  0.00     0.004 C 
ENDBRANCH  38  40
ENDBRANCH  32  38
ENDBRANCH  29  32
ENDBRANCH  23  26
ENDBRANCH   1  22
TORSDOF 4
ENDMDL
MODEL 9
REMARK VINA RESULT:    -3.746     12.728     16.782
REMARK INTER + INTRA:          -8.005
REMARK INTER:                  -6.676
REMARK INTRA:                  -1.329
REMARK UNBOUND:                -1.632
REMARK SMILES CC[C@H](C)[C@@H]1NC(=O)[C@H]2CSC(=N2)[C@@H]([C@@H](C)CC)NC(=O)c2csc(n2)CNC(=O)[C@H]2N=C1O[C@@H]2C
REMARK SMILES IDX 27 1 25 2 22 3 26 4 23 5 24 6 20 7 19 8 21 9 14 11 12 12
REMARK SMILES IDX 11 13 10 14 13 15 9 16 15 18 16 19 17 20 18 21 28 22 29 23
REMARK SMILES IDX 30 24 31 26 32 27 35 28 33 29 34 30 36 31 5 32 6 33 7 34
REMARK SMILES IDX 8 35 3 38 4 39 2 40 1 41
REMARK H PARENT 19 10 28 25 6 36
REMARK Flexibility Score:   91.900
ROOT
ATOM      1  C   UNL     1       1.479  -6.237   5.719  1.00  0.00     0.183 C 
ENDROOT
BRANCH   1   2
ATOM      2  C   UNL     1       0.543  -6.103   6.886  1.00  0.00     0.113 A 
ATOM      3  C   UNL     1      -0.161  -6.059   9.000  1.00  0.00     0.139 A 
ATOM      4  N   UNL     1       0.942  -6.075   8.144  1.00  0.00    -0.234 NA
ATOM      5  C   UNL     1      -1.383  -6.017   8.357  1.00  0.00     0.101 A 
ATOM      6  S   UNL     1      -1.156  -6.022   6.656  1.00  0.00    -0.125 S 
BRANCH   3   7
ATOM      7  C   UNL     1       0.035  -6.127  10.450  1.00  0.00     0.271 C 
ATOM      8  N   UNL     1      -0.123  -4.897  11.040  1.00  0.00    -0.341 N 
ATOM      9  O   UNL     1       0.335  -7.152  11.049  1.00  0.00    -0.267 OA
ATOM     10  H   UNL     1      -0.397  -4.140  10.414  1.00  0.00     0.164 HD
BRANCH   8  11
ATOM     11  C   UNL     1       0.190  -4.612  12.430  1.00  0.00     0.140 C 
BRANCH  11  12
ATOM     12  C   UNL     1       1.194  -3.456  12.458  1.00  0.00     0.091 C 
ATOM     13  S   UNL     1       0.830  -1.986  13.331  1.00  0.00    -0.106 SA
ATOM     14  C   UNL     1       2.542  -1.440  13.151  1.00  0.00     0.113 C 
ATOM     15  N   UNL     1       2.301  -3.492  11.786  1.00  0.00    -0.267 NA
ATOM     16  C   UNL     1       3.025  -2.188  11.918  1.00  0.00     0.205 CG0
ATOM     17  G   UNL     1       2.842  -1.330  10.655  1.00  0.00     0.000 G0
ENDBRANCH  11  12
BRANCH  11  18
ATOM     18  C   UNL     1      -1.057  -4.464  13.339  1.00  0.00     0.015 C 
ATOM     19  C   UNL     1      -2.283  -5.105  12.675  1.00  0.00     0.010 C 
BRANCH  18  20
ATOM     20  C   UNL     1      -0.867  -4.973  14.783  1.00  0.00     0.002 C 
ATOM     21  C   UNL     1      -1.938  -5.972  15.207  1.00  0.00     0.004 C 
ENDBRANCH  18  20
ENDBRANCH  11  18
ENDBRANCH   8  11
ENDBRANCH   3   7
ENDBRANCH   1   2
BRANCH   1  22
ATOM     22  N   UNL     1       2.078  -4.940   5.494  1.00  0.00    -0.348 N 
ATOM     23  C   UNL     1       3.260  -4.522   6.041  1.00  0.00     0.249 C 
ATOM     24  O   UNL     1       3.981  -5.245   6.719  1.00  0.00    -0.272 OA
ATOM     25  H   UNL     1       1.551  -4.250   4.961  1.00  0.00     0.163 HD
BRANCH  23  26
ATOM     26  C   UNL     1       3.611  -3.075   5.664  1.00  0.00     0.238 C 
ATOM     27  N   UNL     1       2.948  -2.143   6.619  1.00  0.00    -0.236 NA
ATOM     28  C   UNL     1       5.099  -2.798   5.793  1.00  0.00     0.206 C 
ATOM     29  C   UNL     1       3.943  -1.653   7.295  1.00  0.00     0.208 C 
ATOM     30  O   UNL     1       5.208  -2.041   6.998  1.00  0.00    -0.474 OA
ATOM     31  C   UNL     1       5.640  -1.961   4.642  1.00  0.00     0.056 C 
BRANCH  29  32
ATOM     32  C   UNL     1       3.848  -0.686   8.473  1.00  0.00     0.171 C 
BRANCH  32  33
ATOM     33  N   UNL     1       3.867  -1.405   9.737  1.00  0.00    -0.342 N 
ATOM     34  C   UNL     1       2.843  -1.323  10.651  1.00  0.00     0.246 CG0
ATOM     35  O   UNL     1       1.850  -0.621  10.484  1.00  0.00    -0.273 OA
ATOM     36  H   UNL     1       4.665  -1.970  10.007  1.00  0.00     0.164 HD
ATOM     37  G   UNL     1       3.030  -2.205  11.896  1.00  0.00     0.000 G0
ENDBRANCH  32  33
BRANCH  32  38
ATOM     38  C   UNL     1       4.962   0.390   8.383  1.00  0.00     0.017 C 
ATOM     39  C   UNL     1       4.618   1.415   7.295  1.00  0.00     0.010 C 
BRANCH  38  40
ATOM     40  C   UNL     1       5.249   1.074   9.740  1.00  0.00     0.002 C 
ATOM     41  C   UNL     1       6.705   0.974  10.176  1.00  0.00     0.004 C 
ENDBRANCH  38  40
ENDBRANCH  32  38
ENDBRANCH  29  32
ENDBRANCH  23  26
ENDBRANCH   1  22
TORSDOF 4
ENDMDL
MODEL 10
REMARK VINA RESULT:    -3.686     14.490     17.719
REMARK INTER + INTRA:          -7.904
REMARK INTER:                  -7.319
REMARK INTRA:                  -0.585
REMARK UNBOUND:                -1.632
REMARK SMILES CC[C@H](C)[C@@H]1NC(=O)[C@H]2CSC(=N2)[C@@H]([C@@H](C)CC)NC(=O)c2csc(n2)CNC(=O)[C@H]2N=C1O[C@@H]2C
REMARK SMILES IDX 27 1 25 2 22 3 26 4 23 5 24 6 20 7 19 8 21 9 14 11 12 12
REMARK SMILES IDX 11 13 10 14 13 15 9 16 15 18 16 19 17 20 18 21 28 22 29 23
REMARK SMILES IDX 30 24 31 26 32 27 35 28 33 29 34 30 36 31 5 32 6 33 7 34
REMARK SMILES IDX 8 35 3 38 4 39 2 40 1 41
REMARK H PARENT 19 10 28 25 6 36
REMARK Flexibility Score:   91.900
ROOT
ATOM      1  C   UNL     1       2.199  -9.514  11.433  1.00  0.00     0.183 C 
ENDROOT
BRANCH   1   2
ATOM      2  C   UNL     1       3.120  -8.821  10.471  1.00  0.00     0.113 A 
ATOM      3  C   UNL     1       3.851  -7.309   9.005  1.00  0.00     0.139 A 
ATOM      4  N   UNL     1       2.871  -7.635   9.945  1.00  0.00    -0.234 NA
ATOM      5  C   UNL     1       4.861  -8.243   8.884  1.00  0.00     0.101 A 
ATOM      6  S   UNL     1       4.574  -9.564   9.942  1.00  0.00    -0.125 S 
BRANCH   3   7
ATOM      7  C   UNL     1       3.730  -6.081   8.217  1.00  0.00     0.271 C 
ATOM      8  N   UNL     1       2.573  -5.403   8.510  1.00  0.00    -0.341 N 
ATOM      9  O   UNL     1       4.549  -5.728   7.377  1.00  0.00    -0.267 OA
ATOM     10  H   UNL     1       2.000  -5.808   9.250  1.00  0.00     0.164 HD
BRANCH   8  11
ATOM     11  C   UNL     1       2.087  -4.254   7.763  1.00  0.00     0.140 C 
BRANCH  11  12
ATOM     12  C   UNL     1       1.917  -3.092   8.745  1.00  0.00     0.091 C 
ATOM     13  S   UNL     1       3.270  -2.534   9.702  1.00  0.00    -0.106 SA
ATOM     14  C   UNL     1       2.334  -1.071  10.196  1.00  0.00     0.113 C 
ATOM     15  N   UNL     1       0.767  -2.534   8.958  1.00  0.00    -0.267 NA
ATOM     16  C   UNL     1       0.886  -1.507  10.040  1.00  0.00     0.205 CG0
ATOM     17  G   UNL     1       0.334  -2.047  11.370  1.00  0.00     0.000 G0
ENDBRANCH  11  12
BRANCH  11  18
ATOM     18  C   UNL     1       2.893  -3.954   6.473  1.00  0.00     0.015 C 
ATOM     19  C   UNL     1       2.137  -4.465   5.239  1.00  0.00     0.010 C 
BRANCH  18  20
ATOM     20  C   UNL     1       3.316  -2.481   6.305  1.00  0.00     0.002 C 
ATOM     21  C   UNL     1       4.076  -2.224   5.009  1.00  0.00     0.004 C 
ENDBRANCH  18  20
ENDBRANCH  11  18
ENDBRANCH   8  11
ENDBRANCH   3   7
ENDBRANCH   1   2
BRANCH   1  22
ATOM     22  N   UNL     1       0.954  -8.778  11.447  1.00  0.00    -0.348 N 
ATOM     23  C   UNL     1       0.364  -8.265  12.570  1.00  0.00     0.249 C 
ATOM     24  O   UNL     1       0.882  -8.307  13.680  1.00  0.00    -0.272 OA
ATOM     25  H   UNL     1       0.426  -8.702  10.578  1.00  0.00     0.163 HD
BRANCH  23  26
ATOM     26  C   UNL     1      -0.980  -7.582  12.277  1.00  0.00     0.238 C 
ATOM     27  N   UNL     1      -1.074  -6.323  13.068  1.00  0.00    -0.236 NA
ATOM     28  C   UNL     1      -1.099  -7.159  10.823  1.00  0.00     0.206 C 
ATOM     29  C   UNL     1      -1.003  -5.396  12.160  1.00  0.00     0.208 C 
ATOM     30  O   UNL     1      -0.894  -5.747  10.856  1.00  0.00    -0.474 OA
ATOM     31  C   UNL     1      -2.479  -7.436  10.244  1.00  0.00     0.056 C 
BRANCH  29  32
ATOM     32  C   UNL     1      -0.977  -3.890  12.406  1.00  0.00     0.171 C 
BRANCH  32  33
ATOM     33  N   UNL     1      -0.418  -3.186  11.262  1.00  0.00    -0.342 N 
ATOM     34  C   UNL     1       0.330  -2.040  11.390  1.00  0.00     0.246 CG0
ATOM     35  O   UNL     1       0.562  -1.509  12.473  1.00  0.00    -0.273 OA
ATOM     36  H   UNL     1      -0.595  -3.503  10.315  1.00  0.00     0.164 HD
ATOM     37  G   UNL     1       0.878  -1.486  10.065  1.00  0.00     0.000 G0
ENDBRANCH  32  33
BRANCH  32  38
ATOM     38  C   UNL     1      -2.391  -3.377  12.787  1.00  0.00     0.017 C 
ATOM     39  C   UNL     1      -3.403  -4.528  12.725  1.00  0.00     0.010 C 
BRANCH  38  40
ATOM     40  C   UNL     1      -2.424  -2.663  14.158  1.00  0.00     0.002 C 
ATOM     41  C   UNL     1      -1.208  -2.955  15.027  1.00  0.00     0.004 C 
ENDBRANCH  38  40
ENDBRANCH  32  38
ENDBRANCH  29  32
ENDBRANCH  23  26
ENDBRANCH   1  22
TORSDOF 4
ENDMDL
