MODEL 1
REMARK VINA RESULT:    -5.854      0.000      0.000
REMARK INTER + INTRA:         -12.597
REMARK INTER:                 -10.474
REMARK INTRA:                  -2.123
REMARK UNBOUND:                -2.123
REMARK SMILES CC[C@H](C)[C@H]1NC(=O)c2coc(n2)[C@H](C(C)C)NC(=O)[C@H]([C@@H](C)O)NC(=O)[C@H](C)NC(=O)c2csc1n2
REMARK SMILES IDX 11 1 13 2 12 3 9 4 10 5 7 6 6 7 8 8 5 10 36 11 35 12 34 13
REMARK SMILES IDX 37 14 33 15 31 16 32 17 30 18 28 20 29 21 3 23 4 24 2 25
REMARK SMILES IDX 1 26 14 27 18 28 19 29 20 30 21 32 25 33 26 34 27 35 22 38
REMARK SMILES IDX 23 39 24 40 15 42 16 43 17 44
REMARK H PARENT 6 9 30 19 18 31 25 36 24 41
REMARK Flexibility Score:   94.900
ROOT
ATOM      1  O   UNL     1       1.592   0.289  -8.649  1.00  0.00    -0.446 OA
ATOM      2  N   UNL     1       0.589   2.058  -7.677  1.00  0.00    -0.207 NA
ATOM      3  C   UNL     1       1.352   1.637  -8.669  1.00  0.00     0.217 A 
ATOM      4  C   UNL     1       0.284   0.906  -6.972  1.00  0.00     0.167 A 
ATOM      5  C   UNL     1       0.898  -0.167  -7.569  1.00  0.00     0.231 A 
ENDROOT
BRANCH   4   6
ATOM      6  C   UNL     1      -0.536   0.904  -5.773  1.00  0.00     0.273 C 
ATOM      7  N   UNL     1      -1.442  -0.127  -5.777  1.00  0.00    -0.341 N 
ATOM      8  O   UNL     1      -0.440   1.741  -4.884  1.00  0.00    -0.267 OA
ATOM      9  H   UNL     1      -1.468  -0.687  -6.625  1.00  0.00     0.164 HD
BRANCH   7  10
ATOM     10  C   UNL     1      -2.539  -0.221  -4.834  1.00  0.00     0.145 C 
BRANCH  10  11
ATOM     11  C   UNL     1      -3.700   0.585  -5.397  1.00  0.00     0.116 A 
ATOM     12  S   UNL     1      -5.319   0.070  -5.107  1.00  0.00    -0.124 S 
ATOM     13  C   UNL     1      -5.898   1.429  -5.966  1.00  0.00     0.101 A 
ATOM     14  N   UNL     1      -3.579   1.697  -6.104  1.00  0.00    -0.234 NA
ATOM     15  C   UNL     1      -4.844   2.198  -6.421  1.00  0.00     0.139 A 
BRANCH  15  16
ATOM     16  C   UNL     1      -5.012   3.446  -7.169  1.00  0.00     0.271 C 
ATOM     17  O   UNL     1      -6.098   3.999  -7.305  1.00  0.00    -0.267 OA
ATOM     18  N   UNL     1      -3.836   3.932  -7.700  1.00  0.00    -0.339 N 
ATOM     19  H   UNL     1      -3.025   3.326  -7.613  1.00  0.00     0.164 HD
BRANCH  18  20
ATOM     20  C   UNL     1      -3.821   5.127  -8.533  1.00  0.00     0.168 CG0
ATOM     21  C   UNL     1      -3.128   6.292  -7.822  1.00  0.00     0.041 C 
ATOM     22  G   UNL     1      -3.110   4.906  -9.877  1.00  0.00     0.000 G0
ENDBRANCH  18  20
ENDBRANCH  15  16
ENDBRANCH  10  11
BRANCH  10  23
ATOM     23  C   UNL     1      -2.931  -1.693  -4.536  1.00  0.00     0.015 C 
ATOM     24  C   UNL     1      -2.130  -2.715  -5.360  1.00  0.00     0.010 C 
BRANCH  23  25
ATOM     25  C   UNL     1      -2.802  -2.055  -3.039  1.00  0.00     0.002 C 
ATOM     26  C   UNL     1      -1.998  -1.049  -2.227  1.00  0.00     0.004 C 
ENDBRANCH  23  25
ENDBRANCH  10  23
ENDBRANCH   7  10
ENDBRANCH   4   6
BRANCH   3  27
ATOM     27  C   UNL     1       1.996   2.478  -9.738  1.00  0.00     0.171 C 
BRANCH  27  28
ATOM     28  N   UNL     1       1.066   3.547 -10.085  1.00  0.00    -0.342 N 
ATOM     29  C   UNL     1      -0.017   3.356 -10.913  1.00  0.00     0.245 C 
ATOM     30  O   UNL     1      -0.290   2.264 -11.410  1.00  0.00    -0.273 OA
ATOM     31  H   UNL     1       1.161   4.450  -9.620  1.00  0.00     0.164 HD
BRANCH  29  32
ATOM     32  C   UNL     1      -0.958   4.570 -11.059  1.00  0.00     0.200 C 
BRANCH  32  33
ATOM     33  N   UNL     1      -1.755   4.686  -9.832  1.00  0.00    -0.340 N 
ATOM     34  C   UNL     1      -3.118   4.896  -9.880  1.00  0.00     0.243 CG0
ATOM     35  O   UNL     1      -3.713   5.058 -10.944  1.00  0.00    -0.273 OA
ATOM     36  H   UNL     1      -1.288   4.587  -8.939  1.00  0.00     0.164 HD
ATOM     37  G   UNL     1      -3.804   5.135  -8.525  1.00  0.00     0.000 G0
ENDBRANCH  32  33
BRANCH  32  38
ATOM     38  C   UNL     1      -0.171   5.859 -11.391  1.00  0.00     0.143 C 
ATOM     39  C   UNL     1      -0.903   6.813 -12.327  1.00  0.00     0.041 C 
BRANCH  38  40
ATOM     40  O   UNL     1       0.161   6.560 -10.176  1.00  0.00    -0.391 OA
ATOM     41  H   UNL     1       0.917   6.087  -9.778  1.00  0.00     0.211 HD
ENDBRANCH  38  40
ENDBRANCH  32  38
ENDBRANCH  29  32
ENDBRANCH  27  28
BRANCH  27  42
ATOM     42  C   UNL     1       3.415   3.027  -9.455  1.00  0.00     0.015 C 
ATOM     43  C   UNL     1       3.919   2.848  -8.018  1.00  0.00     0.010 C 
ATOM     44  C   UNL     1       4.447   2.487 -10.450  1.00  0.00     0.010 C 
ENDBRANCH  27  42
ENDBRANCH   3  27
TORSDOF 5
ENDMDL
MODEL 2
REMARK VINA RESULT:    -5.470      3.757      7.995
REMARK INTER + INTRA:         -11.910
REMARK INTER:                  -9.335
REMARK INTRA:                  -2.576
REMARK UNBOUND:                -2.123
REMARK SMILES CC[C@H](C)[C@H]1NC(=O)c2coc(n2)[C@H](C(C)C)NC(=O)[C@H]([C@@H](C)O)NC(=O)[C@H](C)NC(=O)c2csc1n2
REMARK SMILES IDX 11 1 13 2 12 3 9 4 10 5 7 6 6 7 8 8 5 10 36 11 35 12 34 13
REMARK SMILES IDX 37 14 33 15 31 16 32 17 30 18 28 20 29 21 3 23 4 24 2 25
REMARK SMILES IDX 1 26 14 27 18 28 19 29 20 30 21 32 25 33 26 34 27 35 22 38
REMARK SMILES IDX 23 39 24 40 15 42 16 43 17 44
REMARK H PARENT 6 9 30 19 18 31 25 36 24 41
REMARK Flexibility Score:   94.900
ROOT
ATOM      1  O   UNL     1      -6.914  -0.754  -3.659  1.00  0.00    -0.446 OA
ATOM      2  N   UNL     1      -6.493   0.057  -5.719  1.00  0.00    -0.207 NA
ATOM      3  C   UNL     1      -6.204  -0.870  -4.824  1.00  0.00     0.217 A 
ATOM      4  C   UNL     1      -7.477   0.819  -5.113  1.00  0.00     0.167 A 
ATOM      5  C   UNL     1      -7.729   0.319  -3.859  1.00  0.00     0.231 A 
ENDROOT
BRANCH   4   6
ATOM      6  C   UNL     1      -8.087   1.976  -5.745  1.00  0.00     0.273 C 
ATOM      7  N   UNL     1      -7.673   2.124  -7.044  1.00  0.00    -0.341 N 
ATOM      8  O   UNL     1      -8.856   2.736  -5.169  1.00  0.00    -0.267 OA
ATOM      9  H   UNL     1      -6.961   1.471  -7.357  1.00  0.00     0.164 HD
BRANCH   7  10
ATOM     10  C   UNL     1      -7.927   3.320  -7.824  1.00  0.00     0.145 C 
BRANCH  10  11
ATOM     11  C   UNL     1      -6.630   4.112  -7.888  1.00  0.00     0.116 A 
ATOM     12  S   UNL     1      -6.649   5.740  -8.452  1.00  0.00    -0.124 S 
ATOM     13  C   UNL     1      -4.966   5.849  -8.175  1.00  0.00     0.101 A 
ATOM     14  N   UNL     1      -5.443   3.655  -7.523  1.00  0.00    -0.234 NA
ATOM     15  C   UNL     1      -4.482   4.658  -7.670  1.00  0.00     0.139 A 
BRANCH  15  16
ATOM     16  C   UNL     1      -3.081   4.441  -7.302  1.00  0.00     0.271 C 
ATOM     17  O   UNL     1      -2.147   4.942  -7.918  1.00  0.00    -0.267 OA
ATOM     18  N   UNL     1      -2.920   3.624  -6.203  1.00  0.00    -0.339 N 
ATOM     19  H   UNL     1      -3.765   3.183  -5.850  1.00  0.00     0.164 HD
BRANCH  18  20
ATOM     20  C   UNL     1      -1.594   3.243  -5.734  1.00  0.00     0.168 CG0
ATOM     21  C   UNL     1      -1.428   3.533  -4.241  1.00  0.00     0.041 C 
ATOM     22  G   UNL     1      -1.290   1.753  -5.961  1.00  0.00     0.000 G0
ENDBRANCH  18  20
ENDBRANCH  15  16
ENDBRANCH  10  11
BRANCH  10  23
ATOM     23  C   UNL     1      -8.489   2.992  -9.233  1.00  0.00     0.015 C 
ATOM     24  C   UNL     1      -7.429   2.436 -10.198  1.00  0.00     0.010 C 
BRANCH  23  25
ATOM     25  C   UNL     1      -9.681   2.008  -9.188  1.00  0.00     0.002 C 
ATOM     26  C   UNL     1     -10.916   2.565  -8.493  1.00  0.00     0.004 C 
ENDBRANCH  23  25
ENDBRANCH  10  23
ENDBRANCH   7  10
ENDBRANCH   4   6
BRANCH   3  27
ATOM     27  C   UNL     1      -5.174  -1.959  -4.947  1.00  0.00     0.171 C 
BRANCH  27  28
ATOM     28  N   UNL     1      -3.871  -1.377  -4.639  1.00  0.00    -0.342 N 
ATOM     29  C   UNL     1      -2.847  -1.310  -5.556  1.00  0.00     0.245 C 
ATOM     30  O   UNL     1      -2.959  -1.722  -6.710  1.00  0.00    -0.273 OA
ATOM     31  H   UNL     1      -3.742  -0.913  -3.740  1.00  0.00     0.164 HD
BRANCH  29  32
ATOM     32  C   UNL     1      -1.591  -0.546  -5.087  1.00  0.00     0.200 C 
BRANCH  32  33
ATOM     33  N   UNL     1      -1.900   0.890  -5.083  1.00  0.00    -0.340 N 
ATOM     34  C   UNL     1      -1.272   1.760  -5.950  1.00  0.00     0.243 CG0
ATOM     35  O   UNL     1      -0.385   1.387  -6.716  1.00  0.00    -0.273 OA
ATOM     36  H   UNL     1      -2.606   1.232  -4.442  1.00  0.00     0.164 HD
ATOM     37  G   UNL     1      -1.589   3.250  -5.745  1.00  0.00     0.000 G0
ENDBRANCH  32  33
BRANCH  32  38
ATOM     38  C   UNL     1      -1.095  -1.059  -3.716  1.00  0.00     0.143 C 
ATOM     39  C   UNL     1       0.359  -0.719  -3.412  1.00  0.00     0.041 C 
BRANCH  38  40
ATOM     40  O   UNL     1      -1.927  -0.534  -2.663  1.00  0.00    -0.391 OA
ATOM     41  H   UNL     1      -1.444  -0.678  -1.827  1.00  0.00     0.211 HD
ENDBRANCH  38  40
ENDBRANCH  32  38
ENDBRANCH  29  32
ENDBRANCH  27  28
BRANCH  27  42
ATOM     42  C   UNL     1      -5.417  -3.265  -4.151  1.00  0.00     0.015 C 
ATOM     43  C   UNL     1      -5.262  -4.564  -4.950  1.00  0.00     0.010 C 
ATOM     44  C   UNL     1      -4.573  -3.323  -2.874  1.00  0.00     0.010 C 
ENDBRANCH  27  42
ENDBRANCH   3  27
TORSDOF 5
ENDMDL
MODEL 3
REMARK VINA RESULT:    -5.151      3.790      6.083
REMARK INTER + INTRA:         -11.340
REMARK INTER:                  -9.248
REMARK INTRA:                  -2.091
REMARK UNBOUND:                -2.123
REMARK SMILES CC[C@H](C)[C@H]1NC(=O)c2coc(n2)[C@H](C(C)C)NC(=O)[C@H]([C@@H](C)O)NC(=O)[C@H](C)NC(=O)c2csc1n2
REMARK SMILES IDX 11 1 13 2 12 3 9 4 10 5 7 6 6 7 8 8 5 10 36 11 35 12 34 13
REMARK SMILES IDX 37 14 33 15 31 16 32 17 30 18 28 20 29 21 3 23 4 24 2 25
REMARK SMILES IDX 1 26 14 27 18 28 19 29 20 30 21 32 25 33 26 34 27 35 22 38
REMARK SMILES IDX 23 39 24 40 15 42 16 43 17 44
REMARK H PARENT 6 9 30 19 18 31 25 36 24 41
REMARK Flexibility Score:   94.900
ROOT
ATOM      1  O   UNL     1      -1.757   3.437  -7.371  1.00  0.00    -0.446 OA
ATOM      2  N   UNL     1      -3.312   3.706  -5.762  1.00  0.00    -0.207 NA
ATOM      3  C   UNL     1      -2.988   3.926  -7.023  1.00  0.00     0.217 A 
ATOM      4  C   UNL     1      -2.235   3.002  -5.252  1.00  0.00     0.167 A 
ATOM      5  C   UNL     1      -1.292   2.841  -6.237  1.00  0.00     0.231 A 
ENDROOT
BRANCH   4   6
ATOM      6  C   UNL     1      -2.159   2.558  -3.871  1.00  0.00     0.273 C 
ATOM      7  N   UNL     1      -1.677   1.277  -3.773  1.00  0.00    -0.341 N 
ATOM      8  O   UNL     1      -2.509   3.244  -2.918  1.00  0.00    -0.267 OA
ATOM      9  H   UNL     1      -1.516   0.798  -4.655  1.00  0.00     0.164 HD
BRANCH   7  10
ATOM     10  C   UNL     1      -1.730   0.503  -2.549  1.00  0.00     0.145 C 
BRANCH  10  11
ATOM     11  C   UNL     1      -3.003  -0.330  -2.585  1.00  0.00     0.116 A 
ATOM     12  S   UNL     1      -3.011  -1.910  -1.897  1.00  0.00    -0.124 S 
ATOM     13  C   UNL     1      -4.664  -2.070  -2.301  1.00  0.00     0.101 A 
ATOM     14  N   UNL     1      -4.154   0.066  -3.103  1.00  0.00    -0.234 NA
ATOM     15  C   UNL     1      -5.121  -0.927  -2.927  1.00  0.00     0.139 A 
BRANCH  15  16
ATOM     16  C   UNL     1      -6.504  -0.742  -3.373  1.00  0.00     0.271 C 
ATOM     17  O   UNL     1      -7.398  -1.539  -3.113  1.00  0.00    -0.267 OA
ATOM     18  N   UNL     1      -6.697   0.410  -4.106  1.00  0.00    -0.339 N 
ATOM     19  H   UNL     1      -5.857   0.929  -4.347  1.00  0.00     0.164 HD
BRANCH  18  20
ATOM     20  C   UNL     1      -7.994   0.725  -4.689  1.00  0.00     0.168 CG0
ATOM     21  C   UNL     1      -8.794   1.669  -3.789  1.00  0.00     0.041 C 
ATOM     22  G   UNL     1      -7.879   1.381  -6.075  1.00  0.00     0.000 G0
ENDBRANCH  18  20
ENDBRANCH  15  16
ENDBRANCH  10  11
BRANCH  10  23
ATOM     23  C   UNL     1      -0.460  -0.367  -2.351  1.00  0.00     0.015 C 
ATOM     24  C   UNL     1       0.452  -0.405  -3.589  1.00  0.00     0.010 C 
BRANCH  23  25
ATOM     25  C   UNL     1       0.381   0.072  -1.130  1.00  0.00     0.002 C 
ATOM     26  C   UNL     1       0.842   1.522  -1.187  1.00  0.00     0.004 C 
ENDBRANCH  23  25
ENDBRANCH  10  23
ENDBRANCH   7  10
ENDBRANCH   4   6
BRANCH   3  27
ATOM     27  C   UNL     1      -3.791   4.680  -8.048  1.00  0.00     0.171 C 
BRANCH  27  28
ATOM     28  N   UNL     1      -5.196   4.593  -7.665  1.00  0.00    -0.342 N 
ATOM     29  C   UNL     1      -5.957   3.463  -7.865  1.00  0.00     0.245 C 
ATOM     30  O   UNL     1      -5.503   2.436  -8.368  1.00  0.00    -0.273 OA
ATOM     31  H   UNL     1      -5.609   5.363  -7.140  1.00  0.00     0.164 HD
BRANCH  29  32
ATOM     32  C   UNL     1      -7.383   3.516  -7.279  1.00  0.00     0.200 C 
BRANCH  32  33
ATOM     33  N   UNL     1      -7.410   2.702  -6.057  1.00  0.00    -0.340 N 
ATOM     34  C   UNL     1      -7.876   1.404  -6.072  1.00  0.00     0.243 CG0
ATOM     35  O   UNL     1      -8.347   0.894  -7.086  1.00  0.00    -0.273 OA
ATOM     36  H   UNL     1      -7.056   3.106  -5.198  1.00  0.00     0.164 HD
ATOM     37  G   UNL     1      -7.976   0.717  -4.700  1.00  0.00     0.000 G0
ENDBRANCH  32  33
BRANCH  32  38
ATOM     38  C   UNL     1      -7.844   4.973  -7.043  1.00  0.00     0.143 C 
ATOM     39  C   UNL     1      -9.255   5.267  -7.538  1.00  0.00     0.041 C 
BRANCH  38  40
ATOM     40  O   UNL     1      -7.764   5.295  -5.641  1.00  0.00    -0.391 OA
ATOM     41  H   UNL     1      -6.826   5.491  -5.453  1.00  0.00     0.211 HD
ENDBRANCH  38  40
ENDBRANCH  32  38
ENDBRANCH  29  32
ENDBRANCH  27  28
BRANCH  27  42
ATOM     42  C   UNL     1      -3.371   6.140  -8.350  1.00  0.00     0.015 C 
ATOM     43  C   UNL     1      -2.914   6.960  -7.138  1.00  0.00     0.010 C 
ATOM     44  C   UNL     1      -2.327   6.216  -9.468  1.00  0.00     0.010 C 
ENDBRANCH  27  42
ENDBRANCH   3  27
TORSDOF 5
ENDMDL
MODEL 4
REMARK VINA RESULT:    -4.730      9.481     11.732
REMARK INTER + INTRA:         -10.587
REMARK INTER:                  -8.794
REMARK INTRA:                  -1.793
REMARK UNBOUND:                -2.123
REMARK SMILES CC[C@H](C)[C@H]1NC(=O)c2coc(n2)[C@H](C(C)C)NC(=O)[C@H]([C@@H](C)O)NC(=O)[C@H](C)NC(=O)c2csc1n2
REMARK SMILES IDX 11 1 13 2 12 3 9 4 10 5 7 6 6 7 8 8 5 10 36 11 35 12 34 13
REMARK SMILES IDX 37 14 33 15 31 16 32 17 30 18 28 20 29 21 3 23 4 24 2 25
REMARK SMILES IDX 1 26 14 27 18 28 19 29 20 30 21 32 25 33 26 34 27 35 22 38
REMARK SMILES IDX 23 39 24 40 15 42 16 43 17 44
REMARK H PARENT 6 9 30 19 18 31 25 36 24 41
REMARK Flexibility Score:   94.900
ROOT
ATOM      1  O   UNL     1       4.837   1.954   3.092  1.00  0.00    -0.446 OA
ATOM      2  N   UNL     1       2.842   2.969   3.359  1.00  0.00    -0.207 NA
ATOM      3  C   UNL     1       4.123   2.962   3.683  1.00  0.00     0.217 A 
ATOM      4  C   UNL     1       2.710   1.912   2.475  1.00  0.00     0.167 A 
ATOM      5  C   UNL     1       3.929   1.298   2.316  1.00  0.00     0.231 A 
ENDROOT
BRANCH   4   6
ATOM      6  C   UNL     1       1.444   1.538   1.868  1.00  0.00     0.273 C 
ATOM      7  N   UNL     1       1.437   1.777   0.517  1.00  0.00    -0.341 N 
ATOM      8  O   UNL     1       0.496   1.089   2.500  1.00  0.00    -0.267 OA
ATOM      9  H   UNL     1       2.263   2.238   0.146  1.00  0.00     0.164 HD
BRANCH   7  10
ATOM     10  C   UNL     1       0.233   1.730  -0.289  1.00  0.00     0.145 C 
BRANCH  10  11
ATOM     11  C   UNL     1      -0.094   3.155  -0.711  1.00  0.00     0.116 A 
ATOM     12  S   UNL     1      -1.308   3.437  -1.901  1.00  0.00    -0.124 S 
ATOM     13  C   UNL     1      -1.066   5.121  -1.738  1.00  0.00     0.101 A 
ATOM     14  N   UNL     1       0.479   4.242  -0.220  1.00  0.00    -0.234 NA
ATOM     15  C   UNL     1      -0.089   5.380  -0.796  1.00  0.00     0.139 A 
BRANCH  15  16
ATOM     16  C   UNL     1       0.329   6.729  -0.410  1.00  0.00     0.271 C 
ATOM     17  O   UNL     1       0.138   7.713  -1.116  1.00  0.00    -0.267 OA
ATOM     18  N   UNL     1       0.952   6.782   0.819  1.00  0.00    -0.339 N 
ATOM     19  H   UNL     1       1.150   5.885   1.256  1.00  0.00     0.164 HD
BRANCH  18  20
ATOM     20  C   UNL     1       1.496   8.030   1.337  1.00  0.00     0.168 CG0
ATOM     21  C   UNL     1       0.937   8.347   2.726  1.00  0.00     0.041 C 
ATOM     22  G   UNL     1       3.030   8.012   1.441  1.00  0.00     0.000 G0
ENDBRANCH  18  20
ENDBRANCH  15  16
ENDBRANCH  10  11
BRANCH  10  23
ATOM     23  C   UNL     1       0.376   0.772  -1.502  1.00  0.00     0.015 C 
ATOM     24  C   UNL     1       1.788   0.181  -1.648  1.00  0.00     0.010 C 
BRANCH  23  25
ATOM     25  C   UNL     1      -0.645  -0.387  -1.471  1.00  0.00     0.002 C 
ATOM     26  C   UNL     1      -1.086  -0.786  -0.070  1.00  0.00     0.004 C 
ENDBRANCH  23  25
ENDBRANCH  10  23
ENDBRANCH   7  10
ENDBRANCH   4   6
BRANCH   3  27
ATOM     27  C   UNL     1       4.820   3.887   4.642  1.00  0.00     0.171 C 
BRANCH  27  28
ATOM     28  N   UNL     1       4.655   5.250   4.148  1.00  0.00    -0.342 N 
ATOM     29  C   UNL     1       5.444   5.786   3.155  1.00  0.00     0.245 C 
ATOM     30  O   UNL     1       6.338   5.149   2.599  1.00  0.00    -0.273 OA
ATOM     31  H   UNL     1       3.862   5.798   4.480  1.00  0.00     0.164 HD
BRANCH  29  32
ATOM     32  C   UNL     1       5.035   7.195   2.676  1.00  0.00     0.200 C 
BRANCH  32  33
ATOM     33  N   UNL     1       3.592   7.190   2.408  1.00  0.00    -0.340 N 
ATOM     34  C   UNL     1       3.041   8.002   1.438  1.00  0.00     0.243 CG0
ATOM     35  O   UNL     1       3.719   8.807   0.804  1.00  0.00    -0.273 OA
ATOM     36  H   UNL     1       3.002   6.558   2.937  1.00  0.00     0.164 HD
ATOM     37  G   UNL     1       1.506   7.997   1.358  1.00  0.00     0.000 G0
ENDBRANCH  32  33
BRANCH  32  38
ATOM     38  C   UNL     1       5.455   8.281   3.693  1.00  0.00     0.143 C 
ATOM     39  C   UNL     1       5.956   7.729   5.023  1.00  0.00     0.041 C 
BRANCH  38  40
ATOM     40  O   UNL     1       6.476   9.122   3.122  1.00  0.00    -0.391 OA
ATOM     41  H   UNL     1       6.325  10.021   3.471  1.00  0.00     0.211 HD
ENDBRANCH  38  40
ENDBRANCH  32  38
ENDBRANCH  29  32
ENDBRANCH  27  28
BRANCH  27  42
ATOM     42  C   UNL     1       4.447   3.775   6.140  1.00  0.00     0.015 C 
ATOM     43  C   UNL     1       5.594   3.387   7.080  1.00  0.00     0.010 C 
ATOM     44  C   UNL     1       3.744   5.037   6.652  1.00  0.00     0.010 C 
ENDBRANCH  27  42
ENDBRANCH   3  27
TORSDOF 5
ENDMDL
MODEL 5
REMARK VINA RESULT:    -4.343     15.141     18.530
REMARK INTER + INTRA:          -9.894
REMARK INTER:                  -7.322
REMARK INTRA:                  -2.572
REMARK UNBOUND:                -2.123
REMARK SMILES CC[C@H](C)[C@H]1NC(=O)c2coc(n2)[C@H](C(C)C)NC(=O)[C@H]([C@@H](C)O)NC(=O)[C@H](C)NC(=O)c2csc1n2
REMARK SMILES IDX 11 1 13 2 12 3 9 4 10 5 7 6 6 7 8 8 5 10 36 11 35 12 34 13
REMARK SMILES IDX 37 14 33 15 31 16 32 17 30 18 28 20 29 21 3 23 4 24 2 25
REMARK SMILES IDX 1 26 14 27 18 28 19 29 20 30 21 32 25 33 26 34 27 35 22 38
REMARK SMILES IDX 23 39 24 40 15 42 16 43 17 44
REMARK H PARENT 6 9 30 19 18 31 25 36 24 41
REMARK Flexibility Score:   94.900
ROOT
ATOM      1  O   UNL     1      -5.494  -0.533   4.868  1.00  0.00    -0.446 OA
ATOM      2  N   UNL     1      -5.474  -1.586   6.861  1.00  0.00    -0.207 NA
ATOM      3  C   UNL     1      -6.211  -1.163   5.850  1.00  0.00     0.217 A 
ATOM      4  C   UNL     1      -4.182  -1.233   6.510  1.00  0.00     0.167 A 
ATOM      5  C   UNL     1      -4.201  -0.593   5.295  1.00  0.00     0.231 A 
ENDROOT
BRANCH   4   6
ATOM      6  C   UNL     1      -3.030  -1.498   7.354  1.00  0.00     0.273 C 
ATOM      7  N   UNL     1      -3.338  -2.351   8.384  1.00  0.00    -0.341 N 
ATOM      8  O   UNL     1      -1.928  -0.994   7.174  1.00  0.00    -0.267 OA
ATOM      9  H   UNL     1      -4.316  -2.615   8.460  1.00  0.00     0.164 HD
BRANCH   7  10
ATOM     10  C   UNL     1      -2.453  -2.587   9.507  1.00  0.00     0.145 C 
BRANCH  10  11
ATOM     11  C   UNL     1      -3.269  -2.417  10.780  1.00  0.00     0.116 A 
ATOM     12  S   UNL     1      -2.757  -3.188  12.234  1.00  0.00    -0.124 S 
ATOM     13  C   UNL     1      -4.084  -2.495  13.060  1.00  0.00     0.101 A 
ATOM     14  N   UNL     1      -4.371  -1.692  10.883  1.00  0.00    -0.234 NA
ATOM     15  C   UNL     1      -4.836  -1.719  12.200  1.00  0.00     0.139 A 
BRANCH  15  16
ATOM     16  C   UNL     1      -6.025  -0.969  12.612  1.00  0.00     0.271 C 
ATOM     17  O   UNL     1      -6.401  -0.907  13.777  1.00  0.00    -0.267 OA
ATOM     18  N   UNL     1      -6.672  -0.344  11.566  1.00  0.00    -0.339 N 
ATOM     19  H   UNL     1      -6.326  -0.563  10.636  1.00  0.00     0.164 HD
BRANCH  18  20
ATOM     20  C   UNL     1      -7.911   0.392  11.778  1.00  0.00     0.168 CG0
ATOM     21  C   UNL     1      -7.663   1.901  11.812  1.00  0.00     0.041 C 
ATOM     22  G   UNL     1      -8.961   0.112  10.690  1.00  0.00     0.000 G0
ENDBRANCH  18  20
ENDBRANCH  15  16
ENDBRANCH  10  11
BRANCH  10  23
ATOM     23  C   UNL     1      -1.763  -3.975   9.428  1.00  0.00     0.015 C 
ATOM     24  C   UNL     1      -2.539  -4.993   8.576  1.00  0.00     0.010 C 
BRANCH  23  25
ATOM     25  C   UNL     1      -0.312  -3.893   8.902  1.00  0.00     0.002 C 
ATOM     26  C   UNL     1       0.494  -2.742   9.488  1.00  0.00     0.004 C 
ENDBRANCH  23  25
ENDBRANCH  10  23
ENDBRANCH   7  10
ENDBRANCH   4   6
BRANCH   3  27
ATOM     27  C   UNL     1      -7.706  -1.262   5.714  1.00  0.00     0.171 C 
BRANCH  27  28
ATOM     28  N   UNL     1      -8.300  -0.248   6.579  1.00  0.00    -0.342 N 
ATOM     29  C   UNL     1      -9.315  -0.527   7.468  1.00  0.00     0.245 C 
ATOM     30  O   UNL     1      -9.784  -1.654   7.610  1.00  0.00    -0.273 OA
ATOM     31  H   UNL     1      -7.886   0.683   6.600  1.00  0.00     0.164 HD
BRANCH  29  32
ATOM     32  C   UNL     1      -9.724   0.643   8.388  1.00  0.00     0.200 C 
BRANCH  32  33
ATOM     33  N   UNL     1      -8.748   0.734   9.481  1.00  0.00    -0.340 N 
ATOM     34  C   UNL     1      -8.964   0.102  10.688  1.00  0.00     0.243 CG0
ATOM     35  O   UNL     1     -10.005  -0.508  10.926  1.00  0.00    -0.273 OA
ATOM     36  H   UNL     1      -7.894   1.255   9.326  1.00  0.00     0.164 HD
ATOM     37  G   UNL     1      -7.929   0.393  11.787  1.00  0.00     0.000 G0
ENDBRANCH  32  33
BRANCH  32  38
ATOM     38  C   UNL     1      -9.866   1.963   7.596  1.00  0.00     0.143 C 
ATOM     39  C   UNL     1     -10.627   3.056   8.337  1.00  0.00     0.041 C 
BRANCH  38  40
ATOM     40  O   UNL     1      -8.565   2.463   7.234  1.00  0.00    -0.391 OA
ATOM     41  H   UNL     1      -8.705   3.121   6.527  1.00  0.00     0.211 HD
ENDBRANCH  38  40
ENDBRANCH  32  38
ENDBRANCH  29  32
ENDBRANCH  27  28
BRANCH  27  42
ATOM     42  C   UNL     1      -8.298  -1.207   4.284  1.00  0.00     0.015 C 
ATOM     43  C   UNL     1      -9.562  -2.044   4.060  1.00  0.00     0.010 C 
ATOM     44  C   UNL     1      -8.523   0.233   3.812  1.00  0.00     0.010 C 
ENDBRANCH  27  42
ENDBRANCH   3  27
TORSDOF 5
ENDMDL
MODEL 6
REMARK VINA RESULT:    -4.233      3.369      5.588
REMARK INTER + INTRA:          -9.697
REMARK INTER:                  -7.334
REMARK INTRA:                  -2.363
REMARK UNBOUND:                -2.123
REMARK SMILES CC[C@H](C)[C@H]1NC(=O)c2coc(n2)[C@H](C(C)C)NC(=O)[C@H]([C@@H](C)O)NC(=O)[C@H](C)NC(=O)c2csc1n2
REMARK SMILES IDX 11 1 13 2 12 3 9 4 10 5 7 6 6 7 8 8 5 10 36 11 35 12 34 13
REMARK SMILES IDX 37 14 33 15 31 16 32 17 30 18 28 20 29 21 3 23 4 24 2 25
REMARK SMILES IDX 1 26 14 27 18 28 19 29 20 30 21 32 25 33 26 34 27 35 22 38
REMARK SMILES IDX 23 39 24 40 15 42 16 43 17 44
REMARK H PARENT 6 9 30 19 18 31 25 36 24 41
REMARK Flexibility Score:   94.900
ROOT
ATOM      1  O   UNL     1      -2.949   6.897  -7.074  1.00  0.00    -0.446 OA
ATOM      2  N   UNL     1      -2.622   4.700  -7.457  1.00  0.00    -0.207 NA
ATOM      3  C   UNL     1      -2.999   5.859  -7.966  1.00  0.00     0.217 A 
ATOM      4  C   UNL     1      -2.275   4.999  -6.151  1.00  0.00     0.167 A 
ATOM      5  C   UNL     1      -2.476   6.339  -5.924  1.00  0.00     0.231 A 
ENDROOT
BRANCH   4   6
ATOM      6  C   UNL     1      -1.809   4.001  -5.205  1.00  0.00     0.273 C 
ATOM      7  N   UNL     1      -2.213   2.738  -5.557  1.00  0.00    -0.341 N 
ATOM      8  O   UNL     1      -1.156   4.269  -4.204  1.00  0.00    -0.267 OA
ATOM      9  H   UNL     1      -2.828   2.680  -6.363  1.00  0.00     0.164 HD
BRANCH   7  10
ATOM     10  C   UNL     1      -2.101   1.595  -4.671  1.00  0.00     0.145 C 
BRANCH  10  11
ATOM     11  C   UNL     1      -3.496   1.011  -4.495  1.00  0.00     0.116 A 
ATOM     12  S   UNL     1      -3.852   0.052  -3.108  1.00  0.00    -0.124 S 
ATOM     13  C   UNL     1      -5.463  -0.123  -3.652  1.00  0.00     0.101 A 
ATOM     14  N   UNL     1      -4.504   1.190  -5.333  1.00  0.00    -0.234 NA
ATOM     15  C   UNL     1      -5.646   0.552  -4.844  1.00  0.00     0.139 A 
BRANCH  15  16
ATOM     16  C   UNL     1      -6.927   0.616  -5.553  1.00  0.00     0.271 C 
ATOM     17  O   UNL     1      -7.882  -0.097  -5.266  1.00  0.00    -0.267 OA
ATOM     18  N   UNL     1      -6.949   1.552  -6.565  1.00  0.00    -0.339 N 
ATOM     19  H   UNL     1      -6.062   2.000  -6.776  1.00  0.00     0.164 HD
BRANCH  18  20
ATOM     20  C   UNL     1      -8.117   1.709  -7.421  1.00  0.00     0.168 CG0
ATOM     21  C   UNL     1      -9.241   2.456  -6.699  1.00  0.00     0.041 C 
ATOM     22  G   UNL     1      -7.804   2.471  -8.719  1.00  0.00     0.000 G0
ENDBRANCH  18  20
ENDBRANCH  15  16
ENDBRANCH  10  11
BRANCH  10  23
ATOM     23  C   UNL     1      -1.083   0.547  -5.192  1.00  0.00     0.015 C 
ATOM     24  C   UNL     1      -0.230   1.058  -6.366  1.00  0.00     0.010 C 
BRANCH  23  25
ATOM     25  C   UNL     1      -0.138   0.029  -4.083  1.00  0.00     0.002 C 
ATOM     26  C   UNL     1      -0.268   0.774  -2.762  1.00  0.00     0.004 C 
ENDBRANCH  23  25
ENDBRANCH  10  23
ENDBRANCH   7  10
ENDBRANCH   4   6
BRANCH   3  27
ATOM     27  C   UNL     1      -3.507   6.116  -9.358  1.00  0.00     0.171 C 
BRANCH  27  28
ATOM     28  N   UNL     1      -4.946   5.873  -9.361  1.00  0.00    -0.342 N 
ATOM     29  C   UNL     1      -5.514   4.759  -9.937  1.00  0.00     0.245 C 
ATOM     30  O   UNL     1      -4.849   3.878 -10.479  1.00  0.00    -0.273 OA
ATOM     31  H   UNL     1      -5.550   6.501  -8.832  1.00  0.00     0.164 HD
BRANCH  29  32
ATOM     32  C   UNL     1      -7.036   4.612  -9.727  1.00  0.00     0.200 C 
BRANCH  32  33
ATOM     33  N   UNL     1      -7.259   3.734  -8.571  1.00  0.00    -0.340 N 
ATOM     34  C   UNL     1      -7.804   2.476  -8.723  1.00  0.00     0.243 CG0
ATOM     35  O   UNL     1      -8.185   2.060  -9.815  1.00  0.00    -0.273 OA
ATOM     36  H   UNL     1      -6.982   4.061  -7.653  1.00  0.00     0.164 HD
ATOM     37  G   UNL     1      -8.109   1.720  -7.419  1.00  0.00     0.000 G0
ENDBRANCH  32  33
BRANCH  32  38
ATOM     38  C   UNL     1      -7.722   5.990  -9.578  1.00  0.00     0.143 C 
ATOM     39  C   UNL     1      -9.193   5.998  -9.977  1.00  0.00     0.041 C 
BRANCH  38  40
ATOM     40  O   UNL     1      -7.603   6.455  -8.220  1.00  0.00    -0.391 OA
ATOM     41  H   UNL     1      -7.943   7.370  -8.208  1.00  0.00     0.211 HD
ENDBRANCH  38  40
ENDBRANCH  32  38
ENDBRANCH  29  32
ENDBRANCH  27  28
BRANCH  27  42
ATOM     42  C   UNL     1      -3.159   7.479 -10.004  1.00  0.00     0.015 C 
ATOM     43  C   UNL     1      -2.099   7.435 -11.111  1.00  0.00     0.010 C 
ATOM     44  C   UNL     1      -4.409   8.217 -10.495  1.00  0.00     0.010 C 
ENDBRANCH  27  42
ENDBRANCH   3  27
TORSDOF 5
ENDMDL
MODEL 7
REMARK VINA RESULT:    -3.542     14.467     18.220
REMARK INTER + INTRA:          -8.461
REMARK INTER:                  -6.152
REMARK INTRA:                  -2.309
REMARK UNBOUND:                -2.123
REMARK SMILES CC[C@H](C)[C@H]1NC(=O)c2coc(n2)[C@H](C(C)C)NC(=O)[C@H]([C@@H](C)O)NC(=O)[C@H](C)NC(=O)c2csc1n2
REMARK SMILES IDX 11 1 13 2 12 3 9 4 10 5 7 6 6 7 8 8 5 10 36 11 35 12 34 13
REMARK SMILES IDX 37 14 33 15 31 16 32 17 30 18 28 20 29 21 3 23 4 24 2 25
REMARK SMILES IDX 1 26 14 27 18 28 19 29 20 30 21 32 25 33 26 34 27 35 22 38
REMARK SMILES IDX 23 39 24 40 15 42 16 43 17 44
REMARK H PARENT 6 9 30 19 18 31 25 36 24 41
REMARK Flexibility Score:   94.900
ROOT
ATOM      1  O   UNL     1      -6.408   0.703   4.328  1.00  0.00    -0.446 OA
ATOM      2  N   UNL     1      -5.494  -0.414   6.060  1.00  0.00    -0.207 NA
ATOM      3  C   UNL     1      -6.597  -0.150   5.383  1.00  0.00     0.217 A 
ATOM      4  C   UNL     1      -4.509   0.291   5.391  1.00  0.00     0.167 A 
ATOM      5  C   UNL     1      -5.071   0.968   4.337  1.00  0.00     0.231 A 
ENDROOT
BRANCH   4   6
ATOM      6  C   UNL     1      -3.117   0.299   5.808  1.00  0.00     0.273 C 
ATOM      7  N   UNL     1      -2.830  -0.749   6.646  1.00  0.00    -0.341 N 
ATOM      8  O   UNL     1      -2.313   1.158   5.467  1.00  0.00    -0.267 OA
ATOM      9  H   UNL     1      -3.620  -1.327   6.914  1.00  0.00     0.164 HD
BRANCH   7  10
ATOM     10  C   UNL     1      -1.596  -0.843   7.401  1.00  0.00     0.145 C 
BRANCH  10  11
ATOM     11  C   UNL     1      -1.952  -1.306   8.807  1.00  0.00     0.116 A 
ATOM     12  S   UNL     1      -0.854  -2.308   9.680  1.00  0.00    -0.124 S 
ATOM     13  C   UNL     1      -1.922  -2.303  11.014  1.00  0.00     0.101 A 
ATOM     14  N   UNL     1      -3.062  -0.988   9.452  1.00  0.00    -0.234 NA
ATOM     15  C   UNL     1      -3.043  -1.546  10.733  1.00  0.00     0.139 A 
BRANCH  15  16
ATOM     16  C   UNL     1      -4.134  -1.324  11.685  1.00  0.00     0.271 C 
ATOM     17  O   UNL     1      -4.113  -1.756  12.832  1.00  0.00    -0.267 OA
ATOM     18  N   UNL     1      -5.177  -0.587  11.165  1.00  0.00    -0.339 N 
ATOM     19  H   UNL     1      -5.125  -0.383  10.171  1.00  0.00     0.164 HD
BRANCH  18  20
ATOM     20  C   UNL     1      -6.378  -0.325  11.947  1.00  0.00     0.168 CG0
ATOM     21  C   UNL     1      -6.428   1.130  12.420  1.00  0.00     0.041 C 
ATOM     22  G   UNL     1      -7.670  -0.608  11.163  1.00  0.00     0.000 G0
ENDBRANCH  18  20
ENDBRANCH  15  16
ENDBRANCH  10  11
BRANCH  10  23
ATOM     23  C   UNL     1      -0.559  -1.772   6.717  1.00  0.00     0.015 C 
ATOM     24  C   UNL     1      -1.005  -2.264   5.330  1.00  0.00     0.010 C 
BRANCH  23  25
ATOM     25  C   UNL     1       0.835  -1.118   6.586  1.00  0.00     0.002 C 
ATOM     26  C   UNL     1       0.823   0.397   6.727  1.00  0.00     0.004 C 
ENDBRANCH  23  25
ENDBRANCH  10  23
ENDBRANCH   7  10
ENDBRANCH   4   6
BRANCH   3  27
ATOM     27  C   UNL     1      -7.987  -0.638   5.687  1.00  0.00     0.171 C 
BRANCH  27  28
ATOM     28  N   UNL     1      -8.416  -0.013   6.934  1.00  0.00    -0.342 N 
ATOM     29  C   UNL     1      -8.839  -0.738   8.026  1.00  0.00     0.245 C 
ATOM     30  O   UNL     1      -8.872  -1.968   8.036  1.00  0.00    -0.273 OA
ATOM     31  H   UNL     1      -8.308   0.995   7.040  1.00  0.00     0.164 HD
BRANCH  29  32
ATOM     32  C   UNL     1      -9.129   0.090   9.296  1.00  0.00     0.200 C 
BRANCH  32  33
ATOM     33  N   UNL     1      -7.888   0.191  10.073  1.00  0.00    -0.340 N 
ATOM     34  C   UNL     1      -7.664  -0.615  11.171  1.00  0.00     0.243 CG0
ATOM     35  O   UNL     1      -8.512  -1.403  11.583  1.00  0.00    -0.273 OA
ATOM     36  H   UNL     1      -7.182   0.853   9.776  1.00  0.00     0.164 HD
ATOM     37  G   UNL     1      -6.388  -0.309  11.972  1.00  0.00     0.000 G0
ENDBRANCH  32  33
BRANCH  32  38
ATOM     38  C   UNL     1      -9.735   1.469   8.945  1.00  0.00     0.143 C 
ATOM     39  C   UNL     1     -11.242   1.448   8.718  1.00  0.00     0.041 C 
BRANCH  38  40
ATOM     40  O   UNL     1      -9.432   2.419   9.985  1.00  0.00    -0.391 OA
ATOM     41  H   UNL     1      -8.463   2.409  10.100  1.00  0.00     0.211 HD
ENDBRANCH  38  40
ENDBRANCH  32  38
ENDBRANCH  29  32
ENDBRANCH  27  28
BRANCH  27  42
ATOM     42  C   UNL     1      -9.056  -0.486   4.577  1.00  0.00     0.015 C 
ATOM     43  C   UNL     1      -9.982  -1.692   4.382  1.00  0.00     0.010 C 
ATOM     44  C   UNL     1      -9.880   0.795   4.747  1.00  0.00     0.010 C 
ENDBRANCH  27  42
ENDBRANCH   3  27
TORSDOF 5
ENDMDL
MODEL 8
REMARK VINA RESULT:    -3.539     10.340     13.991
REMARK INTER + INTRA:          -8.456
REMARK INTER:                  -6.354
REMARK INTRA:                  -2.102
REMARK UNBOUND:                -2.123
REMARK SMILES CC[C@H](C)[C@H]1NC(=O)c2coc(n2)[C@H](C(C)C)NC(=O)[C@H]([C@@H](C)O)NC(=O)[C@H](C)NC(=O)c2csc1n2
REMARK SMILES IDX 11 1 13 2 12 3 9 4 10 5 7 6 6 7 8 8 5 10 36 11 35 12 34 13
REMARK SMILES IDX 37 14 33 15 31 16 32 17 30 18 28 20 29 21 3 23 4 24 2 25
REMARK SMILES IDX 1 26 14 27 18 28 19 29 20 30 21 32 25 33 26 34 27 35 22 38
REMARK SMILES IDX 23 39 24 40 15 42 16 43 17 44
REMARK H PARENT 6 9 30 19 18 31 25 36 24 41
REMARK Flexibility Score:   94.900
ROOT
ATOM      1  O   UNL     1      -2.499   6.280   3.779  1.00  0.00    -0.446 OA
ATOM      2  N   UNL     1      -0.341   6.252   3.128  1.00  0.00    -0.207 NA
ATOM      3  C   UNL     1      -1.570   5.839   2.875  1.00  0.00     0.217 A 
ATOM      4  C   UNL     1      -0.474   7.039   4.259  1.00  0.00     0.167 A 
ATOM      5  C   UNL     1      -1.791   7.053   4.650  1.00  0.00     0.231 A 
ENDROOT
BRANCH   4   6
ATOM      6  C   UNL     1       0.649   7.697   4.905  1.00  0.00     0.273 C 
ATOM      7  N   UNL     1       1.592   8.106   3.996  1.00  0.00    -0.341 N 
ATOM      8  O   UNL     1       0.744   7.840   6.118  1.00  0.00    -0.267 OA
ATOM      9  H   UNL     1       1.421   7.836   3.032  1.00  0.00     0.164 HD
BRANCH   7  10
ATOM     10  C   UNL     1       2.914   8.562   4.378  1.00  0.00     0.145 C 
BRANCH  10  11
ATOM     11  C   UNL     1       3.712   7.343   4.819  1.00  0.00     0.116 A 
ATOM     12  S   UNL     1       4.994   7.527   5.956  1.00  0.00    -0.124 S 
ATOM     13  C   UNL     1       5.268   5.840   5.908  1.00  0.00     0.101 A 
ATOM     14  N   UNL     1       3.495   6.105   4.407  1.00  0.00    -0.234 NA
ATOM     15  C   UNL     1       4.378   5.231   5.044  1.00  0.00     0.139 A 
BRANCH  15  16
ATOM     16  C   UNL     1       4.339   3.786   4.805  1.00  0.00     0.271 C 
ATOM     17  O   UNL     1       5.334   3.073   4.874  1.00  0.00    -0.267 OA
ATOM     18  N   UNL     1       3.081   3.313   4.499  1.00  0.00    -0.339 N 
ATOM     19  H   UNL     1       2.361   4.019   4.363  1.00  0.00     0.164 HD
BRANCH  18  20
ATOM     20  C   UNL     1       2.862   1.912   4.164  1.00  0.00     0.168 CG0
ATOM     21  C   UNL     1       2.000   1.216   5.219  1.00  0.00     0.041 C 
ATOM     22  G   UNL     1       2.177   1.727   2.800  1.00  0.00     0.000 G0
ENDBRANCH  18  20
ENDBRANCH  15  16
ENDBRANCH  10  11
BRANCH  10  23
ATOM     23  C   UNL     1       3.615   9.346   3.237  1.00  0.00     0.015 C 
ATOM     24  C   UNL     1       4.994   8.775   2.864  1.00  0.00     0.010 C 
BRANCH  23  25
ATOM     25  C   UNL     1       2.754   9.437   1.957  1.00  0.00     0.002 C 
ATOM     26  C   UNL     1       2.963   8.282   0.988  1.00  0.00     0.004 C 
ENDBRANCH  23  25
ENDBRANCH  10  23
ENDBRANCH   7  10
ENDBRANCH   4   6
BRANCH   3  27
ATOM     27  C   UNL     1      -2.008   4.924   1.764  1.00  0.00     0.171 C 
BRANCH  27  28
ATOM     28  N   UNL     1      -1.440   3.605   2.022  1.00  0.00    -0.342 N 
ATOM     29  C   UNL     1      -0.635   2.949   1.117  1.00  0.00     0.245 C 
ATOM     30  O   UNL     1      -0.323   3.433   0.030  1.00  0.00    -0.273 OA
ATOM     31  H   UNL     1      -1.560   3.191   2.945  1.00  0.00     0.164 HD
BRANCH  29  32
ATOM     32  C   UNL     1      -0.024   1.623   1.618  1.00  0.00     0.200 C 
BRANCH  32  33
ATOM     33  N   UNL     1       0.789   1.911   2.807  1.00  0.00    -0.340 N 
ATOM     34  C   UNL     1       2.157   1.736   2.797  1.00  0.00     0.243 CG0
ATOM     35  O   UNL     1       2.746   1.274   1.822  1.00  0.00    -0.273 OA
ATOM     36  H   UNL     1       0.327   2.264   3.636  1.00  0.00     0.164 HD
ATOM     37  G   UNL     1       2.864   1.942   4.146  1.00  0.00     0.000 G0
ENDBRANCH  32  33
BRANCH  32  38
ATOM     38  C   UNL     1      -1.116   0.560   1.878  1.00  0.00     0.143 C 
ATOM     39  C   UNL     1      -1.368   0.273   3.353  1.00  0.00     0.041 C 
BRANCH  38  40
ATOM     40  O   UNL     1      -2.355   0.965   1.263  1.00  0.00    -0.391 OA
ATOM     41  H   UNL     1      -3.062   0.774   1.908  1.00  0.00     0.211 HD
ENDBRANCH  38  40
ENDBRANCH  32  38
ENDBRANCH  29  32
ENDBRANCH  27  28
BRANCH  27  42
ATOM     42  C   UNL     1      -3.525   4.842   1.465  1.00  0.00     0.015 C 
ATOM     43  C   UNL     1      -3.897   4.627  -0.007  1.00  0.00     0.010 C 
ATOM     44  C   UNL     1      -4.228   3.806   2.347  1.00  0.00     0.010 C 
ENDBRANCH  27  42
ENDBRANCH   3  27
TORSDOF 5
ENDMDL
MODEL 9
REMARK VINA RESULT:    -3.345      4.343      8.706
REMARK INTER + INTRA:          -8.108
REMARK INTER:                  -7.451
REMARK INTRA:                  -0.657
REMARK UNBOUND:                -2.123
REMARK SMILES CC[C@H](C)[C@H]1NC(=O)c2coc(n2)[C@H](C(C)C)NC(=O)[C@H]([C@@H](C)O)NC(=O)[C@H](C)NC(=O)c2csc1n2
REMARK SMILES IDX 11 1 13 2 12 3 9 4 10 5 7 6 6 7 8 8 5 10 36 11 35 12 34 13
REMARK SMILES IDX 37 14 33 15 31 16 32 17 30 18 28 20 29 21 3 23 4 24 2 25
REMARK SMILES IDX 1 26 14 27 18 28 19 29 20 30 21 32 25 33 26 34 27 35 22 38
REMARK SMILES IDX 23 39 24 40 15 42 16 43 17 44
REMARK H PARENT 6 9 30 19 18 31 25 36 24 41
REMARK Flexibility Score:   94.900
ROOT
ATOM      1  O   UNL     1      -6.872  -2.321  -2.897  1.00  0.00    -0.446 OA
ATOM      2  N   UNL     1      -5.948  -0.815  -4.297  1.00  0.00    -0.207 NA
ATOM      3  C   UNL     1      -5.807  -1.979  -3.688  1.00  0.00     0.217 A 
ATOM      4  C   UNL     1      -7.199  -0.375  -3.902  1.00  0.00     0.167 A 
ATOM      5  C   UNL     1      -7.757  -1.297  -3.050  1.00  0.00     0.231 A 
ENDROOT
BRANCH   4   6
ATOM      6  C   UNL     1      -7.767   0.892  -4.330  1.00  0.00     0.273 C 
ATOM      7  N   UNL     1      -7.769   1.014  -5.697  1.00  0.00    -0.341 N 
ATOM      8  O   UNL     1      -8.168   1.752  -3.555  1.00  0.00    -0.267 OA
ATOM      9  H   UNL     1      -7.319   0.259  -6.207  1.00  0.00     0.164 HD
BRANCH   7  10
ATOM     10  C   UNL     1      -8.045   2.262  -6.380  1.00  0.00     0.145 C 
BRANCH  10  11
ATOM     11  C   UNL     1      -6.708   2.895  -6.740  1.00  0.00     0.116 A 
ATOM     12  S   UNL     1      -6.670   4.302  -7.734  1.00  0.00    -0.124 S 
ATOM     13  C   UNL     1      -4.966   4.341  -7.600  1.00  0.00     0.101 A 
ATOM     14  N   UNL     1      -5.528   2.457  -6.334  1.00  0.00    -0.234 NA
ATOM     15  C   UNL     1      -4.520   3.297  -6.813  1.00  0.00     0.139 A 
BRANCH  15  16
ATOM     16  C   UNL     1      -3.110   3.072  -6.484  1.00  0.00     0.271 C 
ATOM     17  O   UNL     1      -2.191   3.480  -7.186  1.00  0.00    -0.267 OA
ATOM     18  N   UNL     1      -2.923   2.362  -5.317  1.00  0.00    -0.339 N 
ATOM     19  H   UNL     1      -3.763   1.985  -4.887  1.00  0.00     0.164 HD
BRANCH  18  20
ATOM     20  C   UNL     1      -1.589   1.986  -4.868  1.00  0.00     0.168 CG0
ATOM     21  C   UNL     1      -1.072   2.946  -3.795  1.00  0.00     0.041 C 
ATOM     22  G   UNL     1      -1.536   0.562  -4.291  1.00  0.00     0.000 G0
ENDBRANCH  18  20
ENDBRANCH  15  16
ENDBRANCH  10  11
BRANCH  10  23
ATOM     23  C   UNL     1      -8.957   2.062  -7.619  1.00  0.00     0.015 C 
ATOM     24  C   UNL     1      -8.948   0.621  -8.156  1.00  0.00     0.010 C 
BRANCH  23  25
ATOM     25  C   UNL     1     -10.421   2.483  -7.357  1.00  0.00     0.002 C 
ATOM     26  C   UNL     1     -10.828   2.427  -5.891  1.00  0.00     0.004 C 
ENDBRANCH  23  25
ENDBRANCH  10  23
ENDBRANCH   7  10
ENDBRANCH   4   6
BRANCH   3  27
ATOM     27  C   UNL     1      -4.613  -2.892  -3.741  1.00  0.00     0.171 C 
BRANCH  27  28
ATOM     28  N   UNL     1      -3.421  -2.081  -3.516  1.00  0.00    -0.342 N 
ATOM     29  C   UNL     1      -3.109  -1.537  -2.290  1.00  0.00     0.245 C 
ATOM     30  O   UNL     1      -3.804  -1.706  -1.290  1.00  0.00    -0.273 OA
ATOM     31  H   UNL     1      -2.739  -1.993  -4.268  1.00  0.00     0.164 HD
BRANCH  29  32
ATOM     32  C   UNL     1      -1.744  -0.821  -2.215  1.00  0.00     0.200 C 
BRANCH  32  33
ATOM     33  N   UNL     1      -1.853   0.456  -2.933  1.00  0.00    -0.340 N 
ATOM     34  C   UNL     1      -1.548   0.551  -4.275  1.00  0.00     0.243 CG0
ATOM     35  O   UNL     1      -1.112  -0.406  -4.911  1.00  0.00    -0.273 OA
ATOM     36  H   UNL     1      -2.181   1.270  -2.427  1.00  0.00     0.164 HD
ATOM     37  G   UNL     1      -1.574   1.970  -4.865  1.00  0.00     0.000 G0
ENDBRANCH  32  33
BRANCH  32  38
ATOM     38  C   UNL     1      -1.274  -0.651  -0.752  1.00  0.00     0.143 C 
ATOM     39  C   UNL     1      -0.497  -1.843  -0.206  1.00  0.00     0.041 C 
BRANCH  38  40
ATOM     40  O   UNL     1      -0.461   0.532  -0.629  1.00  0.00    -0.391 OA
ATOM     41  H   UNL     1       0.385   0.337  -1.075  1.00  0.00     0.211 HD
ENDBRANCH  38  40
ENDBRANCH  32  38
ENDBRANCH  29  32
ENDBRANCH  27  28
BRANCH  27  42
ATOM     42  C   UNL     1      -4.631  -4.144  -2.831  1.00  0.00     0.015 C 
ATOM     43  C   UNL     1      -5.961  -4.428  -2.123  1.00  0.00     0.010 C 
ATOM     44  C   UNL     1      -4.145  -5.396  -3.569  1.00  0.00     0.010 C 
ENDBRANCH  27  42
ENDBRANCH   3  27
TORSDOF 5
ENDMDL
