MODEL 1
REMARK VINA RESULT:    -4.937      0.000      0.000
REMARK INTER + INTRA:         -11.278
REMARK INTER:                  -8.833
REMARK INTRA:                  -2.445
REMARK UNBOUND:                -2.445
REMARK SMILES CC[C@H](C)[C@H]1NC(=O)c2coc(n2)[C@H](C(C)C)NC(=O)[C@H]([C@@H](C)O)NC(=O)[C@H](C)NC(=O)c2csc1n2
REMARK SMILES IDX 11 1 13 2 12 3 9 4 10 5 7 6 6 7 8 8 5 10 36 11 35 12 34 13
REMARK SMILES IDX 37 14 33 15 31 16 32 17 30 18 28 20 29 21 3 23 4 24 2 25
REMARK SMILES IDX 1 26 14 27 18 28 19 29 20 30 21 32 25 33 26 34 27 35 22 38
REMARK SMILES IDX 23 39 24 40 15 42 16 43 17 44
REMARK H PARENT 6 9 30 19 18 31 25 36 24 41
REMARK Flexibility Score:   94.900
ROOT
ATOM      1  O   UNL     1       2.143  -2.473 -12.937  1.00  0.00    -0.446 OA
ATOM      2  N   UNL     1       3.375  -1.118 -11.624  1.00  0.00    -0.207 NA
ATOM      3  C   UNL     1       2.969  -1.384 -12.852  1.00  0.00     0.217 A 
ATOM      4  C   UNL     1       2.755  -2.080 -10.845  1.00  0.00     0.167 A 
ATOM      5  C   UNL     1       2.006  -2.902 -11.651  1.00  0.00     0.231 A 
ENDROOT
BRANCH   4   6
ATOM      6  C   UNL     1       2.935  -2.174  -9.407  1.00  0.00     0.273 C 
ATOM      7  N   UNL     1       3.997  -1.420  -8.976  1.00  0.00    -0.341 N 
ATOM      8  O   UNL     1       2.233  -2.867  -8.680  1.00  0.00    -0.267 OA
ATOM      9  H   UNL     1       4.544  -0.971  -9.705  1.00  0.00     0.164 HD
BRANCH   7  10
ATOM     10  C   UNL     1       4.551  -1.522  -7.640  1.00  0.00     0.145 C 
BRANCH  10  11
ATOM     11  C   UNL     1       6.017  -1.907  -7.778  1.00  0.00     0.116 A 
ATOM     12  S   UNL     1       6.787  -2.800  -6.522  1.00  0.00    -0.124 S 
ATOM     13  C   UNL     1       8.233  -2.822  -7.434  1.00  0.00     0.101 A 
ATOM     14  N   UNL     1       6.781  -1.619  -8.818  1.00  0.00    -0.234 NA
ATOM     15  C   UNL     1       8.056  -2.159  -8.634  1.00  0.00     0.139 A 
BRANCH  15  16
ATOM     16  C   UNL     1       9.103  -2.027  -9.650  1.00  0.00     0.271 C 
ATOM     17  O   UNL     1      10.284  -1.857  -9.370  1.00  0.00    -0.267 OA
ATOM     18  N   UNL     1       8.629  -2.113 -10.943  1.00  0.00    -0.339 N 
ATOM     19  H   UNL     1       7.618  -2.142 -11.044  1.00  0.00     0.164 HD
BRANCH  18  20
ATOM     20  C   UNL     1       9.516  -1.937 -12.085  1.00  0.00     0.168 CG0
ATOM     21  C   UNL     1      10.060  -3.279 -12.579  1.00  0.00     0.041 C 
ATOM     22  G   UNL     1       8.826  -1.243 -13.271  1.00  0.00     0.000 G0
ENDBRANCH  18  20
ENDBRANCH  15  16
ENDBRANCH  10  11
BRANCH  10  23
ATOM     23  C   UNL     1       4.355  -0.218  -6.823  1.00  0.00     0.015 C 
ATOM     24  C   UNL     1       3.783   0.942  -7.655  1.00  0.00     0.010 C 
BRANCH  23  25
ATOM     25  C   UNL     1       3.463  -0.420  -5.577  1.00  0.00     0.002 C 
ATOM     26  C   UNL     1       3.675  -1.755  -4.875  1.00  0.00     0.004 C 
ENDBRANCH  23  25
ENDBRANCH  10  23
ENDBRANCH   7  10
ENDBRANCH   4   6
BRANCH   3  27
ATOM     27  C   UNL     1       3.359  -0.662 -14.113  1.00  0.00     0.171 C 
BRANCH  27  28
ATOM     28  N   UNL     1       4.606  -1.246 -14.594  1.00  0.00    -0.342 N 
ATOM     29  C   UNL     1       5.808  -0.576 -14.558  1.00  0.00     0.245 C 
ATOM     30  O   UNL     1       5.922   0.561 -14.102  1.00  0.00    -0.273 OA
ATOM     31  H   UNL     1       4.611  -2.225 -14.879  1.00  0.00     0.164 HD
BRANCH  29  32
ATOM     32  C   UNL     1       7.038  -1.402 -14.990  1.00  0.00     0.200 C 
BRANCH  32  33
ATOM     33  N   UNL     1       7.714  -1.889 -13.781  1.00  0.00    -0.340 N 
ATOM     34  C   UNL     1       8.824  -1.246 -13.274  1.00  0.00     0.243 CG0
ATOM     35  O   UNL     1       9.333  -0.281 -13.842  1.00  0.00    -0.273 OA
ATOM     36  H   UNL     1       7.336  -2.701 -13.308  1.00  0.00     0.164 HD
ATOM     37  G   UNL     1       9.512  -1.940 -12.087  1.00  0.00     0.000 G0
ENDBRANCH  32  33
BRANCH  32  38
ATOM     38  C   UNL     1       6.642  -2.540 -15.959  1.00  0.00     0.143 C 
ATOM     39  C   UNL     1       7.538  -2.653 -17.187  1.00  0.00     0.041 C 
BRANCH  38  40
ATOM     40  O   UNL     1       6.642  -3.802 -15.263  1.00  0.00    -0.391 OA
ATOM     41  H   UNL     1       5.981  -4.366 -15.708  1.00  0.00     0.211 HD
ENDBRANCH  38  40
ENDBRANCH  32  38
ENDBRANCH  29  32
ENDBRANCH  27  28
BRANCH  27  42
ATOM     42  C   UNL     1       2.300  -0.571 -15.239  1.00  0.00     0.015 C 
ATOM     43  C   UNL     1       1.760   0.834 -15.527  1.00  0.00     0.010 C 
ATOM     44  C   UNL     1       2.785  -1.230 -16.535  1.00  0.00     0.010 C 
ENDBRANCH  27  42
ENDBRANCH   3  27
TORSDOF 5
ENDMDL
MODEL 2
REMARK VINA RESULT:    -4.769      9.596     13.571
REMARK INTER + INTRA:         -10.978
REMARK INTER:                  -8.519
REMARK INTRA:                  -2.458
REMARK UNBOUND:                -2.445
REMARK SMILES CC[C@H](C)[C@H]1NC(=O)c2coc(n2)[C@H](C(C)C)NC(=O)[C@H]([C@@H](C)O)NC(=O)[C@H](C)NC(=O)c2csc1n2
REMARK SMILES IDX 11 1 13 2 12 3 9 4 10 5 7 6 6 7 8 8 5 10 36 11 35 12 34 13
REMARK SMILES IDX 37 14 33 15 31 16 32 17 30 18 28 20 29 21 3 23 4 24 2 25
REMARK SMILES IDX 1 26 14 27 18 28 19 29 20 30 21 32 25 33 26 34 27 35 22 38
REMARK SMILES IDX 23 39 24 40 15 42 16 43 17 44
REMARK H PARENT 6 9 30 19 18 31 25 36 24 41
REMARK Flexibility Score:   94.900
ROOT
ATOM      1  O   UNL     1       7.938  -8.223  -4.738  1.00  0.00    -0.446 OA
ATOM      2  N   UNL     1       8.891  -6.990  -3.109  1.00  0.00    -0.207 NA
ATOM      3  C   UNL     1       7.773  -7.298  -3.742  1.00  0.00     0.217 A 
ATOM      4  C   UNL     1       9.851  -7.785  -3.711  1.00  0.00     0.167 A 
ATOM      5  C   UNL     1       9.264  -8.534  -4.701  1.00  0.00     0.231 A 
ENDROOT
BRANCH   4   6
ATOM      6  C   UNL     1      11.253  -7.761  -3.331  1.00  0.00     0.273 C 
ATOM      7  N   UNL     1      11.512  -8.609  -2.284  1.00  0.00    -0.341 N 
ATOM      8  O   UNL     1      12.089  -7.047  -3.871  1.00  0.00    -0.267 OA
ATOM      9  H   UNL     1      10.702  -9.067  -1.878  1.00  0.00     0.164 HD
BRANCH   7  10
ATOM     10  C   UNL     1      12.761  -8.600  -1.548  1.00  0.00     0.145 C 
BRANCH  10  11
ATOM     11  C   UNL     1      12.564  -7.728  -0.317  1.00  0.00     0.116 A 
ATOM     12  S   UNL     1      13.815  -6.651   0.177  1.00  0.00    -0.124 S 
ATOM     13  C   UNL     1      12.830  -6.109   1.465  1.00  0.00     0.101 A 
ATOM     14  N   UNL     1      11.473  -7.709   0.432  1.00  0.00    -0.234 NA
ATOM     15  C   UNL     1      11.614  -6.764   1.452  1.00  0.00     0.139 A 
BRANCH  15  16
ATOM     16  C   UNL     1      10.540  -6.503   2.412  1.00  0.00     0.271 C 
ATOM     17  O   UNL     1      10.490  -7.035   3.515  1.00  0.00    -0.267 OA
ATOM     18  N   UNL     1       9.599  -5.604   1.955  1.00  0.00    -0.339 N 
ATOM     19  H   UNL     1       9.692  -5.319   0.983  1.00  0.00     0.164 HD
BRANCH  18  20
ATOM     20  C   UNL     1       8.423  -5.274   2.747  1.00  0.00     0.168 CG0
ATOM     21  C   UNL     1       8.694  -4.093   3.682  1.00  0.00     0.041 C 
ATOM     22  G   UNL     1       7.203  -4.918   1.882  1.00  0.00     0.000 G0
ENDBRANCH  18  20
ENDBRANCH  15  16
ENDBRANCH  10  11
BRANCH  10  23
ATOM     23  C   UNL     1      13.240 -10.031  -1.189  1.00  0.00     0.015 C 
ATOM     24  C   UNL     1      12.085 -11.006  -0.904  1.00  0.00     0.010 C 
BRANCH  23  25
ATOM     25  C   UNL     1      14.150 -10.648  -2.276  1.00  0.00     0.002 C 
ATOM     26  C   UNL     1      13.391 -11.262  -3.443  1.00  0.00     0.004 C 
ENDBRANCH  23  25
ENDBRANCH  10  23
ENDBRANCH   7  10
ENDBRANCH   4   6
BRANCH   3  27
ATOM     27  C   UNL     1       6.409  -6.708  -3.511  1.00  0.00     0.171 C 
BRANCH  27  28
ATOM     28  N   UNL     1       6.552  -5.607  -2.564  1.00  0.00    -0.342 N 
ATOM     29  C   UNL     1       5.983  -5.621  -1.310  1.00  0.00     0.245 C 
ATOM     30  O   UNL     1       5.323  -6.570  -0.890  1.00  0.00    -0.273 OA
ATOM     31  H   UNL     1       7.179  -4.838  -2.798  1.00  0.00     0.164 HD
BRANCH  29  32
ATOM     32  C   UNL     1       6.352  -4.428  -0.405  1.00  0.00     0.200 C 
BRANCH  32  33
ATOM     33  N   UNL     1       7.410  -4.859   0.518  1.00  0.00    -0.340 N 
ATOM     34  C   UNL     1       7.188  -4.931   1.878  1.00  0.00     0.243 CG0
ATOM     35  O   UNL     1       6.124  -4.578   2.382  1.00  0.00    -0.273 OA
ATOM     36  H   UNL     1       8.308  -5.127   0.134  1.00  0.00     0.164 HD
ATOM     37  G   UNL     1       8.419  -5.264   2.737  1.00  0.00     0.000 G0
ENDBRANCH  32  33
BRANCH  32  38
ATOM     38  C   UNL     1       6.749  -3.187  -1.238  1.00  0.00     0.143 C 
ATOM     39  C   UNL     1       6.308  -1.861  -0.629  1.00  0.00     0.041 C 
BRANCH  38  40
ATOM     40  O   UNL     1       8.176  -3.160  -1.433  1.00  0.00    -0.391 OA
ATOM     41  H   UNL     1       8.337  -3.440  -2.354  1.00  0.00     0.211 HD
ENDBRANCH  38  40
ENDBRANCH  32  38
ENDBRANCH  29  32
ENDBRANCH  27  28
BRANCH  27  42
ATOM     42  C   UNL     1       5.595  -6.283  -4.758  1.00  0.00     0.015 C 
ATOM     43  C   UNL     1       4.082  -6.150  -4.547  1.00  0.00     0.010 C 
ATOM     44  C   UNL     1       6.155  -5.010  -5.401  1.00  0.00     0.010 C 
ENDBRANCH  27  42
ENDBRANCH   3  27
TORSDOF 5
ENDMDL
MODEL 3
REMARK VINA RESULT:    -4.586      4.385      9.115
REMARK INTER + INTRA:         -10.650
REMARK INTER:                  -8.021
REMARK INTRA:                  -2.629
REMARK UNBOUND:                -2.445
REMARK SMILES CC[C@H](C)[C@H]1NC(=O)c2coc(n2)[C@H](C(C)C)NC(=O)[C@H]([C@@H](C)O)NC(=O)[C@H](C)NC(=O)c2csc1n2
REMARK SMILES IDX 11 1 13 2 12 3 9 4 10 5 7 6 6 7 8 8 5 10 36 11 35 12 34 13
REMARK SMILES IDX 37 14 33 15 31 16 32 17 30 18 28 20 29 21 3 23 4 24 2 25
REMARK SMILES IDX 1 26 14 27 18 28 19 29 20 30 21 32 25 33 26 34 27 35 22 38
REMARK SMILES IDX 23 39 24 40 15 42 16 43 17 44
REMARK H PARENT 6 9 30 19 18 31 25 36 24 41
REMARK Flexibility Score:   94.900
ROOT
ATOM      1  O   UNL     1       3.016  -2.910  -9.526  1.00  0.00    -0.446 OA
ATOM      2  N   UNL     1       3.230  -0.896 -10.516  1.00  0.00    -0.207 NA
ATOM      3  C   UNL     1       3.333  -1.584  -9.393  1.00  0.00     0.217 A 
ATOM      4  C   UNL     1       2.846  -1.836 -11.456  1.00  0.00     0.167 A 
ATOM      5  C   UNL     1       2.718  -3.060 -10.847  1.00  0.00     0.231 A 
ENDROOT
BRANCH   4   6
ATOM      6  C   UNL     1       2.600  -1.510 -12.850  1.00  0.00     0.273 C 
ATOM      7  N   UNL     1       3.346  -0.435 -13.261  1.00  0.00    -0.341 N 
ATOM      8  O   UNL     1       1.801  -2.113 -13.556  1.00  0.00    -0.267 OA
ATOM      9  H   UNL     1       3.896   0.022 -12.539  1.00  0.00     0.164 HD
BRANCH   7  10
ATOM     10  C   UNL     1       3.119   0.253 -14.517  1.00  0.00     0.145 C 
BRANCH  10  11
ATOM     11  C   UNL     1       3.054   1.744 -14.220  1.00  0.00     0.116 A 
ATOM     12  S   UNL     1       3.761   2.867 -15.320  1.00  0.00    -0.124 S 
ATOM     13  C   UNL     1       3.238   4.157 -14.328  1.00  0.00     0.101 A 
ATOM     14  N   UNL     1       2.469   2.281 -13.162  1.00  0.00    -0.234 NA
ATOM     15  C   UNL     1       2.557   3.674 -13.227  1.00  0.00     0.139 A 
BRANCH  15  16
ATOM     16  C   UNL     1       1.960   4.532 -12.201  1.00  0.00     0.271 C 
ATOM     17  O   UNL     1       1.874   5.749 -12.319  1.00  0.00    -0.267 OA
ATOM     18  N   UNL     1       1.506   3.838 -11.099  1.00  0.00    -0.339 N 
ATOM     19  H   UNL     1       1.735   2.848 -11.072  1.00  0.00     0.164 HD
BRANCH  18  20
ATOM     20  C   UNL     1       0.943   4.533  -9.949  1.00  0.00     0.168 CG0
ATOM     21  C   UNL     1      -0.574   4.347  -9.874  1.00  0.00     0.041 C 
ATOM     22  G   UNL     1       1.542   4.057  -8.615  1.00  0.00     0.000 G0
ENDBRANCH  18  20
ENDBRANCH  15  16
ENDBRANCH  10  11
BRANCH  10  23
ATOM     23  C   UNL     1       4.198  -0.092 -15.578  1.00  0.00     0.015 C 
ATOM     24  C   UNL     1       5.506  -0.621 -14.966  1.00  0.00     0.010 C 
BRANCH  23  25
ATOM     25  C   UNL     1       3.698  -1.107 -16.631  1.00  0.00     0.002 C 
ATOM     26  C   UNL     1       2.199  -1.041 -16.891  1.00  0.00     0.004 C 
ENDBRANCH  23  25
ENDBRANCH  10  23
ENDBRANCH   7  10
ENDBRANCH   4   6
BRANCH   3  27
ATOM     27  C   UNL     1       3.697  -1.052  -8.034  1.00  0.00     0.171 C 
BRANCH  27  28
ATOM     28  N   UNL     1       2.687  -0.070  -7.653  1.00  0.00    -0.342 N 
ATOM     29  C   UNL     1       3.002   1.214  -7.269  1.00  0.00     0.245 C 
ATOM     30  O   UNL     1       4.158   1.633  -7.232  1.00  0.00    -0.273 OA
ATOM     31  H   UNL     1       1.703  -0.309  -7.769  1.00  0.00     0.164 HD
BRANCH  29  32
ATOM     32  C   UNL     1       1.795   2.146  -7.029  1.00  0.00     0.200 C 
BRANCH  32  33
ATOM     33  N   UNL     1       1.385   2.710  -8.321  1.00  0.00    -0.340 N 
ATOM     34  C   UNL     1       1.537   4.054  -8.595  1.00  0.00     0.243 CG0
ATOM     35  O   UNL     1       1.959   4.845  -7.754  1.00  0.00    -0.273 OA
ATOM     36  H   UNL     1       1.005   2.088  -9.024  1.00  0.00     0.164 HD
ATOM     37  G   UNL     1       0.941   4.533  -9.929  1.00  0.00     0.000 G0
ENDBRANCH  32  33
BRANCH  32  38
ATOM     38  C   UNL     1       0.647   1.407  -6.302  1.00  0.00     0.143 C 
ATOM     39  C   UNL     1      -0.359   2.332  -5.627  1.00  0.00     0.041 C 
BRANCH  38  40
ATOM     40  O   UNL     1      -0.052   0.552  -7.227  1.00  0.00    -0.391 OA
ATOM     41  H   UNL     1       0.623  -0.005  -7.658  1.00  0.00     0.211 HD
ENDBRANCH  38  40
ENDBRANCH  32  38
ENDBRANCH  29  32
ENDBRANCH  27  28
BRANCH  27  42
ATOM     42  C   UNL     1       3.940  -2.085  -6.906  1.00  0.00     0.015 C 
ATOM     43  C   UNL     1       5.292  -1.978  -6.192  1.00  0.00     0.010 C 
ATOM     44  C   UNL     1       2.799  -2.095  -5.883  1.00  0.00     0.010 C 
ENDBRANCH  27  42
ENDBRANCH   3  27
TORSDOF 5
ENDMDL
MODEL 4
REMARK VINA RESULT:    -4.556      8.270     12.659
REMARK INTER + INTRA:         -10.596
REMARK INTER:                  -8.178
REMARK INTRA:                  -2.418
REMARK UNBOUND:                -2.445
REMARK SMILES CC[C@H](C)[C@H]1NC(=O)c2coc(n2)[C@H](C(C)C)NC(=O)[C@H]([C@@H](C)O)NC(=O)[C@H](C)NC(=O)c2csc1n2
REMARK SMILES IDX 11 1 13 2 12 3 9 4 10 5 7 6 6 7 8 8 5 10 36 11 35 12 34 13
REMARK SMILES IDX 37 14 33 15 31 16 32 17 30 18 28 20 29 21 3 23 4 24 2 25
REMARK SMILES IDX 1 26 14 27 18 28 19 29 20 30 21 32 25 33 26 34 27 35 22 38
REMARK SMILES IDX 23 39 24 40 15 42 16 43 17 44
REMARK H PARENT 6 9 30 19 18 31 25 36 24 41
REMARK Flexibility Score:   94.900
ROOT
ATOM      1  O   UNL     1       8.552  -8.920  -5.029  1.00  0.00    -0.446 OA
ATOM      2  N   UNL     1       8.127  -7.291  -3.530  1.00  0.00    -0.207 NA
ATOM      3  C   UNL     1       9.027  -8.124  -4.021  1.00  0.00     0.217 A 
ATOM      4  C   UNL     1       6.992  -7.537  -4.282  1.00  0.00     0.167 A 
ATOM      5  C   UNL     1       7.258  -8.529  -5.194  1.00  0.00     0.231 A 
ENDROOT
BRANCH   4   6
ATOM      6  C   UNL     1       5.734  -6.842  -4.070  1.00  0.00     0.273 C 
ATOM      7  N   UNL     1       5.860  -5.490  -4.262  1.00  0.00    -0.341 N 
ATOM      8  O   UNL     1       4.698  -7.404  -3.736  1.00  0.00    -0.267 OA
ATOM      9  H   UNL     1       6.802  -5.157  -4.446  1.00  0.00     0.164 HD
BRANCH   7  10
ATOM     10  C   UNL     1       4.836  -4.537  -3.881  1.00  0.00     0.145 C 
BRANCH  10  11
ATOM     11  C   UNL     1       5.030  -4.219  -2.405  1.00  0.00     0.116 A 
ATOM     12  S   UNL     1       3.695  -4.343  -1.322  1.00  0.00    -0.124 S 
ATOM     13  C   UNL     1       4.717  -3.900  -0.025  1.00  0.00     0.101 A 
ATOM     14  N   UNL     1       6.175  -3.856  -1.852  1.00  0.00    -0.234 NA
ATOM     15  C   UNL     1       6.005  -3.687  -0.476  1.00  0.00     0.139 A 
BRANCH  15  16
ATOM     16  C   UNL     1       7.122  -3.321   0.399  1.00  0.00     0.271 C 
ATOM     17  O   UNL     1       7.253  -2.198   0.875  1.00  0.00    -0.267 OA
ATOM     18  N   UNL     1       8.001  -4.357   0.632  1.00  0.00    -0.339 N 
ATOM     19  H   UNL     1       7.843  -5.204   0.092  1.00  0.00     0.164 HD
BRANCH  18  20
ATOM     20  C   UNL     1       9.208  -4.159   1.423  1.00  0.00     0.168 CG0
ATOM     21  C   UNL     1       8.941  -4.390   2.912  1.00  0.00     0.041 C 
ATOM     22  G   UNL     1      10.355  -5.090   1.001  1.00  0.00     0.000 G0
ENDBRANCH  18  20
ENDBRANCH  15  16
ENDBRANCH  10  11
BRANCH  10  23
ATOM     23  C   UNL     1       4.860  -3.264  -4.768  1.00  0.00     0.015 C 
ATOM     24  C   UNL     1       4.275  -2.025  -4.070  1.00  0.00     0.010 C 
BRANCH  23  25
ATOM     25  C   UNL     1       6.276  -2.920  -5.282  1.00  0.00     0.002 C 
ATOM     26  C   UNL     1       6.404  -2.938  -6.799  1.00  0.00     0.004 C 
ENDBRANCH  23  25
ENDBRANCH  10  23
ENDBRANCH   7  10
ENDBRANCH   4   6
BRANCH   3  27
ATOM     27  C   UNL     1      10.446  -8.304  -3.554  1.00  0.00     0.171 C 
BRANCH  27  28
ATOM     28  N   UNL     1      10.449  -8.233  -2.097  1.00  0.00    -0.342 N 
ATOM     29  C   UNL     1      11.218  -7.332  -1.395  1.00  0.00     0.245 C 
ATOM     30  O   UNL     1      11.947  -6.509  -1.945  1.00  0.00    -0.273 OA
ATOM     31  H   UNL     1       9.785  -8.806  -1.577  1.00  0.00     0.164 HD
BRANCH  29  32
ATOM     32  C   UNL     1      10.990  -7.321   0.132  1.00  0.00     0.200 C 
BRANCH  32  33
ATOM     33  N   UNL     1       9.993  -6.289   0.441  1.00  0.00    -0.340 N 
ATOM     34  C   UNL     1      10.358  -5.090   1.017  1.00  0.00     0.243 CG0
ATOM     35  O   UNL     1      11.517  -4.857   1.354  1.00  0.00    -0.273 OA
ATOM     36  H   UNL     1       9.024  -6.465   0.204  1.00  0.00     0.164 HD
ATOM     37  G   UNL     1       9.199  -4.161   1.413  1.00  0.00     0.000 G0
ENDBRANCH  32  33
BRANCH  32  38
ATOM     38  C   UNL     1      10.593  -8.721   0.655  1.00  0.00     0.143 C 
ATOM     39  C   UNL     1      10.908  -8.947   2.129  1.00  0.00     0.041 C 
BRANCH  38  40
ATOM     40  O   UNL     1       9.186  -8.946   0.438  1.00  0.00    -0.391 OA
ATOM     41  H   UNL     1       8.822  -9.269   1.284  1.00  0.00     0.211 HD
ENDBRANCH  38  40
ENDBRANCH  32  38
ENDBRANCH  29  32
ENDBRANCH  27  28
BRANCH  27  42
ATOM     42  C   UNL     1      11.213  -9.549  -4.066  1.00  0.00     0.015 C 
ATOM     43  C   UNL     1      12.453  -9.257  -4.917  1.00  0.00     0.010 C 
ATOM     44  C   UNL     1      11.564 -10.512  -2.928  1.00  0.00     0.010 C 
ENDBRANCH  27  42
ENDBRANCH   3  27
TORSDOF 5
ENDMDL
MODEL 5
REMARK VINA RESULT:    -4.367      3.526      7.382
REMARK INTER + INTRA:         -10.259
REMARK INTER:                  -8.155
REMARK INTRA:                  -2.104
REMARK UNBOUND:                -2.445
REMARK SMILES CC[C@H](C)[C@H]1NC(=O)c2coc(n2)[C@H](C(C)C)NC(=O)[C@H]([C@@H](C)O)NC(=O)[C@H](C)NC(=O)c2csc1n2
REMARK SMILES IDX 11 1 13 2 12 3 9 4 10 5 7 6 6 7 8 8 5 10 36 11 35 12 34 13
REMARK SMILES IDX 37 14 33 15 31 16 32 17 30 18 28 20 29 21 3 23 4 24 2 25
REMARK SMILES IDX 1 26 14 27 18 28 19 29 20 30 21 32 25 33 26 34 27 35 22 38
REMARK SMILES IDX 23 39 24 40 15 42 16 43 17 44
REMARK H PARENT 6 9 30 19 18 31 25 36 24 41
REMARK Flexibility Score:   94.900
ROOT
ATOM      1  O   UNL     1       2.552  -0.986  -8.108  1.00  0.00    -0.446 OA
ATOM      2  N   UNL     1       4.342  -0.355  -9.324  1.00  0.00    -0.207 NA
ATOM      3  C   UNL     1       3.317   0.042  -8.591  1.00  0.00     0.217 A 
ATOM      4  C   UNL     1       4.262  -1.736  -9.299  1.00  0.00     0.167 A 
ATOM      5  C   UNL     1       3.171  -2.114  -8.556  1.00  0.00     0.231 A 
ENDROOT
BRANCH   4   6
ATOM      6  C   UNL     1       5.200  -2.598  -9.997  1.00  0.00     0.273 C 
ATOM      7  N   UNL     1       6.063  -1.880 -10.786  1.00  0.00    -0.341 N 
ATOM      8  O   UNL     1       5.195  -3.820  -9.906  1.00  0.00    -0.267 OA
ATOM      9  H   UNL     1       5.887  -0.880 -10.833  1.00  0.00     0.164 HD
BRANCH   7  10
ATOM     10  C   UNL     1       6.930  -2.492 -11.773  1.00  0.00     0.145 C 
BRANCH  10  11
ATOM     11  C   UNL     1       6.330  -2.220 -13.145  1.00  0.00     0.116 A 
ATOM     12  S   UNL     1       6.753  -3.227 -14.478  1.00  0.00    -0.124 S 
ATOM     13  C   UNL     1       5.705  -2.325 -15.483  1.00  0.00     0.101 A 
ATOM     14  N   UNL     1       5.470  -1.253 -13.418  1.00  0.00    -0.234 NA
ATOM     15  C   UNL     1       5.092  -1.318 -14.761  1.00  0.00     0.139 A 
BRANCH  15  16
ATOM     16  C   UNL     1       4.116  -0.388 -15.333  1.00  0.00     0.271 C 
ATOM     17  O   UNL     1       3.932  -0.277 -16.540  1.00  0.00    -0.267 OA
ATOM     18  N   UNL     1       3.432   0.343 -14.385  1.00  0.00    -0.339 N 
ATOM     19  H   UNL     1       3.754   0.240 -13.427  1.00  0.00     0.164 HD
BRANCH  18  20
ATOM     20  C   UNL     1       2.470   1.366 -14.772  1.00  0.00     0.168 CG0
ATOM     21  C   UNL     1       1.070   0.774 -14.954  1.00  0.00     0.041 C 
ATOM     22  G   UNL     1       2.368   2.505 -13.744  1.00  0.00     0.000 G0
ENDBRANCH  18  20
ENDBRANCH  15  16
ENDBRANCH  10  11
BRANCH  10  23
ATOM     23  C   UNL     1       8.394  -1.992 -11.658  1.00  0.00     0.015 C 
ATOM     24  C   UNL     1       8.834  -1.727 -10.208  1.00  0.00     0.010 C 
BRANCH  23  25
ATOM     25  C   UNL     1       9.409  -2.954 -12.315  1.00  0.00     0.002 C 
ATOM     26  C   UNL     1      10.377  -3.598 -11.332  1.00  0.00     0.004 C 
ENDBRANCH  23  25
ENDBRANCH  10  23
ENDBRANCH   7  10
ENDBRANCH   4   6
BRANCH   3  27
ATOM     27  C   UNL     1       2.904   1.459  -8.302  1.00  0.00     0.171 C 
BRANCH  27  28
ATOM     28  N   UNL     1       2.101   1.929  -9.426  1.00  0.00    -0.342 N 
ATOM     29  C   UNL     1       2.533   2.904 -10.296  1.00  0.00     0.245 C 
ATOM     30  O   UNL     1       3.635   3.442 -10.200  1.00  0.00    -0.273 OA
ATOM     31  H   UNL     1       1.226   1.450  -9.637  1.00  0.00     0.164 HD
BRANCH  29  32
ATOM     32  C   UNL     1       1.601   3.177 -11.496  1.00  0.00     0.200 C 
BRANCH  32  33
ATOM     33  N   UNL     1       1.861   2.158 -12.521  1.00  0.00    -0.340 N 
ATOM     34  C   UNL     1       2.372   2.500 -13.757  1.00  0.00     0.243 CG0
ATOM     35  O   UNL     1       2.570   3.670 -14.077  1.00  0.00    -0.273 OA
ATOM     36  H   UNL     1       1.679   1.187 -12.298  1.00  0.00     0.164 HD
ATOM     37  G   UNL     1       2.465   1.356 -14.779  1.00  0.00     0.000 G0
ENDBRANCH  32  33
BRANCH  32  38
ATOM     38  C   UNL     1       0.118   3.229 -11.061  1.00  0.00     0.143 C 
ATOM     39  C   UNL     1      -0.379   4.626 -10.710  1.00  0.00     0.041 C 
BRANCH  38  40
ATOM     40  O   UNL     1      -0.719   2.681 -12.098  1.00  0.00    -0.391 OA
ATOM     41  H   UNL     1      -0.744   3.343 -12.815  1.00  0.00     0.211 HD
ENDBRANCH  38  40
ENDBRANCH  32  38
ENDBRANCH  29  32
ENDBRANCH  27  28
BRANCH  27  42
ATOM     42  C   UNL     1       2.206   1.736  -6.948  1.00  0.00     0.015 C 
ATOM     43  C   UNL     1       2.950   2.684  -6.001  1.00  0.00     0.010 C 
ATOM     44  C   UNL     1       0.758   2.201  -7.135  1.00  0.00     0.010 C 
ENDBRANCH  27  42
ENDBRANCH   3  27
TORSDOF 5
ENDMDL
MODEL 6
REMARK VINA RESULT:    -4.349      7.795     12.001
REMARK INTER + INTRA:         -10.227
REMARK INTER:                  -7.857
REMARK INTRA:                  -2.370
REMARK UNBOUND:                -2.445
REMARK SMILES CC[C@H](C)[C@H]1NC(=O)c2coc(n2)[C@H](C(C)C)NC(=O)[C@H]([C@@H](C)O)NC(=O)[C@H](C)NC(=O)c2csc1n2
REMARK SMILES IDX 11 1 13 2 12 3 9 4 10 5 7 6 6 7 8 8 5 10 36 11 35 12 34 13
REMARK SMILES IDX 37 14 33 15 31 16 32 17 30 18 28 20 29 21 3 23 4 24 2 25
REMARK SMILES IDX 1 26 14 27 18 28 19 29 20 30 21 32 25 33 26 34 27 35 22 38
REMARK SMILES IDX 23 39 24 40 15 42 16 43 17 44
REMARK H PARENT 6 9 30 19 18 31 25 36 24 41
REMARK Flexibility Score:   94.900
ROOT
ATOM      1  O   UNL     1       8.839  -4.786   1.004  1.00  0.00    -0.446 OA
ATOM      2  N   UNL     1       6.606  -4.516   0.863  1.00  0.00    -0.207 NA
ATOM      3  C   UNL     1       7.619  -5.359   0.766  1.00  0.00     0.217 A 
ATOM      4  C   UNL     1       7.197  -3.315   1.213  1.00  0.00     0.167 A 
ATOM      5  C   UNL     1       8.557  -3.486   1.298  1.00  0.00     0.231 A 
ENDROOT
BRANCH   4   6
ATOM      6  C   UNL     1       6.444  -2.089   1.413  1.00  0.00     0.273 C 
ATOM      7  N   UNL     1       5.123  -2.240   1.075  1.00  0.00    -0.341 N 
ATOM      8  O   UNL     1       6.945  -1.044   1.812  1.00  0.00    -0.267 OA
ATOM      9  H   UNL     1       4.872  -3.138   0.672  1.00  0.00     0.164 HD
BRANCH   7  10
ATOM     10  C   UNL     1       4.207  -1.125   0.942  1.00  0.00     0.145 C 
BRANCH  10  11
ATOM     11  C   UNL     1       4.070  -0.816  -0.542  1.00  0.00     0.116 A 
ATOM     12  S   UNL     1       3.895   0.817  -1.062  1.00  0.00    -0.124 S 
ATOM     13  C   UNL     1       3.858   0.288  -2.687  1.00  0.00     0.101 A 
ATOM     14  N   UNL     1       4.087  -1.719  -1.509  1.00  0.00    -0.234 NA
ATOM     15  C   UNL     1       3.983  -1.086  -2.750  1.00  0.00     0.139 A 
BRANCH  15  16
ATOM     16  C   UNL     1       4.013  -1.842  -4.004  1.00  0.00     0.271 C 
ATOM     17  O   UNL     1       3.375  -1.510  -4.997  1.00  0.00    -0.267 OA
ATOM     18  N   UNL     1       4.827  -2.955  -3.957  1.00  0.00    -0.339 N 
ATOM     19  H   UNL     1       5.213  -3.184  -3.045  1.00  0.00     0.164 HD
BRANCH  18  20
ATOM     20  C   UNL     1       4.928  -3.864  -5.090  1.00  0.00     0.168 CG0
ATOM     21  C   UNL     1       6.130  -3.521  -5.973  1.00  0.00     0.041 C 
ATOM     22  G   UNL     1       5.064  -5.334  -4.662  1.00  0.00     0.000 G0
ENDBRANCH  18  20
ENDBRANCH  15  16
ENDBRANCH  10  11
BRANCH  10  23
ATOM     23  C   UNL     1       2.838  -1.408   1.616  1.00  0.00     0.015 C 
ATOM     24  C   UNL     1       1.636  -1.015   0.741  1.00  0.00     0.010 C 
BRANCH  23  25
ATOM     25  C   UNL     1       2.676  -2.884   2.044  1.00  0.00     0.002 C 
ATOM     26  C   UNL     1       2.810  -3.111   3.544  1.00  0.00     0.004 C 
ENDBRANCH  23  25
ENDBRANCH  10  23
ENDBRANCH   7  10
ENDBRANCH   4   6
BRANCH   3  27
ATOM     27  C   UNL     1       7.555  -6.812   0.383  1.00  0.00     0.171 C 
BRANCH  27  28
ATOM     28  N   UNL     1       7.450  -6.886  -1.070  1.00  0.00    -0.342 N 
ATOM     29  C   UNL     1       6.246  -7.011  -1.727  1.00  0.00     0.245 C 
ATOM     30  O   UNL     1       5.168  -7.053  -1.137  1.00  0.00    -0.273 OA
ATOM     31  H   UNL     1       8.289  -6.743  -1.631  1.00  0.00     0.164 HD
BRANCH  29  32
ATOM     32  C   UNL     1       6.324  -6.943  -3.267  1.00  0.00     0.200 C 
BRANCH  32  33
ATOM     33  N   UNL     1       6.006  -5.571  -3.684  1.00  0.00    -0.340 N 
ATOM     34  C   UNL     1       5.055  -5.320  -4.651  1.00  0.00     0.243 CG0
ATOM     35  O   UNL     1       4.481  -6.227  -5.249  1.00  0.00    -0.273 OA
ATOM     36  H   UNL     1       6.486  -4.803  -3.231  1.00  0.00     0.164 HD
ATOM     37  G   UNL     1       4.921  -3.852  -5.089  1.00  0.00     0.000 G0
ENDBRANCH  32  33
BRANCH  32  38
ATOM     38  C   UNL     1       7.698  -7.427  -3.785  1.00  0.00     0.143 C 
ATOM     39  C   UNL     1       7.646  -8.098  -5.153  1.00  0.00     0.041 C 
BRANCH  38  40
ATOM     40  O   UNL     1       8.621  -6.322  -3.842  1.00  0.00    -0.391 OA
ATOM     41  H   UNL     1       9.518  -6.705  -3.805  1.00  0.00     0.211 HD
ENDBRANCH  38  40
ENDBRANCH  32  38
ENDBRANCH  29  32
ENDBRANCH  27  28
BRANCH  27  42
ATOM     42  C   UNL     1       8.671  -7.741   0.921  1.00  0.00     0.015 C 
ATOM     43  C   UNL     1       8.195  -8.909   1.792  1.00  0.00     0.010 C 
ATOM     44  C   UNL     1       9.582  -8.251  -0.200  1.00  0.00     0.010 C 
ENDBRANCH  27  42
ENDBRANCH   3  27
TORSDOF 5
ENDMDL
MODEL 7
REMARK VINA RESULT:    -4.338     10.038     13.749
REMARK INTER + INTRA:         -10.206
REMARK INTER:                  -7.647
REMARK INTRA:                  -2.559
REMARK UNBOUND:                -2.445
REMARK SMILES CC[C@H](C)[C@H]1NC(=O)c2coc(n2)[C@H](C(C)C)NC(=O)[C@H]([C@@H](C)O)NC(=O)[C@H](C)NC(=O)c2csc1n2
REMARK SMILES IDX 11 1 13 2 12 3 9 4 10 5 7 6 6 7 8 8 5 10 36 11 35 12 34 13
REMARK SMILES IDX 37 14 33 15 31 16 32 17 30 18 28 20 29 21 3 23 4 24 2 25
REMARK SMILES IDX 1 26 14 27 18 28 19 29 20 30 21 32 25 33 26 34 27 35 22 38
REMARK SMILES IDX 23 39 24 40 15 42 16 43 17 44
REMARK H PARENT 6 9 30 19 18 31 25 36 24 41
REMARK Flexibility Score:   94.900
ROOT
ATOM      1  O   UNL     1       7.153  -4.763  -3.942  1.00  0.00    -0.446 OA
ATOM      2  N   UNL     1       8.505  -6.097  -2.727  1.00  0.00    -0.207 NA
ATOM      3  C   UNL     1       7.288  -5.601  -2.868  1.00  0.00     0.217 A 
ATOM      4  C   UNL     1       9.211  -5.570  -3.795  1.00  0.00     0.167 A 
ATOM      5  C   UNL     1       8.382  -4.760  -4.531  1.00  0.00     0.231 A 
ENDROOT
BRANCH   4   6
ATOM      6  C   UNL     1      10.618  -5.844  -4.028  1.00  0.00     0.273 C 
ATOM      7  N   UNL     1      10.986  -7.073  -3.541  1.00  0.00    -0.341 N 
ATOM      8  O   UNL     1      11.381  -5.056  -4.573  1.00  0.00    -0.267 OA
ATOM      9  H   UNL     1      10.266  -7.578  -3.031  1.00  0.00     0.164 HD
BRANCH   7  10
ATOM     10  C   UNL     1      12.367  -7.495  -3.416  1.00  0.00     0.145 C 
BRANCH  10  11
ATOM     11  C   UNL     1      12.950  -6.805  -2.191  1.00  0.00     0.116 A 
ATOM     12  S   UNL     1      14.418  -5.912  -2.331  1.00  0.00    -0.124 S 
ATOM     13  C   UNL     1      14.314  -5.497  -0.676  1.00  0.00     0.101 A 
ATOM     14  N   UNL     1      12.408  -6.816  -0.985  1.00  0.00    -0.234 NA
ATOM     15  C   UNL     1      13.180  -6.049  -0.110  1.00  0.00     0.139 A 
BRANCH  15  16
ATOM     16  C   UNL     1      12.794  -5.854   1.289  1.00  0.00     0.271 C 
ATOM     17  O   UNL     1      13.471  -6.258   2.229  1.00  0.00    -0.267 OA
ATOM     18  N   UNL     1      11.604  -5.175   1.442  1.00  0.00    -0.339 N 
ATOM     19  H   UNL     1      11.083  -4.992   0.588  1.00  0.00     0.164 HD
BRANCH  18  20
ATOM     20  C   UNL     1      11.028  -4.949   2.761  1.00  0.00     0.168 CG0
ATOM     21  C   UNL     1      11.224  -3.500   3.213  1.00  0.00     0.041 C 
ATOM     22  G   UNL     1       9.523  -5.258   2.814  1.00  0.00     0.000 G0
ENDBRANCH  18  20
ENDBRANCH  15  16
ENDBRANCH  10  11
BRANCH  10  23
ATOM     23  C   UNL     1      12.505  -9.039  -3.348  1.00  0.00     0.015 C 
ATOM     24  C   UNL     1      11.200  -9.749  -2.951  1.00  0.00     0.010 C 
BRANCH  23  25
ATOM     25  C   UNL     1      13.020  -9.653  -4.669  1.00  0.00     0.002 C 
ATOM     26  C   UNL     1      13.446  -8.621  -5.705  1.00  0.00     0.004 C 
ENDBRANCH  23  25
ENDBRANCH  10  23
ENDBRANCH   7  10
ENDBRANCH   4   6
BRANCH   3  27
ATOM     27  C   UNL     1       6.108  -5.824  -1.962  1.00  0.00     0.171 C 
BRANCH  27  28
ATOM     28  N   UNL     1       6.426  -5.242  -0.663  1.00  0.00    -0.342 N 
ATOM     29  C   UNL     1       6.952  -5.977   0.377  1.00  0.00     0.245 C 
ATOM     30  O   UNL     1       7.206  -7.176   0.282  1.00  0.00    -0.273 OA
ATOM     31  H   UNL     1       6.350  -4.232  -0.546  1.00  0.00     0.164 HD
BRANCH  29  32
ATOM     32  C   UNL     1       7.343  -5.162   1.628  1.00  0.00     0.200 C 
BRANCH  32  33
ATOM     33  N   UNL     1       8.805  -5.041   1.660  1.00  0.00    -0.340 N 
ATOM     34  C   UNL     1       9.517  -5.259   2.821  1.00  0.00     0.243 CG0
ATOM     35  O   UNL     1       8.958  -5.501   3.890  1.00  0.00    -0.273 OA
ATOM     36  H   UNL     1       9.292  -4.812   0.801  1.00  0.00     0.164 HD
ATOM     37  G   UNL     1      11.023  -4.964   2.746  1.00  0.00     0.000 G0
ENDBRANCH  32  33
BRANCH  32  38
ATOM     38  C   UNL     1       6.623  -3.794   1.660  1.00  0.00     0.143 C 
ATOM     39  C   UNL     1       6.346  -3.269   3.064  1.00  0.00     0.041 C 
BRANCH  38  40
ATOM     40  O   UNL     1       7.394  -2.814   0.939  1.00  0.00    -0.391 OA
ATOM     41  H   UNL     1       7.813  -3.283   0.192  1.00  0.00     0.211 HD
ENDBRANCH  38  40
ENDBRANCH  32  38
ENDBRANCH  29  32
ENDBRANCH  27  28
BRANCH  27  42
ATOM     42  C   UNL     1       4.721  -5.360  -2.470  1.00  0.00     0.015 C 
ATOM     43  C   UNL     1       3.746  -6.481  -2.848  1.00  0.00     0.010 C 
ATOM     44  C   UNL     1       4.054  -4.380  -1.499  1.00  0.00     0.010 C 
ENDBRANCH  27  42
ENDBRANCH   3  27
TORSDOF 5
ENDMDL
MODEL 8
REMARK VINA RESULT:    -4.331      3.747      7.278
REMARK INTER + INTRA:         -10.195
REMARK INTER:                  -8.113
REMARK INTRA:                  -2.082
REMARK UNBOUND:                -2.445
REMARK SMILES CC[C@H](C)[C@H]1NC(=O)c2coc(n2)[C@H](C(C)C)NC(=O)[C@H]([C@@H](C)O)NC(=O)[C@H](C)NC(=O)c2csc1n2
REMARK SMILES IDX 11 1 13 2 12 3 9 4 10 5 7 6 6 7 8 8 5 10 36 11 35 12 34 13
REMARK SMILES IDX 37 14 33 15 31 16 32 17 30 18 28 20 29 21 3 23 4 24 2 25
REMARK SMILES IDX 1 26 14 27 18 28 19 29 20 30 21 32 25 33 26 34 27 35 22 38
REMARK SMILES IDX 23 39 24 40 15 42 16 43 17 44
REMARK H PARENT 6 9 30 19 18 31 25 36 24 41
REMARK Flexibility Score:   94.900
ROOT
ATOM      1  O   UNL     1       6.607  -1.786 -10.806  1.00  0.00    -0.446 OA
ATOM      2  N   UNL     1       6.612  -1.972 -13.053  1.00  0.00    -0.207 NA
ATOM      3  C   UNL     1       5.903  -1.683 -11.976  1.00  0.00     0.217 A 
ATOM      4  C   UNL     1       7.874  -2.259 -12.561  1.00  0.00     0.167 A 
ATOM      5  C   UNL     1       7.864  -2.144 -11.192  1.00  0.00     0.231 A 
ENDROOT
BRANCH   4   6
ATOM      6  C   UNL     1       8.987  -2.649 -13.409  1.00  0.00     0.273 C 
ATOM      7  N   UNL     1      10.010  -1.737 -13.359  1.00  0.00    -0.341 N 
ATOM      8  O   UNL     1       8.990  -3.660 -14.101  1.00  0.00    -0.267 OA
ATOM      9  H   UNL     1       9.827  -0.900 -12.812  1.00  0.00     0.164 HD
BRANCH   7  10
ATOM     10  C   UNL     1      11.126  -1.746 -14.284  1.00  0.00     0.145 C 
BRANCH  10  11
ATOM     11  C   UNL     1      10.884  -0.647 -15.308  1.00  0.00     0.116 A 
ATOM     12  S   UNL     1      11.724  -0.682 -16.813  1.00  0.00    -0.124 S 
ATOM     13  C   UNL     1      10.903   0.738 -17.295  1.00  0.00     0.101 A 
ATOM     14  N   UNL     1      10.047   0.365 -15.151  1.00  0.00    -0.234 NA
ATOM     15  C   UNL     1      10.040   1.158 -16.301  1.00  0.00     0.139 A 
BRANCH  15  16
ATOM     16  C   UNL     1       9.172   2.332 -16.421  1.00  0.00     0.271 C 
ATOM     17  O   UNL     1       9.593   3.481 -16.339  1.00  0.00    -0.267 OA
ATOM     18  N   UNL     1       7.847   2.017 -16.636  1.00  0.00    -0.339 N 
ATOM     19  H   UNL     1       7.609   1.031 -16.573  1.00  0.00     0.164 HD
BRANCH  18  20
ATOM     20  C   UNL     1       6.828   3.055 -16.713  1.00  0.00     0.168 CG0
ATOM     21  C   UNL     1       6.400   3.308 -18.160  1.00  0.00     0.041 C 
ATOM     22  G   UNL     1       5.568   2.712 -15.903  1.00  0.00     0.000 G0
ENDBRANCH  18  20
ENDBRANCH  15  16
ENDBRANCH  10  11
BRANCH  10  23
ATOM     23  C   UNL     1      12.489  -1.591 -13.560  1.00  0.00     0.015 C 
ATOM     24  C   UNL     1      12.376  -0.901 -12.190  1.00  0.00     0.010 C 
BRANCH  23  25
ATOM     25  C   UNL     1      13.226  -2.937 -13.376  1.00  0.00     0.002 C 
ATOM     26  C   UNL     1      12.682  -3.789 -12.237  1.00  0.00     0.004 C 
ENDBRANCH  23  25
ENDBRANCH  10  23
ENDBRANCH   7  10
ENDBRANCH   4   6
BRANCH   3  27
ATOM     27  C   UNL     1       4.444  -1.320 -11.922  1.00  0.00     0.171 C 
BRANCH  27  28
ATOM     28  N   UNL     1       4.083  -0.730 -13.206  1.00  0.00    -0.342 N 
ATOM     29  C   UNL     1       4.411   0.561 -13.554  1.00  0.00     0.245 C 
ATOM     30  O   UNL     1       5.048   1.309 -12.813  1.00  0.00    -0.273 OA
ATOM     31  H   UNL     1       3.656  -1.324 -13.916  1.00  0.00     0.164 HD
BRANCH  29  32
ATOM     32  C   UNL     1       4.058   0.965 -15.001  1.00  0.00     0.200 C 
BRANCH  32  33
ATOM     33  N   UNL     1       5.290   1.393 -15.674  1.00  0.00    -0.340 N 
ATOM     34  C   UNL     1       5.565   2.729 -15.882  1.00  0.00     0.243 CG0
ATOM     35  O   UNL     1       4.767   3.612 -15.575  1.00  0.00    -0.273 OA
ATOM     36  H   UNL     1       5.954   0.686 -15.967  1.00  0.00     0.164 HD
ATOM     37  G   UNL     1       6.820   3.029 -16.719  1.00  0.00     0.000 G0
ENDBRANCH  32  33
BRANCH  32  38
ATOM     38  C   UNL     1       3.331  -0.179 -15.745  1.00  0.00     0.143 C 
ATOM     39  C   UNL     1       1.844   0.072 -15.971  1.00  0.00     0.041 C 
BRANCH  38  40
ATOM     40  O   UNL     1       3.963  -0.419 -17.018  1.00  0.00    -0.391 OA
ATOM     41  H   UNL     1       3.364  -0.059 -17.699  1.00  0.00     0.211 HD
ENDBRANCH  38  40
ENDBRANCH  32  38
ENDBRANCH  29  32
ENDBRANCH  27  28
BRANCH  27  42
ATOM     42  C   UNL     1       3.449  -2.430 -11.505  1.00  0.00     0.015 C 
ATOM     43  C   UNL     1       3.259  -2.615  -9.995  1.00  0.00     0.010 C 
ATOM     44  C   UNL     1       2.090  -2.269 -12.195  1.00  0.00     0.010 C 
ENDBRANCH  27  42
ENDBRANCH   3  27
TORSDOF 5
ENDMDL
MODEL 9
REMARK VINA RESULT:    -4.214      1.900      2.151
REMARK INTER + INTRA:          -9.985
REMARK INTER:                  -7.529
REMARK INTRA:                  -2.456
REMARK UNBOUND:                -2.445
REMARK SMILES CC[C@H](C)[C@H]1NC(=O)c2coc(n2)[C@H](C(C)C)NC(=O)[C@H]([C@@H](C)O)NC(=O)[C@H](C)NC(=O)c2csc1n2
REMARK SMILES IDX 11 1 13 2 12 3 9 4 10 5 7 6 6 7 8 8 5 10 36 11 35 12 34 13
REMARK SMILES IDX 37 14 33 15 31 16 32 17 30 18 28 20 29 21 3 23 4 24 2 25
REMARK SMILES IDX 1 26 14 27 18 28 19 29 20 30 21 32 25 33 26 34 27 35 22 38
REMARK SMILES IDX 23 39 24 40 15 42 16 43 17 44
REMARK H PARENT 6 9 30 19 18 31 25 36 24 41
REMARK Flexibility Score:   94.900
ROOT
ATOM      1  O   UNL     1       2.702  -2.148 -12.651  1.00  0.00    -0.446 OA
ATOM      2  N   UNL     1       4.572  -1.142 -11.896  1.00  0.00    -0.207 NA
ATOM      3  C   UNL     1       3.637  -1.164 -12.829  1.00  0.00     0.217 A 
ATOM      4  C   UNL     1       4.214  -2.163 -11.033  1.00  0.00     0.167 A 
ATOM      5  C   UNL     1       3.074  -2.771 -11.498  1.00  0.00     0.231 A 
ENDROOT
BRANCH   4   6
ATOM      6  C   UNL     1       4.985  -2.511  -9.852  1.00  0.00     0.273 C 
ATOM      7  N   UNL     1       5.463  -1.397  -9.209  1.00  0.00    -0.341 N 
ATOM      8  O   UNL     1       5.197  -3.663  -9.496  1.00  0.00    -0.267 OA
ATOM      9  H   UNL     1       5.284  -0.510  -9.672  1.00  0.00     0.164 HD
BRANCH   7  10
ATOM     10  C   UNL     1       6.458  -1.456  -8.157  1.00  0.00     0.145 C 
BRANCH  10  11
ATOM     11  C   UNL     1       7.727  -0.801  -8.685  1.00  0.00     0.116 A 
ATOM     12  S   UNL     1       8.685   0.175  -7.638  1.00  0.00    -0.124 S 
ATOM     13  C   UNL     1       9.799   0.431  -8.908  1.00  0.00     0.101 A 
ATOM     14  N   UNL     1       8.188  -0.929  -9.919  1.00  0.00    -0.234 NA
ATOM     15  C   UNL     1       9.393  -0.234 -10.049  1.00  0.00     0.139 A 
BRANCH  15  16
ATOM     16  C   UNL     1      10.149  -0.233 -11.303  1.00  0.00     0.271 C 
ATOM     17  O   UNL     1      11.362  -0.060 -11.348  1.00  0.00    -0.267 OA
ATOM     18  N   UNL     1       9.366  -0.445 -12.419  1.00  0.00    -0.339 N 
ATOM     19  H   UNL     1       8.362  -0.462 -12.260  1.00  0.00     0.164 HD
BRANCH  18  20
ATOM     20  C   UNL     1       9.937  -0.410 -13.758  1.00  0.00     0.168 CG0
ATOM     21  C   UNL     1      10.201  -1.821 -14.288  1.00  0.00     0.041 C 
ATOM     22  G   UNL     1       9.031   0.310 -14.771  1.00  0.00     0.000 G0
ENDBRANCH  18  20
ENDBRANCH  15  16
ENDBRANCH  10  11
BRANCH  10  23
ATOM     23  C   UNL     1       5.960  -0.801  -6.841  1.00  0.00     0.015 C 
ATOM     24  C   UNL     1       4.825   0.214  -7.058  1.00  0.00     0.010 C 
BRANCH  23  25
ATOM     25  C   UNL     1       5.500  -1.840  -5.793  1.00  0.00     0.002 C 
ATOM     26  C   UNL     1       6.631  -2.405  -4.945  1.00  0.00     0.004 C 
ENDBRANCH  23  25
ENDBRANCH  10  23
ENDBRANCH   7  10
ENDBRANCH   4   6
BRANCH   3  27
ATOM     27  C   UNL     1       3.545  -0.278 -14.041  1.00  0.00     0.171 C 
BRANCH  27  28
ATOM     28  N   UNL     1       4.787  -0.420 -14.793  1.00  0.00    -0.342 N 
ATOM     29  C   UNL     1       5.488   0.656 -15.288  1.00  0.00     0.245 C 
ATOM     30  O   UNL     1       5.127   1.820 -15.118  1.00  0.00    -0.273 OA
ATOM     31  H   UNL     1       5.207  -1.345 -14.875  1.00  0.00     0.164 HD
BRANCH  29  32
ATOM     32  C   UNL     1       6.843   0.316 -15.943  1.00  0.00     0.200 C 
BRANCH  32  33
ATOM     33  N   UNL     1       7.749  -0.179 -14.899  1.00  0.00    -0.340 N 
ATOM     34  C   UNL     1       9.039   0.297 -14.786  1.00  0.00     0.243 CG0
ATOM     35  O   UNL     1       9.506   1.104 -15.586  1.00  0.00    -0.273 OA
ATOM     36  H   UNL     1       7.401  -0.868 -14.242  1.00  0.00     0.164 HD
ATOM     37  G   UNL     1       9.918  -0.406 -13.739  1.00  0.00     0.000 G0
ENDBRANCH  32  33
BRANCH  32  38
ATOM     38  C   UNL     1       6.671  -0.680 -17.114  1.00  0.00     0.143 C 
ATOM     39  C   UNL     1       7.010  -2.123 -16.758  1.00  0.00     0.041 C 
BRANCH  38  40
ATOM     40  O   UNL     1       5.319  -0.626 -17.611  1.00  0.00    -0.391 OA
ATOM     41  H   UNL     1       5.171  -1.454 -18.107  1.00  0.00     0.211 HD
ENDBRANCH  38  40
ENDBRANCH  32  38
ENDBRANCH  29  32
ENDBRANCH  27  28
BRANCH  27  42
ATOM     42  C   UNL     1       2.304  -0.444 -14.953  1.00  0.00     0.015 C 
ATOM     43  C   UNL     1       1.691   0.859 -15.478  1.00  0.00     0.010 C 
ATOM     44  C   UNL     1       2.570  -1.411 -16.111  1.00  0.00     0.010 C 
ENDBRANCH  27  42
ENDBRANCH   3  27
TORSDOF 5
ENDMDL
MODEL 10
REMARK VINA RESULT:    -4.151     15.031     19.271
REMARK INTER + INTRA:          -9.872
REMARK INTER:                  -7.390
REMARK INTRA:                  -2.482
REMARK UNBOUND:                -2.445
REMARK SMILES CC[C@H](C)[C@H]1NC(=O)c2coc(n2)[C@H](C(C)C)NC(=O)[C@H]([C@@H](C)O)NC(=O)[C@H](C)NC(=O)c2csc1n2
REMARK SMILES IDX 11 1 13 2 12 3 9 4 10 5 7 6 6 7 8 8 5 10 36 11 35 12 34 13
REMARK SMILES IDX 37 14 33 15 31 16 32 17 30 18 28 20 29 21 3 23 4 24 2 25
REMARK SMILES IDX 1 26 14 27 18 28 19 29 20 30 21 32 25 33 26 34 27 35 22 38
REMARK SMILES IDX 23 39 24 40 15 42 16 43 17 44
REMARK H PARENT 6 9 30 19 18 31 25 36 24 41
REMARK Flexibility Score:   94.900
ROOT
ATOM      1  O   UNL     1      -5.794   1.025   3.630  1.00  0.00    -0.446 OA
ATOM      2  N   UNL     1      -6.001   0.026   1.619  1.00  0.00    -0.207 NA
ATOM      3  C   UNL     1      -6.526   0.199   2.819  1.00  0.00     0.217 A 
ATOM      4  C   UNL     1      -4.861   0.811   1.632  1.00  0.00     0.167 A 
ATOM      5  C   UNL     1      -4.741   1.417   2.859  1.00  0.00     0.231 A 
ENDROOT
BRANCH   4   6
ATOM      6  C   UNL     1      -3.954   0.912   0.502  1.00  0.00     0.273 C 
ATOM      7  N   UNL     1      -4.173   2.053  -0.228  1.00  0.00    -0.341 N 
ATOM      8  O   UNL     1      -3.116   0.061   0.228  1.00  0.00    -0.267 OA
ATOM      9  H   UNL     1      -4.964   2.619   0.066  1.00  0.00     0.164 HD
BRANCH   7  10
ATOM     10  C   UNL     1      -3.587   2.283  -1.533  1.00  0.00     0.145 C 
BRANCH  10  11
ATOM     11  C   UNL     1      -4.719   2.300  -2.550  1.00  0.00     0.116 A 
ATOM     12  S   UNL     1      -4.357   2.435  -4.230  1.00  0.00    -0.124 S 
ATOM     13  C   UNL     1      -6.026   2.340  -4.589  1.00  0.00     0.101 A 
ATOM     14  N   UNL     1      -6.005   2.204  -2.254  1.00  0.00    -0.234 NA
ATOM     15  C   UNL     1      -6.763   2.209  -3.428  1.00  0.00     0.139 A 
BRANCH  15  16
ATOM     16  C   UNL     1      -8.221   2.076  -3.402  1.00  0.00     0.271 C 
ATOM     17  O   UNL     1      -8.937   2.424  -4.335  1.00  0.00    -0.267 OA
ATOM     18  N   UNL     1      -8.704   1.523  -2.235  1.00  0.00    -0.339 N 
ATOM     19  H   UNL     1      -8.021   1.380  -1.495  1.00  0.00     0.164 HD
BRANCH  18  20
ATOM     20  C   UNL     1     -10.134   1.377  -2.004  1.00  0.00     0.168 CG0
ATOM     21  C   UNL     1     -10.557  -0.093  -2.045  1.00  0.00     0.041 C 
ATOM     22  G   UNL     1     -10.580   1.956  -0.652  1.00  0.00     0.000 G0
ENDBRANCH  18  20
ENDBRANCH  15  16
ENDBRANCH  10  11
BRANCH  10  23
ATOM     23  C   UNL     1      -2.736   3.580  -1.573  1.00  0.00     0.015 C 
ATOM     24  C   UNL     1      -3.536   4.844  -1.214  1.00  0.00     0.010 C 
BRANCH  23  25
ATOM     25  C   UNL     1      -1.490   3.507  -0.662  1.00  0.00     0.002 C 
ATOM     26  C   UNL     1      -1.560   4.418   0.556  1.00  0.00     0.004 C 
ENDBRANCH  23  25
ENDBRANCH  10  23
ENDBRANCH   7  10
ENDBRANCH   4   6
BRANCH   3  27
ATOM     27  C   UNL     1      -7.770  -0.446   3.366  1.00  0.00     0.171 C 
BRANCH  27  28
ATOM     28  N   UNL     1      -8.903   0.031   2.578  1.00  0.00    -0.342 N 
ATOM     29  C   UNL     1      -9.526   1.234   2.818  1.00  0.00     0.245 C 
ATOM     30  O   UNL     1      -9.165   2.005   3.706  1.00  0.00    -0.273 OA
ATOM     31  H   UNL     1      -9.184  -0.500   1.754  1.00  0.00     0.164 HD
BRANCH  29  32
ATOM     32  C   UNL     1     -10.619   1.626   1.801  1.00  0.00     0.200 C 
BRANCH  32  33
ATOM     33  N   UNL     1     -10.151   1.261   0.458  1.00  0.00    -0.340 N 
ATOM     34  C   UNL     1     -10.571   1.953  -0.659  1.00  0.00     0.243 CG0
ATOM     35  O   UNL     1     -11.400   2.858  -0.589  1.00  0.00    -0.273 OA
ATOM     36  H   UNL     1      -9.490   0.499   0.366  1.00  0.00     0.164 HD
ATOM     37  G   UNL     1     -10.112   1.380  -2.009  1.00  0.00     0.000 G0
ENDBRANCH  32  33
BRANCH  32  38
ATOM     38  C   UNL     1     -11.980   0.985   2.159  1.00  0.00     0.143 C 
ATOM     39  C   UNL     1     -12.270  -0.315   1.419  1.00  0.00     0.041 C 
BRANCH  38  40
ATOM     40  O   UNL     1     -12.052   0.741   3.578  1.00  0.00    -0.391 OA
ATOM     41  H   UNL     1     -12.828   0.167   3.723  1.00  0.00     0.211 HD
ENDBRANCH  38  40
ENDBRANCH  32  38
ENDBRANCH  29  32
ENDBRANCH  27  28
BRANCH  27  42
ATOM     42  C   UNL     1      -7.776  -1.988   3.496  1.00  0.00     0.015 C 
ATOM     43  C   UNL     1      -8.334  -2.752   2.289  1.00  0.00     0.010 C 
ATOM     44  C   UNL     1      -6.398  -2.536   3.880  1.00  0.00     0.010 C 
ENDBRANCH  27  42
ENDBRANCH   3  27
TORSDOF 5
ENDMDL
