MODEL 1
REMARK VINA RESULT:    -5.048      0.000      0.000
REMARK INTER + INTRA:         -11.205
REMARK INTER:                  -9.031
REMARK INTRA:                  -2.174
REMARK UNBOUND:                -2.174
REMARK SMILES CC[C@H](C)[C@H]1NC(=O)c2coc(n2)[C@H](C(C)C)NC(=O)[C@H]([C@@H](C)O)NC(=O)[C@H](C)NC(=O)c2csc1n2
REMARK SMILES IDX 11 1 13 2 12 3 9 4 10 5 7 6 6 7 8 8 5 10 36 11 35 12 34 13
REMARK SMILES IDX 37 14 33 15 31 16 32 17 30 18 28 20 29 21 3 23 4 24 2 25
REMARK SMILES IDX 1 26 14 27 18 28 19 29 20 30 21 32 25 33 26 34 27 35 22 38
REMARK SMILES IDX 23 39 24 40 15 42 16 43 17 44
REMARK H PARENT 6 9 30 19 18 31 25 36 24 41
REMARK Flexibility Score:   94.900
ROOT
ATOM      1  O   UNL     1      -7.813  -3.433   7.047  1.00  0.00    -0.446 OA
ATOM      2  N   UNL     1      -9.302  -4.055   5.473  1.00  0.00    -0.207 NA
ATOM      3  C   UNL     1      -8.226  -3.339   5.744  1.00  0.00     0.217 A 
ATOM      4  C   UNL     1      -9.602  -4.683   6.670  1.00  0.00     0.167 A 
ATOM      5  C   UNL     1      -8.691  -4.300   7.624  1.00  0.00     0.231 A 
ENDROOT
BRANCH   4   6
ATOM      6  C   UNL     1     -10.739  -5.572   6.836  1.00  0.00     0.273 C 
ATOM      7  N   UNL     1     -10.564  -6.754   6.162  1.00  0.00    -0.341 N 
ATOM      8  O   UNL     1     -11.739  -5.280   7.481  1.00  0.00    -0.267 OA
ATOM      9  H   UNL     1      -9.725  -6.817   5.593  1.00  0.00     0.164 HD
BRANCH   7  10
ATOM     10  C   UNL     1     -11.632  -7.712   5.953  1.00  0.00     0.145 C 
BRANCH  10  11
ATOM     11  C   UNL     1     -12.152  -7.520   4.536  1.00  0.00     0.116 A 
ATOM     12  S   UNL     1     -13.815  -7.812   4.188  1.00  0.00    -0.124 S 
ATOM     13  C   UNL     1     -13.547  -7.358   2.562  1.00  0.00     0.101 A 
ATOM     14  N   UNL     1     -11.421  -7.120   3.508  1.00  0.00    -0.234 NA
ATOM     15  C   UNL     1     -12.224  -7.009   2.370  1.00  0.00     0.139 A 
BRANCH  15  16
ATOM     16  C   UNL     1     -11.684  -6.548   1.089  1.00  0.00     0.271 C 
ATOM     17  O   UNL     1     -11.295  -7.316   0.216  1.00  0.00    -0.267 OA
ATOM     18  N   UNL     1     -11.658  -5.174   0.964  1.00  0.00    -0.339 N 
ATOM     19  H   UNL     1     -11.903  -4.648   1.799  1.00  0.00     0.164 HD
BRANCH  18  20
ATOM     20  C   UNL     1     -11.091  -4.534  -0.215  1.00  0.00     0.168 CG0
ATOM     21  C   UNL     1     -12.179  -3.892  -1.077  1.00  0.00     0.041 C 
ATOM     22  G   UNL     1     -10.065  -3.445   0.136  1.00  0.00     0.000 G0
ENDBRANCH  18  20
ENDBRANCH  15  16
ENDBRANCH  10  11
BRANCH  10  23
ATOM     23  C   UNL     1     -11.173  -9.169   6.222  1.00  0.00     0.015 C 
ATOM     24  C   UNL     1      -9.796  -9.495   5.620  1.00  0.00     0.010 C 
BRANCH  23  25
ATOM     25  C   UNL     1     -11.152  -9.522   7.727  1.00  0.00     0.002 C 
ATOM     26  C   UNL     1     -10.019 -10.458   8.126  1.00  0.00     0.004 C 
ENDBRANCH  23  25
ENDBRANCH  10  23
ENDBRANCH   7  10
ENDBRANCH   4   6
BRANCH   3  27
ATOM     27  C   UNL     1      -7.481  -2.430   4.806  1.00  0.00     0.171 C 
BRANCH  27  28
ATOM     28  N   UNL     1      -8.440  -1.901   3.842  1.00  0.00    -0.342 N 
ATOM     29  C   UNL     1      -8.326  -2.105   2.485  1.00  0.00     0.245 C 
ATOM     30  O   UNL     1      -7.414  -2.762   1.985  1.00  0.00    -0.273 OA
ATOM     31  H   UNL     1      -9.283  -1.445   4.189  1.00  0.00     0.164 HD
BRANCH  29  32
ATOM     32  C   UNL     1      -9.504  -1.580   1.637  1.00  0.00     0.200 C 
BRANCH  32  33
ATOM     33  N   UNL     1     -10.343  -2.723   1.257  1.00  0.00    -0.340 N 
ATOM     34  C   UNL     1     -10.074  -3.464   0.126  1.00  0.00     0.243 CG0
ATOM     35  O   UNL     1      -9.164  -3.166  -0.645  1.00  0.00    -0.273 OA
ATOM     36  H   UNL     1     -11.120  -2.974   1.857  1.00  0.00     0.164 HD
ATOM     37  G   UNL     1     -11.110  -4.543  -0.227  1.00  0.00     0.000 G0
ENDBRANCH  32  33
BRANCH  32  38
ATOM     38  C   UNL     1     -10.289  -0.476   2.383  1.00  0.00     0.143 C 
ATOM     39  C   UNL     1      -9.792   0.938   2.105  1.00  0.00     0.041 C 
BRANCH  38  40
ATOM     40  O   UNL     1     -11.688  -0.554   2.047  1.00  0.00    -0.391 OA
ATOM     41  H   UNL     1     -11.787  -1.310   1.437  1.00  0.00     0.211 HD
ENDBRANCH  38  40
ENDBRANCH  32  38
ENDBRANCH  29  32
ENDBRANCH  27  28
BRANCH  27  42
ATOM     42  C   UNL     1      -6.624  -1.303   5.433  1.00  0.00     0.015 C 
ATOM     43  C   UNL     1      -5.339  -0.951   4.676  1.00  0.00     0.010 C 
ATOM     44  C   UNL     1      -7.447  -0.039   5.700  1.00  0.00     0.010 C 
ENDBRANCH  27  42
ENDBRANCH   3  27
TORSDOF 5
ENDMDL
MODEL 2
REMARK VINA RESULT:    -4.740     16.483     18.942
REMARK INTER + INTRA:         -10.654
REMARK INTER:                  -8.323
REMARK INTRA:                  -2.330
REMARK UNBOUND:                -2.174
REMARK SMILES CC[C@H](C)[C@H]1NC(=O)c2coc(n2)[C@H](C(C)C)NC(=O)[C@H]([C@@H](C)O)NC(=O)[C@H](C)NC(=O)c2csc1n2
REMARK SMILES IDX 11 1 13 2 12 3 9 4 10 5 7 6 6 7 8 8 5 10 36 11 35 12 34 13
REMARK SMILES IDX 37 14 33 15 31 16 32 17 30 18 28 20 29 21 3 23 4 24 2 25
REMARK SMILES IDX 1 26 14 27 18 28 19 29 20 30 21 32 25 33 26 34 27 35 22 38
REMARK SMILES IDX 23 39 24 40 15 42 16 43 17 44
REMARK H PARENT 6 9 30 19 18 31 25 36 24 41
REMARK Flexibility Score:   94.900
ROOT
ATOM      1  O   UNL     1       0.780  -9.510  -4.365  1.00  0.00    -0.446 OA
ATOM      2  N   UNL     1       0.383  -9.848  -6.558  1.00  0.00    -0.207 NA
ATOM      3  C   UNL     1       0.211 -10.300  -5.328  1.00  0.00     0.217 A 
ATOM      4  C   UNL     1       1.088  -8.669  -6.391  1.00  0.00     0.167 A 
ATOM      5  C   UNL     1       1.326  -8.468  -5.053  1.00  0.00     0.231 A 
ENDROOT
BRANCH   4   6
ATOM      6  C   UNL     1       1.511  -7.833  -7.501  1.00  0.00     0.273 C 
ATOM      7  N   UNL     1       0.724  -8.021  -8.609  1.00  0.00    -0.341 N 
ATOM      8  O   UNL     1       2.471  -7.074  -7.450  1.00  0.00    -0.267 OA
ATOM      9  H   UNL     1       0.022  -8.751  -8.532  1.00  0.00     0.164 HD
BRANCH   7  10
ATOM     10  C   UNL     1       1.068  -7.507  -9.920  1.00  0.00     0.145 C 
BRANCH  10  11
ATOM     11  C   UNL     1       1.859  -8.586 -10.645  1.00  0.00     0.116 A 
ATOM     12  S   UNL     1       2.794  -8.173 -12.033  1.00  0.00    -0.124 S 
ATOM     13  C   UNL     1       3.315  -9.796 -12.155  1.00  0.00     0.101 A 
ATOM     14  N   UNL     1       1.909  -9.858 -10.288  1.00  0.00    -0.234 NA
ATOM     15  C   UNL     1       2.761 -10.559 -11.145  1.00  0.00     0.139 A 
BRANCH  15  16
ATOM     16  C   UNL     1       3.035 -11.986 -10.961  1.00  0.00     0.271 C 
ATOM     17  O   UNL     1       3.626 -12.663 -11.795  1.00  0.00    -0.267 OA
ATOM     18  N   UNL     1       2.567 -12.486  -9.764  1.00  0.00    -0.339 N 
ATOM     19  H   UNL     1       1.998 -11.852  -9.209  1.00  0.00     0.164 HD
BRANCH  18  20
ATOM     20  C   UNL     1       2.690 -13.901  -9.438  1.00  0.00     0.168 CG0
ATOM     21  C   UNL     1       4.067 -14.220  -8.853  1.00  0.00     0.041 C 
ATOM     22  G   UNL     1       1.630 -14.372  -8.430  1.00  0.00     0.000 G0
ENDBRANCH  18  20
ENDBRANCH  15  16
ENDBRANCH  10  11
BRANCH  10  23
ATOM     23  C   UNL     1      -0.184  -7.054 -10.718  1.00  0.00     0.015 C 
ATOM     24  C   UNL     1      -1.507  -7.338  -9.989  1.00  0.00     0.010 C 
BRANCH  23  25
ATOM     25  C   UNL     1      -0.140  -5.556 -11.099  1.00  0.00     0.002 C 
ATOM     26  C   UNL     1       0.265  -5.297 -12.543  1.00  0.00     0.004 C 
ENDBRANCH  23  25
ENDBRANCH  10  23
ENDBRANCH   7  10
ENDBRANCH   4   6
BRANCH   3  27
ATOM     27  C   UNL     1      -0.474 -11.574  -4.918  1.00  0.00     0.171 C 
BRANCH  27  28
ATOM     28  N   UNL     1       0.450 -12.676  -5.161  1.00  0.00    -0.342 N 
ATOM     29  C   UNL     1       0.057 -13.872  -5.718  1.00  0.00     0.245 C 
ATOM     30  O   UNL     1      -1.101 -14.095  -6.068  1.00  0.00    -0.273 OA
ATOM     31  H   UNL     1       1.446 -12.525  -5.003  1.00  0.00     0.164 HD
BRANCH  29  32
ATOM     32  C   UNL     1       1.198 -14.868  -6.016  1.00  0.00     0.200 C 
BRANCH  32  33
ATOM     33  N   UNL     1       2.032 -14.306  -7.087  1.00  0.00    -0.340 N 
ATOM     34  C   UNL     1       1.651 -14.392  -8.410  1.00  0.00     0.243 CG0
ATOM     35  O   UNL     1       0.637 -14.995  -8.757  1.00  0.00    -0.273 OA
ATOM     36  H   UNL     1       2.890 -13.830  -6.835  1.00  0.00     0.164 HD
ATOM     37  G   UNL     1       2.680 -13.887  -9.434  1.00  0.00     0.000 G0
ENDBRANCH  32  33
BRANCH  32  38
ATOM     38  C   UNL     1       2.003 -15.204  -4.740  1.00  0.00     0.143 C 
ATOM     39  C   UNL     1       2.588 -16.612  -4.725  1.00  0.00     0.041 C 
BRANCH  38  40
ATOM     40  O   UNL     1       3.071 -14.253  -4.565  1.00  0.00    -0.391 OA
ATOM     41  H   UNL     1       3.202 -13.818  -5.429  1.00  0.00     0.211 HD
ENDBRANCH  38  40
ENDBRANCH  32  38
ENDBRANCH  29  32
ENDBRANCH  27  28
BRANCH  27  42
ATOM     42  C   UNL     1      -1.071 -11.635  -3.491  1.00  0.00     0.015 C 
ATOM     43  C   UNL     1      -2.455 -12.285  -3.381  1.00  0.00     0.010 C 
ATOM     44  C   UNL     1      -0.102 -12.276  -2.492  1.00  0.00     0.010 C 
ENDBRANCH  27  42
ENDBRANCH   3  27
TORSDOF 5
ENDMDL
MODEL 3
REMARK VINA RESULT:    -4.671      2.464      6.514
REMARK INTER + INTRA:         -10.531
REMARK INTER:                  -7.908
REMARK INTRA:                  -2.622
REMARK UNBOUND:                -2.174
REMARK SMILES CC[C@H](C)[C@H]1NC(=O)c2coc(n2)[C@H](C(C)C)NC(=O)[C@H]([C@@H](C)O)NC(=O)[C@H](C)NC(=O)c2csc1n2
REMARK SMILES IDX 11 1 13 2 12 3 9 4 10 5 7 6 6 7 8 8 5 10 36 11 35 12 34 13
REMARK SMILES IDX 37 14 33 15 31 16 32 17 30 18 28 20 29 21 3 23 4 24 2 25
REMARK SMILES IDX 1 26 14 27 18 28 19 29 20 30 21 32 25 33 26 34 27 35 22 38
REMARK SMILES IDX 23 39 24 40 15 42 16 43 17 44
REMARK H PARENT 6 9 30 19 18 31 25 36 24 41
REMARK Flexibility Score:   94.900
ROOT
ATOM      1  O   UNL     1      -6.876  -2.279   1.902  1.00  0.00    -0.446 OA
ATOM      2  N   UNL     1      -9.096  -1.906   1.787  1.00  0.00    -0.207 NA
ATOM      3  C   UNL     1      -7.990  -1.741   2.490  1.00  0.00     0.217 A 
ATOM      4  C   UNL     1      -8.678  -2.574   0.649  1.00  0.00     0.167 A 
ATOM      5  C   UNL     1      -7.325  -2.797   0.725  1.00  0.00     0.231 A 
ENDROOT
BRANCH   4   6
ATOM      6  C   UNL     1      -9.585  -2.977  -0.412  1.00  0.00     0.273 C 
ATOM      7  N   UNL     1     -10.898  -2.807  -0.053  1.00  0.00    -0.341 N 
ATOM      8  O   UNL     1      -9.211  -3.437  -1.485  1.00  0.00    -0.267 OA
ATOM      9  H   UNL     1     -11.057  -2.504   0.903  1.00  0.00     0.164 HD
BRANCH   7  10
ATOM     10  C   UNL     1     -12.004  -3.354  -0.814  1.00  0.00     0.145 C 
BRANCH  10  11
ATOM     11  C   UNL     1     -12.626  -4.469   0.013  1.00  0.00     0.116 A 
ATOM     12  S   UNL     1     -13.812  -5.500  -0.695  1.00  0.00    -0.124 S 
ATOM     13  C   UNL     1     -13.910  -6.379   0.767  1.00  0.00     0.101 A 
ATOM     14  N   UNL     1     -12.320  -4.741   1.271  1.00  0.00    -0.234 NA
ATOM     15  C   UNL     1     -13.045  -5.853   1.707  1.00  0.00     0.139 A 
BRANCH  15  16
ATOM     16  C   UNL     1     -12.877  -6.402   3.054  1.00  0.00     0.271 C 
ATOM     17  O   UNL     1     -13.439  -7.424   3.431  1.00  0.00    -0.267 OA
ATOM     18  N   UNL     1     -12.028  -5.660   3.849  1.00  0.00    -0.339 N 
ATOM     19  H   UNL     1     -11.713  -4.776   3.459  1.00  0.00     0.164 HD
BRANCH  18  20
ATOM     20  C   UNL     1     -11.793  -6.018   5.241  1.00  0.00     0.168 CG0
ATOM     21  C   UNL     1     -10.700  -7.081   5.367  1.00  0.00     0.041 C 
ATOM     22  G   UNL     1     -11.379  -4.814   6.102  1.00  0.00     0.000 G0
ENDBRANCH  18  20
ENDBRANCH  15  16
ENDBRANCH  10  11
BRANCH  10  23
ATOM     23  C   UNL     1     -13.037  -2.266  -1.211  1.00  0.00     0.015 C 
ATOM     24  C   UNL     1     -12.769  -0.903  -0.551  1.00  0.00     0.010 C 
BRANCH  23  25
ATOM     25  C   UNL     1     -13.135  -2.063  -2.740  1.00  0.00     0.002 C 
ATOM     26  C   UNL     1     -12.520  -3.194  -3.554  1.00  0.00     0.004 C 
ENDBRANCH  23  25
ENDBRANCH  10  23
ENDBRANCH   7  10
ENDBRANCH   4   6
BRANCH   3  27
ATOM     27  C   UNL     1      -7.863  -1.093   3.841  1.00  0.00     0.171 C 
BRANCH  27  28
ATOM     28  N   UNL     1      -8.232  -2.083   4.848  1.00  0.00    -0.342 N 
ATOM     29  C   UNL     1      -9.299  -1.917   5.702  1.00  0.00     0.245 C 
ATOM     30  O   UNL     1     -10.030  -0.928   5.670  1.00  0.00    -0.273 OA
ATOM     31  H   UNL     1      -7.744  -2.978   4.857  1.00  0.00     0.164 HD
BRANCH  29  32
ATOM     32  C   UNL     1      -9.612  -3.126   6.609  1.00  0.00     0.200 C 
BRANCH  32  33
ATOM     33  N   UNL     1     -10.180  -4.192   5.775  1.00  0.00    -0.340 N 
ATOM     34  C   UNL     1     -11.366  -4.810   6.112  1.00  0.00     0.243 CG0
ATOM     35  O   UNL     1     -11.965  -4.544   7.153  1.00  0.00    -0.273 OA
ATOM     36  H   UNL     1      -9.693  -4.456   4.926  1.00  0.00     0.164 HD
ATOM     37  G   UNL     1     -11.773  -6.000   5.228  1.00  0.00     0.000 G0
ENDBRANCH  32  33
BRANCH  32  38
ATOM     38  C   UNL     1      -8.362  -3.580   7.398  1.00  0.00     0.143 C 
ATOM     39  C   UNL     1      -8.678  -4.301   8.704  1.00  0.00     0.041 C 
BRANCH  38  40
ATOM     40  O   UNL     1      -7.545  -4.436   6.577  1.00  0.00    -0.391 OA
ATOM     41  H   UNL     1      -8.144  -4.862   5.935  1.00  0.00     0.211 HD
ENDBRANCH  38  40
ENDBRANCH  32  38
ENDBRANCH  29  32
ENDBRANCH  27  28
BRANCH  27  42
ATOM     42  C   UNL     1      -6.515  -0.411   4.181  1.00  0.00     0.015 C 
ATOM     43  C   UNL     1      -6.620   0.944   4.889  1.00  0.00     0.010 C 
ATOM     44  C   UNL     1      -5.580  -1.345   4.957  1.00  0.00     0.010 C 
ENDBRANCH  27  42
ENDBRANCH   3  27
TORSDOF 5
ENDMDL
MODEL 4
REMARK VINA RESULT:    -4.527      2.827      8.021
REMARK INTER + INTRA:         -10.274
REMARK INTER:                  -8.140
REMARK INTRA:                  -2.133
REMARK UNBOUND:                -2.174
REMARK SMILES CC[C@H](C)[C@H]1NC(=O)c2coc(n2)[C@H](C(C)C)NC(=O)[C@H]([C@@H](C)O)NC(=O)[C@H](C)NC(=O)c2csc1n2
REMARK SMILES IDX 11 1 13 2 12 3 9 4 10 5 7 6 6 7 8 8 5 10 36 11 35 12 34 13
REMARK SMILES IDX 37 14 33 15 31 16 32 17 30 18 28 20 29 21 3 23 4 24 2 25
REMARK SMILES IDX 1 26 14 27 18 28 19 29 20 30 21 32 25 33 26 34 27 35 22 38
REMARK SMILES IDX 23 39 24 40 15 42 16 43 17 44
REMARK H PARENT 6 9 30 19 18 31 25 36 24 41
REMARK Flexibility Score:   94.900
ROOT
ATOM      1  O   UNL     1     -10.714  -3.997  -0.878  1.00  0.00    -0.446 OA
ATOM      2  N   UNL     1     -11.186  -2.953   1.064  1.00  0.00    -0.207 NA
ATOM      3  C   UNL     1     -11.580  -3.846   0.172  1.00  0.00     0.217 A 
ATOM      4  C   UNL     1      -9.968  -2.507   0.581  1.00  0.00     0.167 A 
ATOM      5  C   UNL     1      -9.686  -3.146  -0.602  1.00  0.00     0.231 A 
ENDROOT
BRANCH   4   6
ATOM      6  C   UNL     1      -9.173  -1.492   1.250  1.00  0.00     0.273 C 
ATOM      7  N   UNL     1      -7.908  -1.941   1.536  1.00  0.00    -0.341 N 
ATOM      8  O   UNL     1      -9.599  -0.381   1.542  1.00  0.00    -0.267 OA
ATOM      9  H   UNL     1      -7.727  -2.916   1.317  1.00  0.00     0.164 HD
BRANCH   7  10
ATOM     10  C   UNL     1      -6.995  -1.232   2.411  1.00  0.00     0.145 C 
BRANCH  10  11
ATOM     11  C   UNL     1      -7.303  -1.658   3.839  1.00  0.00     0.116 A 
ATOM     12  S   UNL     1      -6.853  -0.636   5.151  1.00  0.00    -0.124 S 
ATOM     13  C   UNL     1      -7.542  -1.751   6.247  1.00  0.00     0.101 A 
ATOM     14  N   UNL     1      -7.920  -2.778   4.180  1.00  0.00    -0.234 NA
ATOM     15  C   UNL     1      -8.076  -2.829   5.568  1.00  0.00     0.139 A 
BRANCH  15  16
ATOM     16  C   UNL     1      -8.763  -3.944   6.223  1.00  0.00     0.271 C 
ATOM     17  O   UNL     1      -8.312  -4.515   7.211  1.00  0.00    -0.267 OA
ATOM     18  N   UNL     1      -9.958  -4.284   5.625  1.00  0.00    -0.339 N 
ATOM     19  H   UNL     1     -10.167  -3.810   4.750  1.00  0.00     0.164 HD
BRANCH  18  20
ATOM     20  C   UNL     1     -10.746  -5.413   6.100  1.00  0.00     0.168 CG0
ATOM     21  C   UNL     1     -12.142  -4.971   6.542  1.00  0.00     0.041 C 
ATOM     22  G   UNL     1     -10.915  -6.509   5.036  1.00  0.00     0.000 G0
ENDBRANCH  18  20
ENDBRANCH  15  16
ENDBRANCH  10  11
BRANCH  10  23
ATOM     23  C   UNL     1      -5.511  -1.473   2.028  1.00  0.00     0.015 C 
ATOM     24  C   UNL     1      -5.332  -2.514   0.910  1.00  0.00     0.010 C 
BRANCH  23  25
ATOM     25  C   UNL     1      -4.781  -0.175   1.617  1.00  0.00     0.002 C 
ATOM     26  C   UNL     1      -4.280   0.651   2.794  1.00  0.00     0.004 C 
ENDBRANCH  23  25
ENDBRANCH  10  23
ENDBRANCH   7  10
ENDBRANCH   4   6
BRANCH   3  27
ATOM     27  C   UNL     1     -12.861  -4.633   0.183  1.00  0.00     0.171 C 
BRANCH  27  28
ATOM     28  N   UNL     1     -12.868  -5.459   1.385  1.00  0.00    -0.342 N 
ATOM     29  C   UNL     1     -12.007  -6.518   1.569  1.00  0.00     0.245 C 
ATOM     30  O   UNL     1     -11.157  -6.837   0.738  1.00  0.00    -0.273 OA
ATOM     31  H   UNL     1     -13.465  -5.186   2.165  1.00  0.00     0.164 HD
BRANCH  29  32
ATOM     32  C   UNL     1     -12.076  -7.192   2.956  1.00  0.00     0.200 C 
BRANCH  32  33
ATOM     33  N   UNL     1     -11.727  -6.191   3.972  1.00  0.00    -0.340 N 
ATOM     34  C   UNL     1     -10.912  -6.508   5.039  1.00  0.00     0.243 CG0
ATOM     35  O   UNL     1     -10.497  -7.651   5.223  1.00  0.00    -0.273 OA
ATOM     36  H   UNL     1     -12.079  -5.247   3.864  1.00  0.00     0.164 HD
ATOM     37  G   UNL     1     -10.741  -5.406   6.097  1.00  0.00     0.000 G0
ENDBRANCH  32  33
BRANCH  32  38
ATOM     38  C   UNL     1     -13.457  -7.842   3.201  1.00  0.00     0.143 C 
ATOM     39  C   UNL     1     -14.350  -7.064   4.160  1.00  0.00     0.041 C 
BRANCH  38  40
ATOM     40  O   UNL     1     -14.151  -8.011   1.949  1.00  0.00    -0.391 OA
ATOM     41  H   UNL     1     -13.479  -7.939   1.245  1.00  0.00     0.211 HD
ENDBRANCH  38  40
ENDBRANCH  32  38
ENDBRANCH  29  32
ENDBRANCH  27  28
BRANCH  27  42
ATOM     42  C   UNL     1     -14.184  -3.844   0.027  1.00  0.00     0.015 C 
ATOM     43  C   UNL     1     -15.322  -4.594  -0.674  1.00  0.00     0.010 C 
ATOM     44  C   UNL     1     -14.670  -3.270   1.362  1.00  0.00     0.010 C 
ENDBRANCH  27  42
ENDBRANCH   3  27
TORSDOF 5
ENDMDL
MODEL 5
REMARK VINA RESULT:    -4.493      2.632      5.700
REMARK INTER + INTRA:         -10.212
REMARK INTER:                  -7.838
REMARK INTRA:                  -2.374
REMARK UNBOUND:                -2.174
REMARK SMILES CC[C@H](C)[C@H]1NC(=O)c2coc(n2)[C@H](C(C)C)NC(=O)[C@H]([C@@H](C)O)NC(=O)[C@H](C)NC(=O)c2csc1n2
REMARK SMILES IDX 11 1 13 2 12 3 9 4 10 5 7 6 6 7 8 8 5 10 36 11 35 12 34 13
REMARK SMILES IDX 37 14 33 15 31 16 32 17 30 18 28 20 29 21 3 23 4 24 2 25
REMARK SMILES IDX 1 26 14 27 18 28 19 29 20 30 21 32 25 33 26 34 27 35 22 38
REMARK SMILES IDX 23 39 24 40 15 42 16 43 17 44
REMARK H PARENT 6 9 30 19 18 31 25 36 24 41
REMARK Flexibility Score:   94.900
ROOT
ATOM      1  O   UNL     1     -11.451  -7.219   6.050  1.00  0.00    -0.446 OA
ATOM      2  N   UNL     1     -11.706  -5.231   5.020  1.00  0.00    -0.207 NA
ATOM      3  C   UNL     1     -11.166  -5.880   6.035  1.00  0.00     0.217 A 
ATOM      4  C   UNL     1     -12.370  -6.212   4.304  1.00  0.00     0.167 A 
ATOM      5  C   UNL     1     -12.210  -7.421   4.937  1.00  0.00     0.231 A 
ENDROOT
BRANCH   4   6
ATOM      6  C   UNL     1     -13.128  -5.938   3.096  1.00  0.00     0.273 C 
ATOM      7  N   UNL     1     -12.331  -5.949   1.980  1.00  0.00    -0.341 N 
ATOM      8  O   UNL     1     -14.330  -5.700   3.090  1.00  0.00    -0.267 OA
ATOM      9  H   UNL     1     -11.336  -6.069   2.150  1.00  0.00     0.164 HD
BRANCH   7  10
ATOM     10  C   UNL     1     -12.773  -5.468   0.686  1.00  0.00     0.145 C 
BRANCH  10  11
ATOM     11  C   UNL     1     -11.719  -4.498   0.171  1.00  0.00     0.116 A 
ATOM     12  S   UNL     1     -12.033  -3.569  -1.247  1.00  0.00    -0.124 S 
ATOM     13  C   UNL     1     -10.508  -2.816  -1.081  1.00  0.00     0.101 A 
ATOM     14  N   UNL     1     -10.544  -4.283   0.739  1.00  0.00    -0.234 NA
ATOM     15  C   UNL     1      -9.847  -3.301   0.031  1.00  0.00     0.139 A 
BRANCH  15  16
ATOM     16  C   UNL     1      -8.527  -2.834   0.460  1.00  0.00     0.271 C 
ATOM     17  O   UNL     1      -7.518  -2.973  -0.224  1.00  0.00    -0.267 OA
ATOM     18  N   UNL     1      -8.533  -2.228   1.698  1.00  0.00    -0.339 N 
ATOM     19  H   UNL     1      -9.409  -2.274   2.212  1.00  0.00     0.164 HD
BRANCH  18  20
ATOM     20  C   UNL     1      -7.298  -1.762   2.316  1.00  0.00     0.168 CG0
ATOM     21  C   UNL     1      -7.049  -0.282   2.014  1.00  0.00     0.041 C 
ATOM     22  G   UNL     1      -7.295  -1.937   3.843  1.00  0.00     0.000 G0
ENDBRANCH  18  20
ENDBRANCH  15  16
ENDBRANCH  10  11
BRANCH  10  23
ATOM     23  C   UNL     1     -13.046  -6.628  -0.309  1.00  0.00     0.015 C 
ATOM     24  C   UNL     1     -12.931  -8.020   0.334  1.00  0.00     0.010 C 
BRANCH  23  25
ATOM     25  C   UNL     1     -14.425  -6.512  -0.997  1.00  0.00     0.002 C 
ATOM     26  C   UNL     1     -15.395  -5.578  -0.287  1.00  0.00     0.004 C 
ENDBRANCH  23  25
ENDBRANCH  10  23
ENDBRANCH   7  10
ENDBRANCH   4   6
BRANCH   3  27
ATOM     27  C   UNL     1     -10.348  -5.295   7.154  1.00  0.00     0.171 C 
BRANCH  27  28
ATOM     28  N   UNL     1     -10.032  -3.915   6.801  1.00  0.00    -0.342 N 
ATOM     29  C   UNL     1      -8.798  -3.528   6.327  1.00  0.00     0.245 C 
ATOM     30  O   UNL     1      -7.875  -4.322   6.151  1.00  0.00    -0.273 OA
ATOM     31  H   UNL     1     -10.780  -3.222   6.812  1.00  0.00     0.164 HD
BRANCH  29  32
ATOM     32  C   UNL     1      -8.693  -2.053   5.886  1.00  0.00     0.200 C 
BRANCH  32  33
ATOM     33  N   UNL     1      -8.540  -2.018   4.426  1.00  0.00    -0.340 N 
ATOM     34  C   UNL     1      -7.296  -1.920   3.839  1.00  0.00     0.243 CG0
ATOM     35  O   UNL     1      -6.271  -1.793   4.506  1.00  0.00    -0.273 OA
ATOM     36  H   UNL     1      -9.370  -2.090   3.850  1.00  0.00     0.164 HD
ATOM     37  G   UNL     1      -7.291  -1.755   2.311  1.00  0.00     0.000 G0
ENDBRANCH  32  33
BRANCH  32  38
ATOM     38  C   UNL     1      -9.901  -1.227   6.386  1.00  0.00     0.143 C 
ATOM     39  C   UNL     1      -9.577   0.234   6.680  1.00  0.00     0.041 C 
BRANCH  38  40
ATOM     40  O   UNL     1     -10.970  -1.283   5.421  1.00  0.00    -0.391 OA
ATOM     41  H   UNL     1     -11.395  -0.404   5.423  1.00  0.00     0.211 HD
ENDBRANCH  38  40
ENDBRANCH  32  38
ENDBRANCH  29  32
ENDBRANCH  27  28
BRANCH  27  42
ATOM     42  C   UNL     1     -10.923  -5.398   8.588  1.00  0.00     0.015 C 
ATOM     43  C   UNL     1     -10.448  -4.321   9.570  1.00  0.00     0.010 C 
ATOM     44  C   UNL     1     -12.453  -5.479   8.587  1.00  0.00     0.010 C 
ENDBRANCH  27  42
ENDBRANCH   3  27
TORSDOF 5
ENDMDL
MODEL 6
REMARK VINA RESULT:    -4.263      5.414     10.265
REMARK INTER + INTRA:          -9.801
REMARK INTER:                  -7.403
REMARK INTRA:                  -2.398
REMARK UNBOUND:                -2.174
REMARK SMILES CC[C@H](C)[C@H]1NC(=O)c2coc(n2)[C@H](C(C)C)NC(=O)[C@H]([C@@H](C)O)NC(=O)[C@H](C)NC(=O)c2csc1n2
REMARK SMILES IDX 11 1 13 2 12 3 9 4 10 5 7 6 6 7 8 8 5 10 36 11 35 12 34 13
REMARK SMILES IDX 37 14 33 15 31 16 32 17 30 18 28 20 29 21 3 23 4 24 2 25
REMARK SMILES IDX 1 26 14 27 18 28 19 29 20 30 21 32 25 33 26 34 27 35 22 38
REMARK SMILES IDX 23 39 24 40 15 42 16 43 17 44
REMARK H PARENT 6 9 30 19 18 31 25 36 24 41
REMARK Flexibility Score:   94.900
ROOT
ATOM      1  O   UNL     1     -10.316   2.446  -3.839  1.00  0.00    -0.446 OA
ATOM      2  N   UNL     1      -9.596   2.132  -1.726  1.00  0.00    -0.207 NA
ATOM      3  C   UNL     1     -10.549   1.891  -2.608  1.00  0.00     0.217 A 
ATOM      4  C   UNL     1      -8.661   2.871  -2.429  1.00  0.00     0.167 A 
ATOM      5  C   UNL     1      -9.105   3.058  -3.716  1.00  0.00     0.231 A 
ENDROOT
BRANCH   4   6
ATOM      6  C   UNL     1      -7.434   3.371  -1.834  1.00  0.00     0.273 C 
ATOM      7  N   UNL     1      -6.446   2.418  -1.826  1.00  0.00    -0.341 N 
ATOM      8  O   UNL     1      -7.314   4.501  -1.376  1.00  0.00    -0.267 OA
ATOM      9  H   UNL     1      -6.720   1.497  -2.156  1.00  0.00     0.164 HD
BRANCH   7  10
ATOM     10  C   UNL     1      -5.213   2.563  -1.077  1.00  0.00     0.145 C 
BRANCH  10  11
ATOM     11  C   UNL     1      -5.276   1.604   0.103  1.00  0.00     0.116 A 
ATOM     12  S   UNL     1      -4.180   1.794   1.419  1.00  0.00    -0.124 S 
ATOM     13  C   UNL     1      -4.913   0.470   2.212  1.00  0.00     0.101 A 
ATOM     14  N   UNL     1      -6.137   0.606   0.224  1.00  0.00    -0.234 NA
ATOM     15  C   UNL     1      -5.944  -0.042   1.447  1.00  0.00     0.139 A 
BRANCH  15  16
ATOM     16  C   UNL     1      -6.785  -1.165   1.864  1.00  0.00     0.271 C 
ATOM     17  O   UNL     1      -6.459  -1.947   2.750  1.00  0.00    -0.267 OA
ATOM     18  N   UNL     1      -7.972  -1.252   1.167  1.00  0.00    -0.339 N 
ATOM     19  H   UNL     1      -8.075  -0.613   0.384  1.00  0.00     0.164 HD
BRANCH  18  20
ATOM     20  C   UNL     1      -8.905  -2.347   1.400  1.00  0.00     0.168 CG0
ATOM     21  C   UNL     1     -10.035  -1.924   2.342  1.00  0.00     0.041 C 
ATOM     22  G   UNL     1      -9.544  -2.869   0.104  1.00  0.00     0.000 G0
ENDBRANCH  18  20
ENDBRANCH  15  16
ENDBRANCH  10  11
BRANCH  10  23
ATOM     23  C   UNL     1      -3.960   2.331  -1.961  1.00  0.00     0.015 C 
ATOM     24  C   UNL     1      -4.238   1.453  -3.193  1.00  0.00     0.010 C 
BRANCH  23  25
ATOM     25  C   UNL     1      -3.307   3.651  -2.432  1.00  0.00     0.002 C 
ATOM     26  C   UNL     1      -1.936   3.470  -3.068  1.00  0.00     0.004 C 
ENDBRANCH  23  25
ENDBRANCH  10  23
ENDBRANCH   7  10
ENDBRANCH   4   6
BRANCH   3  27
ATOM     27  C   UNL     1     -11.833   1.144  -2.375  1.00  0.00     0.171 C 
BRANCH  27  28
ATOM     28  N   UNL     1     -11.500  -0.131  -1.748  1.00  0.00    -0.342 N 
ATOM     29  C   UNL     1     -11.945  -1.341  -2.233  1.00  0.00     0.245 C 
ATOM     30  O   UNL     1     -12.644  -1.437  -3.241  1.00  0.00    -0.273 OA
ATOM     31  H   UNL     1     -10.832  -0.139  -0.978  1.00  0.00     0.164 HD
BRANCH  29  32
ATOM     32  C   UNL     1     -11.384  -2.586  -1.515  1.00  0.00     0.200 C 
BRANCH  32  33
ATOM     33  N   UNL     1     -10.603  -2.136  -0.356  1.00  0.00    -0.340 N 
ATOM     34  C   UNL     1      -9.531  -2.868   0.113  1.00  0.00     0.243 CG0
ATOM     35  O   UNL     1      -9.223  -3.953  -0.374  1.00  0.00    -0.273 OA
ATOM     36  H   UNL     1     -10.853  -1.260   0.087  1.00  0.00     0.164 HD
ATOM     37  G   UNL     1      -8.891  -2.354   1.413  1.00  0.00     0.000 G0
ENDBRANCH  32  33
BRANCH  32  38
ATOM     38  C   UNL     1     -12.510  -3.575  -1.136  1.00  0.00     0.143 C 
ATOM     39  C   UNL     1     -13.552  -2.998  -0.185  1.00  0.00     0.041 C 
BRANCH  38  40
ATOM     40  O   UNL     1     -13.172  -4.047  -2.325  1.00  0.00    -0.391 OA
ATOM     41  H   UNL     1     -13.605  -4.889  -2.089  1.00  0.00     0.211 HD
ENDBRANCH  38  40
ENDBRANCH  32  38
ENDBRANCH  29  32
ENDBRANCH  27  28
BRANCH  27  42
ATOM     42  C   UNL     1     -12.957   1.880  -1.605  1.00  0.00     0.015 C 
ATOM     43  C   UNL     1     -12.778   3.396  -1.464  1.00  0.00     0.010 C 
ATOM     44  C   UNL     1     -14.344   1.560  -2.173  1.00  0.00     0.010 C 
ENDBRANCH  27  42
ENDBRANCH   3  27
TORSDOF 5
ENDMDL
MODEL 7
REMARK VINA RESULT:    -4.216     13.978     18.508
REMARK INTER + INTRA:          -9.717
REMARK INTER:                  -7.123
REMARK INTRA:                  -2.595
REMARK UNBOUND:                -2.174
REMARK SMILES CC[C@H](C)[C@H]1NC(=O)c2coc(n2)[C@H](C(C)C)NC(=O)[C@H]([C@@H](C)O)NC(=O)[C@H](C)NC(=O)c2csc1n2
REMARK SMILES IDX 11 1 13 2 12 3 9 4 10 5 7 6 6 7 8 8 5 10 36 11 35 12 34 13
REMARK SMILES IDX 37 14 33 15 31 16 32 17 30 18 28 20 29 21 3 23 4 24 2 25
REMARK SMILES IDX 1 26 14 27 18 28 19 29 20 30 21 32 25 33 26 34 27 35 22 38
REMARK SMILES IDX 23 39 24 40 15 42 16 43 17 44
REMARK H PARENT 6 9 30 19 18 31 25 36 24 41
REMARK Flexibility Score:   94.900
ROOT
ATOM      1  O   UNL     1      -3.100   5.386  -6.837  1.00  0.00    -0.446 OA
ATOM      2  N   UNL     1      -0.992   4.592  -6.770  1.00  0.00    -0.207 NA
ATOM      3  C   UNL     1      -2.247   4.408  -6.400  1.00  0.00     0.217 A 
ATOM      4  C   UNL     1      -1.027   5.753  -7.522  1.00  0.00     0.167 A 
ATOM      5  C   UNL     1      -2.314   6.232  -7.559  1.00  0.00     0.231 A 
ENDROOT
BRANCH   4   6
ATOM      6  C   UNL     1       0.156   6.344  -8.126  1.00  0.00     0.273 C 
ATOM      7  N   UNL     1       1.302   5.970  -7.472  1.00  0.00    -0.341 N 
ATOM      8  O   UNL     1       0.119   7.103  -9.086  1.00  0.00    -0.267 OA
ATOM      9  H   UNL     1       1.170   5.410  -6.635  1.00  0.00     0.164 HD
BRANCH   7  10
ATOM     10  C   UNL     1       2.587   6.599  -7.704  1.00  0.00     0.145 C 
BRANCH  10  11
ATOM     11  C   UNL     1       3.109   7.090  -6.361  1.00  0.00     0.116 A 
ATOM     12  S   UNL     1       4.257   8.374  -6.307  1.00  0.00    -0.124 S 
ATOM     13  C   UNL     1       4.246   8.302  -4.599  1.00  0.00     0.101 A 
ATOM     14  N   UNL     1       2.738   6.613  -5.184  1.00  0.00    -0.234 NA
ATOM     15  C   UNL     1       3.378   7.320  -4.163  1.00  0.00     0.139 A 
BRANCH  15  16
ATOM     16  C   UNL     1       3.124   7.029  -2.750  1.00  0.00     0.271 C 
ATOM     17  O   UNL     1       4.009   7.033  -1.901  1.00  0.00    -0.267 OA
ATOM     18  N   UNL     1       1.802   6.754  -2.473  1.00  0.00    -0.339 N 
ATOM     19  H   UNL     1       1.187   6.673  -3.278  1.00  0.00     0.164 HD
BRANCH  18  20
ATOM     20  C   UNL     1       1.375   6.377  -1.132  1.00  0.00     0.168 CG0
ATOM     21  C   UNL     1       0.575   7.498  -0.466  1.00  0.00     0.041 C 
ATOM     22  G   UNL     1       0.506   5.108  -1.121  1.00  0.00     0.000 G0
ENDBRANCH  18  20
ENDBRANCH  15  16
ENDBRANCH  10  11
BRANCH  10  23
ATOM     23  C   UNL     1       3.586   5.649  -8.415  1.00  0.00     0.015 C 
ATOM     24  C   UNL     1       3.716   4.278  -7.729  1.00  0.00     0.010 C 
BRANCH  23  25
ATOM     25  C   UNL     1       3.243   5.425  -9.905  1.00  0.00     0.002 C 
ATOM     26  C   UNL     1       3.169   6.708 -10.721  1.00  0.00     0.004 C 
ENDBRANCH  23  25
ENDBRANCH  10  23
ENDBRANCH   7  10
ENDBRANCH   4   6
BRANCH   3  27
ATOM     27  C   UNL     1      -2.784   3.301  -5.536  1.00  0.00     0.171 C 
BRANCH  27  28
ATOM     28  N   UNL     1      -2.641   3.711  -4.144  1.00  0.00    -0.342 N 
ATOM     29  C   UNL     1      -1.573   3.335  -3.360  1.00  0.00     0.245 C 
ATOM     30  O   UNL     1      -0.651   2.638  -3.782  1.00  0.00    -0.273 OA
ATOM     31  H   UNL     1      -3.305   4.382  -3.760  1.00  0.00     0.164 HD
BRANCH  29  32
ATOM     32  C   UNL     1      -1.529   3.972  -1.955  1.00  0.00     0.200 C 
BRANCH  32  33
ATOM     33  N   UNL     1      -0.556   5.071  -1.978  1.00  0.00    -0.340 N 
ATOM     34  C   UNL     1       0.506   5.105  -1.098  1.00  0.00     0.243 CG0
ATOM     35  O   UNL     1       0.650   4.257  -0.220  1.00  0.00    -0.273 OA
ATOM     36  H   UNL     1      -0.666   5.802  -2.671  1.00  0.00     0.164 HD
ATOM     37  G   UNL     1       1.365   6.379  -1.140  1.00  0.00     0.000 G0
ENDBRANCH  32  33
BRANCH  32  38
ATOM     38  C   UNL     1      -2.935   4.420  -1.494  1.00  0.00     0.143 C 
ATOM     39  C   UNL     1      -3.066   4.605   0.014  1.00  0.00     0.041 C 
BRANCH  38  40
ATOM     40  O   UNL     1      -3.300   5.651  -2.149  1.00  0.00    -0.391 OA
ATOM     41  H   UNL     1      -4.144   5.483  -2.608  1.00  0.00     0.211 HD
ENDBRANCH  38  40
ENDBRANCH  32  38
ENDBRANCH  29  32
ENDBRANCH  27  28
BRANCH  27  42
ATOM     42  C   UNL     1      -4.216   2.793  -5.836  1.00  0.00     0.015 C 
ATOM     43  C   UNL     1      -4.389   1.270  -5.848  1.00  0.00     0.010 C 
ATOM     44  C   UNL     1      -5.257   3.439  -4.915  1.00  0.00     0.010 C 
ENDBRANCH  27  42
ENDBRANCH   3  27
TORSDOF 5
ENDMDL
MODEL 8
REMARK VINA RESULT:    -4.070     14.926     17.382
REMARK INTER + INTRA:          -9.456
REMARK INTER:                  -7.219
REMARK INTRA:                  -2.237
REMARK UNBOUND:                -2.174
REMARK SMILES CC[C@H](C)[C@H]1NC(=O)c2coc(n2)[C@H](C(C)C)NC(=O)[C@H]([C@@H](C)O)NC(=O)[C@H](C)NC(=O)c2csc1n2
REMARK SMILES IDX 11 1 13 2 12 3 9 4 10 5 7 6 6 7 8 8 5 10 36 11 35 12 34 13
REMARK SMILES IDX 37 14 33 15 31 16 32 17 30 18 28 20 29 21 3 23 4 24 2 25
REMARK SMILES IDX 1 26 14 27 18 28 19 29 20 30 21 32 25 33 26 34 27 35 22 38
REMARK SMILES IDX 23 39 24 40 15 42 16 43 17 44
REMARK H PARENT 6 9 30 19 18 31 25 36 24 41
REMARK Flexibility Score:   94.900
ROOT
ATOM      1  O   UNL     1       0.982 -11.962  -4.132  1.00  0.00    -0.446 OA
ATOM      2  N   UNL     1       0.747 -12.790  -6.215  1.00  0.00    -0.207 NA
ATOM      3  C   UNL     1       0.512 -12.972  -4.928  1.00  0.00     0.217 A 
ATOM      4  C   UNL     1       1.390 -11.565  -6.272  1.00  0.00     0.167 A 
ATOM      5  C   UNL     1       1.529 -11.066  -5.000  1.00  0.00     0.231 A 
ENDROOT
BRANCH   4   6
ATOM      6  C   UNL     1       1.851 -10.969  -7.514  1.00  0.00     0.273 C 
ATOM      7  N   UNL     1       1.473  -9.654  -7.619  1.00  0.00    -0.341 N 
ATOM      8  O   UNL     1       2.479 -11.582  -8.368  1.00  0.00    -0.267 OA
ATOM      9  H   UNL     1       0.875  -9.307  -6.874  1.00  0.00     0.164 HD
BRANCH   7  10
ATOM     10  C   UNL     1       1.582  -8.895  -8.849  1.00  0.00     0.145 C 
BRANCH  10  11
ATOM     11  C   UNL     1       0.239  -8.973  -9.560  1.00  0.00     0.116 A 
ATOM     12  S   UNL     1      -0.152  -7.818 -10.777  1.00  0.00    -0.124 S 
ATOM     13  C   UNL     1      -1.649  -8.603 -11.031  1.00  0.00     0.101 A 
ATOM     14  N   UNL     1      -0.686  -9.890  -9.332  1.00  0.00    -0.234 NA
ATOM     15  C   UNL     1      -1.772  -9.692 -10.190  1.00  0.00     0.139 A 
BRANCH  15  16
ATOM     16  C   UNL     1      -2.931 -10.587 -10.183  1.00  0.00     0.271 C 
ATOM     17  O   UNL     1      -3.803 -10.551 -11.044  1.00  0.00    -0.267 OA
ATOM     18  N   UNL     1      -2.941 -11.468  -9.122  1.00  0.00    -0.339 N 
ATOM     19  H   UNL     1      -2.222 -11.323  -8.418  1.00  0.00     0.164 HD
BRANCH  18  20
ATOM     20  C   UNL     1      -4.051 -12.388  -8.915  1.00  0.00     0.168 CG0
ATOM     21  C   UNL     1      -3.757 -13.761  -9.523  1.00  0.00     0.041 C 
ATOM     22  G   UNL     1      -4.384 -12.593  -7.429  1.00  0.00     0.000 G0
ENDBRANCH  18  20
ENDBRANCH  15  16
ENDBRANCH  10  11
BRANCH  10  23
ATOM     23  C   UNL     1       2.033  -7.431  -8.596  1.00  0.00     0.015 C 
ATOM     24  C   UNL     1       2.430  -7.161  -7.135  1.00  0.00     0.010 C 
BRANCH  23  25
ATOM     25  C   UNL     1       3.198  -6.997  -9.514  1.00  0.00     0.002 C 
ATOM     26  C   UNL     1       2.928  -5.716 -10.291  1.00  0.00     0.004 C 
ENDBRANCH  23  25
ENDBRANCH  10  23
ENDBRANCH   7  10
ENDBRANCH   4   6
BRANCH   3  27
ATOM     27  C   UNL     1      -0.146 -14.163  -4.286  1.00  0.00     0.171 C 
BRANCH  27  28
ATOM     28  N   UNL     1      -1.466 -14.322  -4.887  1.00  0.00    -0.342 N 
ATOM     29  C   UNL     1      -2.561 -13.588  -4.489  1.00  0.00     0.245 C 
ATOM     30  O   UNL     1      -2.504 -12.733  -3.607  1.00  0.00    -0.273 OA
ATOM     31  H   UNL     1      -1.564 -14.929  -5.700  1.00  0.00     0.164 HD
BRANCH  29  32
ATOM     32  C   UNL     1      -3.838 -13.803  -5.328  1.00  0.00     0.200 C 
BRANCH  32  33
ATOM     33  N   UNL     1      -3.547 -13.426  -6.716  1.00  0.00    -0.340 N 
ATOM     34  C   UNL     1      -4.392 -12.599  -7.426  1.00  0.00     0.243 CG0
ATOM     35  O   UNL     1      -5.453 -12.194  -6.954  1.00  0.00    -0.273 OA
ATOM     36  H   UNL     1      -2.695 -13.769  -7.143  1.00  0.00     0.164 HD
ATOM     37  G   UNL     1      -4.039 -12.398  -8.908  1.00  0.00     0.000 G0
ENDBRANCH  32  33
BRANCH  32  38
ATOM     38  C   UNL     1      -4.366 -15.251  -5.194  1.00  0.00     0.143 C 
ATOM     39  C   UNL     1      -5.869 -15.388  -5.408  1.00  0.00     0.041 C 
BRANCH  38  40
ATOM     40  O   UNL     1      -3.681 -16.112  -6.124  1.00  0.00    -0.391 OA
ATOM     41  H   UNL     1      -4.026 -15.897  -7.011  1.00  0.00     0.211 HD
ENDBRANCH  38  40
ENDBRANCH  32  38
ENDBRANCH  29  32
ENDBRANCH  27  28
BRANCH  27  42
ATOM     42  C   UNL     1       0.642 -15.496  -4.281  1.00  0.00     0.015 C 
ATOM     43  C   UNL     1       1.473 -15.768  -3.021  1.00  0.00     0.010 C 
ATOM     44  C   UNL     1      -0.260 -16.695  -4.591  1.00  0.00     0.010 C 
ENDBRANCH  27  42
ENDBRANCH   3  27
TORSDOF 5
ENDMDL
MODEL 9
REMARK VINA RESULT:    -3.992      5.553      8.022
REMARK INTER + INTRA:          -9.317
REMARK INTER:                  -7.131
REMARK INTRA:                  -2.186
REMARK UNBOUND:                -2.174
REMARK SMILES CC[C@H](C)[C@H]1NC(=O)c2coc(n2)[C@H](C(C)C)NC(=O)[C@H]([C@@H](C)O)NC(=O)[C@H](C)NC(=O)c2csc1n2
REMARK SMILES IDX 11 1 13 2 12 3 9 4 10 5 7 6 6 7 8 8 5 10 36 11 35 12 34 13
REMARK SMILES IDX 37 14 33 15 31 16 32 17 30 18 28 20 29 21 3 23 4 24 2 25
REMARK SMILES IDX 1 26 14 27 18 28 19 29 20 30 21 32 25 33 26 34 27 35 22 38
REMARK SMILES IDX 23 39 24 40 15 42 16 43 17 44
REMARK H PARENT 6 9 30 19 18 31 25 36 24 41
REMARK Flexibility Score:   94.900
ROOT
ATOM      1  O   UNL     1      -6.373  -2.307   0.182  1.00  0.00    -0.446 OA
ATOM      2  N   UNL     1      -7.886  -0.787   0.879  1.00  0.00    -0.207 NA
ATOM      3  C   UNL     1      -6.615  -1.029   0.613  1.00  0.00     0.217 A 
ATOM      4  C   UNL     1      -8.528  -1.976   0.577  1.00  0.00     0.167 A 
ATOM      5  C   UNL     1      -7.601  -2.897   0.153  1.00  0.00     0.231 A 
ENDROOT
BRANCH   4   6
ATOM      6  C   UNL     1      -9.959  -2.168   0.738  1.00  0.00     0.273 C 
ATOM      7  N   UNL     1     -10.621  -2.085  -0.460  1.00  0.00    -0.341 N 
ATOM      8  O   UNL     1     -10.500  -2.355   1.821  1.00  0.00    -0.267 OA
ATOM      9  H   UNL     1     -10.051  -1.833  -1.263  1.00  0.00     0.164 HD
BRANCH   7  10
ATOM     10  C   UNL     1     -12.065  -1.992  -0.562  1.00  0.00     0.145 C 
BRANCH  10  11
ATOM     11  C   UNL     1     -12.401  -0.600  -1.077  1.00  0.00     0.116 A 
ATOM     12  S   UNL     1     -14.045  -0.087  -1.145  1.00  0.00    -0.124 S 
ATOM     13  C   UNL     1     -13.539   1.435  -1.735  1.00  0.00     0.101 A 
ATOM     14  N   UNL     1     -11.513   0.294  -1.481  1.00  0.00    -0.234 NA
ATOM     15  C   UNL     1     -12.162   1.477  -1.846  1.00  0.00     0.139 A 
BRANCH  15  16
ATOM     16  C   UNL     1     -11.419   2.655  -2.298  1.00  0.00     0.271 C 
ATOM     17  O   UNL     1     -11.957   3.611  -2.845  1.00  0.00    -0.267 OA
ATOM     18  N   UNL     1     -10.065   2.581  -2.047  1.00  0.00    -0.339 N 
ATOM     19  H   UNL     1      -9.727   1.692  -1.690  1.00  0.00     0.164 HD
BRANCH  18  20
ATOM     20  C   UNL     1      -9.158   3.632  -2.488  1.00  0.00     0.168 CG0
ATOM     21  C   UNL     1      -8.839   4.606  -1.351  1.00  0.00     0.041 C 
ATOM     22  G   UNL     1      -7.826   3.082  -3.022  1.00  0.00     0.000 G0
ENDBRANCH  18  20
ENDBRANCH  15  16
ENDBRANCH  10  11
BRANCH  10  23
ATOM     23  C   UNL     1     -12.663  -3.112  -1.453  1.00  0.00     0.015 C 
ATOM     24  C   UNL     1     -12.166  -3.065  -2.907  1.00  0.00     0.010 C 
BRANCH  23  25
ATOM     25  C   UNL     1     -12.405  -4.527  -0.888  1.00  0.00     0.002 C 
ATOM     26  C   UNL     1     -13.568  -5.096  -0.088  1.00  0.00     0.004 C 
ENDBRANCH  23  25
ENDBRANCH  10  23
ENDBRANCH   7  10
ENDBRANCH   4   6
BRANCH   3  27
ATOM     27  C   UNL     1      -5.456  -0.086   0.786  1.00  0.00     0.171 C 
BRANCH  27  28
ATOM     28  N   UNL     1      -5.610   0.993  -0.184  1.00  0.00    -0.342 N 
ATOM     29  C   UNL     1      -5.294   0.849  -1.517  1.00  0.00     0.245 C 
ATOM     30  O   UNL     1      -4.873  -0.205  -1.991  1.00  0.00    -0.273 OA
ATOM     31  H   UNL     1      -6.060   1.858   0.111  1.00  0.00     0.164 HD
BRANCH  29  32
ATOM     32  C   UNL     1      -5.644   2.056  -2.412  1.00  0.00     0.200 C 
BRANCH  32  33
ATOM     33  N   UNL     1      -6.993   2.515  -2.059  1.00  0.00    -0.340 N 
ATOM     34  C   UNL     1      -7.835   3.059  -3.007  1.00  0.00     0.243 CG0
ATOM     35  O   UNL     1      -7.475   3.243  -4.167  1.00  0.00    -0.273 OA
ATOM     36  H   UNL     1      -7.308   2.405  -1.102  1.00  0.00     0.164 HD
ATOM     37  G   UNL     1      -9.163   3.623  -2.474  1.00  0.00     0.000 G0
ENDBRANCH  32  33
BRANCH  32  38
ATOM     38  C   UNL     1      -4.579   3.172  -2.299  1.00  0.00     0.143 C 
ATOM     39  C   UNL     1      -3.155   2.702  -2.569  1.00  0.00     0.041 C 
BRANCH  38  40
ATOM     40  O   UNL     1      -4.896   4.248  -3.203  1.00  0.00    -0.391 OA
ATOM     41  H   UNL     1      -4.851   5.073  -2.683  1.00  0.00     0.211 HD
ENDBRANCH  38  40
ENDBRANCH  32  38
ENDBRANCH  29  32
ENDBRANCH  27  28
BRANCH  27  42
ATOM     42  C   UNL     1      -5.190   0.463   2.210  1.00  0.00     0.015 C 
ATOM     43  C   UNL     1      -3.815   0.131   2.800  1.00  0.00     0.010 C 
ATOM     44  C   UNL     1      -5.459   1.969   2.303  1.00  0.00     0.010 C 
ENDBRANCH  27  42
ENDBRANCH   3  27
TORSDOF 5
ENDMDL
MODEL 10
REMARK VINA RESULT:    -3.975     15.528     18.360
REMARK INTER + INTRA:          -9.285
REMARK INTER:                  -6.685
REMARK INTRA:                  -2.601
REMARK UNBOUND:                -2.174
REMARK SMILES CC[C@H](C)[C@H]1NC(=O)c2coc(n2)[C@H](C(C)C)NC(=O)[C@H]([C@@H](C)O)NC(=O)[C@H](C)NC(=O)c2csc1n2
REMARK SMILES IDX 11 1 13 2 12 3 9 4 10 5 7 6 6 7 8 8 5 10 36 11 35 12 34 13
REMARK SMILES IDX 37 14 33 15 31 16 32 17 30 18 28 20 29 21 3 23 4 24 2 25
REMARK SMILES IDX 1 26 14 27 18 28 19 29 20 30 21 32 25 33 26 34 27 35 22 38
REMARK SMILES IDX 23 39 24 40 15 42 16 43 17 44
REMARK H PARENT 6 9 30 19 18 31 25 36 24 41
REMARK Flexibility Score:   94.900
ROOT
ATOM      1  O   UNL     1       0.456   3.488  -7.221  1.00  0.00    -0.446 OA
ATOM      2  N   UNL     1      -1.117   5.076  -7.519  1.00  0.00    -0.207 NA
ATOM      3  C   UNL     1       0.153   4.746  -7.672  1.00  0.00     0.217 A 
ATOM      4  C   UNL     1      -1.694   3.952  -6.954  1.00  0.00     0.167 A 
ATOM      5  C   UNL     1      -0.731   2.989  -6.775  1.00  0.00     0.231 A 
ENDROOT
BRANCH   4   6
ATOM      6  C   UNL     1      -3.100   3.877  -6.597  1.00  0.00     0.273 C 
ATOM      7  N   UNL     1      -3.816   4.923  -7.120  1.00  0.00    -0.341 N 
ATOM      8  O   UNL     1      -3.573   2.994  -5.891  1.00  0.00    -0.267 OA
ATOM      9  H   UNL     1      -3.271   5.629  -7.608  1.00  0.00     0.164 HD
BRANCH   7  10
ATOM     10  C   UNL     1      -5.175   5.231  -6.722  1.00  0.00     0.145 C 
BRANCH  10  11
ATOM     11  C   UNL     1      -5.106   6.257  -5.601  1.00  0.00     0.116 A 
ATOM     12  S   UNL     1      -6.521   6.619  -4.685  1.00  0.00    -0.124 S 
ATOM     13  C   UNL     1      -5.615   7.710  -3.731  1.00  0.00     0.101 A 
ATOM     14  N   UNL     1      -4.015   6.912  -5.239  1.00  0.00    -0.234 NA
ATOM     15  C   UNL     1      -4.298   7.740  -4.150  1.00  0.00     0.139 A 
BRANCH  15  16
ATOM     16  C   UNL     1      -3.262   8.557  -3.515  1.00  0.00     0.271 C 
ATOM     17  O   UNL     1      -3.511   9.400  -2.660  1.00  0.00    -0.267 OA
ATOM     18  N   UNL     1      -1.989   8.285  -3.971  1.00  0.00    -0.339 N 
ATOM     19  H   UNL     1      -1.927   7.646  -4.758  1.00  0.00     0.164 HD
BRANCH  18  20
ATOM     20  C   UNL     1      -0.841   9.048  -3.501  1.00  0.00     0.168 CG0
ATOM     21  C   UNL     1       0.042   8.210  -2.574  1.00  0.00     0.041 C 
ATOM     22  G   UNL     1       0.041   9.563  -4.651  1.00  0.00     0.000 G0
ENDBRANCH  18  20
ENDBRANCH  15  16
ENDBRANCH  10  11
BRANCH  10  23
ATOM     23  C   UNL     1      -6.040   5.716  -7.916  1.00  0.00     0.015 C 
ATOM     24  C   UNL     1      -5.255   5.819  -9.234  1.00  0.00     0.010 C 
BRANCH  23  25
ATOM     25  C   UNL     1      -7.286   4.833  -8.150  1.00  0.00     0.002 C 
ATOM     26  C   UNL     1      -7.815   4.876  -9.577  1.00  0.00     0.004 C 
ENDBRANCH  23  25
ENDBRANCH  10  23
ENDBRANCH   7  10
ENDBRANCH   4   6
BRANCH   3  27
ATOM     27  C   UNL     1       1.255   5.609  -8.222  1.00  0.00     0.171 C 
BRANCH  27  28
ATOM     28  N   UNL     1       1.548   6.643  -7.235  1.00  0.00    -0.342 N 
ATOM     29  C   UNL     1       1.564   7.985  -7.541  1.00  0.00     0.245 C 
ATOM     30  O   UNL     1       1.317   8.414  -8.667  1.00  0.00    -0.273 OA
ATOM     31  H   UNL     1       1.649   6.372  -6.257  1.00  0.00     0.164 HD
BRANCH  29  32
ATOM     32  C   UNL     1       1.765   8.933  -6.339  1.00  0.00     0.200 C 
BRANCH  32  33
ATOM     33  N   UNL     1       0.784   8.581  -5.305  1.00  0.00    -0.340 N 
ATOM     34  C   UNL     1       0.057   9.552  -4.648  1.00  0.00     0.243 CG0
ATOM     35  O   UNL     1       0.241  10.750  -4.851  1.00  0.00    -0.273 OA
ATOM     36  H   UNL     1       0.632   7.602  -5.094  1.00  0.00     0.164 HD
ATOM     37  G   UNL     1      -0.831   9.054  -3.497  1.00  0.00     0.000 G0
ENDBRANCH  32  33
BRANCH  32  38
ATOM     38  C   UNL     1       3.223   8.893  -5.826  1.00  0.00     0.143 C 
ATOM     39  C   UNL     1       3.425   8.019  -4.593  1.00  0.00     0.041 C 
BRANCH  38  40
ATOM     40  O   UNL     1       4.102   8.435  -6.872  1.00  0.00    -0.391 OA
ATOM     41  H   UNL     1       4.247   9.195  -7.467  1.00  0.00     0.211 HD
ENDBRANCH  38  40
ENDBRANCH  32  38
ENDBRANCH  29  32
ENDBRANCH  27  28
BRANCH  27  42
ATOM     42  C   UNL     1       2.545   4.900  -8.703  1.00  0.00     0.015 C 
ATOM     43  C   UNL     1       3.177   5.471  -9.977  1.00  0.00     0.010 C 
ATOM     44  C   UNL     1       3.592   4.798  -7.589  1.00  0.00     0.010 C 
ENDBRANCH  27  42
ENDBRANCH   3  27
TORSDOF 5
ENDMDL
