MODEL 1
REMARK VINA RESULT:    -6.086      0.000      0.000
REMARK INTER + INTRA:         -13.208
REMARK INTER:                 -10.890
REMARK INTRA:                  -2.318
REMARK UNBOUND:                -2.318
REMARK SMILES CC[C@H](C)[C@H]1NC(=O)c2coc(n2)[C@H](C(C)C)NC(=O)[C@H]([C@@H](C)O)NC(=O)[C@H](C)NC(=O)c2csc1n2
REMARK SMILES IDX 11 1 13 2 12 3 9 4 10 5 7 6 6 7 8 8 5 10 36 11 35 12 34 13
REMARK SMILES IDX 37 14 33 15 31 16 32 17 30 18 28 20 29 21 3 23 4 24 2 25
REMARK SMILES IDX 1 26 14 27 18 28 19 29 20 30 21 32 25 33 26 34 27 35 22 38
REMARK SMILES IDX 23 39 24 40 15 42 16 43 17 44
REMARK H PARENT 6 9 30 19 18 31 25 36 24 41
REMARK Flexibility Score:   94.900
ROOT
ATOM      1  O   UNL     1      -2.473   4.380  -3.194  1.00  0.00    -0.446 OA
ATOM      2  N   UNL     1      -2.079   2.461  -2.079  1.00  0.00    -0.207 NA
ATOM      3  C   UNL     1      -2.720   3.038  -3.080  1.00  0.00     0.217 A 
ATOM      4  C   UNL     1      -1.341   3.486  -1.513  1.00  0.00     0.167 A 
ATOM      5  C   UNL     1      -1.585   4.652  -2.197  1.00  0.00     0.231 A 
ENDROOT
BRANCH   4   6
ATOM      6  C   UNL     1      -0.484   3.301  -0.355  1.00  0.00     0.273 C 
ATOM      7  N   UNL     1      -0.120   1.988  -0.195  1.00  0.00    -0.341 N 
ATOM      8  O   UNL     1      -0.154   4.211   0.396  1.00  0.00    -0.267 OA
ATOM      9  H   UNL     1      -0.546   1.331  -0.842  1.00  0.00     0.164 HD
BRANCH   7  10
ATOM     10  C   UNL     1       0.520   1.485   1.005  1.00  0.00     0.145 C 
BRANCH  10  11
ATOM     11  C   UNL     1      -0.578   1.035   1.958  1.00  0.00     0.116 A 
ATOM     12  S   UNL     1      -0.174   0.566   3.566  1.00  0.00    -0.124 S 
ATOM     13  C   UNL     1      -1.829   0.290   3.893  1.00  0.00     0.101 A 
ATOM     14  N   UNL     1      -1.866   0.981   1.660  1.00  0.00    -0.234 NA
ATOM     15  C   UNL     1      -2.595   0.568   2.778  1.00  0.00     0.139 A 
BRANCH  15  16
ATOM     16  C   UNL     1      -4.055   0.455   2.746  1.00  0.00     0.271 C 
ATOM     17  O   UNL     1      -4.712   0.065   3.704  1.00  0.00    -0.267 OA
ATOM     18  N   UNL     1      -4.610   0.830   1.541  1.00  0.00    -0.339 N 
ATOM     19  H   UNL     1      -3.952   1.028   0.791  1.00  0.00     0.164 HD
BRANCH  18  20
ATOM     20  C   UNL     1      -6.042   0.720   1.303  1.00  0.00     0.168 CG0
ATOM     21  C   UNL     1      -6.720   2.092   1.339  1.00  0.00     0.041 C 
ATOM     22  G   UNL     1      -6.372   0.069  -0.050  1.00  0.00     0.000 G0
ENDBRANCH  18  20
ENDBRANCH  15  16
ENDBRANCH  10  11
BRANCH  10  23
ATOM     23  C   UNL     1       1.536   0.354   0.696  1.00  0.00     0.015 C 
ATOM     24  C   UNL     1       1.536  -0.079  -0.779  1.00  0.00     0.010 C 
BRANCH  23  25
ATOM     25  C   UNL     1       2.981   0.720   1.104  1.00  0.00     0.002 C 
ATOM     26  C   UNL     1       3.105   1.261   2.522  1.00  0.00     0.004 C 
ENDBRANCH  23  25
ENDBRANCH  10  23
ENDBRANCH   7  10
ENDBRANCH   4   6
BRANCH   3  27
ATOM     27  C   UNL     1      -3.693   2.390  -4.027  1.00  0.00     0.171 C 
BRANCH  27  28
ATOM     28  N   UNL     1      -4.850   1.957  -3.251  1.00  0.00    -0.342 N 
ATOM     29  C   UNL     1      -5.532   0.791  -3.514  1.00  0.00     0.245 C 
ATOM     30  O   UNL     1      -5.207   0.018  -4.414  1.00  0.00    -0.273 OA
ATOM     31  H   UNL     1      -5.108   2.487  -2.419  1.00  0.00     0.164 HD
BRANCH  29  32
ATOM     32  C   UNL     1      -6.647   0.437  -2.507  1.00  0.00     0.200 C 
BRANCH  32  33
ATOM     33  N   UNL     1      -6.222   0.882  -1.174  1.00  0.00    -0.340 N 
ATOM     34  C   UNL     1      -6.391   0.081  -0.064  1.00  0.00     0.243 CG0
ATOM     35  O   UNL     1      -6.958  -1.008  -0.128  1.00  0.00    -0.273 OA
ATOM     36  H   UNL     1      -5.779   1.789  -1.084  1.00  0.00     0.164 HD
ATOM     37  G   UNL     1      -6.029   0.725   1.284  1.00  0.00     0.000 G0
ENDBRANCH  32  33
BRANCH  32  38
ATOM     38  C   UNL     1      -8.007   1.034  -2.936  1.00  0.00     0.143 C 
ATOM     39  C   UNL     1      -8.302   2.405  -2.340  1.00  0.00     0.041 C 
BRANCH  38  40
ATOM     40  O   UNL     1      -8.074   1.125  -4.373  1.00  0.00    -0.391 OA
ATOM     41  H   UNL     1      -7.162   1.280  -4.685  1.00  0.00     0.211 HD
ENDBRANCH  38  40
ENDBRANCH  32  38
ENDBRANCH  29  32
ENDBRANCH  27  28
BRANCH  27  42
ATOM     42  C   UNL     1      -4.116   3.198  -5.278  1.00  0.00     0.015 C 
ATOM     43  C   UNL     1      -3.949   2.476  -6.620  1.00  0.00     0.010 C 
ATOM     44  C   UNL     1      -5.538   3.753  -5.147  1.00  0.00     0.010 C 
ENDBRANCH  27  42
ENDBRANCH   3  27
TORSDOF 5
ENDMDL
MODEL 2
REMARK VINA RESULT:    -5.608      3.089      8.075
REMARK INTER + INTRA:         -12.352
REMARK INTER:                  -9.935
REMARK INTRA:                  -2.418
REMARK UNBOUND:                -2.318
REMARK SMILES CC[C@H](C)[C@H]1NC(=O)c2coc(n2)[C@H](C(C)C)NC(=O)[C@H]([C@@H](C)O)NC(=O)[C@H](C)NC(=O)c2csc1n2
REMARK SMILES IDX 11 1 13 2 12 3 9 4 10 5 7 6 6 7 8 8 5 10 36 11 35 12 34 13
REMARK SMILES IDX 37 14 33 15 31 16 32 17 30 18 28 20 29 21 3 23 4 24 2 25
REMARK SMILES IDX 1 26 14 27 18 28 19 29 20 30 21 32 25 33 26 34 27 35 22 38
REMARK SMILES IDX 23 39 24 40 15 42 16 43 17 44
REMARK H PARENT 6 9 30 19 18 31 25 36 24 41
REMARK Flexibility Score:   94.900
ROOT
ATOM      1  O   UNL     1      -6.620   0.326   2.266  1.00  0.00    -0.446 OA
ATOM      2  N   UNL     1      -4.871   1.746   2.355  1.00  0.00    -0.207 NA
ATOM      3  C   UNL     1      -5.535   0.782   2.968  1.00  0.00     0.217 A 
ATOM      4  C   UNL     1      -5.547   1.918   1.160  1.00  0.00     0.167 A 
ATOM      5  C   UNL     1      -6.611   1.050   1.112  1.00  0.00     0.231 A 
ENDROOT
BRANCH   4   6
ATOM      6  C   UNL     1      -5.162   2.904   0.165  1.00  0.00     0.273 C 
ATOM      7  N   UNL     1      -4.490   2.332  -0.885  1.00  0.00    -0.341 N 
ATOM      8  O   UNL     1      -5.393   4.102   0.274  1.00  0.00    -0.267 OA
ATOM      9  H   UNL     1      -4.291   1.340  -0.793  1.00  0.00     0.164 HD
BRANCH   7  10
ATOM     10  C   UNL     1      -3.781   3.105  -1.886  1.00  0.00     0.145 C 
BRANCH  10  11
ATOM     11  C   UNL     1      -2.317   3.158  -1.475  1.00  0.00     0.116 A 
ATOM     12  S   UNL     1      -1.410   4.601  -1.729  1.00  0.00    -0.124 S 
ATOM     13  C   UNL     1      -0.044   3.859  -1.016  1.00  0.00     0.101 A 
ATOM     14  N   UNL     1      -1.653   2.165  -0.907  1.00  0.00    -0.234 NA
ATOM     15  C   UNL     1      -0.345   2.569  -0.624  1.00  0.00     0.139 A 
BRANCH  15  16
ATOM     16  C   UNL     1       0.608   1.680   0.044  1.00  0.00     0.271 C 
ATOM     17  O   UNL     1       1.486   1.073  -0.559  1.00  0.00    -0.267 OA
ATOM     18  N   UNL     1       0.420   1.595   1.407  1.00  0.00    -0.339 N 
ATOM     19  H   UNL     1      -0.410   2.057   1.771  1.00  0.00     0.164 HD
BRANCH  18  20
ATOM     20  C   UNL     1       1.231   0.706   2.227  1.00  0.00     0.168 CG0
ATOM     21  C   UNL     1       2.552   1.368   2.626  1.00  0.00     0.041 C 
ATOM     22  G   UNL     1       0.516   0.268   3.516  1.00  0.00     0.000 G0
ENDBRANCH  18  20
ENDBRANCH  15  16
ENDBRANCH  10  11
BRANCH  10  23
ATOM     23  C   UNL     1      -3.974   2.531  -3.315  1.00  0.00     0.015 C 
ATOM     24  C   UNL     1      -5.146   1.541  -3.420  1.00  0.00     0.010 C 
BRANCH  23  25
ATOM     25  C   UNL     1      -4.161   3.633  -4.382  1.00  0.00     0.002 C 
ATOM     26  C   UNL     1      -3.979   3.145  -5.813  1.00  0.00     0.004 C 
ENDBRANCH  23  25
ENDBRANCH  10  23
ENDBRANCH   7  10
ENDBRANCH   4   6
BRANCH   3  27
ATOM     27  C   UNL     1      -5.250   0.206   4.328  1.00  0.00     0.171 C 
BRANCH  27  28
ATOM     28  N   UNL     1      -3.920   0.650   4.730  1.00  0.00    -0.342 N 
ATOM     29  C   UNL     1      -2.797  -0.135   4.591  1.00  0.00     0.245 C 
ATOM     30  O   UNL     1      -2.830  -1.263   4.102  1.00  0.00    -0.273 OA
ATOM     31  H   UNL     1      -3.797   1.614   5.037  1.00  0.00     0.164 HD
BRANCH  29  32
ATOM     32  C   UNL     1      -1.463   0.553   4.952  1.00  0.00     0.200 C 
BRANCH  32  33
ATOM     33  N   UNL     1      -0.722   0.801   3.709  1.00  0.00    -0.340 N 
ATOM     34  C   UNL     1       0.528   0.258   3.500  1.00  0.00     0.243 CG0
ATOM     35  O   UNL     1       1.103  -0.402   4.364  1.00  0.00    -0.273 OA
ATOM     36  H   UNL     1      -1.157   1.367   2.990  1.00  0.00     0.164 HD
ATOM     37  G   UNL     1       1.246   0.710   2.218  1.00  0.00     0.000 G0
ENDBRANCH  32  33
BRANCH  32  38
ATOM     38  C   UNL     1      -1.695   1.836   5.782  1.00  0.00     0.143 C 
ATOM     39  C   UNL     1      -0.486   2.276   6.600  1.00  0.00     0.041 C 
BRANCH  38  40
ATOM     40  O   UNL     1      -2.092   2.918   4.917  1.00  0.00    -0.391 OA
ATOM     41  H   UNL     1      -2.228   3.697   5.489  1.00  0.00     0.211 HD
ENDBRANCH  38  40
ENDBRANCH  32  38
ENDBRANCH  29  32
ENDBRANCH  27  28
BRANCH  27  42
ATOM     42  C   UNL     1      -6.296   0.457   5.442  1.00  0.00     0.015 C 
ATOM     43  C   UNL     1      -6.141  -0.406   6.700  1.00  0.00     0.010 C 
ATOM     44  C   UNL     1      -6.383   1.939   5.822  1.00  0.00     0.010 C 
ENDBRANCH  27  42
ENDBRANCH   3  27
TORSDOF 5
ENDMDL
MODEL 3
REMARK VINA RESULT:    -5.594      3.695      8.420
REMARK INTER + INTRA:         -12.327
REMARK INTER:                 -11.021
REMARK INTRA:                  -1.305
REMARK UNBOUND:                -2.318
REMARK SMILES CC[C@H](C)[C@H]1NC(=O)c2coc(n2)[C@H](C(C)C)NC(=O)[C@H]([C@@H](C)O)NC(=O)[C@H](C)NC(=O)c2csc1n2
REMARK SMILES IDX 11 1 13 2 12 3 9 4 10 5 7 6 6 7 8 8 5 10 36 11 35 12 34 13
REMARK SMILES IDX 37 14 33 15 31 16 32 17 30 18 28 20 29 21 3 23 4 24 2 25
REMARK SMILES IDX 1 26 14 27 18 28 19 29 20 30 21 32 25 33 26 34 27 35 22 38
REMARK SMILES IDX 23 39 24 40 15 42 16 43 17 44
REMARK H PARENT 6 9 30 19 18 31 25 36 24 41
REMARK Flexibility Score:   94.900
ROOT
ATOM      1  O   UNL     1      -5.276   0.349   3.381  1.00  0.00    -0.446 OA
ATOM      2  N   UNL     1      -3.299   1.425   3.267  1.00  0.00    -0.207 NA
ATOM      3  C   UNL     1      -3.956   0.382   3.743  1.00  0.00     0.217 A 
ATOM      4  C   UNL     1      -4.243   2.110   2.522  1.00  0.00     0.167 A 
ATOM      5  C   UNL     1      -5.445   1.449   2.595  1.00  0.00     0.231 A 
ENDROOT
BRANCH   4   6
ATOM      6  C   UNL     1      -3.955   3.349   1.821  1.00  0.00     0.273 C 
ATOM      7  N   UNL     1      -3.697   3.133   0.490  1.00  0.00    -0.341 N 
ATOM      8  O   UNL     1      -3.923   4.445   2.366  1.00  0.00    -0.267 OA
ATOM      9  H   UNL     1      -3.668   2.160   0.199  1.00  0.00     0.164 HD
BRANCH   7  10
ATOM     10  C   UNL     1      -3.143   4.149  -0.383  1.00  0.00     0.145 C 
BRANCH  10  11
ATOM     11  C   UNL     1      -1.783   3.656  -0.858  1.00  0.00     0.116 A 
ATOM     12  S   UNL     1      -0.712   4.742  -1.659  1.00  0.00    -0.124 S 
ATOM     13  C   UNL     1       0.450   3.495  -1.780  1.00  0.00     0.101 A 
ATOM     14  N   UNL     1      -1.324   2.426  -0.695  1.00  0.00    -0.234 NA
ATOM     15  C   UNL     1      -0.028   2.331  -1.210  1.00  0.00     0.139 A 
BRANCH  15  16
ATOM     16  C   UNL     1       0.742   1.088  -1.131  1.00  0.00     0.271 C 
ATOM     17  O   UNL     1       0.759   0.258  -2.033  1.00  0.00    -0.267 OA
ATOM     18  N   UNL     1       1.443   0.949   0.049  1.00  0.00    -0.339 N 
ATOM     19  H   UNL     1       1.259   1.651   0.760  1.00  0.00     0.164 HD
BRANCH  18  20
ATOM     20  C   UNL     1       2.212  -0.256   0.332  1.00  0.00     0.168 CG0
ATOM     21  C   UNL     1       3.705   0.054   0.454  1.00  0.00     0.041 C 
ATOM     22  G   UNL     1       1.768  -0.953   1.628  1.00  0.00     0.000 G0
ENDBRANCH  18  20
ENDBRANCH  15  16
ENDBRANCH  10  11
BRANCH  10  23
ATOM     23  C   UNL     1      -4.093   4.490  -1.562  1.00  0.00     0.015 C 
ATOM     24  C   UNL     1      -4.362   3.295  -2.492  1.00  0.00     0.010 C 
BRANCH  23  25
ATOM     25  C   UNL     1      -5.447   5.066  -1.090  1.00  0.00     0.002 C 
ATOM     26  C   UNL     1      -6.634   4.147  -1.351  1.00  0.00     0.004 C 
ENDBRANCH  23  25
ENDBRANCH  10  23
ENDBRANCH   7  10
ENDBRANCH   4   6
BRANCH   3  27
ATOM     27  C   UNL     1      -3.418  -0.692   4.648  1.00  0.00     0.171 C 
BRANCH  27  28
ATOM     28  N   UNL     1      -1.962  -0.637   4.590  1.00  0.00    -0.342 N 
ATOM     29  C   UNL     1      -1.233  -1.195   3.563  1.00  0.00     0.245 C 
ATOM     30  O   UNL     1      -1.758  -1.767   2.610  1.00  0.00    -0.273 OA
ATOM     31  H   UNL     1      -1.464  -0.081   5.285  1.00  0.00     0.164 HD
BRANCH  29  32
ATOM     32  C   UNL     1       0.285  -0.923   3.609  1.00  0.00     0.200 C 
BRANCH  32  33
ATOM     33  N   UNL     1       0.704  -0.424   2.293  1.00  0.00    -0.340 N 
ATOM     34  C   UNL     1       1.787  -0.966   1.633  1.00  0.00     0.243 CG0
ATOM     35  O   UNL     1       2.486  -1.841   2.141  1.00  0.00    -0.273 OA
ATOM     36  H   UNL     1       0.166   0.318   1.863  1.00  0.00     0.164 HD
ATOM     37  G   UNL     1       2.197  -0.259   0.332  1.00  0.00     0.000 G0
ENDBRANCH  32  33
BRANCH  32  38
ATOM     38  C   UNL     1       0.654   0.037   4.763  1.00  0.00     0.143 C 
ATOM     39  C   UNL     1      -0.140   1.339   4.768  1.00  0.00     0.041 C 
BRANCH  38  40
ATOM     40  O   UNL     1       0.474  -0.624   6.031  1.00  0.00    -0.391 OA
ATOM     41  H   UNL     1       0.933  -1.483   5.965  1.00  0.00     0.211 HD
ENDBRANCH  38  40
ENDBRANCH  32  38
ENDBRANCH  29  32
ENDBRANCH  27  28
BRANCH  27  42
ATOM     42  C   UNL     1      -3.930  -0.714   6.110  1.00  0.00     0.015 C 
ATOM     43  C   UNL     1      -2.843  -0.733   7.190  1.00  0.00     0.010 C 
ATOM     44  C   UNL     1      -4.931   0.413   6.383  1.00  0.00     0.010 C 
ENDBRANCH  27  42
ENDBRANCH   3  27
TORSDOF 5
ENDMDL
MODEL 4
REMARK VINA RESULT:    -5.507      2.446      3.191
REMARK INTER + INTRA:         -12.172
REMARK INTER:                 -10.458
REMARK INTRA:                  -1.714
REMARK UNBOUND:                -2.318
REMARK SMILES CC[C@H](C)[C@H]1NC(=O)c2coc(n2)[C@H](C(C)C)NC(=O)[C@H]([C@@H](C)O)NC(=O)[C@H](C)NC(=O)c2csc1n2
REMARK SMILES IDX 11 1 13 2 12 3 9 4 10 5 7 6 6 7 8 8 5 10 36 11 35 12 34 13
REMARK SMILES IDX 37 14 33 15 31 16 32 17 30 18 28 20 29 21 3 23 4 24 2 25
REMARK SMILES IDX 1 26 14 27 18 28 19 29 20 30 21 32 25 33 26 34 27 35 22 38
REMARK SMILES IDX 23 39 24 40 15 42 16 43 17 44
REMARK H PARENT 6 9 30 19 18 31 25 36 24 41
REMARK Flexibility Score:   94.900
ROOT
ATOM      1  O   UNL     1      -0.551   1.847  -2.103  1.00  0.00    -0.446 OA
ATOM      2  N   UNL     1      -0.930   2.204   0.091  1.00  0.00    -0.207 NA
ATOM      3  C   UNL     1      -1.415   2.286  -1.136  1.00  0.00     0.217 A 
ATOM      4  C   UNL     1       0.326   1.649  -0.078  1.00  0.00     0.167 A 
ATOM      5  C   UNL     1       0.551   1.433  -1.416  1.00  0.00     0.231 A 
ENDROOT
BRANCH   4   6
ATOM      6  C   UNL     1       1.234   1.389   1.026  1.00  0.00     0.273 C 
ATOM      7  N   UNL     1       0.673   0.556   1.961  1.00  0.00    -0.341 N 
ATOM      8  O   UNL     1       2.353   1.880   1.113  1.00  0.00    -0.267 OA
ATOM      9  H   UNL     1      -0.297   0.302   1.800  1.00  0.00     0.164 HD
BRANCH   7  10
ATOM     10  C   UNL     1       1.254   0.331   3.270  1.00  0.00     0.145 C 
BRANCH  10  11
ATOM     11  C   UNL     1       0.244   0.799   4.308  1.00  0.00     0.116 A 
ATOM     12  S   UNL     1       0.787   1.284   5.870  1.00  0.00    -0.124 S 
ATOM     13  C   UNL     1      -0.825   1.650   6.308  1.00  0.00     0.101 A 
ATOM     14  N   UNL     1      -1.061   0.885   4.111  1.00  0.00    -0.234 NA
ATOM     15  C   UNL     1      -1.682   1.391   5.256  1.00  0.00     0.139 A 
BRANCH  15  16
ATOM     16  C   UNL     1      -3.126   1.627   5.308  1.00  0.00     0.271 C 
ATOM     17  O   UNL     1      -3.798   1.424   6.313  1.00  0.00    -0.267 OA
ATOM     18  N   UNL     1      -3.650   2.099   4.122  1.00  0.00    -0.339 N 
ATOM     19  H   UNL     1      -3.011   2.119   3.331  1.00  0.00     0.164 HD
BRANCH  18  20
ATOM     20  C   UNL     1      -5.080   2.327   3.967  1.00  0.00     0.168 CG0
ATOM     21  C   UNL     1      -5.386   3.809   3.742  1.00  0.00     0.041 C 
ATOM     22  G   UNL     1      -5.683   1.539   2.793  1.00  0.00     0.000 G0
ENDBRANCH  18  20
ENDBRANCH  15  16
ENDBRANCH  10  11
BRANCH  10  23
ATOM     23  C   UNL     1       1.675  -1.148   3.479  1.00  0.00     0.015 C 
ATOM     24  C   UNL     1       0.481  -2.114   3.563  1.00  0.00     0.010 C 
BRANCH  23  25
ATOM     25  C   UNL     1       2.644  -1.653   2.387  1.00  0.00     0.002 C 
ATOM     26  C   UNL     1       3.878  -2.359   2.933  1.00  0.00     0.004 C 
ENDBRANCH  23  25
ENDBRANCH  10  23
ENDBRANCH   7  10
ENDBRANCH   4   6
BRANCH   3  27
ATOM     27  C   UNL     1      -2.750   2.845  -1.547  1.00  0.00     0.171 C 
BRANCH  27  28
ATOM     28  N   UNL     1      -3.734   2.428  -0.554  1.00  0.00    -0.342 N 
ATOM     29  C   UNL     1      -4.871   1.723  -0.879  1.00  0.00     0.245 C 
ATOM     30  O   UNL     1      -5.133   1.377  -2.030  1.00  0.00    -0.273 OA
ATOM     31  H   UNL     1      -3.528   2.578   0.433  1.00  0.00     0.164 HD
BRANCH  29  32
ATOM     32  C   UNL     1      -5.725   1.259   0.319  1.00  0.00     0.200 C 
BRANCH  32  33
ATOM     33  N   UNL     1      -5.173   1.863   1.539  1.00  0.00    -0.340 N 
ATOM     34  C   UNL     1      -5.665   1.535   2.785  1.00  0.00     0.243 CG0
ATOM     35  O   UNL     1      -6.623   0.778   2.927  1.00  0.00    -0.273 OA
ATOM     36  H   UNL     1      -4.403   2.515   1.452  1.00  0.00     0.164 HD
ATOM     37  G   UNL     1      -5.091   2.342   3.961  1.00  0.00     0.000 G0
ENDBRANCH  32  33
BRANCH  32  38
ATOM     38  C   UNL     1      -7.221   1.588   0.108  1.00  0.00     0.143 C 
ATOM     39  C   UNL     1      -7.474   2.926  -0.578  1.00  0.00     0.041 C 
BRANCH  38  40
ATOM     40  O   UNL     1      -7.852   0.544  -0.659  1.00  0.00    -0.391 OA
ATOM     41  H   UNL     1      -7.136  -0.033  -0.987  1.00  0.00     0.211 HD
ENDBRANCH  38  40
ENDBRANCH  32  38
ENDBRANCH  29  32
ENDBRANCH  27  28
BRANCH  27  42
ATOM     42  C   UNL     1      -2.830   4.366  -1.825  1.00  0.00     0.015 C 
ATOM     43  C   UNL     1      -1.853   4.898  -2.880  1.00  0.00     0.010 C 
ATOM     44  C   UNL     1      -4.259   4.814  -2.151  1.00  0.00     0.010 C 
ENDBRANCH  27  42
ENDBRANCH   3  27
TORSDOF 5
ENDMDL
MODEL 5
REMARK VINA RESULT:    -5.469      3.326      8.751
REMARK INTER + INTRA:         -12.103
REMARK INTER:                 -10.329
REMARK INTRA:                  -1.774
REMARK UNBOUND:                -2.318
REMARK SMILES CC[C@H](C)[C@H]1NC(=O)c2coc(n2)[C@H](C(C)C)NC(=O)[C@H]([C@@H](C)O)NC(=O)[C@H](C)NC(=O)c2csc1n2
REMARK SMILES IDX 11 1 13 2 12 3 9 4 10 5 7 6 6 7 8 8 5 10 36 11 35 12 34 13
REMARK SMILES IDX 37 14 33 15 31 16 32 17 30 18 28 20 29 21 3 23 4 24 2 25
REMARK SMILES IDX 1 26 14 27 18 28 19 29 20 30 21 32 25 33 26 34 27 35 22 38
REMARK SMILES IDX 23 39 24 40 15 42 16 43 17 44
REMARK H PARENT 6 9 30 19 18 31 25 36 24 41
REMARK Flexibility Score:   94.900
ROOT
ATOM      1  O   UNL     1      -3.479  -0.168   4.777  1.00  0.00    -0.446 OA
ATOM      2  N   UNL     1      -3.264   1.852   3.801  1.00  0.00    -0.207 NA
ATOM      3  C   UNL     1      -2.646   0.854   4.407  1.00  0.00     0.217 A 
ATOM      4  C   UNL     1      -4.587   1.448   3.745  1.00  0.00     0.167 A 
ATOM      5  C   UNL     1      -4.711   0.217   4.341  1.00  0.00     0.231 A 
ENDROOT
BRANCH   4   6
ATOM      6  C   UNL     1      -5.641   2.261   3.163  1.00  0.00     0.273 C 
ATOM      7  N   UNL     1      -6.294   1.601   2.153  1.00  0.00    -0.341 N 
ATOM      8  O   UNL     1      -5.891   3.405   3.522  1.00  0.00    -0.267 OA
ATOM      9  H   UNL     1      -5.916   0.692   1.904  1.00  0.00     0.164 HD
BRANCH   7  10
ATOM     10  C   UNL     1      -7.213   2.257   1.244  1.00  0.00     0.145 C 
BRANCH  10  11
ATOM     11  C   UNL     1      -6.421   2.681   0.015  1.00  0.00     0.116 A 
ATOM     12  S   UNL     1      -7.179   2.679  -1.533  1.00  0.00    -0.124 S 
ATOM     13  C   UNL     1      -5.734   3.266  -2.232  1.00  0.00     0.101 A 
ATOM     14  N   UNL     1      -5.160   3.079   0.027  1.00  0.00    -0.234 NA
ATOM     15  C   UNL     1      -4.762   3.434  -1.265  1.00  0.00     0.139 A 
BRANCH  15  16
ATOM     16  C   UNL     1      -3.420   3.950  -1.542  1.00  0.00     0.271 C 
ATOM     17  O   UNL     1      -3.171   4.676  -2.499  1.00  0.00    -0.267 OA
ATOM     18  N   UNL     1      -2.473   3.542  -0.627  1.00  0.00    -0.339 N 
ATOM     19  H   UNL     1      -2.782   2.853   0.054  1.00  0.00     0.164 HD
BRANCH  18  20
ATOM     20  C   UNL     1      -1.070   3.902  -0.781  1.00  0.00     0.168 CG0
ATOM     21  C   UNL     1      -0.708   5.111   0.083  1.00  0.00     0.041 C 
ATOM     22  G   UNL     1      -0.118   2.754  -0.407  1.00  0.00     0.000 G0
ENDBRANCH  18  20
ENDBRANCH  15  16
ENDBRANCH  10  11
BRANCH  10  23
ATOM     23  C   UNL     1      -8.425   1.357   0.885  1.00  0.00     0.015 C 
ATOM     24  C   UNL     1      -8.268  -0.095   1.366  1.00  0.00     0.010 C 
BRANCH  23  25
ATOM     25  C   UNL     1      -9.764   1.914   1.420  1.00  0.00     0.002 C 
ATOM     26  C   UNL     1      -9.608   3.108   2.351  1.00  0.00     0.004 C 
ENDBRANCH  23  25
ENDBRANCH  10  23
ENDBRANCH   7  10
ENDBRANCH   4   6
BRANCH   3  27
ATOM     27  C   UNL     1      -1.186   0.771   4.757  1.00  0.00     0.171 C 
BRANCH  27  28
ATOM     28  N   UNL     1      -0.423   1.249   3.609  1.00  0.00    -0.342 N 
ATOM     29  C   UNL     1      -0.091   0.442   2.544  1.00  0.00     0.245 C 
ATOM     30  O   UNL     1      -0.427  -0.739   2.474  1.00  0.00    -0.273 OA
ATOM     31  H   UNL     1      -0.209   2.244   3.542  1.00  0.00     0.164 HD
BRANCH  29  32
ATOM     32  C   UNL     1       0.604   1.157   1.366  1.00  0.00     0.200 C 
BRANCH  32  33
ATOM     33  N   UNL     1      -0.308   2.183   0.846  1.00  0.00    -0.340 N 
ATOM     34  C   UNL     1      -0.119   2.745  -0.400  1.00  0.00     0.243 CG0
ATOM     35  O   UNL     1       0.851   2.461  -1.100  1.00  0.00    -0.273 OA
ATOM     36  H   UNL     1      -1.100   2.461   1.414  1.00  0.00     0.164 HD
ATOM     37  G   UNL     1      -1.065   3.902  -0.760  1.00  0.00     0.000 G0
ENDBRANCH  32  33
BRANCH  32  38
ATOM     38  C   UNL     1       1.979   1.728   1.784  1.00  0.00     0.143 C 
ATOM     39  C   UNL     1       2.493   1.201   3.119  1.00  0.00     0.041 C 
BRANCH  38  40
ATOM     40  O   UNL     1       2.959   1.452   0.764  1.00  0.00    -0.391 OA
ATOM     41  H   UNL     1       3.505   2.255   0.676  1.00  0.00     0.211 HD
ENDBRANCH  38  40
ENDBRANCH  32  38
ENDBRANCH  29  32
ENDBRANCH  27  28
BRANCH  27  42
ATOM     42  C   UNL     1      -0.727   1.454   6.069  1.00  0.00     0.015 C 
ATOM     43  C   UNL     1      -1.594   1.167   7.301  1.00  0.00     0.010 C 
ATOM     44  C   UNL     1       0.746   1.169   6.378  1.00  0.00     0.010 C 
ENDBRANCH  27  42
ENDBRANCH   3  27
TORSDOF 5
ENDMDL
MODEL 6
REMARK VINA RESULT:    -5.378      4.833      9.107
REMARK INTER + INTRA:         -11.940
REMARK INTER:                  -9.437
REMARK INTRA:                  -2.504
REMARK UNBOUND:                -2.318
REMARK SMILES CC[C@H](C)[C@H]1NC(=O)c2coc(n2)[C@H](C(C)C)NC(=O)[C@H]([C@@H](C)O)NC(=O)[C@H](C)NC(=O)c2csc1n2
REMARK SMILES IDX 11 1 13 2 12 3 9 4 10 5 7 6 6 7 8 8 5 10 36 11 35 12 34 13
REMARK SMILES IDX 37 14 33 15 31 16 32 17 30 18 28 20 29 21 3 23 4 24 2 25
REMARK SMILES IDX 1 26 14 27 18 28 19 29 20 30 21 32 25 33 26 34 27 35 22 38
REMARK SMILES IDX 23 39 24 40 15 42 16 43 17 44
REMARK H PARENT 6 9 30 19 18 31 25 36 24 41
REMARK Flexibility Score:   94.900
ROOT
ATOM      1  O   UNL     1      -2.062   4.812  -5.808  1.00  0.00    -0.446 OA
ATOM      2  N   UNL     1      -3.090   2.839  -6.173  1.00  0.00    -0.207 NA
ATOM      3  C   UNL     1      -2.767   3.761  -5.284  1.00  0.00     0.217 A 
ATOM      4  C   UNL     1      -2.586   3.328  -7.366  1.00  0.00     0.167 A 
ATOM      5  C   UNL     1      -1.962   4.530  -7.137  1.00  0.00     0.231 A 
ENDROOT
BRANCH   4   6
ATOM      6  C   UNL     1      -2.703   2.616  -8.627  1.00  0.00     0.273 C 
ATOM      7  N   UNL     1      -3.675   3.157  -9.430  1.00  0.00    -0.341 N 
ATOM      8  O   UNL     1      -2.026   1.637  -8.918  1.00  0.00    -0.267 OA
ATOM      9  H   UNL     1      -4.218   3.910  -9.017  1.00  0.00     0.164 HD
BRANCH   7  10
ATOM     10  C   UNL     1      -4.170   2.503 -10.625  1.00  0.00     0.145 C 
BRANCH  10  11
ATOM     11  C   UNL     1      -5.566   1.981 -10.321  1.00  0.00     0.116 A 
ATOM     12  S   UNL     1      -6.168   0.605 -11.166  1.00  0.00    -0.124 S 
ATOM     13  C   UNL     1      -7.616   0.691 -10.262  1.00  0.00     0.101 A 
ATOM     14  N   UNL     1      -6.389   2.497  -9.422  1.00  0.00    -0.234 NA
ATOM     15  C   UNL     1      -7.567   1.747  -9.371  1.00  0.00     0.139 A 
BRANCH  15  16
ATOM     16  C   UNL     1      -8.645   2.069  -8.434  1.00  0.00     0.271 C 
ATOM     17  O   UNL     1      -9.611   2.757  -8.743  1.00  0.00    -0.267 OA
ATOM     18  N   UNL     1      -8.465   1.525  -7.180  1.00  0.00    -0.339 N 
ATOM     19  H   UNL     1      -7.571   1.069  -7.017  1.00  0.00     0.164 HD
BRANCH  18  20
ATOM     20  C   UNL     1      -9.403   1.796  -6.098  1.00  0.00     0.168 CG0
ATOM     21  C   UNL     1     -10.413   0.657  -5.939  1.00  0.00     0.041 C 
ATOM     22  G   UNL     1      -8.705   1.998  -4.744  1.00  0.00     0.000 G0
ENDBRANCH  18  20
ENDBRANCH  15  16
ENDBRANCH  10  11
BRANCH  10  23
ATOM     23  C   UNL     1      -4.145   3.442 -11.860  1.00  0.00     0.015 C 
ATOM     24  C   UNL     1      -3.590   4.842 -11.549  1.00  0.00     0.010 C 
BRANCH  23  25
ATOM     25  C   UNL     1      -3.355   2.849 -13.048  1.00  0.00     0.002 C 
ATOM     26  C   UNL     1      -2.669   1.526 -12.735  1.00  0.00     0.004 C 
ENDBRANCH  23  25
ENDBRANCH  10  23
ENDBRANCH   7  10
ENDBRANCH   4   6
BRANCH   3  27
ATOM     27  C   UNL     1      -3.047   3.733  -3.806  1.00  0.00     0.171 C 
BRANCH  27  28
ATOM     28  N   UNL     1      -4.172   2.832  -3.582  1.00  0.00    -0.342 N 
ATOM     29  C   UNL     1      -5.484   3.229  -3.708  1.00  0.00     0.245 C 
ATOM     30  O   UNL     1      -5.805   4.371  -4.035  1.00  0.00    -0.273 OA
ATOM     31  H   UNL     1      -3.983   1.843  -3.420  1.00  0.00     0.164 HD
BRANCH  29  32
ATOM     32  C   UNL     1      -6.531   2.105  -3.558  1.00  0.00     0.200 C 
BRANCH  32  33
ATOM     33  N   UNL     1      -7.321   2.044  -4.794  1.00  0.00    -0.340 N 
ATOM     34  C   UNL     1      -8.700   1.997  -4.761  1.00  0.00     0.243 CG0
ATOM     35  O   UNL     1      -9.322   1.940  -3.703  1.00  0.00    -0.273 OA
ATOM     36  H   UNL     1      -6.834   2.058  -5.683  1.00  0.00     0.164 HD
ATOM     37  G   UNL     1      -9.392   1.797  -6.119  1.00  0.00     0.000 G0
ENDBRANCH  32  33
BRANCH  32  38
ATOM     38  C   UNL     1      -5.865   0.756  -3.201  1.00  0.00     0.143 C 
ATOM     39  C   UNL     1      -6.760  -0.189  -2.409  1.00  0.00     0.041 C 
BRANCH  38  40
ATOM     40  O   UNL     1      -5.427   0.090  -4.401  1.00  0.00    -0.391 OA
ATOM     41  H   UNL     1      -4.501   0.360  -4.549  1.00  0.00     0.211 HD
ENDBRANCH  38  40
ENDBRANCH  32  38
ENDBRANCH  29  32
ENDBRANCH  27  28
BRANCH  27  42
ATOM     42  C   UNL     1      -1.862   3.411  -2.863  1.00  0.00     0.015 C 
ATOM     43  C   UNL     1      -1.072   4.624  -2.356  1.00  0.00     0.010 C 
ATOM     44  C   UNL     1      -2.291   2.528  -1.686  1.00  0.00     0.010 C 
ENDBRANCH  27  42
ENDBRANCH   3  27
TORSDOF 5
ENDMDL
MODEL 7
REMARK VINA RESULT:    -5.290      2.954      4.206
REMARK INTER + INTRA:         -11.783
REMARK INTER:                  -9.234
REMARK INTRA:                  -2.550
REMARK UNBOUND:                -2.318
REMARK SMILES CC[C@H](C)[C@H]1NC(=O)c2coc(n2)[C@H](C(C)C)NC(=O)[C@H]([C@@H](C)O)NC(=O)[C@H](C)NC(=O)c2csc1n2
REMARK SMILES IDX 11 1 13 2 12 3 9 4 10 5 7 6 6 7 8 8 5 10 36 11 35 12 34 13
REMARK SMILES IDX 37 14 33 15 31 16 32 17 30 18 28 20 29 21 3 23 4 24 2 25
REMARK SMILES IDX 1 26 14 27 18 28 19 29 20 30 21 32 25 33 26 34 27 35 22 38
REMARK SMILES IDX 23 39 24 40 15 42 16 43 17 44
REMARK H PARENT 6 9 30 19 18 31 25 36 24 41
REMARK Flexibility Score:   94.900
ROOT
ATOM      1  O   UNL     1      -3.302   3.045  -1.061  1.00  0.00    -0.446 OA
ATOM      2  N   UNL     1      -2.862   1.521   0.541  1.00  0.00    -0.207 NA
ATOM      3  C   UNL     1      -3.752   1.988  -0.316  1.00  0.00     0.217 A 
ATOM      4  C   UNL     1      -1.742   2.305   0.326  1.00  0.00     0.167 A 
ATOM      5  C   UNL     1      -2.016   3.231  -0.651  1.00  0.00     0.231 A 
ENDROOT
BRANCH   4   6
ATOM      6  C   UNL     1      -0.507   2.147   1.075  1.00  0.00     0.273 C 
ATOM      7  N   UNL     1      -0.635   1.221   2.080  1.00  0.00    -0.341 N 
ATOM      8  O   UNL     1       0.512   2.786   0.845  1.00  0.00    -0.267 OA
ATOM      9  H   UNL     1      -1.567   0.839   2.210  1.00  0.00     0.164 HD
BRANCH   7  10
ATOM     10  C   UNL     1       0.352   1.047   3.126  1.00  0.00     0.145 C 
BRANCH  10  11
ATOM     11  C   UNL     1      -0.333   1.324   4.457  1.00  0.00     0.116 A 
ATOM     12  S   UNL     1       0.481   0.955   5.930  1.00  0.00    -0.124 S 
ATOM     13  C   UNL     1      -0.854   1.561   6.810  1.00  0.00     0.101 A 
ATOM     14  N   UNL     1      -1.537   1.855   4.593  1.00  0.00    -0.234 NA
ATOM     15  C   UNL     1      -1.836   2.010   5.949  1.00  0.00     0.139 A 
BRANCH  15  16
ATOM     16  C   UNL     1      -3.095   2.612   6.395  1.00  0.00     0.271 C 
ATOM     17  O   UNL     1      -3.299   2.940   7.559  1.00  0.00    -0.267 OA
ATOM     18  N   UNL     1      -4.018   2.772   5.384  1.00  0.00    -0.339 N 
ATOM     19  H   UNL     1      -3.771   2.359   4.488  1.00  0.00     0.164 HD
BRANCH  18  20
ATOM     20  C   UNL     1      -5.351   3.292   5.654  1.00  0.00     0.168 CG0
ATOM     21  C   UNL     1      -5.441   4.786   5.336  1.00  0.00     0.041 C 
ATOM     22  G   UNL     1      -6.445   2.573   4.848  1.00  0.00     0.000 G0
ENDBRANCH  18  20
ENDBRANCH  15  16
ENDBRANCH  10  11
BRANCH  10  23
ATOM     23  C   UNL     1       1.012  -0.357   3.082  1.00  0.00     0.015 C 
ATOM     24  C   UNL     1       0.027  -1.481   2.718  1.00  0.00     0.010 C 
BRANCH  23  25
ATOM     25  C   UNL     1       2.216  -0.422   2.115  1.00  0.00     0.002 C 
ATOM     26  C   UNL     1       2.958  -1.751   2.140  1.00  0.00     0.004 C 
ENDBRANCH  23  25
ENDBRANCH  10  23
ENDBRANCH   7  10
ENDBRANCH   4   6
BRANCH   3  27
ATOM     27  C   UNL     1      -5.170   1.518  -0.497  1.00  0.00     0.171 C 
BRANCH  27  28
ATOM     28  N   UNL     1      -5.977   2.113   0.563  1.00  0.00    -0.342 N 
ATOM     29  C   UNL     1      -6.698   1.363   1.464  1.00  0.00     0.245 C 
ATOM     30  O   UNL     1      -6.704   0.133   1.451  1.00  0.00    -0.273 OA
ATOM     31  H   UNL     1      -5.930   3.121   0.706  1.00  0.00     0.164 HD
BRANCH  29  32
ATOM     32  C   UNL     1      -7.385   2.164   2.589  1.00  0.00     0.200 C 
BRANCH  32  33
ATOM     33  N   UNL     1      -6.344   2.695   3.478  1.00  0.00    -0.340 N 
ATOM     34  C   UNL     1      -6.437   2.565   4.848  1.00  0.00     0.243 CG0
ATOM     35  O   UNL     1      -7.419   2.059   5.387  1.00  0.00    -0.273 OA
ATOM     36  H   UNL     1      -5.536   3.145   3.064  1.00  0.00     0.164 HD
ATOM     37  G   UNL     1      -5.350   3.286   5.661  1.00  0.00     0.000 G0
ENDBRANCH  32  33
BRANCH  32  38
ATOM     38  C   UNL     1      -8.308   3.265   2.018  1.00  0.00     0.143 C 
ATOM     39  C   UNL     1      -9.622   3.429   2.772  1.00  0.00     0.041 C 
BRANCH  38  40
ATOM     40  O   UNL     1      -7.617   4.529   2.002  1.00  0.00    -0.391 OA
ATOM     41  H   UNL     1      -8.303   5.221   1.943  1.00  0.00     0.211 HD
ENDBRANCH  38  40
ENDBRANCH  32  38
ENDBRANCH  29  32
ENDBRANCH  27  28
BRANCH  27  42
ATOM     42  C   UNL     1      -5.817   1.722  -1.889  1.00  0.00     0.015 C 
ATOM     43  C   UNL     1      -6.604   0.525  -2.434  1.00  0.00     0.010 C 
ATOM     44  C   UNL     1      -6.674   2.991  -1.941  1.00  0.00     0.010 C 
ENDBRANCH  27  42
ENDBRANCH   3  27
TORSDOF 5
ENDMDL
MODEL 8
REMARK VINA RESULT:    -5.057      4.949      7.561
REMARK INTER + INTRA:         -11.367
REMARK INTER:                  -9.255
REMARK INTRA:                  -2.112
REMARK UNBOUND:                -2.318
REMARK SMILES CC[C@H](C)[C@H]1NC(=O)c2coc(n2)[C@H](C(C)C)NC(=O)[C@H]([C@@H](C)O)NC(=O)[C@H](C)NC(=O)c2csc1n2
REMARK SMILES IDX 11 1 13 2 12 3 9 4 10 5 7 6 6 7 8 8 5 10 36 11 35 12 34 13
REMARK SMILES IDX 37 14 33 15 31 16 32 17 30 18 28 20 29 21 3 23 4 24 2 25
REMARK SMILES IDX 1 26 14 27 18 28 19 29 20 30 21 32 25 33 26 34 27 35 22 38
REMARK SMILES IDX 23 39 24 40 15 42 16 43 17 44
REMARK H PARENT 6 9 30 19 18 31 25 36 24 41
REMARK Flexibility Score:   94.900
ROOT
ATOM      1  O   UNL     1      -1.744   3.214  -9.147  1.00  0.00    -0.446 OA
ATOM      2  N   UNL     1      -3.117   2.508  -7.505  1.00  0.00    -0.207 NA
ATOM      3  C   UNL     1      -2.704   2.324  -8.746  1.00  0.00     0.217 A 
ATOM      4  C   UNL     1      -2.359   3.573  -7.050  1.00  0.00     0.167 A 
ATOM      5  C   UNL     1      -1.525   3.998  -8.055  1.00  0.00     0.231 A 
ENDROOT
BRANCH   4   6
ATOM      6  C   UNL     1      -2.496   4.131  -5.716  1.00  0.00     0.273 C 
ATOM      7  N   UNL     1      -3.421   3.447  -4.969  1.00  0.00    -0.341 N 
ATOM      8  O   UNL     1      -1.874   5.111  -5.324  1.00  0.00    -0.267 OA
ATOM      9  H   UNL     1      -3.926   2.712  -5.458  1.00  0.00     0.164 HD
BRANCH   7  10
ATOM     10  C   UNL     1      -3.932   3.932  -3.702  1.00  0.00     0.145 C 
BRANCH  10  11
ATOM     11  C   UNL     1      -5.431   3.671  -3.680  1.00  0.00     0.116 A 
ATOM     12  S   UNL     1      -6.455   4.648  -2.697  1.00  0.00    -0.124 S 
ATOM     13  C   UNL     1      -7.814   3.779  -3.260  1.00  0.00     0.101 A 
ATOM     14  N   UNL     1      -6.049   2.736  -4.384  1.00  0.00    -0.234 NA
ATOM     15  C   UNL     1      -7.426   2.804  -4.159  1.00  0.00     0.139 A 
BRANCH  15  16
ATOM     16  C   UNL     1      -8.362   1.908  -4.841  1.00  0.00     0.271 C 
ATOM     17  O   UNL     1      -8.934   0.985  -4.270  1.00  0.00    -0.267 OA
ATOM     18  N   UNL     1      -8.535   2.204  -6.176  1.00  0.00    -0.339 N 
ATOM     19  H   UNL     1      -7.921   2.920  -6.555  1.00  0.00     0.164 HD
BRANCH  18  20
ATOM     20  C   UNL     1      -9.378   1.377  -7.030  1.00  0.00     0.168 CG0
ATOM     21  C   UNL     1     -10.634   2.132  -7.469  1.00  0.00     0.041 C 
ATOM     22  G   UNL     1      -8.651   0.896  -8.296  1.00  0.00     0.000 G0
ENDBRANCH  18  20
ENDBRANCH  15  16
ENDBRANCH  10  11
BRANCH  10  23
ATOM     23  C   UNL     1      -3.203   3.292  -2.492  1.00  0.00     0.015 C 
ATOM     24  C   UNL     1      -1.995   2.430  -2.895  1.00  0.00     0.010 C 
BRANCH  23  25
ATOM     25  C   UNL     1      -2.739   4.338  -1.452  1.00  0.00     0.002 C 
ATOM     26  C   UNL     1      -3.572   4.354  -0.178  1.00  0.00     0.004 C 
ENDBRANCH  23  25
ENDBRANCH  10  23
ENDBRANCH   7  10
ENDBRANCH   4   6
BRANCH   3  27
ATOM     27  C   UNL     1      -3.212   1.305  -9.729  1.00  0.00     0.171 C 
BRANCH  27  28
ATOM     28  N   UNL     1      -4.585   1.659 -10.071  1.00  0.00    -0.342 N 
ATOM     29  C   UNL     1      -5.662   0.858  -9.764  1.00  0.00     0.245 C 
ATOM     30  O   UNL     1      -5.548  -0.210  -9.165  1.00  0.00    -0.273 OA
ATOM     31  H   UNL     1      -4.770   2.581 -10.465  1.00  0.00     0.164 HD
BRANCH  29  32
ATOM     32  C   UNL     1      -7.046   1.460 -10.090  1.00  0.00     0.200 C 
BRANCH  32  33
ATOM     33  N   UNL     1      -7.727   1.759  -8.824  1.00  0.00    -0.340 N 
ATOM     34  C   UNL     1      -8.651   0.888  -8.285  1.00  0.00     0.243 CG0
ATOM     35  O   UNL     1      -8.991  -0.140  -8.867  1.00  0.00    -0.273 OA
ATOM     36  H   UNL     1      -7.490   2.615  -8.336  1.00  0.00     0.164 HD
ATOM     37  G   UNL     1      -9.387   1.389  -7.032  1.00  0.00     0.000 G0
ENDBRANCH  32  33
BRANCH  32  38
ATOM     38  C   UNL     1      -6.923   2.693 -11.014  1.00  0.00     0.143 C 
ATOM     39  C   UNL     1      -6.843   2.354 -12.498  1.00  0.00     0.041 C 
BRANCH  38  40
ATOM     40  O   UNL     1      -8.034   3.585 -10.798  1.00  0.00    -0.391 OA
ATOM     41  H   UNL     1      -7.747   4.230 -10.124  1.00  0.00     0.211 HD
ENDBRANCH  38  40
ENDBRANCH  32  38
ENDBRANCH  29  32
ENDBRANCH  27  28
BRANCH  27  42
ATOM     42  C   UNL     1      -2.358   1.047 -10.995  1.00  0.00     0.015 C 
ATOM     43  C   UNL     1      -2.181  -0.425 -11.385  1.00  0.00     0.010 C 
ATOM     44  C   UNL     1      -2.856   1.859 -12.196  1.00  0.00     0.010 C 
ENDBRANCH  27  42
ENDBRANCH   3  27
TORSDOF 5
ENDMDL
MODEL 9
REMARK VINA RESULT:    -4.949      6.890     10.584
REMARK INTER + INTRA:         -11.174
REMARK INTER:                  -9.258
REMARK INTRA:                  -1.916
REMARK UNBOUND:                -2.318
REMARK SMILES CC[C@H](C)[C@H]1NC(=O)c2coc(n2)[C@H](C(C)C)NC(=O)[C@H]([C@@H](C)O)NC(=O)[C@H](C)NC(=O)c2csc1n2
REMARK SMILES IDX 11 1 13 2 12 3 9 4 10 5 7 6 6 7 8 8 5 10 36 11 35 12 34 13
REMARK SMILES IDX 37 14 33 15 31 16 32 17 30 18 28 20 29 21 3 23 4 24 2 25
REMARK SMILES IDX 1 26 14 27 18 28 19 29 20 30 21 32 25 33 26 34 27 35 22 38
REMARK SMILES IDX 23 39 24 40 15 42 16 43 17 44
REMARK H PARENT 6 9 30 19 18 31 25 36 24 41
REMARK Flexibility Score:   94.900
ROOT
ATOM      1  O   UNL     1      -6.330   4.949  -5.521  1.00  0.00    -0.446 OA
ATOM      2  N   UNL     1      -7.550   3.053  -5.503  1.00  0.00    -0.207 NA
ATOM      3  C   UNL     1      -6.348   3.585  -5.642  1.00  0.00     0.217 A 
ATOM      4  C   UNL     1      -8.373   4.136  -5.248  1.00  0.00     0.167 A 
ATOM      5  C   UNL     1      -7.624   5.288  -5.260  1.00  0.00     0.231 A 
ENDROOT
BRANCH   4   6
ATOM      6  C   UNL     1      -9.805   4.013  -5.041  1.00  0.00     0.273 C 
ATOM      7  N   UNL     1     -10.130   2.839  -4.411  1.00  0.00    -0.341 N 
ATOM      8  O   UNL     1     -10.618   4.852  -5.411  1.00  0.00    -0.267 OA
ATOM      9  H   UNL     1      -9.358   2.199  -4.247  1.00  0.00     0.164 HD
BRANCH   7  10
ATOM     10  C   UNL     1     -11.490   2.348  -4.302  1.00  0.00     0.145 C 
BRANCH  10  11
ATOM     11  C   UNL     1     -11.978   2.030  -5.709  1.00  0.00     0.116 A 
ATOM     12  S   UNL     1     -13.569   2.489  -6.184  1.00  0.00    -0.124 S 
ATOM     13  C   UNL     1     -13.279   1.853  -7.744  1.00  0.00     0.101 A 
ATOM     14  N   UNL     1     -11.262   1.424  -6.641  1.00  0.00    -0.234 NA
ATOM     15  C   UNL     1     -12.001   1.333  -7.823  1.00  0.00     0.139 A 
BRANCH  15  16
ATOM     16  C   UNL     1     -11.439   0.738  -9.038  1.00  0.00     0.271 C 
ATOM     17  O   UNL     1     -12.124   0.153  -9.869  1.00  0.00    -0.267 OA
ATOM     18  N   UNL     1     -10.075   0.903  -9.152  1.00  0.00    -0.339 N 
ATOM     19  H   UNL     1      -9.607   1.308  -8.345  1.00  0.00     0.164 HD
BRANCH  18  20
ATOM     20  C   UNL     1      -9.335   0.319 -10.262  1.00  0.00     0.168 CG0
ATOM     21  C   UNL     1      -9.136   1.331 -11.392  1.00  0.00     0.041 C 
ATOM     22  G   UNL     1      -7.949  -0.199  -9.845  1.00  0.00     0.000 G0
ENDBRANCH  18  20
ENDBRANCH  15  16
ENDBRANCH  10  11
BRANCH  10  23
ATOM     23  C   UNL     1     -11.598   1.128  -3.349  1.00  0.00     0.015 C 
ATOM     24  C   UNL     1     -13.036   0.846  -2.883  1.00  0.00     0.010 C 
BRANCH  23  25
ATOM     25  C   UNL     1     -11.015  -0.165  -3.963  1.00  0.00     0.002 C 
ATOM     26  C   UNL     1     -10.088  -0.929  -3.028  1.00  0.00     0.004 C 
ENDBRANCH  23  25
ENDBRANCH  10  23
ENDBRANCH   7  10
ENDBRANCH   4   6
BRANCH   3  27
ATOM     27  C   UNL     1      -5.068   2.863  -5.960  1.00  0.00     0.171 C 
BRANCH  27  28
ATOM     28  N   UNL     1      -5.224   2.233  -7.267  1.00  0.00    -0.342 N 
ATOM     29  C   UNL     1      -5.483   0.890  -7.423  1.00  0.00     0.245 C 
ATOM     30  O   UNL     1      -5.618   0.123  -6.471  1.00  0.00    -0.273 OA
ATOM     31  H   UNL     1      -5.239   2.824  -8.097  1.00  0.00     0.164 HD
BRANCH  29  32
ATOM     32  C   UNL     1      -5.744   0.432  -8.874  1.00  0.00     0.200 C 
BRANCH  32  33
ATOM     33  N   UNL     1      -7.138   0.743  -9.212  1.00  0.00    -0.340 N 
ATOM     34  C   UNL     1      -7.948  -0.184  -9.835  1.00  0.00     0.243 CG0
ATOM     35  O   UNL     1      -7.524  -1.281 -10.192  1.00  0.00    -0.273 OA
ATOM     36  H   UNL     1      -7.508   1.652  -8.958  1.00  0.00     0.164 HD
ATOM     37  G   UNL     1      -9.338   0.320 -10.254  1.00  0.00     0.000 G0
ENDBRANCH  32  33
BRANCH  32  38
ATOM     38  C   UNL     1      -4.730   1.064  -9.857  1.00  0.00     0.143 C 
ATOM     39  C   UNL     1      -3.306   0.542  -9.703  1.00  0.00     0.041 C 
BRANCH  38  40
ATOM     40  O   UNL     1      -5.162   0.851 -11.215  1.00  0.00    -0.391 OA
ATOM     41  H   UNL     1      -4.356   0.703 -11.744  1.00  0.00     0.211 HD
ENDBRANCH  38  40
ENDBRANCH  32  38
ENDBRANCH  29  32
ENDBRANCH  27  28
BRANCH  27  42
ATOM     42  C   UNL     1      -3.751   3.672  -5.872  1.00  0.00     0.015 C 
ATOM     43  C   UNL     1      -3.029   3.613  -4.521  1.00  0.00     0.010 C 
ATOM     44  C   UNL     1      -2.784   3.319  -7.007  1.00  0.00     0.010 C 
ENDBRANCH  27  42
ENDBRANCH   3  27
TORSDOF 5
ENDMDL
MODEL 10
REMARK VINA RESULT:    -4.898      2.843      6.395
REMARK INTER + INTRA:         -11.083
REMARK INTER:                  -8.970
REMARK INTRA:                  -2.113
REMARK UNBOUND:                -2.318
REMARK SMILES CC[C@H](C)[C@H]1NC(=O)c2coc(n2)[C@H](C(C)C)NC(=O)[C@H]([C@@H](C)O)NC(=O)[C@H](C)NC(=O)c2csc1n2
REMARK SMILES IDX 11 1 13 2 12 3 9 4 10 5 7 6 6 7 8 8 5 10 36 11 35 12 34 13
REMARK SMILES IDX 37 14 33 15 31 16 32 17 30 18 28 20 29 21 3 23 4 24 2 25
REMARK SMILES IDX 1 26 14 27 18 28 19 29 20 30 21 32 25 33 26 34 27 35 22 38
REMARK SMILES IDX 23 39 24 40 15 42 16 43 17 44
REMARK H PARENT 6 9 30 19 18 31 25 36 24 41
REMARK Flexibility Score:   94.900
ROOT
ATOM      1  O   UNL     1      -9.741   2.090  -1.851  1.00  0.00    -0.446 OA
ATOM      2  N   UNL     1      -7.904   2.774  -0.739  1.00  0.00    -0.207 NA
ATOM      3  C   UNL     1      -8.629   2.890  -1.837  1.00  0.00     0.217 A 
ATOM      4  C   UNL     1      -8.598   1.858   0.031  1.00  0.00     0.167 A 
ATOM      5  C   UNL     1      -9.716   1.445  -0.651  1.00  0.00     0.231 A 
ENDROOT
BRANCH   4   6
ATOM      6  C   UNL     1      -8.144   1.415   1.338  1.00  0.00     0.273 C 
ATOM      7  N   UNL     1      -7.771   2.470   2.133  1.00  0.00    -0.341 N 
ATOM      8  O   UNL     1      -8.082   0.238   1.671  1.00  0.00    -0.267 OA
ATOM      9  H   UNL     1      -7.790   3.384   1.689  1.00  0.00     0.164 HD
BRANCH   7  10
ATOM     10  C   UNL     1      -7.055   2.306   3.382  1.00  0.00     0.145 C 
BRANCH  10  11
ATOM     11  C   UNL     1      -5.577   2.160   3.049  1.00  0.00     0.116 A 
ATOM     12  S   UNL     1      -4.649   0.919   3.804  1.00  0.00    -0.124 S 
ATOM     13  C   UNL     1      -3.277   1.414   2.913  1.00  0.00     0.101 A 
ATOM     14  N   UNL     1      -4.915   2.918   2.191  1.00  0.00    -0.234 NA
ATOM     15  C   UNL     1      -3.591   2.482   2.095  1.00  0.00     0.139 A 
BRANCH  15  16
ATOM     16  C   UNL     1      -2.635   3.118   1.185  1.00  0.00     0.271 C 
ATOM     17  O   UNL     1      -1.810   3.944   1.560  1.00  0.00    -0.267 OA
ATOM     18  N   UNL     1      -2.754   2.696  -0.122  1.00  0.00    -0.339 N 
ATOM     19  H   UNL     1      -3.548   2.093  -0.324  1.00  0.00     0.164 HD
BRANCH  18  20
ATOM     20  C   UNL     1      -1.932   3.270  -1.178  1.00  0.00     0.168 CG0
ATOM     21  C   UNL     1      -0.978   2.229  -1.768  1.00  0.00     0.041 C 
ATOM     22  G   UNL     1      -2.765   3.851  -2.331  1.00  0.00     0.000 G0
ENDBRANCH  18  20
ENDBRANCH  15  16
ENDBRANCH  10  11
BRANCH  10  23
ATOM     23  C   UNL     1      -7.326   3.470   4.371  1.00  0.00     0.015 C 
ATOM     24  C   UNL     1      -8.478   3.182   5.349  1.00  0.00     0.010 C 
BRANCH  23  25
ATOM     25  C   UNL     1      -6.074   3.869   5.184  1.00  0.00     0.002 C 
ATOM     26  C   UNL     1      -5.536   5.254   4.852  1.00  0.00     0.004 C 
ENDBRANCH  23  25
ENDBRANCH  10  23
ENDBRANCH   7  10
ENDBRANCH   4   6
BRANCH   3  27
ATOM     27  C   UNL     1      -8.327   3.742  -3.039  1.00  0.00     0.171 C 
BRANCH  27  28
ATOM     28  N   UNL     1      -7.033   3.324  -3.568  1.00  0.00    -0.342 N 
ATOM     29  C   UNL     1      -5.889   4.078  -3.429  1.00  0.00     0.245 C 
ATOM     30  O   UNL     1      -5.871   5.154  -2.835  1.00  0.00    -0.273 OA
ATOM     31  H   UNL     1      -6.947   2.392  -3.972  1.00  0.00     0.164 HD
BRANCH  29  32
ATOM     32  C   UNL     1      -4.594   3.413  -3.940  1.00  0.00     0.200 C 
BRANCH  32  33
ATOM     33  N   UNL     1      -3.779   3.039  -2.778  1.00  0.00    -0.340 N 
ATOM     34  C   UNL     1      -2.765   3.857  -2.322  1.00  0.00     0.243 CG0
ATOM     35  O   UNL     1      -2.459   4.897  -2.902  1.00  0.00    -0.273 OA
ATOM     36  H   UNL     1      -3.987   2.172  -2.298  1.00  0.00     0.164 HD
ATOM     37  G   UNL     1      -1.905   3.281  -1.186  1.00  0.00     0.000 G0
ENDBRANCH  32  33
BRANCH  32  38
ATOM     38  C   UNL     1      -4.902   2.216  -4.870  1.00  0.00     0.143 C 
ATOM     39  C   UNL     1      -4.271   2.325  -6.254  1.00  0.00     0.041 C 
BRANCH  38  40
ATOM     40  O   UNL     1      -4.468   0.988  -4.254  1.00  0.00    -0.391 OA
ATOM     41  H   UNL     1      -4.101   1.228  -3.382  1.00  0.00     0.211 HD
ENDBRANCH  38  40
ENDBRANCH  32  38
ENDBRANCH  29  32
ENDBRANCH  27  28
BRANCH  27  42
ATOM     42  C   UNL     1      -9.401   3.814  -4.151  1.00  0.00     0.015 C 
ATOM     43  C   UNL     1      -9.947   5.214  -4.454  1.00  0.00     0.010 C 
ATOM     44  C   UNL     1      -8.934   3.135  -5.443  1.00  0.00     0.010 C 
ENDBRANCH  27  42
ENDBRANCH   3  27
TORSDOF 5
ENDMDL
