MODEL 1
REMARK VINA RESULT:    -7.344      0.000      0.000
REMARK INTER + INTRA:         -18.635
REMARK INTER:                 -14.857
REMARK INTRA:                  -3.778
REMARK UNBOUND:                -3.778
REMARK SMILES CC[C@@H](C)[C@@H](NC(=O)[C@@H](O)Cc1ccc(O)c(Cl)c1)C(=O)N1[C@H](C(=O)NCCCCN=C(N)N)C[C@H]2CC[C@H](OS(=O)(=O)O)C[C@@H]21
REMARK SMILES IDX 22 1 36 2 46 3 35 4 23 5 45 6 37 7 39 8 38 9 20 10 21 11
REMARK SMILES IDX 5 12 6 13 7 14 8 15 9 17 11 18 12 19 17 20 19 21 15 22 14 23
REMARK SMILES IDX 13 24 18 25 16 26 10 28 3 30 4 31 2 32 1 33 24 34 25 35
REMARK SMILES IDX 26 36 27 38 28 39 29 40 30 41 31 42 32 43 33 44 34 45 40 50
REMARK SMILES IDX 41 51 42 52 43 53 44 54
REMARK H PARENT 6 16 16 27 10 29 26 37 33 46 33 47 34 48 34 49 44 55
ROOT
ATOM      1  N   UNL     1       8.719  -1.635 -16.127  1.00  0.00    -0.326 N 
ATOM      2  C   UNL     1       9.242  -2.477 -18.263  1.00  0.00     0.014 C 
ATOM      3  C   UNL     1       9.875  -1.936 -16.978  1.00  0.00     0.091 C 
ATOM      4  C   UNL     1       7.963  -1.660 -18.376  1.00  0.00     0.041 C 
ATOM      5  C   UNL     1       7.468  -1.727 -16.919  1.00  0.00     0.175 C 
ATOM      6  C   UNL     1      10.897  -2.955 -16.477  1.00  0.00     0.059 C 
ATOM      7  C   UNL     1      10.237  -2.461 -19.406  1.00  0.00     0.008 C 
ATOM      8  C   UNL     1      11.586  -3.750 -17.607  1.00  0.00     0.143 C 
ATOM      9  C   UNL     1      11.617  -2.964 -18.933  1.00  0.00     0.034 C 
ENDROOT
BRANCH   1  10
ATOM     10  C   UNL     1       8.672  -1.102 -14.850  1.00  0.00     0.246 C 
ATOM     11  O   UNL     1       8.195   0.026 -14.687  1.00  0.00    -0.272 OA
BRANCH  10  12
ATOM     12  C   UNL     1       9.178  -1.949 -13.647  1.00  0.00     0.174 C 
BRANCH  12  13
ATOM     13  N   UNL     1       8.050  -2.610 -12.992  1.00  0.00    -0.342 N 
ATOM     14  C   UNL     1       7.719  -3.938 -13.139  1.00  0.00     0.249 C 
ATOM     15  O   UNL     1       8.359  -4.729 -13.821  1.00  0.00    -0.272 OA
ATOM     16  H   UNL     1       7.342  -2.051 -12.523  1.00  0.00     0.164 HD
BRANCH  14  17
ATOM     17  C   UNL     1       6.464  -4.332 -12.332  1.00  0.00     0.207 C 
BRANCH  17  18
ATOM     18  C   UNL     1       6.394  -3.533 -11.026  1.00  0.00     0.077 C 
BRANCH  18  19
ATOM     19  C   UNL     1       4.968  -3.201 -10.647  1.00  0.00    -0.043 A 
ATOM     20  C   UNL     1       2.989  -3.644  -9.316  1.00  0.00     0.083 A 
ATOM     21  C   UNL     1       4.321  -3.920  -9.630  1.00  0.00     0.028 A 
ATOM     22  C   UNL     1       2.298  -2.653 -10.014  1.00  0.00     0.134 A 
ATOM     23  C   UNL     1       2.927  -1.934 -11.023  1.00  0.00     0.048 A 
ATOM     24  C   UNL     1       4.259  -2.209 -11.341  1.00  0.00     0.008 A 
ATOM     25  Cl  UNL     1       2.211  -4.538  -8.063  1.00  0.00    -0.080 Cl
BRANCH  22  26
ATOM     26  O   UNL     1       0.989  -2.355  -9.748  1.00  0.00    -0.506 OA
ATOM     27  H   UNL     1       0.535  -2.294 -10.610  1.00  0.00     0.293 HD
ENDBRANCH  22  26
ENDBRANCH  18  19
ENDBRANCH  17  18
BRANCH  17  28
ATOM     28  O   UNL     1       6.462  -5.737 -12.031  1.00  0.00    -0.383 OA
ATOM     29  H   UNL     1       7.404  -6.020 -12.050  1.00  0.00     0.211 HD
ENDBRANCH  17  28
ENDBRANCH  14  17
ENDBRANCH  12  13
BRANCH  12  30
ATOM     30  C   UNL     1      10.039  -1.123 -12.653  1.00  0.00     0.018 C 
ATOM     31  C   UNL     1      11.522  -1.160 -13.053  1.00  0.00     0.010 C 
BRANCH  30  32
ATOM     32  C   UNL     1       9.875  -1.560 -11.177  1.00  0.00     0.002 C 
ATOM     33  C   UNL     1      11.150  -2.039 -10.494  1.00  0.00     0.004 C 
ENDBRANCH  30  32
ENDBRANCH  12  30
ENDBRANCH  10  12
ENDBRANCH   1  10
BRANCH   5  34
ATOM     34  C   UNL     1       6.729  -3.061 -16.627  1.00  0.00     0.242 C 
ATOM     35  O   UNL     1       7.190  -4.154 -16.955  1.00  0.00    -0.273 OA
ATOM     36  N   UNL     1       5.498  -2.928 -16.024  1.00  0.00    -0.354 N 
ATOM     37  H   UNL     1       5.117  -1.991 -15.886  1.00  0.00     0.163 HD
BRANCH  36  38
ATOM     38  C   UNL     1       4.774  -4.062 -15.488  1.00  0.00     0.116 C 
BRANCH  38  39
ATOM     39  C   UNL     1       3.619  -3.574 -14.616  1.00  0.00     0.023 C 
BRANCH  39  40
ATOM     40  C   UNL     1       2.706  -4.710 -14.168  1.00  0.00     0.026 C 
BRANCH  40  41
ATOM     41  C   UNL     1       1.303  -4.188 -13.858  1.00  0.00     0.146 C 
BRANCH  41  42
ATOM     42  N   UNL     1       1.241  -2.757 -14.121  1.00  0.00    -0.254 NA
ATOM     43  C   UNL     1       0.403  -2.031 -13.481  1.00  0.00     0.185 C 
ATOM     44  N   UNL     1      -0.496  -2.373 -12.540  1.00  0.00    -0.370 N 
ATOM     45  N   UNL     1       0.358  -0.714 -13.741  1.00  0.00    -0.370 N 
ATOM     46  H   UNL     1      -1.250  -1.753 -12.301  1.00  0.00     0.159 HD
ATOM     47  H   UNL     1      -0.587  -3.330 -12.213  1.00  0.00     0.159 HD
ATOM     48  H   UNL     1       1.011  -0.372 -14.433  1.00  0.00     0.159 HD
ATOM     49  H   UNL     1      -0.088  -0.054 -13.130  1.00  0.00     0.159 HD
ENDBRANCH  41  42
ENDBRANCH  40  41
ENDBRANCH  39  40
ENDBRANCH  38  39
ENDBRANCH  36  38
ENDBRANCH   5  34
BRANCH   8  50
ATOM     50  O   UNL     1      10.901  -4.983 -17.827  1.00  0.00    -0.245 OA
BRANCH  50  51
ATOM     51  S   UNL     1      10.906  -6.123 -16.666  1.00  0.00     0.397 S 
ATOM     52  O   UNL     1      11.681  -5.623 -15.553  1.00  0.00    -0.169 OA
ATOM     53  O   UNL     1      11.173  -7.418 -17.257  1.00  0.00    -0.169 OA
BRANCH  51  54
ATOM     54  O   UNL     1       9.375  -6.108 -16.175  1.00  0.00    -0.264 OA
ATOM     55  H   UNL     1       9.080  -5.175 -16.146  1.00  0.00     0.236 HD
ENDBRANCH  51  54
ENDBRANCH  50  51
ENDBRANCH   8  50
TORSDOF 19
ENDMDL
MODEL 2
REMARK VINA RESULT:    -7.006      3.505      5.597
REMARK INTER + INTRA:         -17.952
REMARK INTER:                 -13.274
REMARK INTRA:                  -4.678
REMARK UNBOUND:                -3.778
REMARK SMILES CC[C@@H](C)[C@@H](NC(=O)[C@@H](O)Cc1ccc(O)c(Cl)c1)C(=O)N1[C@H](C(=O)NCCCCN=C(N)N)C[C@H]2CC[C@H](OS(=O)(=O)O)C[C@@H]21
REMARK SMILES IDX 22 1 36 2 46 3 35 4 23 5 45 6 37 7 39 8 38 9 20 10 21 11
REMARK SMILES IDX 5 12 6 13 7 14 8 15 9 17 11 18 12 19 17 20 19 21 15 22 14 23
REMARK SMILES IDX 13 24 18 25 16 26 10 28 3 30 4 31 2 32 1 33 24 34 25 35
REMARK SMILES IDX 26 36 27 38 28 39 29 40 30 41 31 42 32 43 33 44 34 45 40 50
REMARK SMILES IDX 41 51 42 52 43 53 44 54
REMARK H PARENT 6 16 16 27 10 29 26 37 33 46 33 47 34 48 34 49 44 55
ROOT
ATOM      1  N   UNL     1       5.927  -1.831 -15.601  1.00  0.00    -0.326 N 
ATOM      2  C   UNL     1       6.598  -0.128 -14.121  1.00  0.00     0.014 C 
ATOM      3  C   UNL     1       7.104  -1.033 -15.248  1.00  0.00     0.091 C 
ATOM      4  C   UNL     1       5.604  -1.021 -13.395  1.00  0.00     0.041 C 
ATOM      5  C   UNL     1       4.855  -1.628 -14.595  1.00  0.00     0.175 C 
ATOM      6  C   UNL     1       7.734  -0.154 -16.327  1.00  0.00     0.059 C 
ATOM      7  C   UNL     1       7.754   0.478 -13.351  1.00  0.00     0.008 C 
ATOM      8  C   UNL     1       8.395   1.128 -15.777  1.00  0.00     0.143 C 
ATOM      9  C   UNL     1       8.858   0.960 -14.316  1.00  0.00     0.034 C 
ENDROOT
BRANCH   1  10
ATOM     10  C   UNL     1       5.785  -2.835 -16.544  1.00  0.00     0.246 C 
ATOM     11  O   UNL     1       5.066  -2.636 -17.530  1.00  0.00    -0.272 OA
BRANCH  10  12
ATOM     12  C   UNL     1       6.565  -4.170 -16.367  1.00  0.00     0.174 C 
BRANCH  12  13
ATOM     13  N   UNL     1       6.809  -4.420 -14.947  1.00  0.00    -0.342 N 
ATOM     14  C   UNL     1       5.908  -4.997 -14.080  1.00  0.00     0.249 C 
ATOM     15  O   UNL     1       4.799  -5.394 -14.414  1.00  0.00    -0.272 OA
ATOM     16  H   UNL     1       7.619  -4.005 -14.495  1.00  0.00     0.164 HD
BRANCH  14  17
ATOM     17  C   UNL     1       6.455  -5.110 -12.641  1.00  0.00     0.207 C 
BRANCH  17  18
ATOM     18  C   UNL     1       7.739  -4.288 -12.490  1.00  0.00     0.077 C 
BRANCH  18  19
ATOM     19  C   UNL     1       7.661  -3.333 -11.320  1.00  0.00    -0.043 A 
ATOM     20  C   UNL     1       8.748  -1.832  -9.755  1.00  0.00     0.083 A 
ATOM     21  C   UNL     1       8.814  -2.674 -10.865  1.00  0.00     0.028 A 
ATOM     22  C   UNL     1       7.534  -1.644  -9.092  1.00  0.00     0.134 A 
ATOM     23  C   UNL     1       6.385  -2.290  -9.532  1.00  0.00     0.048 A 
ATOM     24  C   UNL     1       6.448  -3.135 -10.642  1.00  0.00     0.008 A 
ATOM     25  Cl  UNL     1      10.175  -1.032  -9.211  1.00  0.00    -0.080 Cl
BRANCH  22  26
ATOM     26  O   UNL     1       7.423  -0.837  -7.993  1.00  0.00    -0.506 OA
ATOM     27  H   UNL     1       8.295  -0.421  -7.860  1.00  0.00     0.293 HD
ENDBRANCH  22  26
ENDBRANCH  18  19
ENDBRANCH  17  18
BRANCH  17  28
ATOM     28  O   UNL     1       6.722  -6.478 -12.295  1.00  0.00    -0.383 OA
ATOM     29  H   UNL     1       7.162  -6.455 -11.415  1.00  0.00     0.211 HD
ENDBRANCH  17  28
ENDBRANCH  14  17
ENDBRANCH  12  13
BRANCH  12  30
ATOM     30  C   UNL     1       7.868  -4.220 -17.210  1.00  0.00     0.018 C 
ATOM     31  C   UNL     1       7.783  -5.318 -18.282  1.00  0.00     0.010 C 
BRANCH  30  32
ATOM     32  C   UNL     1       9.150  -4.402 -16.362  1.00  0.00     0.002 C 
ATOM     33  C   UNL     1      10.013  -3.156 -16.211  1.00  0.00     0.004 C 
ENDBRANCH  30  32
ENDBRANCH  12  30
ENDBRANCH  10  12
ENDBRANCH   1  10
BRANCH   5  34
ATOM     34  C   UNL     1       3.767  -0.663 -15.138  1.00  0.00     0.242 C 
ATOM     35  O   UNL     1       3.824  -0.175 -16.267  1.00  0.00    -0.273 OA
ATOM     36  N   UNL     1       2.765  -0.349 -14.247  1.00  0.00    -0.354 N 
ATOM     37  H   UNL     1       2.837  -0.689 -13.287  1.00  0.00     0.163 HD
BRANCH  36  38
ATOM     38  C   UNL     1       1.566   0.357 -14.649  1.00  0.00     0.116 C 
BRANCH  38  39
ATOM     39  C   UNL     1       0.333  -0.374 -14.123  1.00  0.00     0.023 C 
BRANCH  39  40
ATOM     40  C   UNL     1       0.541  -0.932 -12.720  1.00  0.00     0.026 C 
BRANCH  40  41
ATOM     41  C   UNL     1       0.188  -2.419 -12.670  1.00  0.00     0.146 C 
BRANCH  41  42
ATOM     42  N   UNL     1       0.673  -3.081 -13.874  1.00  0.00    -0.254 NA
ATOM     43  C   UNL     1       1.741  -3.785 -13.822  1.00  0.00     0.185 C 
ATOM     44  N   UNL     1       2.557  -4.045 -12.785  1.00  0.00    -0.370 N 
ATOM     45  N   UNL     1       2.174  -4.383 -14.944  1.00  0.00    -0.370 N 
ATOM     46  H   UNL     1       3.483  -4.406 -12.938  1.00  0.00     0.159 HD
ATOM     47  H   UNL     1       2.370  -3.681 -11.855  1.00  0.00     0.159 HD
ATOM     48  H   UNL     1       1.611  -4.245 -15.772  1.00  0.00     0.159 HD
ATOM     49  H   UNL     1       2.849  -5.127 -14.938  1.00  0.00     0.159 HD
ENDBRANCH  41  42
ENDBRANCH  40  41
ENDBRANCH  39  40
ENDBRANCH  38  39
ENDBRANCH  36  38
ENDBRANCH   5  34
BRANCH   8  50
ATOM     50  O   UNL     1       7.476   2.219 -15.839  1.00  0.00    -0.245 OA
BRANCH  50  51
ATOM     51  S   UNL     1       7.941   3.624 -16.514  1.00  0.00     0.397 S 
ATOM     52  O   UNL     1       7.322   4.701 -15.774  1.00  0.00    -0.169 OA
ATOM     53  O   UNL     1       7.831   3.530 -17.955  1.00  0.00    -0.169 OA
BRANCH  51  54
ATOM     54  O   UNL     1       9.503   3.675 -16.138  1.00  0.00    -0.264 OA
ATOM     55  H   UNL     1       9.582   3.552 -15.170  1.00  0.00     0.236 HD
ENDBRANCH  51  54
ENDBRANCH  50  51
ENDBRANCH   8  50
TORSDOF 19
ENDMDL
MODEL 3
REMARK VINA RESULT:    -6.981      2.608      5.261
REMARK INTER + INTRA:         -17.900
REMARK INTER:                 -13.221
REMARK INTRA:                  -4.679
REMARK UNBOUND:                -3.778
REMARK SMILES CC[C@@H](C)[C@@H](NC(=O)[C@@H](O)Cc1ccc(O)c(Cl)c1)C(=O)N1[C@H](C(=O)NCCCCN=C(N)N)C[C@H]2CC[C@H](OS(=O)(=O)O)C[C@@H]21
REMARK SMILES IDX 22 1 36 2 46 3 35 4 23 5 45 6 37 7 39 8 38 9 20 10 21 11
REMARK SMILES IDX 5 12 6 13 7 14 8 15 9 17 11 18 12 19 17 20 19 21 15 22 14 23
REMARK SMILES IDX 13 24 18 25 16 26 10 28 3 30 4 31 2 32 1 33 24 34 25 35
REMARK SMILES IDX 26 36 27 38 28 39 29 40 30 41 31 42 32 43 33 44 34 45 40 50
REMARK SMILES IDX 41 51 42 52 43 53 44 54
REMARK H PARENT 6 16 16 27 10 29 26 37 33 46 33 47 34 48 34 49 44 55
ROOT
ATOM      1  N   UNL     1       7.007  -3.318 -16.593  1.00  0.00    -0.326 N 
ATOM      2  C   UNL     1       9.236  -3.884 -17.096  1.00  0.00     0.014 C 
ATOM      3  C   UNL     1       8.129  -2.879 -17.428  1.00  0.00     0.091 C 
ATOM      4  C   UNL     1       8.461  -5.172 -16.865  1.00  0.00     0.041 C 
ATOM      5  C   UNL     1       7.305  -4.643 -15.996  1.00  0.00     0.175 C 
ATOM      6  C   UNL     1       8.678  -1.469 -17.221  1.00  0.00     0.059 C 
ATOM      7  C   UNL     1      10.329  -3.852 -18.145  1.00  0.00     0.008 C 
ATOM      8  C   UNL     1      10.188  -1.341 -17.516  1.00  0.00     0.143 C 
ATOM      9  C   UNL     1      10.672  -2.397 -18.530  1.00  0.00     0.034 C 
ENDROOT
BRANCH   1  10
ATOM     10  C   UNL     1       5.727  -2.801 -16.483  1.00  0.00     0.246 C 
ATOM     11  O   UNL     1       5.031  -2.699 -17.499  1.00  0.00    -0.272 OA
BRANCH  10  12
ATOM     12  C   UNL     1       5.178  -2.402 -15.083  1.00  0.00     0.174 C 
BRANCH  12  13
ATOM     13  N   UNL     1       3.783  -2.822 -14.955  1.00  0.00    -0.342 N 
ATOM     14  C   UNL     1       3.368  -4.083 -14.590  1.00  0.00     0.249 C 
ATOM     15  O   UNL     1       4.132  -4.996 -14.301  1.00  0.00    -0.272 OA
ATOM     16  H   UNL     1       3.042  -2.224 -15.312  1.00  0.00     0.164 HD
BRANCH  14  17
ATOM     17  C   UNL     1       1.830  -4.219 -14.563  1.00  0.00     0.207 C 
BRANCH  17  18
ATOM     18  C   UNL     1       1.357  -4.675 -13.179  1.00  0.00     0.077 C 
BRANCH  18  19
ATOM     19  C   UNL     1       1.237  -3.516 -12.216  1.00  0.00    -0.043 A 
ATOM     20  C   UNL     1       0.568  -1.231 -11.749  1.00  0.00     0.083 A 
ATOM     21  C   UNL     1       0.634  -2.316 -12.624  1.00  0.00     0.028 A 
ATOM     22  C   UNL     1       1.104  -1.336 -10.465  1.00  0.00     0.134 A 
ATOM     23  C   UNL     1       1.703  -2.519 -10.047  1.00  0.00     0.048 A 
ATOM     24  C   UNL     1       1.772  -3.606 -10.922  1.00  0.00     0.008 A 
ATOM     25  Cl  UNL     1      -0.176   0.235 -12.270  1.00  0.00    -0.080 Cl
BRANCH  22  26
ATOM     26  O   UNL     1       1.073  -0.296  -9.576  1.00  0.00    -0.506 OA
ATOM     27  H   UNL     1       1.338  -0.660  -8.710  1.00  0.00     0.293 HD
ENDBRANCH  22  26
ENDBRANCH  18  19
ENDBRANCH  17  18
BRANCH  17  28
ATOM     28  O   UNL     1       1.376  -5.155 -15.554  1.00  0.00    -0.383 OA
ATOM     29  H   UNL     1       1.088  -4.616 -16.325  1.00  0.00     0.211 HD
ENDBRANCH  17  28
ENDBRANCH  14  17
ENDBRANCH  12  13
BRANCH  12  30
ATOM     30  C   UNL     1       5.373  -0.894 -14.770  1.00  0.00     0.018 C 
ATOM     31  C   UNL     1       6.712  -0.653 -14.055  1.00  0.00     0.010 C 
BRANCH  30  32
ATOM     32  C   UNL     1       4.215  -0.274 -13.951  1.00  0.00     0.002 C 
ATOM     33  C   UNL     1       4.291  -0.493 -12.446  1.00  0.00     0.004 C 
ENDBRANCH  30  32
ENDBRANCH  12  30
ENDBRANCH  10  12
ENDBRANCH   1  10
BRANCH   5  34
ATOM     34  C   UNL     1       7.729  -4.494 -14.510  1.00  0.00     0.242 C 
ATOM     35  O   UNL     1       8.763  -3.918 -14.175  1.00  0.00    -0.273 OA
ATOM     36  N   UNL     1       6.892  -5.100 -13.599  1.00  0.00    -0.354 N 
ATOM     37  H   UNL     1       6.116  -5.665 -13.945  1.00  0.00     0.163 HD
BRANCH  36  38
ATOM     38  C   UNL     1       7.014  -4.881 -12.173  1.00  0.00     0.116 C 
BRANCH  38  39
ATOM     39  C   UNL     1       6.144  -3.699 -11.754  1.00  0.00     0.023 C 
BRANCH  39  40
ATOM     40  C   UNL     1       6.490  -3.185 -10.360  1.00  0.00     0.026 C 
BRANCH  40  41
ATOM     41  C   UNL     1       7.194  -1.831 -10.441  1.00  0.00     0.146 C 
BRANCH  41  42
ATOM     42  N   UNL     1       8.531  -1.936  -9.874  1.00  0.00    -0.254 NA
ATOM     43  C   UNL     1       9.535  -2.116 -10.647  1.00  0.00     0.185 C 
ATOM     44  N   UNL     1       9.585  -2.234 -11.987  1.00  0.00    -0.370 N 
ATOM     45  N   UNL     1      10.760  -2.215 -10.104  1.00  0.00    -0.370 N 
ATOM     46  H   UNL     1      10.399  -2.615 -12.438  1.00  0.00     0.159 HD
ATOM     47  H   UNL     1       8.749  -2.170 -12.559  1.00  0.00     0.159 HD
ATOM     48  H   UNL     1      10.812  -2.128  -9.098  1.00  0.00     0.159 HD
ATOM     49  H   UNL     1      11.603  -2.118 -10.642  1.00  0.00     0.159 HD
ENDBRANCH  41  42
ENDBRANCH  40  41
ENDBRANCH  39  40
ENDBRANCH  38  39
ENDBRANCH  36  38
ENDBRANCH   5  34
BRANCH   8  50
ATOM     50  O   UNL     1      10.938  -1.493 -16.310  1.00  0.00    -0.245 OA
BRANCH  50  51
ATOM     51  S   UNL     1      11.178  -0.206 -15.346  1.00  0.00     0.397 S 
ATOM     52  O   UNL     1      12.601   0.035 -15.268  1.00  0.00    -0.169 OA
ATOM     53  O   UNL     1      10.362  -0.331 -14.155  1.00  0.00    -0.169 OA
BRANCH  51  54
ATOM     54  O   UNL     1      10.578   0.994 -16.233  1.00  0.00    -0.264 OA
ATOM     55  H   UNL     1      11.328   1.442 -16.675  1.00  0.00     0.236 HD
ENDBRANCH  51  54
ENDBRANCH  50  51
ENDBRANCH   8  50
TORSDOF 19
ENDMDL
MODEL 4
REMARK VINA RESULT:    -6.971      3.959      7.754
REMARK INTER + INTRA:         -17.880
REMARK INTER:                 -13.431
REMARK INTRA:                  -4.449
REMARK UNBOUND:                -3.778
REMARK SMILES CC[C@@H](C)[C@@H](NC(=O)[C@@H](O)Cc1ccc(O)c(Cl)c1)C(=O)N1[C@H](C(=O)NCCCCN=C(N)N)C[C@H]2CC[C@H](OS(=O)(=O)O)C[C@@H]21
REMARK SMILES IDX 22 1 36 2 46 3 35 4 23 5 45 6 37 7 39 8 38 9 20 10 21 11
REMARK SMILES IDX 5 12 6 13 7 14 8 15 9 17 11 18 12 19 17 20 19 21 15 22 14 23
REMARK SMILES IDX 13 24 18 25 16 26 10 28 3 30 4 31 2 32 1 33 24 34 25 35
REMARK SMILES IDX 26 36 27 38 28 39 29 40 30 41 31 42 32 43 33 44 34 45 40 50
REMARK SMILES IDX 41 51 42 52 43 53 44 54
REMARK H PARENT 6 16 16 27 10 29 26 37 33 46 33 47 34 48 34 49 44 55
ROOT
ATOM      1  N   UNL     1       7.424  -2.334 -15.290  1.00  0.00    -0.326 N 
ATOM      2  C   UNL     1       6.004  -0.920 -16.524  1.00  0.00     0.014 C 
ATOM      3  C   UNL     1       6.595  -1.137 -15.128  1.00  0.00     0.091 C 
ATOM      4  C   UNL     1       5.814  -2.341 -17.032  1.00  0.00     0.041 C 
ATOM      5  C   UNL     1       7.156  -2.964 -16.607  1.00  0.00     0.175 C 
ATOM      6  C   UNL     1       7.272   0.159 -14.684  1.00  0.00     0.059 C 
ATOM      7  C   UNL     1       4.812   0.015 -16.469  1.00  0.00     0.008 C 
ATOM      8  C   UNL     1       6.597   1.433 -15.236  1.00  0.00     0.143 C 
ATOM      9  C   UNL     1       5.102   1.212 -15.539  1.00  0.00     0.034 C 
ENDROOT
BRANCH   1  10
ATOM     10  C   UNL     1       8.189  -3.017 -14.359  1.00  0.00     0.246 C 
ATOM     11  O   UNL     1       9.220  -3.587 -14.730  1.00  0.00    -0.272 OA
BRANCH  10  12
ATOM     12  C   UNL     1       7.758  -3.016 -12.864  1.00  0.00     0.174 C 
BRANCH  12  13
ATOM     13  N   UNL     1       8.895  -2.655 -12.018  1.00  0.00    -0.342 N 
ATOM     14  C   UNL     1       8.924  -1.592 -11.143  1.00  0.00     0.249 C 
ATOM     15  O   UNL     1       7.977  -0.838 -10.954  1.00  0.00    -0.272 OA
ATOM     16  H   UNL     1       9.800  -3.091 -12.178  1.00  0.00     0.164 HD
BRANCH  14  17
ATOM     17  C   UNL     1      10.274  -1.464 -10.406  1.00  0.00     0.207 C 
BRANCH  17  18
ATOM     18  C   UNL     1      11.435  -1.762 -11.359  1.00  0.00     0.077 C 
BRANCH  18  19
ATOM     19  C   UNL     1      11.579  -0.694 -12.420  1.00  0.00    -0.043 A 
ATOM     20  C   UNL     1      11.438   1.631 -13.096  1.00  0.00     0.083 A 
ATOM     21  C   UNL     1      11.353   0.654 -12.104  1.00  0.00     0.028 A 
ATOM     22  C   UNL     1      11.748   1.269 -14.408  1.00  0.00     0.134 A 
ATOM     23  C   UNL     1      11.974  -0.063 -14.735  1.00  0.00     0.048 A 
ATOM     24  C   UNL     1      11.888  -1.043 -13.744  1.00  0.00     0.008 A 
ATOM     25  Cl  UNL     1      11.156   3.283 -12.688  1.00  0.00    -0.080 Cl
BRANCH  22  26
ATOM     26  O   UNL     1      11.832   2.190 -15.417  1.00  0.00    -0.506 OA
ATOM     27  H   UNL     1      12.330   2.949 -15.062  1.00  0.00     0.293 HD
ENDBRANCH  22  26
ENDBRANCH  18  19
ENDBRANCH  17  18
BRANCH  17  28
ATOM     28  O   UNL     1      10.337  -2.358  -9.283  1.00  0.00    -0.383 OA
ATOM     29  H   UNL     1      10.351  -3.267  -9.659  1.00  0.00     0.211 HD
ENDBRANCH  17  28
ENDBRANCH  14  17
ENDBRANCH  12  13
BRANCH  12  30
ATOM     30  C   UNL     1       7.096  -4.351 -12.429  1.00  0.00     0.018 C 
ATOM     31  C   UNL     1       6.355  -5.002 -13.607  1.00  0.00     0.010 C 
BRANCH  30  32
ATOM     32  C   UNL     1       6.145  -4.207 -11.216  1.00  0.00     0.002 C 
ATOM     33  C   UNL     1       5.194  -3.019 -11.272  1.00  0.00     0.004 C 
ENDBRANCH  30  32
ENDBRANCH  12  30
ENDBRANCH  10  12
ENDBRANCH   1  10
BRANCH   5  34
ATOM     34  C   UNL     1       8.287  -2.630 -17.616  1.00  0.00     0.242 C 
ATOM     35  O   UNL     1       8.201  -2.901 -18.814  1.00  0.00    -0.273 OA
ATOM     36  N   UNL     1       9.413  -2.059 -17.066  1.00  0.00    -0.354 N 
ATOM     37  H   UNL     1       9.473  -1.969 -16.051  1.00  0.00     0.163 HD
BRANCH  36  38
ATOM     38  C   UNL     1      10.467  -1.490 -17.880  1.00  0.00     0.116 C 
BRANCH  38  39
ATOM     39  C   UNL     1      11.742  -2.317 -17.730  1.00  0.00     0.023 C 
BRANCH  39  40
ATOM     40  C   UNL     1      11.895  -3.357 -18.836  1.00  0.00     0.026 C 
BRANCH  40  41
ATOM     41  C   UNL     1      11.949  -4.767 -18.250  1.00  0.00     0.146 C 
BRANCH  41  42
ATOM     42  N   UNL     1      10.609  -5.193 -17.866  1.00  0.00    -0.254 NA
ATOM     43  C   UNL     1      10.396  -5.620 -16.678  1.00  0.00     0.185 C 
ATOM     44  N   UNL     1      11.244  -5.756 -15.643  1.00  0.00    -0.370 N 
ATOM     45  N   UNL     1       9.155  -6.012 -16.346  1.00  0.00    -0.370 N 
ATOM     46  H   UNL     1      11.000  -6.327 -14.852  1.00  0.00     0.159 HD
ATOM     47  H   UNL     1      12.222  -5.492 -15.716  1.00  0.00     0.159 HD
ATOM     48  H   UNL     1       8.452  -5.933 -17.068  1.00  0.00     0.159 HD
ATOM     49  H   UNL     1       8.858  -6.129 -15.394  1.00  0.00     0.159 HD
ENDBRANCH  41  42
ENDBRANCH  40  41
ENDBRANCH  39  40
ENDBRANCH  38  39
ENDBRANCH  36  38
ENDBRANCH   5  34
BRANCH   8  50
ATOM     50  O   UNL     1       7.247   1.850 -16.437  1.00  0.00    -0.245 OA
BRANCH  50  51
ATOM     51  S   UNL     1       7.866   3.351 -16.536  1.00  0.00     0.397 S 
ATOM     52  O   UNL     1       9.088   3.382 -15.763  1.00  0.00    -0.169 OA
ATOM     53  O   UNL     1       6.814   4.325 -16.332  1.00  0.00    -0.169 OA
BRANCH  51  54
ATOM     54  O   UNL     1       8.320   3.427 -18.076  1.00  0.00    -0.264 OA
ATOM     55  H   UNL     1       7.725   4.057 -18.532  1.00  0.00     0.236 HD
ENDBRANCH  51  54
ENDBRANCH  50  51
ENDBRANCH   8  50
TORSDOF 19
ENDMDL
MODEL 5
REMARK VINA RESULT:    -6.786      3.066      5.013
REMARK INTER + INTRA:         -17.507
REMARK INTER:                 -13.683
REMARK INTRA:                  -3.824
REMARK UNBOUND:                -3.778
REMARK SMILES CC[C@@H](C)[C@@H](NC(=O)[C@@H](O)Cc1ccc(O)c(Cl)c1)C(=O)N1[C@H](C(=O)NCCCCN=C(N)N)C[C@H]2CC[C@H](OS(=O)(=O)O)C[C@@H]21
REMARK SMILES IDX 22 1 36 2 46 3 35 4 23 5 45 6 37 7 39 8 38 9 20 10 21 11
REMARK SMILES IDX 5 12 6 13 7 14 8 15 9 17 11 18 12 19 17 20 19 21 15 22 14 23
REMARK SMILES IDX 13 24 18 25 16 26 10 28 3 30 4 31 2 32 1 33 24 34 25 35
REMARK SMILES IDX 26 36 27 38 28 39 29 40 30 41 31 42 32 43 33 44 34 45 40 50
REMARK SMILES IDX 41 51 42 52 43 53 44 54
REMARK H PARENT 6 16 16 27 10 29 26 37 33 46 33 47 34 48 34 49 44 55
ROOT
ATOM      1  N   UNL     1       7.079  -3.343 -16.424  1.00  0.00    -0.326 N 
ATOM      2  C   UNL     1       9.346  -3.858 -16.792  1.00  0.00     0.014 C 
ATOM      3  C   UNL     1       8.221  -2.922 -17.241  1.00  0.00     0.091 C 
ATOM      4  C   UNL     1       8.607  -5.155 -16.502  1.00  0.00     0.041 C 
ATOM      5  C   UNL     1       7.397  -4.610 -15.722  1.00  0.00     0.175 C 
ATOM      6  C   UNL     1       8.711  -1.481 -17.114  1.00  0.00     0.059 C 
ATOM      7  C   UNL     1      10.484  -3.858 -17.795  1.00  0.00     0.008 C 
ATOM      8  C   UNL     1      10.227  -1.317 -17.354  1.00  0.00     0.143 C 
ATOM      9  C   UNL     1      10.792  -2.422 -18.268  1.00  0.00     0.034 C 
ENDROOT
BRANCH   1  10
ATOM     10  C   UNL     1       5.778  -2.869 -16.406  1.00  0.00     0.246 C 
ATOM     11  O   UNL     1       5.109  -2.907 -17.444  1.00  0.00    -0.272 OA
BRANCH  10  12
ATOM     12  C   UNL     1       5.174  -2.340 -15.073  1.00  0.00     0.174 C 
BRANCH  12  13
ATOM     13  N   UNL     1       3.790  -2.794 -14.938  1.00  0.00    -0.342 N 
ATOM     14  C   UNL     1       3.406  -4.029 -14.466  1.00  0.00     0.249 C 
ATOM     15  O   UNL     1       4.192  -4.885 -14.077  1.00  0.00    -0.272 OA
ATOM     16  H   UNL     1       3.040  -2.257 -15.365  1.00  0.00     0.164 HD
BRANCH  14  17
ATOM     17  C   UNL     1       1.874  -4.215 -14.461  1.00  0.00     0.207 C 
BRANCH  17  18
ATOM     18  C   UNL     1       1.408  -4.783 -13.116  1.00  0.00     0.077 C 
BRANCH  18  19
ATOM     19  C   UNL     1       1.324  -3.712 -12.052  1.00  0.00    -0.043 A 
ATOM     20  C   UNL     1       0.877  -1.415 -11.412  1.00  0.00     0.083 A 
ATOM     21  C   UNL     1       0.906  -2.414 -12.386  1.00  0.00     0.028 A 
ATOM     22  C   UNL     1       1.265  -1.705 -10.103  1.00  0.00     0.134 A 
ATOM     23  C   UNL     1       1.681  -2.986  -9.759  1.00  0.00     0.048 A 
ATOM     24  C   UNL     1       1.713  -3.987 -10.732  1.00  0.00     0.008 A 
ATOM     25  Cl  UNL     1       0.360   0.173 -11.841  1.00  0.00    -0.080 Cl
BRANCH  22  26
ATOM     26  O   UNL     1       1.263  -0.756  -9.116  1.00  0.00    -0.506 OA
ATOM     27  H   UNL     1       0.339  -0.666  -8.816  1.00  0.00     0.293 HD
ENDBRANCH  22  26
ENDBRANCH  18  19
ENDBRANCH  17  18
BRANCH  17  28
ATOM     28  O   UNL     1       1.455  -5.091 -15.519  1.00  0.00    -0.383 OA
ATOM     29  H   UNL     1       1.926  -4.786 -16.328  1.00  0.00     0.211 HD
ENDBRANCH  17  28
ENDBRANCH  14  17
ENDBRANCH  12  13
BRANCH  12  30
ATOM     30  C   UNL     1       5.309  -0.801 -14.922  1.00  0.00     0.018 C 
ATOM     31  C   UNL     1       6.578  -0.439 -14.134  1.00  0.00     0.010 C 
BRANCH  30  32
ATOM     32  C   UNL     1       4.073  -0.128 -14.277  1.00  0.00     0.002 C 
ATOM     33  C   UNL     1       3.239   0.737 -15.214  1.00  0.00     0.004 C 
ENDBRANCH  30  32
ENDBRANCH  12  30
ENDBRANCH  10  12
ENDBRANCH   1  10
BRANCH   5  34
ATOM     34  C   UNL     1       7.748  -4.342 -14.234  1.00  0.00     0.242 C 
ATOM     35  O   UNL     1       8.690  -3.623 -13.900  1.00  0.00    -0.273 OA
ATOM     36  N   UNL     1       6.966  -5.008 -13.318  1.00  0.00    -0.354 N 
ATOM     37  H   UNL     1       6.279  -5.683 -13.657  1.00  0.00     0.163 HD
BRANCH  36  38
ATOM     38  C   UNL     1       7.011  -4.712 -11.901  1.00  0.00     0.116 C 
BRANCH  38  39
ATOM     39  C   UNL     1       6.189  -3.460 -11.607  1.00  0.00     0.023 C 
BRANCH  39  40
ATOM     40  C   UNL     1       5.284  -3.629 -10.392  1.00  0.00     0.026 C 
BRANCH  40  41
ATOM     41  C   UNL     1       5.409  -2.430  -9.451  1.00  0.00     0.146 C 
BRANCH  41  42
ATOM     42  N   UNL     1       5.463  -2.891  -8.070  1.00  0.00    -0.254 NA
ATOM     43  C   UNL     1       4.665  -2.390  -7.204  1.00  0.00     0.185 C 
ATOM     44  N   UNL     1       3.714  -1.449  -7.345  1.00  0.00    -0.370 N 
ATOM     45  N   UNL     1       4.734  -2.826  -5.935  1.00  0.00    -0.370 N 
ATOM     46  H   UNL     1       3.334  -0.979  -6.541  1.00  0.00     0.159 HD
ATOM     47  H   UNL     1       3.518  -1.020  -8.245  1.00  0.00     0.159 HD
ATOM     48  H   UNL     1       5.420  -3.543  -5.744  1.00  0.00     0.159 HD
ATOM     49  H   UNL     1       4.004  -2.665  -5.264  1.00  0.00     0.159 HD
ENDBRANCH  41  42
ENDBRANCH  40  41
ENDBRANCH  39  40
ENDBRANCH  38  39
ENDBRANCH  36  38
ENDBRANCH   5  34
BRANCH   8  50
ATOM     50  O   UNL     1      10.928  -1.355 -16.110  1.00  0.00    -0.245 OA
BRANCH  50  51
ATOM     51  S   UNL     1      11.058  -0.001 -15.219  1.00  0.00     0.397 S 
ATOM     52  O   UNL     1      12.463   0.249 -14.989  1.00  0.00    -0.169 OA
ATOM     53  O   UNL     1      10.106  -0.042 -14.129  1.00  0.00    -0.169 OA
BRANCH  51  54
ATOM     54  O   UNL     1      10.576   1.130 -16.256  1.00  0.00    -0.264 OA
ATOM     55  H   UNL     1      11.275   1.231 -16.934  1.00  0.00     0.236 HD
ENDBRANCH  51  54
ENDBRANCH  50  51
ENDBRANCH   8  50
TORSDOF 19
ENDMDL
MODEL 6
REMARK VINA RESULT:    -6.776      3.308      5.419
REMARK INTER + INTRA:         -17.486
REMARK INTER:                 -13.775
REMARK INTRA:                  -3.711
REMARK UNBOUND:                -3.778
REMARK SMILES CC[C@@H](C)[C@@H](NC(=O)[C@@H](O)Cc1ccc(O)c(Cl)c1)C(=O)N1[C@H](C(=O)NCCCCN=C(N)N)C[C@H]2CC[C@H](OS(=O)(=O)O)C[C@@H]21
REMARK SMILES IDX 22 1 36 2 46 3 35 4 23 5 45 6 37 7 39 8 38 9 20 10 21 11
REMARK SMILES IDX 5 12 6 13 7 14 8 15 9 17 11 18 12 19 17 20 19 21 15 22 14 23
REMARK SMILES IDX 13 24 18 25 16 26 10 28 3 30 4 31 2 32 1 33 24 34 25 35
REMARK SMILES IDX 26 36 27 38 28 39 29 40 30 41 31 42 32 43 33 44 34 45 40 50
REMARK SMILES IDX 41 51 42 52 43 53 44 54
REMARK H PARENT 6 16 16 27 10 29 26 37 33 46 33 47 34 48 34 49 44 55
ROOT
ATOM      1  N   UNL     1       6.877  -3.501 -16.068  1.00  0.00    -0.326 N 
ATOM      2  C   UNL     1       9.106  -4.260 -16.038  1.00  0.00     0.014 C 
ATOM      3  C   UNL     1       8.223  -3.088 -16.477  1.00  0.00     0.091 C 
ATOM      4  C   UNL     1       8.199  -5.462 -16.256  1.00  0.00     0.041 C 
ATOM      5  C   UNL     1       6.887  -4.926 -15.655  1.00  0.00     0.175 C 
ATOM      6  C   UNL     1       8.798  -1.803 -15.884  1.00  0.00     0.059 C 
ATOM      7  C   UNL     1      10.455  -4.211 -16.728  1.00  0.00     0.008 C 
ATOM      8  C   UNL     1      10.334  -1.822 -15.730  1.00  0.00     0.143 C 
ATOM      9  C   UNL     1      11.006  -2.770 -16.743  1.00  0.00     0.034 C 
ENDROOT
BRANCH   1  10
ATOM     10  C   UNL     1       5.665  -2.851 -16.222  1.00  0.00     0.246 C 
ATOM     11  O   UNL     1       5.065  -2.944 -17.298  1.00  0.00    -0.272 OA
BRANCH  10  12
ATOM     12  C   UNL     1       5.064  -2.056 -15.027  1.00  0.00     0.174 C 
BRANCH  12  13
ATOM     13  N   UNL     1       3.731  -2.566 -14.708  1.00  0.00    -0.342 N 
ATOM     14  C   UNL     1       3.409  -3.284 -13.578  1.00  0.00     0.249 C 
ATOM     15  O   UNL     1       4.209  -3.554 -12.690  1.00  0.00    -0.272 OA
ATOM     16  H   UNL     1       3.004  -2.556 -15.419  1.00  0.00     0.164 HD
BRANCH  14  17
ATOM     17  C   UNL     1       1.922  -3.696 -13.538  1.00  0.00     0.207 C 
BRANCH  17  18
ATOM     18  C   UNL     1       1.256  -3.174 -12.261  1.00  0.00     0.077 C 
BRANCH  18  19
ATOM     19  C   UNL     1       0.787  -1.745 -12.416  1.00  0.00    -0.043 A 
ATOM     20  C   UNL     1       0.169   0.123 -13.835  1.00  0.00     0.083 A 
ATOM     21  C   UNL     1       0.554  -1.211 -13.693  1.00  0.00     0.028 A 
ATOM     22  C   UNL     1       0.017   0.930 -12.707  1.00  0.00     0.134 A 
ATOM     23  C   UNL     1       0.244   0.414 -11.437  1.00  0.00     0.048 A 
ATOM     24  C   UNL     1       0.631  -0.920 -11.291  1.00  0.00     0.008 A 
ATOM     25  Cl  UNL     1      -0.113   0.761 -15.413  1.00  0.00    -0.080 Cl
BRANCH  22  26
ATOM     26  O   UNL     1      -0.349   2.246 -12.797  1.00  0.00    -0.506 OA
ATOM     27  H   UNL     1      -1.139   2.279 -13.367  1.00  0.00     0.293 HD
ENDBRANCH  22  26
ENDBRANCH  18  19
ENDBRANCH  17  18
BRANCH  17  28
ATOM     28  O   UNL     1       1.780  -5.125 -13.599  1.00  0.00    -0.383 OA
ATOM     29  H   UNL     1       2.516  -5.447 -14.167  1.00  0.00     0.211 HD
ENDBRANCH  17  28
ENDBRANCH  14  17
ENDBRANCH  12  13
BRANCH  12  30
ATOM     30  C   UNL     1       5.070  -0.522 -15.263  1.00  0.00     0.018 C 
ATOM     31  C   UNL     1       5.953   0.188 -14.225  1.00  0.00     0.010 C 
BRANCH  30  32
ATOM     32  C   UNL     1       3.657   0.110 -15.280  1.00  0.00     0.002 C 
ATOM     33  C   UNL     1       3.265   0.795 -16.583  1.00  0.00     0.004 C 
ENDBRANCH  30  32
ENDBRANCH  12  30
ENDBRANCH  10  12
ENDBRANCH   1  10
BRANCH   5  34
ATOM     34  C   UNL     1       6.874  -5.051 -14.108  1.00  0.00     0.242 C 
ATOM     35  O   UNL     1       6.404  -6.032 -13.531  1.00  0.00    -0.273 OA
ATOM     36  N   UNL     1       7.375  -3.963 -13.429  1.00  0.00    -0.354 N 
ATOM     37  H   UNL     1       7.639  -3.132 -13.959  1.00  0.00     0.163 HD
BRANCH  36  38
ATOM     38  C   UNL     1       7.637  -3.995 -12.005  1.00  0.00     0.116 C 
BRANCH  38  39
ATOM     39  C   UNL     1       8.363  -2.719 -11.583  1.00  0.00     0.023 C 
BRANCH  39  40
ATOM     40  C   UNL     1       7.873  -2.187 -10.241  1.00  0.00     0.026 C 
BRANCH  40  41
ATOM     41  C   UNL     1       6.345  -2.147 -10.198  1.00  0.00     0.146 C 
BRANCH  41  42
ATOM     42  N   UNL     1       5.879  -2.556  -8.879  1.00  0.00    -0.254 NA
ATOM     43  C   UNL     1       4.942  -3.422  -8.779  1.00  0.00     0.185 C 
ATOM     44  N   UNL     1       4.259  -4.073  -9.739  1.00  0.00    -0.370 N 
ATOM     45  N   UNL     1       4.523  -3.782  -7.555  1.00  0.00    -0.370 N 
ATOM     46  H   UNL     1       3.392  -4.536  -9.527  1.00  0.00     0.159 HD
ATOM     47  H   UNL     1       4.457  -3.930 -10.725  1.00  0.00     0.159 HD
ATOM     48  H   UNL     1       4.992  -3.344  -6.774  1.00  0.00     0.159 HD
ATOM     49  H   UNL     1       3.976  -4.608  -7.388  1.00  0.00     0.159 HD
ENDBRANCH  41  42
ENDBRANCH  40  41
ENDBRANCH  39  40
ENDBRANCH  38  39
ENDBRANCH  36  38
ENDBRANCH   5  34
BRANCH   8  50
ATOM     50  O   UNL     1      10.689  -2.241 -14.412  1.00  0.00    -0.245 OA
BRANCH  50  51
ATOM     51  S   UNL     1      11.382  -1.181 -13.391  1.00  0.00     0.397 S 
ATOM     52  O   UNL     1      11.922  -1.924 -12.275  1.00  0.00    -0.169 OA
ATOM     53  O   UNL     1      10.501  -0.049 -13.195  1.00  0.00    -0.169 OA
BRANCH  51  54
ATOM     54  O   UNL     1      12.653  -0.680 -14.240  1.00  0.00    -0.264 OA
ATOM     55  H   UNL     1      12.677  -1.194 -15.072  1.00  0.00     0.236 HD
ENDBRANCH  51  54
ENDBRANCH  50  51
ENDBRANCH   8  50
TORSDOF 19
ENDMDL
MODEL 7
REMARK VINA RESULT:    -6.763      3.252      7.319
REMARK INTER + INTRA:         -17.459
REMARK INTER:                 -13.278
REMARK INTRA:                  -4.181
REMARK UNBOUND:                -3.778
REMARK SMILES CC[C@@H](C)[C@@H](NC(=O)[C@@H](O)Cc1ccc(O)c(Cl)c1)C(=O)N1[C@H](C(=O)NCCCCN=C(N)N)C[C@H]2CC[C@H](OS(=O)(=O)O)C[C@@H]21
REMARK SMILES IDX 22 1 36 2 46 3 35 4 23 5 45 6 37 7 39 8 38 9 20 10 21 11
REMARK SMILES IDX 5 12 6 13 7 14 8 15 9 17 11 18 12 19 17 20 19 21 15 22 14 23
REMARK SMILES IDX 13 24 18 25 16 26 10 28 3 30 4 31 2 32 1 33 24 34 25 35
REMARK SMILES IDX 26 36 27 38 28 39 29 40 30 41 31 42 32 43 33 44 34 45 40 50
REMARK SMILES IDX 41 51 42 52 43 53 44 54
REMARK H PARENT 6 16 16 27 10 29 26 37 33 46 33 47 34 48 34 49 44 55
ROOT
ATOM      1  N   UNL     1       5.527  -3.272 -11.831  1.00  0.00    -0.326 N 
ATOM      2  C   UNL     1       6.780  -4.342 -13.512  1.00  0.00     0.014 C 
ATOM      3  C   UNL     1       5.378  -3.823 -13.181  1.00  0.00     0.091 C 
ATOM      4  C   UNL     1       7.284  -4.831 -12.163  1.00  0.00     0.041 C 
ATOM      5  C   UNL     1       6.844  -3.659 -11.266  1.00  0.00     0.175 C 
ATOM      6  C   UNL     1       4.933  -2.885 -14.301  1.00  0.00     0.059 C 
ATOM      7  C   UNL     1       6.740  -5.303 -14.683  1.00  0.00     0.008 C 
ATOM      8  C   UNL     1       5.496  -3.263 -15.688  1.00  0.00     0.143 C 
ATOM      9  C   UNL     1       5.813  -4.768 -15.795  1.00  0.00     0.034 C 
ENDROOT
BRANCH   1  10
ATOM     10  C   UNL     1       4.586  -2.680 -11.005  1.00  0.00     0.246 C 
ATOM     11  O   UNL     1       4.815  -1.559 -10.539  1.00  0.00    -0.272 OA
BRANCH  10  12
ATOM     12  C   UNL     1       3.247  -3.418 -10.716  1.00  0.00     0.174 C 
BRANCH  12  13
ATOM     13  N   UNL     1       2.173  -2.835 -11.519  1.00  0.00    -0.342 N 
ATOM     14  C   UNL     1       1.485  -3.492 -12.514  1.00  0.00     0.249 C 
ATOM     15  O   UNL     1       1.681  -4.661 -12.822  1.00  0.00    -0.272 OA
ATOM     16  H   UNL     1       2.007  -1.833 -11.485  1.00  0.00     0.164 HD
BRANCH  14  17
ATOM     17  C   UNL     1       0.421  -2.601 -13.190  1.00  0.00     0.207 C 
BRANCH  17  18
ATOM     18  C   UNL     1       0.604  -1.138 -12.773  1.00  0.00     0.077 C 
BRANCH  18  19
ATOM     19  C   UNL     1       1.079  -0.280 -13.924  1.00  0.00    -0.043 A 
ATOM     20  C   UNL     1       2.885   0.615 -15.273  1.00  0.00     0.083 A 
ATOM     21  C   UNL     1       2.445  -0.215 -14.242  1.00  0.00     0.028 A 
ATOM     22  C   UNL     1       1.968   1.385 -15.990  1.00  0.00     0.134 A 
ATOM     23  C   UNL     1       0.613   1.330 -15.686  1.00  0.00     0.048 A 
ATOM     24  C   UNL     1       0.169   0.501 -14.653  1.00  0.00     0.008 A 
ATOM     25  Cl  UNL     1       4.567   0.682 -15.649  1.00  0.00    -0.080 Cl
BRANCH  22  26
ATOM     26  O   UNL     1       2.354   2.221 -17.002  1.00  0.00    -0.506 OA
ATOM     27  H   UNL     1       3.229   2.574 -16.756  1.00  0.00     0.293 HD
ENDBRANCH  22  26
ENDBRANCH  18  19
ENDBRANCH  17  18
BRANCH  17  28
ATOM     28  O   UNL     1      -0.907  -3.031 -12.849  1.00  0.00    -0.383 OA
ATOM     29  H   UNL     1      -1.257  -2.360 -12.220  1.00  0.00     0.211 HD
ENDBRANCH  17  28
ENDBRANCH  14  17
ENDBRANCH  12  13
BRANCH  12  30
ATOM     30  C   UNL     1       2.900  -3.461  -9.203  1.00  0.00     0.018 C 
ATOM     31  C   UNL     1       2.342  -2.109  -8.732  1.00  0.00     0.010 C 
BRANCH  30  32
ATOM     32  C   UNL     1       4.086  -3.888  -8.305  1.00  0.00     0.002 C 
ATOM     33  C   UNL     1       4.473  -2.892  -7.219  1.00  0.00     0.004 C 
ENDBRANCH  30  32
ENDBRANCH  12  30
ENDBRANCH  10  12
ENDBRANCH   1  10
BRANCH   5  34
ATOM     34  C   UNL     1       7.844  -2.474 -11.341  1.00  0.00     0.242 C 
ATOM     35  O   UNL     1       7.645  -1.489 -12.052  1.00  0.00    -0.273 OA
ATOM     36  N   UNL     1       8.993  -2.630 -10.599  1.00  0.00    -0.354 N 
ATOM     37  H   UNL     1       9.156  -3.520 -10.126  1.00  0.00     0.163 HD
BRANCH  36  38
ATOM     38  C   UNL     1       9.927  -1.545 -10.382  1.00  0.00     0.116 C 
BRANCH  38  39
ATOM     39  C   UNL     1      11.093  -1.661 -11.361  1.00  0.00     0.023 C 
BRANCH  39  40
ATOM     40  C   UNL     1      11.365  -0.355 -12.100  1.00  0.00     0.026 C 
BRANCH  40  41
ATOM     41  C   UNL     1      11.800  -0.628 -13.540  1.00  0.00     0.146 C 
BRANCH  41  42
ATOM     42  N   UNL     1      11.217  -1.881 -14.002  1.00  0.00    -0.254 NA
ATOM     43  C   UNL     1      10.053  -1.880 -14.535  1.00  0.00     0.185 C 
ATOM     44  N   UNL     1       9.208  -0.858 -14.766  1.00  0.00    -0.370 N 
ATOM     45  N   UNL     1       9.532  -3.046 -14.950  1.00  0.00    -0.370 N 
ATOM     46  H   UNL     1       8.237  -1.031 -14.964  1.00  0.00     0.159 HD
ATOM     47  H   UNL     1       9.450   0.098 -14.525  1.00  0.00     0.159 HD
ATOM     48  H   UNL     1      10.108  -3.866 -14.820  1.00  0.00     0.159 HD
ATOM     49  H   UNL     1       8.750  -3.100 -15.578  1.00  0.00     0.159 HD
ENDBRANCH  41  42
ENDBRANCH  40  41
ENDBRANCH  39  40
ENDBRANCH  38  39
ENDBRANCH  36  38
ENDBRANCH   5  34
BRANCH   8  50
ATOM     50  O   UNL     1       6.693  -2.529 -15.948  1.00  0.00    -0.245 OA
BRANCH  50  51
ATOM     51  S   UNL     1       6.894  -1.803 -17.389  1.00  0.00     0.397 S 
ATOM     52  O   UNL     1       7.557  -2.738 -18.271  1.00  0.00    -0.169 OA
ATOM     53  O   UNL     1       7.395  -0.459 -17.192  1.00  0.00    -0.169 OA
BRANCH  51  54
ATOM     54  O   UNL     1       5.381  -1.694 -17.924  1.00  0.00    -0.264 OA
ATOM     55  H   UNL     1       5.352  -2.089 -18.819  1.00  0.00     0.236 HD
ENDBRANCH  51  54
ENDBRANCH  50  51
ENDBRANCH   8  50
TORSDOF 19
ENDMDL
MODEL 8
REMARK VINA RESULT:    -6.707      3.294      6.851
REMARK INTER + INTRA:         -17.346
REMARK INTER:                 -13.510
REMARK INTRA:                  -3.836
REMARK UNBOUND:                -3.778
REMARK SMILES CC[C@@H](C)[C@@H](NC(=O)[C@@H](O)Cc1ccc(O)c(Cl)c1)C(=O)N1[C@H](C(=O)NCCCCN=C(N)N)C[C@H]2CC[C@H](OS(=O)(=O)O)C[C@@H]21
REMARK SMILES IDX 22 1 36 2 46 3 35 4 23 5 45 6 37 7 39 8 38 9 20 10 21 11
REMARK SMILES IDX 5 12 6 13 7 14 8 15 9 17 11 18 12 19 17 20 19 21 15 22 14 23
REMARK SMILES IDX 13 24 18 25 16 26 10 28 3 30 4 31 2 32 1 33 24 34 25 35
REMARK SMILES IDX 26 36 27 38 28 39 29 40 30 41 31 42 32 43 33 44 34 45 40 50
REMARK SMILES IDX 41 51 42 52 43 53 44 54
REMARK H PARENT 6 16 16 27 10 29 26 37 33 46 33 47 34 48 34 49 44 55
ROOT
ATOM      1  N   UNL     1       6.779  -3.992 -15.448  1.00  0.00    -0.326 N 
ATOM      2  C   UNL     1       6.531  -4.567 -13.179  1.00  0.00     0.014 C 
ATOM      3  C   UNL     1       7.477  -3.877 -14.165  1.00  0.00     0.091 C 
ATOM      4  C   UNL     1       5.929  -5.684 -14.018  1.00  0.00     0.041 C 
ATOM      5  C   UNL     1       5.623  -4.914 -15.316  1.00  0.00     0.175 C 
ATOM      6  C   UNL     1       7.792  -2.479 -13.634  1.00  0.00     0.059 C 
ATOM      7  C   UNL     1       7.249  -4.912 -11.889  1.00  0.00     0.008 C 
ATOM      8  C   UNL     1       7.804  -2.388 -12.093  1.00  0.00     0.143 C 
ATOM      9  C   UNL     1       8.145  -3.740 -11.435  1.00  0.00     0.034 C 
ENDROOT
BRANCH   1  10
ATOM     10  C   UNL     1       7.161  -3.566 -16.709  1.00  0.00     0.246 C 
ATOM     11  O   UNL     1       6.333  -2.997 -17.428  1.00  0.00    -0.272 OA
BRANCH  10  12
ATOM     12  C   UNL     1       8.631  -3.773 -17.175  1.00  0.00     0.174 C 
BRANCH  12  13
ATOM     13  N   UNL     1       9.420  -2.577 -16.884  1.00  0.00    -0.342 N 
ATOM     14  C   UNL     1      10.516  -2.536 -16.051  1.00  0.00     0.249 C 
ATOM     15  O   UNL     1      10.972  -3.516 -15.476  1.00  0.00    -0.272 OA
ATOM     16  H   UNL     1       9.071  -1.663 -17.163  1.00  0.00     0.164 HD
BRANCH  14  17
ATOM     17  C   UNL     1      11.123  -1.122 -15.935  1.00  0.00     0.207 C 
BRANCH  17  18
ATOM     18  C   UNL     1      12.293  -1.121 -14.946  1.00  0.00     0.077 C 
BRANCH  18  19
ATOM     19  C   UNL     1      11.874  -0.626 -13.580  1.00  0.00    -0.043 A 
ATOM     20  C   UNL     1      11.169  -1.081 -11.304  1.00  0.00     0.083 A 
ATOM     21  C   UNL     1      11.603  -1.539 -12.548  1.00  0.00     0.028 A 
ATOM     22  C   UNL     1      11.002   0.286 -11.082  1.00  0.00     0.134 A 
ATOM     23  C   UNL     1      11.267   1.201 -12.094  1.00  0.00     0.048 A 
ATOM     24  C   UNL     1      11.700   0.746 -13.342  1.00  0.00     0.008 A 
ATOM     25  Cl  UNL     1      10.841  -2.218 -10.049  1.00  0.00    -0.080 Cl
BRANCH  22  26
ATOM     26  O   UNL     1      10.569   0.781  -9.882  1.00  0.00    -0.506 OA
ATOM     27  H   UNL     1      11.160   1.523  -9.655  1.00  0.00     0.293 HD
ENDBRANCH  22  26
ENDBRANCH  18  19
ENDBRANCH  17  18
BRANCH  17  28
ATOM     28  O   UNL     1      10.136  -0.169 -15.506  1.00  0.00    -0.383 OA
ATOM     29  H   UNL     1       9.416  -0.693 -15.087  1.00  0.00     0.211 HD
ENDBRANCH  17  28
ENDBRANCH  14  17
ENDBRANCH  12  13
BRANCH  12  30
ATOM     30  C   UNL     1       8.733  -4.203 -18.663  1.00  0.00     0.018 C 
ATOM     31  C   UNL     1       8.072  -5.573 -18.883  1.00  0.00     0.010 C 
BRANCH  30  32
ATOM     32  C   UNL     1      10.182  -4.218 -19.208  1.00  0.00     0.002 C 
ATOM     33  C   UNL     1      11.091  -5.284 -18.610  1.00  0.00     0.004 C 
ENDBRANCH  30  32
ENDBRANCH  12  30
ENDBRANCH  10  12
ENDBRANCH   1  10
BRANCH   5  34
ATOM     34  C   UNL     1       4.294  -4.119 -15.210  1.00  0.00     0.242 C 
ATOM     35  O   UNL     1       3.211  -4.601 -15.540  1.00  0.00    -0.273 OA
ATOM     36  N   UNL     1       4.423  -2.819 -14.773  1.00  0.00    -0.354 N 
ATOM     37  H   UNL     1       5.359  -2.439 -14.630  1.00  0.00     0.163 HD
BRANCH  36  38
ATOM     38  C   UNL     1       3.278  -2.009 -14.412  1.00  0.00     0.116 C 
BRANCH  38  39
ATOM     39  C   UNL     1       3.748  -0.719 -13.742  1.00  0.00     0.023 C 
BRANCH  39  40
ATOM     40  C   UNL     1       5.177  -0.350 -14.125  1.00  0.00     0.026 C 
BRANCH  40  41
ATOM     41  C   UNL     1       5.189   0.610 -15.314  1.00  0.00     0.146 C 
BRANCH  41  42
ATOM     42  N   UNL     1       5.301  -0.146 -16.555  1.00  0.00    -0.254 NA
ATOM     43  C   UNL     1       4.346  -0.108 -17.407  1.00  0.00     0.185 C 
ATOM     44  N   UNL     1       3.173   0.550 -17.364  1.00  0.00    -0.370 N 
ATOM     45  N   UNL     1       4.467  -0.815 -18.543  1.00  0.00    -0.370 N 
ATOM     46  H   UNL     1       2.421   0.297 -17.982  1.00  0.00     0.159 HD
ATOM     47  H   UNL     1       2.924   1.144 -16.580  1.00  0.00     0.159 HD
ATOM     48  H   UNL     1       5.327  -1.334 -18.659  1.00  0.00     0.159 HD
ATOM     49  H   UNL     1       3.887  -0.654 -19.348  1.00  0.00     0.159 HD
ENDBRANCH  41  42
ENDBRANCH  40  41
ENDBRANCH  39  40
ENDBRANCH  38  39
ENDBRANCH  36  38
ENDBRANCH   5  34
BRANCH   8  50
ATOM     50  O   UNL     1       6.527  -1.961 -11.618  1.00  0.00    -0.245 OA
BRANCH  50  51
ATOM     51  S   UNL     1       6.413  -1.225 -10.172  1.00  0.00     0.397 S 
ATOM     52  O   UNL     1       7.659  -0.535  -9.923  1.00  0.00    -0.169 OA
ATOM     53  O   UNL     1       5.845  -2.139  -9.204  1.00  0.00    -0.169 OA
BRANCH  51  54
ATOM     54  O   UNL     1       5.327  -0.076 -10.465  1.00  0.00    -0.264 OA
ATOM     55  H   UNL     1       4.689  -0.072  -9.723  1.00  0.00     0.236 HD
ENDBRANCH  51  54
ENDBRANCH  50  51
ENDBRANCH   8  50
TORSDOF 19
ENDMDL
MODEL 9
REMARK VINA RESULT:    -6.667      3.517      6.567
REMARK INTER + INTRA:         -17.266
REMARK INTER:                 -13.450
REMARK INTRA:                  -3.816
REMARK UNBOUND:                -3.778
REMARK SMILES CC[C@@H](C)[C@@H](NC(=O)[C@@H](O)Cc1ccc(O)c(Cl)c1)C(=O)N1[C@H](C(=O)NCCCCN=C(N)N)C[C@H]2CC[C@H](OS(=O)(=O)O)C[C@@H]21
REMARK SMILES IDX 22 1 36 2 46 3 35 4 23 5 45 6 37 7 39 8 38 9 20 10 21 11
REMARK SMILES IDX 5 12 6 13 7 14 8 15 9 17 11 18 12 19 17 20 19 21 15 22 14 23
REMARK SMILES IDX 13 24 18 25 16 26 10 28 3 30 4 31 2 32 1 33 24 34 25 35
REMARK SMILES IDX 26 36 27 38 28 39 29 40 30 41 31 42 32 43 33 44 34 45 40 50
REMARK SMILES IDX 41 51 42 52 43 53 44 54
REMARK H PARENT 6 16 16 27 10 29 26 37 33 46 33 47 34 48 34 49 44 55
ROOT
ATOM      1  N   UNL     1       8.008  -0.988 -15.415  1.00  0.00    -0.326 N 
ATOM      2  C   UNL     1       6.269   0.249 -16.409  1.00  0.00     0.014 C 
ATOM      3  C   UNL     1       7.228   0.237 -15.215  1.00  0.00     0.091 C 
ATOM      4  C   UNL     1       5.980  -1.228 -16.622  1.00  0.00     0.041 C 
ATOM      5  C   UNL     1       7.402  -1.806 -16.495  1.00  0.00     0.175 C 
ATOM      6  C   UNL     1       7.972   1.571 -15.178  1.00  0.00     0.059 C 
ATOM      7  C   UNL     1       5.118   1.206 -16.169  1.00  0.00     0.008 C 
ATOM      8  C   UNL     1       7.142   2.759 -15.710  1.00  0.00     0.143 C 
ATOM      9  C   UNL     1       5.626   2.525 -15.550  1.00  0.00     0.034 C 
ENDROOT
BRANCH   1  10
ATOM     10  C   UNL     1       9.016  -1.535 -14.640  1.00  0.00     0.246 C 
ATOM     11  O   UNL     1      10.177  -1.515 -15.062  1.00  0.00    -0.272 OA
BRANCH  10  12
ATOM     12  C   UNL     1       8.674  -2.124 -13.240  1.00  0.00     0.174 C 
BRANCH  12  13
ATOM     13  N   UNL     1       7.375  -2.795 -13.286  1.00  0.00    -0.342 N 
ATOM     14  C   UNL     1       7.186  -4.133 -13.548  1.00  0.00     0.249 C 
ATOM     15  O   UNL     1       8.098  -4.925 -13.747  1.00  0.00    -0.272 OA
ATOM     16  H   UNL     1       6.522  -2.241 -13.295  1.00  0.00     0.164 HD
BRANCH  14  17
ATOM     17  C   UNL     1       5.696  -4.536 -13.543  1.00  0.00     0.207 C 
BRANCH  17  18
ATOM     18  C   UNL     1       4.981  -3.960 -14.770  1.00  0.00     0.077 C 
BRANCH  18  19
ATOM     19  C   UNL     1       3.517  -3.699 -14.496  1.00  0.00    -0.043 A 
ATOM     20  C   UNL     1       1.753  -2.223 -13.726  1.00  0.00     0.083 A 
ATOM     21  C   UNL     1       3.098  -2.445 -14.024  1.00  0.00     0.028 A 
ATOM     22  C   UNL     1       0.821  -3.248 -13.895  1.00  0.00     0.134 A 
ATOM     23  C   UNL     1       1.223  -4.494 -14.362  1.00  0.00     0.048 A 
ATOM     24  C   UNL     1       2.569  -4.720 -14.660  1.00  0.00     0.008 A 
ATOM     25  Cl  UNL     1       1.257  -0.676 -13.147  1.00  0.00    -0.080 Cl
BRANCH  22  26
ATOM     26  O   UNL     1      -0.506  -3.080 -13.606  1.00  0.00    -0.506 OA
ATOM     27  H   UNL     1      -0.785  -2.253 -14.040  1.00  0.00     0.293 HD
ENDBRANCH  22  26
ENDBRANCH  18  19
ENDBRANCH  17  18
BRANCH  17  28
ATOM     28  O   UNL     1       5.039  -4.076 -12.350  1.00  0.00    -0.383 OA
ATOM     29  H   UNL     1       5.519  -4.493 -11.598  1.00  0.00     0.211 HD
ENDBRANCH  17  28
ENDBRANCH  14  17
ENDBRANCH  12  13
BRANCH  12  30
ATOM     30  C   UNL     1       8.754  -1.064 -12.108  1.00  0.00     0.018 C 
ATOM     31  C   UNL     1       7.363  -0.492 -11.796  1.00  0.00     0.010 C 
BRANCH  30  32
ATOM     32  C   UNL     1       9.749   0.085 -12.402  1.00  0.00     0.002 C 
ATOM     33  C   UNL     1      11.155  -0.113 -11.851  1.00  0.00     0.004 C 
ENDBRANCH  30  32
ENDBRANCH  12  30
ENDBRANCH  10  12
ENDBRANCH   1  10
BRANCH   5  34
ATOM     34  C   UNL     1       8.201  -1.653 -17.816  1.00  0.00     0.242 C 
ATOM     35  O   UNL     1       7.725  -1.951 -18.911  1.00  0.00    -0.273 OA
ATOM     36  N   UNL     1       9.497  -1.212 -17.669  1.00  0.00    -0.354 N 
ATOM     37  H   UNL     1       9.873  -1.097 -16.727  1.00  0.00     0.163 HD
BRANCH  36  38
ATOM     38  C   UNL     1      10.310  -0.810 -18.798  1.00  0.00     0.116 C 
BRANCH  38  39
ATOM     39  C   UNL     1      11.361  -1.879 -19.087  1.00  0.00     0.023 C 
BRANCH  39  40
ATOM     40  C   UNL     1      11.919  -2.506 -17.814  1.00  0.00     0.026 C 
BRANCH  40  41
ATOM     41  C   UNL     1      11.751  -4.025 -17.840  1.00  0.00     0.146 C 
BRANCH  41  42
ATOM     42  N   UNL     1      10.335  -4.365 -17.793  1.00  0.00    -0.254 NA
ATOM     43  C   UNL     1       9.869  -5.001 -16.785  1.00  0.00     0.185 C 
ATOM     44  N   UNL     1      10.493  -5.445 -15.678  1.00  0.00    -0.370 N 
ATOM     45  N   UNL     1       8.562  -5.309 -16.763  1.00  0.00    -0.370 N 
ATOM     46  H   UNL     1      10.061  -6.136 -15.089  1.00  0.00     0.159 HD
ATOM     47  H   UNL     1      11.484  -5.286 -15.525  1.00  0.00     0.159 HD
ATOM     48  H   UNL     1       8.016  -5.002 -17.558  1.00  0.00     0.159 HD
ATOM     49  H   UNL     1       8.082  -5.585 -15.926  1.00  0.00     0.159 HD
ENDBRANCH  41  42
ENDBRANCH  40  41
ENDBRANCH  39  40
ENDBRANCH  38  39
ENDBRANCH  36  38
ENDBRANCH   5  34
BRANCH   8  50
ATOM     50  O   UNL     1       7.424   2.975 -17.093  1.00  0.00    -0.245 OA
BRANCH  50  51
ATOM     51  S   UNL     1       7.505   4.494 -17.668  1.00  0.00     0.397 S 
ATOM     52  O   UNL     1       8.187   5.307 -16.687  1.00  0.00    -0.169 OA
ATOM     53  O   UNL     1       6.218   4.877 -18.211  1.00  0.00    -0.169 OA
BRANCH  51  54
ATOM     54  O   UNL     1       8.533   4.333 -18.894  1.00  0.00    -0.264 OA
ATOM     55  H   UNL     1       9.178   3.637 -18.654  1.00  0.00     0.236 HD
ENDBRANCH  51  54
ENDBRANCH  50  51
ENDBRANCH   8  50
TORSDOF 19
ENDMDL
MODEL 10
REMARK VINA RESULT:    -6.638      3.408      7.005
REMARK INTER + INTRA:         -17.207
REMARK INTER:                 -13.175
REMARK INTRA:                  -4.032
REMARK UNBOUND:                -3.778
REMARK SMILES CC[C@@H](C)[C@@H](NC(=O)[C@@H](O)Cc1ccc(O)c(Cl)c1)C(=O)N1[C@H](C(=O)NCCCCN=C(N)N)C[C@H]2CC[C@H](OS(=O)(=O)O)C[C@@H]21
REMARK SMILES IDX 22 1 36 2 46 3 35 4 23 5 45 6 37 7 39 8 38 9 20 10 21 11
REMARK SMILES IDX 5 12 6 13 7 14 8 15 9 17 11 18 12 19 17 20 19 21 15 22 14 23
REMARK SMILES IDX 13 24 18 25 16 26 10 28 3 30 4 31 2 32 1 33 24 34 25 35
REMARK SMILES IDX 26 36 27 38 28 39 29 40 30 41 31 42 32 43 33 44 34 45 40 50
REMARK SMILES IDX 41 51 42 52 43 53 44 54
REMARK H PARENT 6 16 16 27 10 29 26 37 33 46 33 47 34 48 34 49 44 55
ROOT
ATOM      1  N   UNL     1       6.956  -3.997 -15.557  1.00  0.00    -0.326 N 
ATOM      2  C   UNL     1       6.827  -4.235 -13.219  1.00  0.00     0.014 C 
ATOM      3  C   UNL     1       7.694  -3.652 -14.338  1.00  0.00     0.091 C 
ATOM      4  C   UNL     1       6.263  -5.496 -13.854  1.00  0.00     0.041 C 
ATOM      5  C   UNL     1       5.864  -4.949 -15.237  1.00  0.00     0.175 C 
ATOM      6  C   UNL     1       7.943  -2.175 -14.037  1.00  0.00     0.059 C 
ATOM      7  C   UNL     1       7.612  -4.341 -11.926  1.00  0.00     0.008 C 
ATOM      8  C   UNL     1       8.006  -1.851 -12.528  1.00  0.00     0.143 C 
ATOM      9  C   UNL     1       8.452  -3.068 -11.692  1.00  0.00     0.034 C 
ENDROOT
BRANCH   1  10
ATOM     10  C   UNL     1       7.266  -3.746 -16.883  1.00  0.00     0.246 C 
ATOM     11  O   UNL     1       6.438  -3.168 -17.595  1.00  0.00    -0.272 OA
BRANCH  10  12
ATOM     12  C   UNL     1       8.661  -4.158 -17.436  1.00  0.00     0.174 C 
BRANCH  12  13
ATOM     13  N   UNL     1       9.584  -3.026 -17.353  1.00  0.00    -0.342 N 
ATOM     14  C   UNL     1      10.683  -2.962 -16.525  1.00  0.00     0.249 C 
ATOM     15  O   UNL     1      11.028  -3.869 -15.778  1.00  0.00    -0.272 OA
ATOM     16  H   UNL     1       9.340  -2.144 -17.795  1.00  0.00     0.164 HD
BRANCH  14  17
ATOM     17  C   UNL     1      11.449  -1.628 -16.655  1.00  0.00     0.207 C 
BRANCH  17  18
ATOM     18  C   UNL     1      12.567  -1.549 -15.611  1.00  0.00     0.077 C 
BRANCH  18  19
ATOM     19  C   UNL     1      12.127  -0.800 -14.373  1.00  0.00    -0.043 A 
ATOM     20  C   UNL     1      11.805   1.289 -13.182  1.00  0.00     0.083 A 
ATOM     21  C   UNL     1      12.165   0.603 -14.343  1.00  0.00     0.028 A 
ATOM     22  C   UNL     1      11.408   0.581 -12.047  1.00  0.00     0.134 A 
ATOM     23  C   UNL     1      11.366  -0.808 -12.063  1.00  0.00     0.048 A 
ATOM     24  C   UNL     1      11.727  -1.498 -13.223  1.00  0.00     0.008 A 
ATOM     25  Cl  UNL     1      11.859   3.013 -13.164  1.00  0.00    -0.080 Cl
BRANCH  22  26
ATOM     26  O   UNL     1      11.057   1.209 -10.883  1.00  0.00    -0.506 OA
ATOM     27  H   UNL     1      11.217   2.162 -11.019  1.00  0.00     0.293 HD
ENDBRANCH  22  26
ENDBRANCH  18  19
ENDBRANCH  17  18
BRANCH  17  28
ATOM     28  O   UNL     1      10.565  -0.507 -16.494  1.00  0.00    -0.383 OA
ATOM     29  H   UNL     1      10.745   0.092 -17.255  1.00  0.00     0.211 HD
ENDBRANCH  17  28
ENDBRANCH  14  17
ENDBRANCH  12  13
BRANCH  12  30
ATOM     30  C   UNL     1       8.587  -4.757 -18.866  1.00  0.00     0.018 C 
ATOM     31  C   UNL     1       7.665  -5.987 -18.896  1.00  0.00     0.010 C 
BRANCH  30  32
ATOM     32  C   UNL     1       9.970  -5.115 -19.463  1.00  0.00     0.002 C 
ATOM     33  C   UNL     1      10.462  -6.526 -19.167  1.00  0.00     0.004 C 
ENDBRANCH  30  32
ENDBRANCH  12  30
ENDBRANCH  10  12
ENDBRANCH   1  10
BRANCH   5  34
ATOM     34  C   UNL     1       4.495  -4.219 -15.191  1.00  0.00     0.242 C 
ATOM     35  O   UNL     1       4.368  -3.038 -15.511  1.00  0.00    -0.273 OA
ATOM     36  N   UNL     1       3.445  -4.973 -14.715  1.00  0.00    -0.354 N 
ATOM     37  H   UNL     1       3.637  -5.908 -14.353  1.00  0.00     0.163 HD
BRANCH  36  38
ATOM     38  C   UNL     1       2.070  -4.528 -14.805  1.00  0.00     0.116 C 
BRANCH  38  39
ATOM     39  C   UNL     1       1.402  -4.630 -13.436  1.00  0.00     0.023 C 
BRANCH  39  40
ATOM     40  C   UNL     1       0.433  -3.482 -13.174  1.00  0.00     0.026 C 
BRANCH  40  41
ATOM     41  C   UNL     1       1.108  -2.379 -12.357  1.00  0.00     0.146 C 
BRANCH  41  42
ATOM     42  N   UNL     1       2.156  -2.955 -11.525  1.00  0.00    -0.254 NA
ATOM     43  C   UNL     1       3.380  -2.656 -11.752  1.00  0.00     0.185 C 
ATOM     44  N   UNL     1       3.915  -1.848 -12.686  1.00  0.00    -0.370 N 
ATOM     45  N   UNL     1       4.332  -3.200 -10.976  1.00  0.00    -0.370 N 
ATOM     46  H   UNL     1       4.895  -1.897 -12.905  1.00  0.00     0.159 HD
ATOM     47  H   UNL     1       3.335  -1.344 -13.349  1.00  0.00     0.159 HD
ATOM     48  H   UNL     1       4.013  -3.816 -10.240  1.00  0.00     0.159 HD
ATOM     49  H   UNL     1       5.269  -2.842 -10.933  1.00  0.00     0.159 HD
ENDBRANCH  41  42
ENDBRANCH  40  41
ENDBRANCH  39  40
ENDBRANCH  38  39
ENDBRANCH  36  38
ENDBRANCH   5  34
BRANCH   8  50
ATOM     50  O   UNL     1       6.724  -1.427 -12.064  1.00  0.00    -0.245 OA
BRANCH  50  51
ATOM     51  S   UNL     1       6.612  -0.568 -10.688  1.00  0.00     0.397 S 
ATOM     52  O   UNL     1       7.591   0.495 -10.744  1.00  0.00    -0.169 OA
ATOM     53  O   UNL     1       6.534  -1.469  -9.557  1.00  0.00    -0.169 OA
BRANCH  51  54
ATOM     54  O   UNL     1       5.181   0.146 -10.853  1.00  0.00    -0.264 OA
ATOM     55  H   UNL     1       4.877  -0.004 -11.771  1.00  0.00     0.236 HD
ENDBRANCH  51  54
ENDBRANCH  50  51
ENDBRANCH   8  50
TORSDOF 19
ENDMDL
MODEL 11
REMARK VINA RESULT:    -6.629      2.440      3.312
REMARK INTER + INTRA:         -17.189
REMARK INTER:                 -12.866
REMARK INTRA:                  -4.323
REMARK UNBOUND:                -3.778
REMARK SMILES CC[C@@H](C)[C@@H](NC(=O)[C@@H](O)Cc1ccc(O)c(Cl)c1)C(=O)N1[C@H](C(=O)NCCCCN=C(N)N)C[C@H]2CC[C@H](OS(=O)(=O)O)C[C@@H]21
REMARK SMILES IDX 22 1 36 2 46 3 35 4 23 5 45 6 37 7 39 8 38 9 20 10 21 11
REMARK SMILES IDX 5 12 6 13 7 14 8 15 9 17 11 18 12 19 17 20 19 21 15 22 14 23
REMARK SMILES IDX 13 24 18 25 16 26 10 28 3 30 4 31 2 32 1 33 24 34 25 35
REMARK SMILES IDX 26 36 27 38 28 39 29 40 30 41 31 42 32 43 33 44 34 45 40 50
REMARK SMILES IDX 41 51 42 52 43 53 44 54
REMARK H PARENT 6 16 16 27 10 29 26 37 33 46 33 47 34 48 34 49 44 55
ROOT
ATOM      1  N   UNL     1       9.721  -1.109 -16.257  1.00  0.00    -0.326 N 
ATOM      2  C   UNL     1      10.590  -1.939 -18.281  1.00  0.00     0.014 C 
ATOM      3  C   UNL     1      10.835  -1.912 -16.770  1.00  0.00     0.091 C 
ATOM      4  C   UNL     1       9.997  -0.565 -18.550  1.00  0.00     0.041 C 
ATOM      5  C   UNL     1       8.997  -0.467 -17.382  1.00  0.00     0.175 C 
ATOM      6  C   UNL     1      10.977  -3.351 -16.278  1.00  0.00     0.059 C 
ATOM      7  C   UNL     1      11.840  -2.368 -19.025  1.00  0.00     0.008 C 
ATOM      8  C   UNL     1      11.604  -4.304 -17.318  1.00  0.00     0.143 C 
ATOM      9  C   UNL     1      12.516  -3.558 -18.313  1.00  0.00     0.034 C 
ENDROOT
BRANCH   1  10
ATOM     10  C   UNL     1       9.425  -0.728 -14.959  1.00  0.00     0.246 C 
ATOM     11  O   UNL     1       8.670   0.233 -14.772  1.00  0.00    -0.272 OA
BRANCH  10  12
ATOM     12  C   UNL     1      10.012  -1.540 -13.769  1.00  0.00     0.174 C 
BRANCH  12  13
ATOM     13  N   UNL     1       9.021  -1.641 -12.698  1.00  0.00    -0.342 N 
ATOM     14  C   UNL     1       8.255  -2.754 -12.432  1.00  0.00     0.249 C 
ATOM     15  O   UNL     1       8.340  -3.805 -13.055  1.00  0.00    -0.272 OA
ATOM     16  H   UNL     1       8.730  -0.803 -12.200  1.00  0.00     0.164 HD
BRANCH  14  17
ATOM     17  C   UNL     1       7.289  -2.543 -11.248  1.00  0.00     0.207 C 
BRANCH  17  18
ATOM     18  C   UNL     1       6.077  -1.713 -11.686  1.00  0.00     0.077 C 
BRANCH  18  19
ATOM     19  C   UNL     1       4.783  -2.282 -11.149  1.00  0.00    -0.043 A 
ATOM     20  C   UNL     1       2.364  -2.448 -11.234  1.00  0.00     0.083 A 
ATOM     21  C   UNL     1       3.561  -1.962 -11.761  1.00  0.00     0.028 A 
ATOM     22  C   UNL     1       2.380  -3.253 -10.094  1.00  0.00     0.134 A 
ATOM     23  C   UNL     1       3.583  -3.578  -9.478  1.00  0.00     0.048 A 
ATOM     24  C   UNL     1       4.782  -3.091 -10.003  1.00  0.00     0.008 A 
ATOM     25  Cl  UNL     1       0.873  -2.043 -12.000  1.00  0.00    -0.080 Cl
BRANCH  22  26
ATOM     26  O   UNL     1       1.231  -3.744  -9.534  1.00  0.00    -0.506 OA
ATOM     27  H   UNL     1       0.846  -3.021  -9.006  1.00  0.00     0.293 HD
ENDBRANCH  22  26
ENDBRANCH  18  19
ENDBRANCH  17  18
BRANCH  17  28
ATOM     28  O   UNL     1       7.947  -1.884 -10.154  1.00  0.00    -0.383 OA
ATOM     29  H   UNL     1       8.621  -1.292 -10.559  1.00  0.00     0.211 HD
ENDBRANCH  17  28
ENDBRANCH  14  17
ENDBRANCH  12  13
BRANCH  12  30
ATOM     30  C   UNL     1      11.369  -0.976 -13.269  1.00  0.00     0.018 C 
ATOM     31  C   UNL     1      11.753  -1.595 -11.916  1.00  0.00     0.010 C 
BRANCH  30  32
ATOM     32  C   UNL     1      11.404   0.569 -13.176  1.00  0.00     0.002 C 
ATOM     33  C   UNL     1      11.136   1.144 -11.791  1.00  0.00     0.004 C 
ENDBRANCH  30  32
ENDBRANCH  12  30
ENDBRANCH  10  12
ENDBRANCH   1  10
BRANCH   5  34
ATOM     34  C   UNL     1       7.679  -1.225 -17.693  1.00  0.00     0.242 C 
ATOM     35  O   UNL     1       7.554  -1.951 -18.679  1.00  0.00    -0.273 OA
ATOM     36  N   UNL     1       6.644  -0.983 -16.818  1.00  0.00    -0.354 N 
ATOM     37  H   UNL     1       6.771  -0.279 -16.089  1.00  0.00     0.163 HD
BRANCH  36  38
ATOM     38  C   UNL     1       5.423  -1.762 -16.829  1.00  0.00     0.116 C 
BRANCH  38  39
ATOM     39  C   UNL     1       4.812  -1.788 -15.430  1.00  0.00     0.023 C 
BRANCH  39  40
ATOM     40  C   UNL     1       4.856  -3.177 -14.801  1.00  0.00     0.026 C 
BRANCH  40  41
ATOM     41  C   UNL     1       5.240  -4.231 -15.840  1.00  0.00     0.146 C 
BRANCH  41  42
ATOM     42  N   UNL     1       6.452  -4.921 -15.416  1.00  0.00    -0.254 NA
ATOM     43  C   UNL     1       7.404  -5.098 -16.253  1.00  0.00     0.185 C 
ATOM     44  N   UNL     1       7.499  -4.737 -17.546  1.00  0.00    -0.370 N 
ATOM     45  N   UNL     1       8.511  -5.740 -15.844  1.00  0.00    -0.370 N 
ATOM     46  H   UNL     1       8.193  -5.151 -18.144  1.00  0.00     0.159 HD
ATOM     47  H   UNL     1       6.755  -4.229 -18.013  1.00  0.00     0.159 HD
ATOM     48  H   UNL     1       8.525  -6.039 -14.879  1.00  0.00     0.159 HD
ATOM     49  H   UNL     1       9.377  -5.709 -16.353  1.00  0.00     0.159 HD
ENDBRANCH  41  42
ENDBRANCH  40  41
ENDBRANCH  39  40
ENDBRANCH  38  39
ENDBRANCH  36  38
ENDBRANCH   5  34
BRANCH   8  50
ATOM     50  O   UNL     1      10.577  -4.968 -18.055  1.00  0.00    -0.245 OA
BRANCH  50  51
ATOM     51  S   UNL     1      10.740  -6.546 -18.416  1.00  0.00     0.397 S 
ATOM     52  O   UNL     1      10.920  -7.271 -17.179  1.00  0.00    -0.169 OA
ATOM     53  O   UNL     1      11.657  -6.698 -19.527  1.00  0.00    -0.169 OA
BRANCH  51  54
ATOM     54  O   UNL     1       9.266  -6.925 -18.935  1.00  0.00    -0.264 OA
ATOM     55  H   UNL     1       8.620  -6.524 -18.318  1.00  0.00     0.236 HD
ENDBRANCH  51  54
ENDBRANCH  50  51
ENDBRANCH   8  50
TORSDOF 19
ENDMDL
MODEL 12
REMARK VINA RESULT:    -6.495      3.265      4.861
REMARK INTER + INTRA:         -16.917
REMARK INTER:                 -12.148
REMARK INTRA:                  -4.768
REMARK UNBOUND:                -3.778
REMARK SMILES CC[C@@H](C)[C@@H](NC(=O)[C@@H](O)Cc1ccc(O)c(Cl)c1)C(=O)N1[C@H](C(=O)NCCCCN=C(N)N)C[C@H]2CC[C@H](OS(=O)(=O)O)C[C@@H]21
REMARK SMILES IDX 22 1 36 2 46 3 35 4 23 5 45 6 37 7 39 8 38 9 20 10 21 11
REMARK SMILES IDX 5 12 6 13 7 14 8 15 9 17 11 18 12 19 17 20 19 21 15 22 14 23
REMARK SMILES IDX 13 24 18 25 16 26 10 28 3 30 4 31 2 32 1 33 24 34 25 35
REMARK SMILES IDX 26 36 27 38 28 39 29 40 30 41 31 42 32 43 33 44 34 45 40 50
REMARK SMILES IDX 41 51 42 52 43 53 44 54
REMARK H PARENT 6 16 16 27 10 29 26 37 33 46 33 47 34 48 34 49 44 55
ROOT
ATOM      1  N   UNL     1       7.100  -2.954 -13.758  1.00  0.00    -0.326 N 
ATOM      2  C   UNL     1       6.486  -1.896 -15.770  1.00  0.00     0.014 C 
ATOM      3  C   UNL     1       7.699  -2.346 -14.950  1.00  0.00     0.091 C 
ATOM      4  C   UNL     1       5.489  -1.487 -14.697  1.00  0.00     0.041 C 
ATOM      5  C   UNL     1       5.645  -2.664 -13.717  1.00  0.00     0.175 C 
ATOM      6  C   UNL     1       8.587  -3.215 -15.838  1.00  0.00     0.059 C 
ATOM      7  C   UNL     1       6.891  -0.892 -16.831  1.00  0.00     0.008 C 
ATOM      8  C   UNL     1       8.551  -2.819 -17.330  1.00  0.00     0.143 C 
ATOM      9  C   UNL     1       8.196  -1.331 -17.527  1.00  0.00     0.034 C 
ENDROOT
BRANCH   1  10
ATOM     10  C   UNL     1       7.707  -3.520 -12.651  1.00  0.00     0.246 C 
ATOM     11  O   UNL     1       8.135  -4.677 -12.725  1.00  0.00    -0.272 OA
BRANCH  10  12
ATOM     12  C   UNL     1       7.877  -2.677 -11.354  1.00  0.00     0.174 C 
BRANCH  12  13
ATOM     13  N   UNL     1       7.044  -1.477 -11.427  1.00  0.00    -0.342 N 
ATOM     14  C   UNL     1       6.188  -1.047 -10.438  1.00  0.00     0.249 C 
ATOM     15  O   UNL     1       6.048  -1.616  -9.362  1.00  0.00    -0.272 OA
ATOM     16  H   UNL     1       6.936  -0.992 -12.315  1.00  0.00     0.164 HD
BRANCH  14  17
ATOM     17  C   UNL     1       5.435   0.244 -10.822  1.00  0.00     0.207 C 
BRANCH  17  18
ATOM     18  C   UNL     1       6.423   1.330 -11.262  1.00  0.00     0.077 C 
BRANCH  18  19
ATOM     19  C   UNL     1       6.296   1.640 -12.736  1.00  0.00    -0.043 A 
ATOM     20  C   UNL     1       7.324   2.026 -14.900  1.00  0.00     0.083 A 
ATOM     21  C   UNL     1       7.439   1.691 -13.550  1.00  0.00     0.028 A 
ATOM     22  C   UNL     1       6.071   2.313 -15.443  1.00  0.00     0.134 A 
ATOM     23  C   UNL     1       4.931   2.266 -14.649  1.00  0.00     0.048 A 
ATOM     24  C   UNL     1       5.044   1.932 -13.298  1.00  0.00     0.008 A 
ATOM     25  Cl  UNL     1       8.739   2.085 -15.883  1.00  0.00    -0.080 Cl
BRANCH  22  26
ATOM     26  O   UNL     1       5.910   2.657 -16.758  1.00  0.00    -0.506 OA
ATOM     27  H   UNL     1       6.799   2.854 -17.107  1.00  0.00     0.293 HD
ENDBRANCH  22  26
ENDBRANCH  18  19
ENDBRANCH  17  18
BRANCH  17  28
ATOM     28  O   UNL     1       4.650   0.732  -9.721  1.00  0.00    -0.383 OA
ATOM     29  H   UNL     1       5.150   0.499  -8.906  1.00  0.00     0.211 HD
ENDBRANCH  17  28
ENDBRANCH  14  17
ENDBRANCH  12  13
BRANCH  12  30
ATOM     30  C   UNL     1       9.362  -2.350 -11.040  1.00  0.00     0.018 C 
ATOM     31  C   UNL     1       9.611  -2.339  -9.524  1.00  0.00     0.010 C 
BRANCH  30  32
ATOM     32  C   UNL     1       9.851  -1.022 -11.669  1.00  0.00     0.002 C 
ATOM     33  C   UNL     1      11.054  -1.145 -12.595  1.00  0.00     0.004 C 
ENDBRANCH  30  32
ENDBRANCH  12  30
ENDBRANCH  10  12
ENDBRANCH   1  10
BRANCH   5  34
ATOM     34  C   UNL     1       4.825  -3.901 -14.172  1.00  0.00     0.242 C 
ATOM     35  O   UNL     1       5.276  -5.045 -14.120  1.00  0.00    -0.273 OA
ATOM     36  N   UNL     1       3.579  -3.619 -14.686  1.00  0.00    -0.354 N 
ATOM     37  H   UNL     1       3.309  -2.643 -14.814  1.00  0.00     0.163 HD
BRANCH  36  38
ATOM     38  C   UNL     1       2.602  -4.654 -14.955  1.00  0.00     0.116 C 
BRANCH  38  39
ATOM     39  C   UNL     1       1.371  -4.447 -14.076  1.00  0.00     0.023 C 
BRANCH  39  40
ATOM     40  C   UNL     1       1.229  -3.004 -13.604  1.00  0.00     0.026 C 
BRANCH  40  41
ATOM     41  C   UNL     1       1.257  -2.928 -12.077  1.00  0.00     0.146 C 
BRANCH  41  42
ATOM     42  N   UNL     1       2.415  -3.651 -11.569  1.00  0.00    -0.254 NA
ATOM     43  C   UNL     1       3.074  -3.175 -10.580  1.00  0.00     0.185 C 
ATOM     44  N   UNL     1       2.878  -2.048  -9.871  1.00  0.00    -0.370 N 
ATOM     45  N   UNL     1       4.142  -3.854 -10.129  1.00  0.00    -0.370 N 
ATOM     46  H   UNL     1       3.608  -1.676  -9.287  1.00  0.00     0.159 HD
ATOM     47  H   UNL     1       2.104  -1.421 -10.070  1.00  0.00     0.159 HD
ATOM     48  H   UNL     1       4.355  -4.721 -10.604  1.00  0.00     0.159 HD
ATOM     49  H   UNL     1       4.558  -3.679  -9.232  1.00  0.00     0.159 HD
ENDBRANCH  41  42
ENDBRANCH  40  41
ENDBRANCH  39  40
ENDBRANCH  38  39
ENDBRANCH  36  38
ENDBRANCH   5  34
BRANCH   8  50
ATOM     50  O   UNL     1       7.586  -3.611 -18.024  1.00  0.00    -0.245 OA
BRANCH  50  51
ATOM     51  S   UNL     1       7.770  -5.226 -18.091  1.00  0.00     0.397 S 
ATOM     52  O   UNL     1       9.155  -5.529 -17.808  1.00  0.00    -0.169 OA
ATOM     53  O   UNL     1       7.104  -5.743 -19.268  1.00  0.00    -0.169 OA
BRANCH  51  54
ATOM     54  O   UNL     1       6.943  -5.711 -16.800  1.00  0.00    -0.264 OA
ATOM     55  H   UNL     1       6.095  -6.087 -17.113  1.00  0.00     0.236 HD
ENDBRANCH  51  54
ENDBRANCH  50  51
ENDBRANCH   8  50
TORSDOF 19
ENDMDL
MODEL 13
REMARK VINA RESULT:    -6.353      2.616      5.128
REMARK INTER + INTRA:         -16.630
REMARK INTER:                 -11.907
REMARK INTRA:                  -4.723
REMARK UNBOUND:                -3.778
REMARK SMILES CC[C@@H](C)[C@@H](NC(=O)[C@@H](O)Cc1ccc(O)c(Cl)c1)C(=O)N1[C@H](C(=O)NCCCCN=C(N)N)C[C@H]2CC[C@H](OS(=O)(=O)O)C[C@@H]21
REMARK SMILES IDX 22 1 36 2 46 3 35 4 23 5 45 6 37 7 39 8 38 9 20 10 21 11
REMARK SMILES IDX 5 12 6 13 7 14 8 15 9 17 11 18 12 19 17 20 19 21 15 22 14 23
REMARK SMILES IDX 13 24 18 25 16 26 10 28 3 30 4 31 2 32 1 33 24 34 25 35
REMARK SMILES IDX 26 36 27 38 28 39 29 40 30 41 31 42 32 43 33 44 34 45 40 50
REMARK SMILES IDX 41 51 42 52 43 53 44 54
REMARK H PARENT 6 16 16 27 10 29 26 37 33 46 33 47 34 48 34 49 44 55
ROOT
ATOM      1  N   UNL     1       6.652  -2.471 -15.851  1.00  0.00    -0.326 N 
ATOM      2  C   UNL     1       7.135  -4.706 -16.412  1.00  0.00     0.014 C 
ATOM      3  C   UNL     1       7.160  -3.278 -16.965  1.00  0.00     0.091 C 
ATOM      4  C   UNL     1       5.905  -4.698 -15.518  1.00  0.00     0.041 C 
ATOM      5  C   UNL     1       6.105  -3.354 -14.792  1.00  0.00     0.175 C 
ATOM      6  C   UNL     1       8.565  -2.986 -17.489  1.00  0.00     0.059 C 
ATOM      7  C   UNL     1       7.233  -5.722 -17.533  1.00  0.00     0.008 C 
ATOM      8  C   UNL     1       9.288  -4.229 -18.052  1.00  0.00     0.143 C 
ATOM      9  C   UNL     1       8.296  -5.293 -18.566  1.00  0.00     0.034 C 
ENDROOT
BRANCH   1  10
ATOM     10  C   UNL     1       6.433  -1.106 -15.772  1.00  0.00     0.246 C 
ATOM     11  O   UNL     1       5.443  -0.622 -16.331  1.00  0.00    -0.272 OA
BRANCH  10  12
ATOM     12  C   UNL     1       7.410  -0.219 -14.947  1.00  0.00     0.174 C 
BRANCH  12  13
ATOM     13  N   UNL     1       8.668  -0.933 -14.728  1.00  0.00    -0.342 N 
ATOM     14  C   UNL     1       9.869  -0.618 -15.322  1.00  0.00     0.249 C 
ATOM     15  O   UNL     1      10.025   0.324 -16.088  1.00  0.00    -0.272 OA
ATOM     16  H   UNL     1       8.661  -1.827 -14.243  1.00  0.00     0.164 HD
BRANCH  14  17
ATOM     17  C   UNL     1      11.009  -1.571 -14.902  1.00  0.00     0.207 C 
BRANCH  17  18
ATOM     18  C   UNL     1      12.098  -0.802 -14.147  1.00  0.00     0.077 C 
BRANCH  18  19
ATOM     19  C   UNL     1      11.670  -0.460 -12.737  1.00  0.00    -0.043 A 
ATOM     20  C   UNL     1      10.901  -1.160 -10.546  1.00  0.00     0.083 A 
ATOM     21  C   UNL     1      11.342  -1.480 -11.830  1.00  0.00     0.028 A 
ATOM     22  C   UNL     1      10.782   0.176 -10.161  1.00  0.00     0.134 A 
ATOM     23  C   UNL     1      11.104   1.196 -11.049  1.00  0.00     0.048 A 
ATOM     24  C   UNL     1      11.545   0.878 -12.336  1.00  0.00     0.008 A 
ATOM     25  Cl  UNL     1      10.502  -2.426  -9.445  1.00  0.00    -0.080 Cl
BRANCH  22  26
ATOM     26  O   UNL     1      10.344   0.539  -8.916  1.00  0.00    -0.506 OA
ATOM     27  H   UNL     1      10.397  -0.258  -8.357  1.00  0.00     0.293 HD
ENDBRANCH  22  26
ENDBRANCH  18  19
ENDBRANCH  17  18
BRANCH  17  28
ATOM     28  O   UNL     1      11.589  -2.219 -16.045  1.00  0.00    -0.383 OA
ATOM     29  H   UNL     1      11.872  -3.110 -15.738  1.00  0.00     0.211 HD
ENDBRANCH  17  28
ENDBRANCH  14  17
ENDBRANCH  12  13
BRANCH  12  30
ATOM     30  C   UNL     1       6.782   0.294 -13.623  1.00  0.00     0.018 C 
ATOM     31  C   UNL     1       6.208   1.708 -13.803  1.00  0.00     0.010 C 
BRANCH  30  32
ATOM     32  C   UNL     1       7.757   0.265 -12.421  1.00  0.00     0.002 C 
ATOM     33  C   UNL     1       7.356   1.135 -11.236  1.00  0.00     0.004 C 
ENDBRANCH  30  32
ENDBRANCH  12  30
ENDBRANCH  10  12
ENDBRANCH   1  10
BRANCH   5  34
ATOM     34  C   UNL     1       7.105  -3.484 -13.613  1.00  0.00     0.242 C 
ATOM     35  O   UNL     1       8.291  -3.765 -13.784  1.00  0.00    -0.273 OA
ATOM     36  N   UNL     1       6.558  -3.317 -12.360  1.00  0.00    -0.354 N 
ATOM     37  H   UNL     1       5.547  -3.205 -12.276  1.00  0.00     0.163 HD
BRANCH  36  38
ATOM     38  C   UNL     1       7.375  -3.190 -11.171  1.00  0.00     0.116 C 
BRANCH  38  39
ATOM     39  C   UNL     1       6.596  -2.454 -10.083  1.00  0.00     0.023 C 
BRANCH  39  40
ATOM     40  C   UNL     1       5.263  -1.911 -10.587  1.00  0.00     0.026 C 
BRANCH  40  41
ATOM     41  C   UNL     1       4.097  -2.713 -10.008  1.00  0.00     0.146 C 
BRANCH  41  42
ATOM     42  N   UNL     1       3.443  -3.467 -11.069  1.00  0.00    -0.254 NA
ATOM     43  C   UNL     1       2.164  -3.515 -11.115  1.00  0.00     0.185 C 
ATOM     44  N   UNL     1       1.247  -2.956 -10.305  1.00  0.00    -0.370 N 
ATOM     45  N   UNL     1       1.580  -4.219 -12.099  1.00  0.00    -0.370 N 
ATOM     46  H   UNL     1       0.293  -3.274 -10.313  1.00  0.00     0.159 HD
ATOM     47  H   UNL     1       1.516  -2.377  -9.515  1.00  0.00     0.159 HD
ATOM     48  H   UNL     1       2.201  -4.666 -12.760  1.00  0.00     0.159 HD
ATOM     49  H   UNL     1       0.611  -4.113 -12.342  1.00  0.00     0.159 HD
ENDBRANCH  41  42
ENDBRANCH  40  41
ENDBRANCH  39  40
ENDBRANCH  38  39
ENDBRANCH  36  38
ENDBRANCH   5  34
BRANCH   8  50
ATOM     50  O   UNL     1      10.105  -4.821 -17.042  1.00  0.00    -0.245 OA
BRANCH  50  51
ATOM     51  S   UNL     1      11.538  -5.474 -17.448  1.00  0.00     0.397 S 
ATOM     52  O   UNL     1      12.543  -4.931 -16.562  1.00  0.00    -0.169 OA
ATOM     53  O   UNL     1      11.696  -5.441 -18.888  1.00  0.00    -0.169 OA
BRANCH  51  54
ATOM     54  O   UNL     1      11.346  -7.007 -17.006  1.00  0.00    -0.264 OA
ATOM     55  H   UNL     1      10.722  -7.024 -16.251  1.00  0.00     0.236 HD
ENDBRANCH  51  54
ENDBRANCH  50  51
ENDBRANCH   8  50
TORSDOF 19
ENDMDL
MODEL 14
REMARK VINA RESULT:    -6.285      1.876      2.524
REMARK INTER + INTRA:         -16.493
REMARK INTER:                 -12.268
REMARK INTRA:                  -4.225
REMARK UNBOUND:                -3.778
REMARK SMILES CC[C@@H](C)[C@@H](NC(=O)[C@@H](O)Cc1ccc(O)c(Cl)c1)C(=O)N1[C@H](C(=O)NCCCCN=C(N)N)C[C@H]2CC[C@H](OS(=O)(=O)O)C[C@@H]21
REMARK SMILES IDX 22 1 36 2 46 3 35 4 23 5 45 6 37 7 39 8 38 9 20 10 21 11
REMARK SMILES IDX 5 12 6 13 7 14 8 15 9 17 11 18 12 19 17 20 19 21 15 22 14 23
REMARK SMILES IDX 13 24 18 25 16 26 10 28 3 30 4 31 2 32 1 33 24 34 25 35
REMARK SMILES IDX 26 36 27 38 28 39 29 40 30 41 31 42 32 43 33 44 34 45 40 50
REMARK SMILES IDX 41 51 42 52 43 53 44 54
REMARK H PARENT 6 16 16 27 10 29 26 37 33 46 33 47 34 48 34 49 44 55
ROOT
ATOM      1  N   UNL     1       8.509  -0.255 -15.026  1.00  0.00    -0.326 N 
ATOM      2  C   UNL     1       8.886  -0.463 -17.340  1.00  0.00     0.014 C 
ATOM      3  C   UNL     1       9.447  -0.864 -15.973  1.00  0.00     0.091 C 
ATOM      4  C   UNL     1       8.319   0.924 -17.076  1.00  0.00     0.041 C 
ATOM      5  C   UNL     1       7.597   0.672 -15.739  1.00  0.00     0.175 C 
ATOM      6  C   UNL     1       9.619  -2.382 -15.949  1.00  0.00     0.059 C 
ATOM      7  C   UNL     1       9.926  -0.645 -18.428  1.00  0.00     0.008 C 
ATOM      8  C   UNL     1       9.961  -2.991 -17.326  1.00  0.00     0.143 C 
ATOM      9  C   UNL     1      10.677  -1.981 -18.244  1.00  0.00     0.034 C 
ENDROOT
BRANCH   1  10
ATOM     10  C   UNL     1       8.516  -0.264 -13.641  1.00  0.00     0.246 C 
ATOM     11  O   UNL     1       8.052   0.706 -13.032  1.00  0.00    -0.272 OA
BRANCH  10  12
ATOM     12  C   UNL     1       9.065  -1.507 -12.884  1.00  0.00     0.174 C 
BRANCH  12  13
ATOM     13  N   UNL     1       7.964  -2.235 -12.255  1.00  0.00    -0.342 N 
ATOM     14  C   UNL     1       7.200  -3.200 -12.871  1.00  0.00     0.249 C 
ATOM     15  O   UNL     1       7.379  -3.580 -14.022  1.00  0.00    -0.272 OA
ATOM     16  H   UNL     1       7.598  -1.920 -11.359  1.00  0.00     0.164 HD
BRANCH  14  17
ATOM     17  C   UNL     1       6.102  -3.770 -11.948  1.00  0.00     0.207 C 
BRANCH  17  18
ATOM     18  C   UNL     1       6.114  -3.053 -10.595  1.00  0.00     0.077 C 
BRANCH  18  19
ATOM     19  C   UNL     1       4.715  -2.793 -10.083  1.00  0.00    -0.043 A 
ATOM     20  C   UNL     1       2.661  -3.600  -9.077  1.00  0.00     0.083 A 
ATOM     21  C   UNL     1       3.969  -3.831  -9.503  1.00  0.00     0.028 A 
ATOM     22  C   UNL     1       2.090  -2.336  -9.229  1.00  0.00     0.134 A 
ATOM     23  C   UNL     1       2.817  -1.299  -9.802  1.00  0.00     0.048 A 
ATOM     24  C   UNL     1       4.127  -1.528 -10.231  1.00  0.00     0.008 A 
ATOM     25  Cl  UNL     1       1.760  -4.888  -8.367  1.00  0.00    -0.080 Cl
BRANCH  22  26
ATOM     26  O   UNL     1       0.807  -2.065  -8.836  1.00  0.00    -0.506 OA
ATOM     27  H   UNL     1       0.816  -2.020  -7.862  1.00  0.00     0.293 HD
ENDBRANCH  22  26
ENDBRANCH  18  19
ENDBRANCH  17  18
BRANCH  17  28
ATOM     28  O   UNL     1       6.280  -5.181 -11.742  1.00  0.00    -0.383 OA
ATOM     29  H   UNL     1       7.246  -5.349 -11.831  1.00  0.00     0.211 HD
ENDBRANCH  17  28
ENDBRANCH  14  17
ENDBRANCH  12  13
BRANCH  12  30
ATOM     30  C   UNL     1      10.190  -1.147 -11.876  1.00  0.00     0.018 C 
ATOM     31  C   UNL     1      11.572  -1.259 -12.538  1.00  0.00     0.010 C 
BRANCH  30  32
ATOM     32  C   UNL     1      10.153  -1.988 -10.577  1.00  0.00     0.002 C 
ATOM     33  C   UNL     1      11.513  -2.336  -9.987  1.00  0.00     0.004 C 
ENDBRANCH  30  32
ENDBRANCH  12  30
ENDBRANCH  10  12
ENDBRANCH   1  10
BRANCH   5  34
ATOM     34  C   UNL     1       6.206   0.017 -15.955  1.00  0.00     0.242 C 
ATOM     35  O   UNL     1       6.031  -1.198 -15.870  1.00  0.00    -0.273 OA
ATOM     36  N   UNL     1       5.197   0.887 -16.302  1.00  0.00    -0.354 N 
ATOM     37  H   UNL     1       5.429   1.866 -16.474  1.00  0.00     0.163 HD
BRANCH  36  38
ATOM     38  C   UNL     1       3.806   0.486 -16.330  1.00  0.00     0.116 C 
BRANCH  38  39
ATOM     39  C   UNL     1       3.148   0.801 -14.988  1.00  0.00     0.023 C 
BRANCH  39  40
ATOM     40  C   UNL     1       2.466  -0.416 -14.373  1.00  0.00     0.026 C 
BRANCH  40  41
ATOM     41  C   UNL     1       3.473  -1.273 -13.606  1.00  0.00     0.146 C 
BRANCH  41  42
ATOM     42  N   UNL     1       2.989  -2.644 -13.521  1.00  0.00    -0.254 NA
ATOM     43  C   UNL     1       3.463  -3.533 -14.311  1.00  0.00     0.185 C 
ATOM     44  N   UNL     1       4.395  -3.425 -15.276  1.00  0.00    -0.370 N 
ATOM     45  N   UNL     1       3.000  -4.791 -14.220  1.00  0.00    -0.370 N 
ATOM     46  H   UNL     1       4.492  -4.140 -15.977  1.00  0.00     0.159 HD
ATOM     47  H   UNL     1       4.860  -2.544 -15.471  1.00  0.00     0.159 HD
ATOM     48  H   UNL     1       2.300  -4.961 -13.510  1.00  0.00     0.159 HD
ATOM     49  H   UNL     1       3.476  -5.577 -14.626  1.00  0.00     0.159 HD
ENDBRANCH  41  42
ENDBRANCH  40  41
ENDBRANCH  39  40
ENDBRANCH  38  39
ENDBRANCH  36  38
ENDBRANCH   5  34
BRANCH   8  50
ATOM     50  O   UNL     1       8.769  -3.431 -17.977  1.00  0.00    -0.245 OA
BRANCH  50  51
ATOM     51  S   UNL     1       8.135  -4.880 -17.599  1.00  0.00     0.397 S 
ATOM     52  O   UNL     1       8.941  -5.460 -16.549  1.00  0.00    -0.169 OA
ATOM     53  O   UNL     1       7.830  -5.609 -18.813  1.00  0.00    -0.169 OA
BRANCH  51  54
ATOM     54  O   UNL     1       6.744  -4.467 -16.906  1.00  0.00    -0.264 OA
ATOM     55  H   UNL     1       6.134  -4.172 -17.613  1.00  0.00     0.236 HD
ENDBRANCH  51  54
ENDBRANCH  50  51
ENDBRANCH   8  50
TORSDOF 19
ENDMDL
MODEL 15
REMARK VINA RESULT:    -6.230      3.814      6.937
REMARK INTER + INTRA:         -16.381
REMARK INTER:                 -12.197
REMARK INTRA:                  -4.184
REMARK UNBOUND:                -3.778
REMARK SMILES CC[C@@H](C)[C@@H](NC(=O)[C@@H](O)Cc1ccc(O)c(Cl)c1)C(=O)N1[C@H](C(=O)NCCCCN=C(N)N)C[C@H]2CC[C@H](OS(=O)(=O)O)C[C@@H]21
REMARK SMILES IDX 22 1 36 2 46 3 35 4 23 5 45 6 37 7 39 8 38 9 20 10 21 11
REMARK SMILES IDX 5 12 6 13 7 14 8 15 9 17 11 18 12 19 17 20 19 21 15 22 14 23
REMARK SMILES IDX 13 24 18 25 16 26 10 28 3 30 4 31 2 32 1 33 24 34 25 35
REMARK SMILES IDX 26 36 27 38 28 39 29 40 30 41 31 42 32 43 33 44 34 45 40 50
REMARK SMILES IDX 41 51 42 52 43 53 44 54
REMARK H PARENT 6 16 16 27 10 29 26 37 33 46 33 47 34 48 34 49 44 55
ROOT
ATOM      1  N   UNL     1       6.182  -0.884 -15.145  1.00  0.00    -0.326 N 
ATOM      2  C   UNL     1       5.334  -2.952 -15.883  1.00  0.00     0.014 C 
ATOM      3  C   UNL     1       5.824  -2.211 -14.636  1.00  0.00     0.091 C 
ATOM      4  C   UNL     1       6.223  -2.386 -16.980  1.00  0.00     0.041 C 
ATOM      5  C   UNL     1       6.169  -0.888 -16.628  1.00  0.00     0.175 C 
ATOM      6  C   UNL     1       4.743  -2.307 -13.561  1.00  0.00     0.059 C 
ATOM      7  C   UNL     1       5.305  -4.449 -15.647  1.00  0.00     0.008 C 
ATOM      8  C   UNL     1       3.921  -3.613 -13.621  1.00  0.00     0.143 C 
ATOM      9  C   UNL     1       4.718  -4.770 -14.256  1.00  0.00     0.034 C 
ENDROOT
BRANCH   1  10
ATOM     10  C   UNL     1       6.703   0.212 -14.478  1.00  0.00     0.246 C 
ATOM     11  O   UNL     1       6.065   1.270 -14.469  1.00  0.00    -0.272 OA
BRANCH  10  12
ATOM     12  C   UNL     1       8.056   0.076 -13.720  1.00  0.00     0.174 C 
BRANCH  12  13
ATOM     13  N   UNL     1       9.027  -0.628 -14.556  1.00  0.00    -0.342 N 
ATOM     14  C   UNL     1       9.918  -0.022 -15.413  1.00  0.00     0.249 C 
ATOM     15  O   UNL     1      10.014   1.191 -15.551  1.00  0.00    -0.272 OA
ATOM     16  H   UNL     1       8.960  -1.637 -14.666  1.00  0.00     0.164 HD
BRANCH  14  17
ATOM     17  C   UNL     1      10.801  -1.037 -16.170  1.00  0.00     0.207 C 
BRANCH  17  18
ATOM     18  C   UNL     1      10.905  -2.348 -15.383  1.00  0.00     0.077 C 
BRANCH  18  19
ATOM     19  C   UNL     1      10.496  -3.539 -16.220  1.00  0.00    -0.043 A 
ATOM     20  C   UNL     1      10.881  -5.016 -18.105  1.00  0.00     0.083 A 
ATOM     21  C   UNL     1      11.286  -3.947 -17.306  1.00  0.00     0.028 A 
ATOM     22  C   UNL     1       9.686  -5.682 -17.828  1.00  0.00     0.134 A 
ATOM     23  C   UNL     1       8.894  -5.289 -16.756  1.00  0.00     0.048 A 
ATOM     24  C   UNL     1       9.296  -4.218 -15.954  1.00  0.00     0.008 A 
ATOM     25  Cl  UNL     1      11.865  -5.502 -19.435  1.00  0.00    -0.080 Cl
BRANCH  22  26
ATOM     26  O   UNL     1       9.242  -6.729 -18.590  1.00  0.00    -0.506 OA
ATOM     27  H   UNL     1       9.553  -7.544 -18.154  1.00  0.00     0.293 HD
ENDBRANCH  22  26
ENDBRANCH  18  19
ENDBRANCH  17  18
BRANCH  17  28
ATOM     28  O   UNL     1      12.118  -0.510 -16.395  1.00  0.00    -0.383 OA
ATOM     29  H   UNL     1      12.126   0.386 -15.989  1.00  0.00     0.211 HD
ENDBRANCH  17  28
ENDBRANCH  14  17
ENDBRANCH  12  13
BRANCH  12  30
ATOM     30  C   UNL     1       7.896  -0.576 -12.320  1.00  0.00     0.018 C 
ATOM     31  C   UNL     1       8.227   0.430 -11.207  1.00  0.00     0.010 C 
BRANCH  30  32
ATOM     32  C   UNL     1       8.732  -1.867 -12.137  1.00  0.00     0.002 C 
ATOM     33  C   UNL     1       7.948  -3.091 -11.683  1.00  0.00     0.004 C 
ENDBRANCH  30  32
ENDBRANCH  12  30
ENDBRANCH  10  12
ENDBRANCH   1  10
BRANCH   5  34
ATOM     34  C   UNL     1       4.878  -0.220 -17.170  1.00  0.00     0.242 C 
ATOM     35  O   UNL     1       4.436  -0.456 -18.294  1.00  0.00    -0.273 OA
ATOM     36  N   UNL     1       4.293   0.696 -16.324  1.00  0.00    -0.354 N 
ATOM     37  H   UNL     1       4.772   0.938 -15.455  1.00  0.00     0.163 HD
BRANCH  36  38
ATOM     38  C   UNL     1       2.978   1.250 -16.573  1.00  0.00     0.116 C 
BRANCH  38  39
ATOM     39  C   UNL     1       2.226   1.412 -15.254  1.00  0.00     0.023 C 
BRANCH  39  40
ATOM     40  C   UNL     1       2.559   0.310 -14.254  1.00  0.00     0.026 C 
BRANCH  40  41
ATOM     41  C   UNL     1       1.309  -0.119 -13.484  1.00  0.00     0.146 C 
BRANCH  41  42
ATOM     42  N   UNL     1       1.696  -0.868 -12.296  1.00  0.00    -0.254 NA
ATOM     43  C   UNL     1       0.802  -1.482 -11.616  1.00  0.00     0.185 C 
ATOM     44  N   UNL     1      -0.526  -1.571 -11.813  1.00  0.00    -0.370 N 
ATOM     45  N   UNL     1       1.178  -2.163 -10.522  1.00  0.00    -0.370 N 
ATOM     46  H   UNL     1      -1.135  -1.877 -11.074  1.00  0.00     0.159 HD
ATOM     47  H   UNL     1      -0.978  -1.125 -12.605  1.00  0.00     0.159 HD
ATOM     48  H   UNL     1       2.166  -2.155 -10.306  1.00  0.00     0.159 HD
ATOM     49  H   UNL     1       0.594  -2.851 -10.081  1.00  0.00     0.159 HD
ENDBRANCH  41  42
ENDBRANCH  40  41
ENDBRANCH  39  40
ENDBRANCH  38  39
ENDBRANCH  36  38
ENDBRANCH   5  34
BRANCH   8  50
ATOM     50  O   UNL     1       2.732  -3.409 -14.383  1.00  0.00    -0.245 OA
BRANCH  50  51
ATOM     51  S   UNL     1       1.432  -4.348 -14.110  1.00  0.00     0.397 S 
ATOM     52  O   UNL     1       0.266  -3.494 -14.066  1.00  0.00    -0.169 OA
ATOM     53  O   UNL     1       1.725  -5.288 -13.048  1.00  0.00    -0.169 OA
BRANCH  51  54
ATOM     54  O   UNL     1       1.319  -5.173 -15.485  1.00  0.00    -0.264 OA
ATOM     55  H   UNL     1       1.024  -6.081 -15.266  1.00  0.00     0.236 HD
ENDBRANCH  51  54
ENDBRANCH  50  51
ENDBRANCH   8  50
TORSDOF 19
ENDMDL
MODEL 16
REMARK VINA RESULT:    -6.166      3.707      7.809
REMARK INTER + INTRA:         -16.252
REMARK INTER:                 -13.087
REMARK INTRA:                  -3.164
REMARK UNBOUND:                -3.778
REMARK SMILES CC[C@@H](C)[C@@H](NC(=O)[C@@H](O)Cc1ccc(O)c(Cl)c1)C(=O)N1[C@H](C(=O)NCCCCN=C(N)N)C[C@H]2CC[C@H](OS(=O)(=O)O)C[C@@H]21
REMARK SMILES IDX 22 1 36 2 46 3 35 4 23 5 45 6 37 7 39 8 38 9 20 10 21 11
REMARK SMILES IDX 5 12 6 13 7 14 8 15 9 17 11 18 12 19 17 20 19 21 15 22 14 23
REMARK SMILES IDX 13 24 18 25 16 26 10 28 3 30 4 31 2 32 1 33 24 34 25 35
REMARK SMILES IDX 26 36 27 38 28 39 29 40 30 41 31 42 32 43 33 44 34 45 40 50
REMARK SMILES IDX 41 51 42 52 43 53 44 54
REMARK H PARENT 6 16 16 27 10 29 26 37 33 46 33 47 34 48 34 49 44 55
ROOT
ATOM      1  N   UNL     1       2.802  -2.284 -12.223  1.00  0.00    -0.326 N 
ATOM      2  C   UNL     1       1.466  -1.149 -13.794  1.00  0.00     0.014 C 
ATOM      3  C   UNL     1       2.606  -0.947 -12.792  1.00  0.00     0.091 C 
ATOM      4  C   UNL     1       0.605  -2.203 -13.115  1.00  0.00     0.041 C 
ATOM      5  C   UNL     1       1.696  -3.181 -12.640  1.00  0.00     0.175 C 
ATOM      6  C   UNL     1       3.778  -0.291 -13.520  1.00  0.00     0.059 C 
ATOM      7  C   UNL     1       0.846   0.178 -14.185  1.00  0.00     0.008 C 
ATOM      8  C   UNL     1       3.349   0.653 -14.664  1.00  0.00     0.143 C 
ATOM      9  C   UNL     1       1.940   1.237 -14.436  1.00  0.00     0.034 C 
ENDROOT
BRANCH   1  10
ATOM     10  C   UNL     1       3.688  -2.713 -11.249  1.00  0.00     0.246 C 
ATOM     11  O   UNL     1       4.289  -3.780 -11.411  1.00  0.00    -0.272 OA
BRANCH  10  12
ATOM     12  C   UNL     1       3.939  -1.825  -9.996  1.00  0.00     0.174 C 
BRANCH  12  13
ATOM     13  N   UNL     1       5.341  -1.920  -9.590  1.00  0.00    -0.342 N 
ATOM     14  C   UNL     1       6.363  -1.146 -10.092  1.00  0.00     0.249 C 
ATOM     15  O   UNL     1       6.203  -0.262 -10.924  1.00  0.00    -0.272 OA
ATOM     16  H   UNL     1       5.649  -2.708  -9.027  1.00  0.00     0.164 HD
BRANCH  14  17
ATOM     17  C   UNL     1       7.734  -1.497  -9.476  1.00  0.00     0.207 C 
BRANCH  17  18
ATOM     18  C   UNL     1       8.425  -2.591 -10.296  1.00  0.00     0.077 C 
BRANCH  18  19
ATOM     19  C   UNL     1       9.379  -2.011 -11.316  1.00  0.00    -0.043 A 
ATOM     20  C   UNL     1       9.843  -1.274 -13.579  1.00  0.00     0.083 A 
ATOM     21  C   UNL     1       8.947  -1.763 -12.628  1.00  0.00     0.028 A 
ATOM     22  C   UNL     1      11.172  -1.032 -13.228  1.00  0.00     0.134 A 
ATOM     23  C   UNL     1      11.612  -1.273 -11.932  1.00  0.00     0.048 A 
ATOM     24  C   UNL     1      10.718  -1.765 -10.978  1.00  0.00     0.008 A 
ATOM     25  Cl  UNL     1       9.295  -0.975 -15.187  1.00  0.00    -0.080 Cl
BRANCH  22  26
ATOM     26  O   UNL     1      12.089  -0.563 -14.129  1.00  0.00    -0.506 OA
ATOM     27  H   UNL     1      11.592  -0.307 -14.928  1.00  0.00     0.293 HD
ENDBRANCH  22  26
ENDBRANCH  18  19
ENDBRANCH  17  18
BRANCH  17  28
ATOM     28  O   UNL     1       7.592  -1.939  -8.116  1.00  0.00    -0.383 OA
ATOM     29  H   UNL     1       8.421  -2.423  -7.899  1.00  0.00     0.211 HD
ENDBRANCH  17  28
ENDBRANCH  14  17
ENDBRANCH  12  13
BRANCH  12  30
ATOM     30  C   UNL     1       2.962  -2.141  -8.832  1.00  0.00     0.018 C 
ATOM     31  C   UNL     1       2.936  -0.990  -7.813  1.00  0.00     0.010 C 
BRANCH  30  32
ATOM     32  C   UNL     1       3.262  -3.480  -8.115  1.00  0.00     0.002 C 
ATOM     33  C   UNL     1       2.183  -4.546  -8.248  1.00  0.00     0.004 C 
ENDBRANCH  30  32
ENDBRANCH  12  30
ENDBRANCH  10  12
ENDBRANCH   1  10
BRANCH   5  34
ATOM     34  C   UNL     1       2.155  -4.125 -13.784  1.00  0.00     0.242 C 
ATOM     35  O   UNL     1       1.370  -4.855 -14.389  1.00  0.00    -0.273 OA
ATOM     36  N   UNL     1       3.509  -4.126 -14.035  1.00  0.00    -0.354 N 
ATOM     37  H   UNL     1       4.123  -3.590 -13.420  1.00  0.00     0.163 HD
BRANCH  36  38
ATOM     38  C   UNL     1       4.079  -4.776 -15.196  1.00  0.00     0.116 C 
BRANCH  38  39
ATOM     39  C   UNL     1       5.463  -5.325 -14.856  1.00  0.00     0.023 C 
BRANCH  39  40
ATOM     40  C   UNL     1       6.447  -4.226 -14.470  1.00  0.00     0.026 C 
BRANCH  40  41
ATOM     41  C   UNL     1       7.401  -3.923 -15.625  1.00  0.00     0.146 C 
BRANCH  41  42
ATOM     42  N   UNL     1       7.514  -5.090 -16.490  1.00  0.00    -0.254 NA
ATOM     43  C   UNL     1       7.690  -4.931 -17.748  1.00  0.00     0.185 C 
ATOM     44  N   UNL     1       7.799  -3.801 -18.471  1.00  0.00    -0.370 N 
ATOM     45  N   UNL     1       7.786  -6.020 -18.529  1.00  0.00    -0.370 N 
ATOM     46  H   UNL     1       7.689  -3.819 -19.470  1.00  0.00     0.159 HD
ATOM     47  H   UNL     1       7.762  -2.885 -18.036  1.00  0.00     0.159 HD
ATOM     48  H   UNL     1       7.723  -6.914 -18.061  1.00  0.00     0.159 HD
ATOM     49  H   UNL     1       8.155  -5.988 -19.463  1.00  0.00     0.159 HD
ENDBRANCH  41  42
ENDBRANCH  40  41
ENDBRANCH  39  40
ENDBRANCH  38  39
ENDBRANCH  36  38
ENDBRANCH   5  34
BRANCH   8  50
ATOM     50  O   UNL     1       3.352  -0.050 -15.907  1.00  0.00    -0.245 OA
BRANCH  50  51
ATOM     51  S   UNL     1       4.642   0.065 -16.891  1.00  0.00     0.397 S 
ATOM     52  O   UNL     1       5.608  -0.928 -16.478  1.00  0.00    -0.169 OA
ATOM     53  O   UNL     1       5.006   1.457 -17.055  1.00  0.00    -0.169 OA
BRANCH  51  54
ATOM     54  O   UNL     1       4.045  -0.460 -18.289  1.00  0.00    -0.264 OA
ATOM     55  H   UNL     1       3.154  -0.069 -18.398  1.00  0.00     0.236 HD
ENDBRANCH  51  54
ENDBRANCH  50  51
ENDBRANCH   8  50
TORSDOF 19
ENDMDL
MODEL 17
REMARK VINA RESULT:    -6.128      2.481      3.861
REMARK INTER + INTRA:         -16.174
REMARK INTER:                 -13.615
REMARK INTRA:                  -2.560
REMARK UNBOUND:                -3.778
REMARK SMILES CC[C@@H](C)[C@@H](NC(=O)[C@@H](O)Cc1ccc(O)c(Cl)c1)C(=O)N1[C@H](C(=O)NCCCCN=C(N)N)C[C@H]2CC[C@H](OS(=O)(=O)O)C[C@@H]21
REMARK SMILES IDX 22 1 36 2 46 3 35 4 23 5 45 6 37 7 39 8 38 9 20 10 21 11
REMARK SMILES IDX 5 12 6 13 7 14 8 15 9 17 11 18 12 19 17 20 19 21 15 22 14 23
REMARK SMILES IDX 13 24 18 25 16 26 10 28 3 30 4 31 2 32 1 33 24 34 25 35
REMARK SMILES IDX 26 36 27 38 28 39 29 40 30 41 31 42 32 43 33 44 34 45 40 50
REMARK SMILES IDX 41 51 42 52 43 53 44 54
REMARK H PARENT 6 16 16 27 10 29 26 37 33 46 33 47 34 48 34 49 44 55
ROOT
ATOM      1  N   UNL     1       9.084  -2.255 -16.028  1.00  0.00    -0.326 N 
ATOM      2  C   UNL     1       9.753  -2.782 -18.223  1.00  0.00     0.014 C 
ATOM      3  C   UNL     1      10.295  -2.470 -16.825  1.00  0.00     0.091 C 
ATOM      4  C   UNL     1       8.512  -1.906 -18.303  1.00  0.00     0.041 C 
ATOM      5  C   UNL     1       7.899  -2.174 -16.917  1.00  0.00     0.175 C 
ATOM      6  C   UNL     1      11.244  -3.595 -16.414  1.00  0.00     0.059 C 
ATOM      7  C   UNL     1      10.838  -2.632 -19.272  1.00  0.00     0.008 C 
ATOM      8  C   UNL     1      11.999  -4.235 -17.598  1.00  0.00     0.143 C 
ATOM      9  C   UNL     1      12.160  -3.257 -18.780  1.00  0.00     0.034 C 
ENDROOT
BRANCH   1  10
ATOM     10  C   UNL     1       8.950  -1.922 -14.691  1.00  0.00     0.246 C 
ATOM     11  O   UNL     1       8.870  -2.826 -13.851  1.00  0.00    -0.272 OA
BRANCH  10  12
ATOM     12  C   UNL     1       8.944  -0.424 -14.270  1.00  0.00     0.174 C 
BRANCH  12  13
ATOM     13  N   UNL     1       8.050   0.336 -15.144  1.00  0.00    -0.342 N 
ATOM     14  C   UNL     1       7.237   1.369 -14.736  1.00  0.00     0.249 C 
ATOM     15  O   UNL     1       7.192   1.788 -13.586  1.00  0.00    -0.272 OA
ATOM     16  H   UNL     1       7.864   0.002 -16.086  1.00  0.00     0.164 HD
BRANCH  14  17
ATOM     17  C   UNL     1       6.398   1.958 -15.890  1.00  0.00     0.207 C 
BRANCH  17  18
ATOM     18  C   UNL     1       5.462   0.893 -16.470  1.00  0.00     0.077 C 
BRANCH  18  19
ATOM     19  C   UNL     1       4.098   0.928 -15.818  1.00  0.00    -0.043 A 
ATOM     20  C   UNL     1       2.642   0.378 -13.958  1.00  0.00     0.083 A 
ATOM     21  C   UNL     1       3.912   0.389 -14.536  1.00  0.00     0.028 A 
ATOM     22  C   UNL     1       1.553   0.903 -14.655  1.00  0.00     0.134 A 
ATOM     23  C   UNL     1       1.724   1.440 -15.925  1.00  0.00     0.048 A 
ATOM     24  C   UNL     1       2.993   1.450 -16.508  1.00  0.00     0.008 A 
ATOM     25  Cl  UNL     1       2.434  -0.289 -12.381  1.00  0.00    -0.080 Cl
BRANCH  22  26
ATOM     26  O   UNL     1       0.288   0.905 -14.133  1.00  0.00    -0.506 OA
ATOM     27  H   UNL     1       0.114  -0.001 -13.816  1.00  0.00     0.293 HD
ENDBRANCH  22  26
ENDBRANCH  18  19
ENDBRANCH  17  18
BRANCH  17  28
ATOM     28  O   UNL     1       7.243   2.471 -16.933  1.00  0.00    -0.383 OA
ATOM     29  H   UNL     1       8.145   2.534 -16.546  1.00  0.00     0.211 HD
ENDBRANCH  17  28
ENDBRANCH  14  17
ENDBRANCH  12  13
BRANCH  12  30
ATOM     30  C   UNL     1      10.370   0.186 -14.207  1.00  0.00     0.018 C 
ATOM     31  C   UNL     1      10.768   0.787 -15.564  1.00  0.00     0.010 C 
BRANCH  30  32
ATOM     32  C   UNL     1      11.453  -0.812 -13.729  1.00  0.00     0.002 C 
ATOM     33  C   UNL     1      11.527  -1.019 -12.221  1.00  0.00     0.004 C 
ENDBRANCH  30  32
ENDBRANCH  12  30
ENDBRANCH  10  12
ENDBRANCH   1  10
BRANCH   5  34
ATOM     34  C   UNL     1       7.101  -3.505 -16.892  1.00  0.00     0.242 C 
ATOM     35  O   UNL     1       6.981  -4.219 -17.887  1.00  0.00    -0.273 OA
ATOM     36  N   UNL     1       6.492  -3.801 -15.693  1.00  0.00    -0.354 N 
ATOM     37  H   UNL     1       6.527  -3.111 -14.941  1.00  0.00     0.163 HD
BRANCH  36  38
ATOM     38  C   UNL     1       5.893  -5.092 -15.427  1.00  0.00     0.116 C 
BRANCH  38  39
ATOM     39  C   UNL     1       4.647  -4.918 -14.562  1.00  0.00     0.023 C 
BRANCH  39  40
ATOM     40  C   UNL     1       4.196  -3.464 -14.475  1.00  0.00     0.026 C 
BRANCH  40  41
ATOM     41  C   UNL     1       2.714  -3.376 -14.111  1.00  0.00     0.146 C 
BRANCH  41  42
ATOM     42  N   UNL     1       2.469  -4.098 -12.870  1.00  0.00    -0.254 NA
ATOM     43  C   UNL     1       1.361  -3.932 -12.249  1.00  0.00     0.185 C 
ATOM     44  N   UNL     1       0.305  -3.156 -12.556  1.00  0.00    -0.370 N 
ATOM     45  N   UNL     1       1.156  -4.603 -11.104  1.00  0.00    -0.370 N 
ATOM     46  H   UNL     1      -0.388  -2.936 -11.862  1.00  0.00     0.159 HD
ATOM     47  H   UNL     1       0.287  -2.590 -13.398  1.00  0.00     0.159 HD
ATOM     48  H   UNL     1       1.901  -5.218 -10.805  1.00  0.00     0.159 HD
ATOM     49  H   UNL     1       0.246  -4.712 -10.693  1.00  0.00     0.159 HD
ENDBRANCH  41  42
ENDBRANCH  40  41
ENDBRANCH  39  40
ENDBRANCH  38  39
ENDBRANCH  36  38
ENDBRANCH   5  34
BRANCH   8  50
ATOM     50  O   UNL     1      11.299  -5.391 -18.059  1.00  0.00    -0.245 OA
BRANCH  50  51
ATOM     51  S   UNL     1      11.095  -6.658 -17.059  1.00  0.00     0.397 S 
ATOM     52  O   UNL     1      11.998  -6.495 -15.942  1.00  0.00    -0.169 OA
ATOM     53  O   UNL     1      11.053  -7.883 -17.829  1.00  0.00    -0.169 OA
BRANCH  51  54
ATOM     54  O   UNL     1       9.622  -6.389 -16.473  1.00  0.00    -0.264 OA
ATOM     55  H   UNL     1       9.636  -5.524 -16.015  1.00  0.00     0.236 HD
ENDBRANCH  51  54
ENDBRANCH  50  51
ENDBRANCH   8  50
TORSDOF 19
ENDMDL
MODEL 18
REMARK VINA RESULT:    -6.113      3.707      7.576
REMARK INTER + INTRA:         -16.144
REMARK INTER:                 -12.697
REMARK INTRA:                  -3.447
REMARK UNBOUND:                -3.778
REMARK SMILES CC[C@@H](C)[C@@H](NC(=O)[C@@H](O)Cc1ccc(O)c(Cl)c1)C(=O)N1[C@H](C(=O)NCCCCN=C(N)N)C[C@H]2CC[C@H](OS(=O)(=O)O)C[C@@H]21
REMARK SMILES IDX 22 1 36 2 46 3 35 4 23 5 45 6 37 7 39 8 38 9 20 10 21 11
REMARK SMILES IDX 5 12 6 13 7 14 8 15 9 17 11 18 12 19 17 20 19 21 15 22 14 23
REMARK SMILES IDX 13 24 18 25 16 26 10 28 3 30 4 31 2 32 1 33 24 34 25 35
REMARK SMILES IDX 26 36 27 38 28 39 29 40 30 41 31 42 32 43 33 44 34 45 40 50
REMARK SMILES IDX 41 51 42 52 43 53 44 54
REMARK H PARENT 6 16 16 27 10 29 26 37 33 46 33 47 34 48 34 49 44 55
ROOT
ATOM      1  N   UNL     1       7.680  -1.079 -12.161  1.00  0.00    -0.326 N 
ATOM      2  C   UNL     1       7.658  -2.135 -10.057  1.00  0.00     0.014 C 
ATOM      3  C   UNL     1       7.264  -0.842 -10.776  1.00  0.00     0.091 C 
ATOM      4  C   UNL     1       8.934  -2.544 -10.778  1.00  0.00     0.041 C 
ATOM      5  C   UNL     1       8.508  -2.309 -12.239  1.00  0.00     0.175 C 
ATOM      6  C   UNL     1       5.787  -0.567 -10.501  1.00  0.00     0.059 C 
ATOM      7  C   UNL     1       7.685  -1.933  -8.555  1.00  0.00     0.008 C 
ATOM      8  C   UNL     1       5.310  -1.061  -9.118  1.00  0.00     0.143 C 
ATOM      9  C   UNL     1       6.461  -1.114  -8.093  1.00  0.00     0.034 C 
ENDROOT
BRANCH   1  10
ATOM     10  C   UNL     1       7.596  -0.252 -13.268  1.00  0.00     0.246 C 
ATOM     11  O   UNL     1       8.619   0.303 -13.684  1.00  0.00    -0.272 OA
BRANCH  10  12
ATOM     12  C   UNL     1       6.228  -0.072 -13.988  1.00  0.00     0.174 C 
BRANCH  12  13
ATOM     13  N   UNL     1       6.267  -0.717 -15.301  1.00  0.00    -0.342 N 
ATOM     14  C   UNL     1       5.164  -1.152 -16.001  1.00  0.00     0.249 C 
ATOM     15  O   UNL     1       4.012  -1.020 -15.608  1.00  0.00    -0.272 OA
ATOM     16  H   UNL     1       7.156  -1.033 -15.680  1.00  0.00     0.164 HD
BRANCH  14  17
ATOM     17  C   UNL     1       5.535  -1.807 -17.348  1.00  0.00     0.207 C 
BRANCH  17  18
ATOM     18  C   UNL     1       7.023  -1.605 -17.651  1.00  0.00     0.077 C 
BRANCH  18  19
ATOM     19  C   UNL     1       7.832  -2.846 -17.347  1.00  0.00    -0.043 A 
ATOM     20  C   UNL     1       9.935  -4.053 -17.410  1.00  0.00     0.083 A 
ATOM     21  C   UNL     1       9.202  -2.889 -17.646  1.00  0.00     0.028 A 
ATOM     22  C   UNL     1       9.305  -5.179 -16.877  1.00  0.00     0.134 A 
ATOM     23  C   UNL     1       7.948  -5.150 -16.576  1.00  0.00     0.048 A 
ATOM     24  C   UNL     1       7.212  -3.987 -16.813  1.00  0.00     0.008 A 
ATOM     25  Cl  UNL     1      11.618  -4.087 -17.784  1.00  0.00    -0.080 Cl
BRANCH  22  26
ATOM     26  O   UNL     1       9.979  -6.346 -16.638  1.00  0.00    -0.506 OA
ATOM     27  H   UNL     1      10.929  -6.127 -16.649  1.00  0.00     0.293 HD
ENDBRANCH  22  26
ENDBRANCH  18  19
ENDBRANCH  17  18
BRANCH  17  28
ATOM     28  O   UNL     1       4.752  -1.260 -18.422  1.00  0.00    -0.383 OA
ATOM     29  H   UNL     1       4.367  -2.031 -18.898  1.00  0.00     0.211 HD
ENDBRANCH  17  28
ENDBRANCH  14  17
ENDBRANCH  12  13
BRANCH  12  30
ATOM     30  C   UNL     1       5.784   1.413 -14.071  1.00  0.00     0.018 C 
ATOM     31  C   UNL     1       6.373   2.091 -15.317  1.00  0.00     0.010 C 
BRANCH  30  32
ATOM     32  C   UNL     1       6.128   2.235 -12.805  1.00  0.00     0.002 C 
ATOM     33  C   UNL     1       7.065   3.415 -13.029  1.00  0.00     0.004 C 
ENDBRANCH  30  32
ENDBRANCH  12  30
ENDBRANCH  10  12
ENDBRANCH   1  10
BRANCH   5  34
ATOM     34  C   UNL     1       7.677  -3.498 -12.791  1.00  0.00     0.242 C 
ATOM     35  O   UNL     1       8.201  -4.534 -13.198  1.00  0.00    -0.273 OA
ATOM     36  N   UNL     1       6.317  -3.288 -12.841  1.00  0.00    -0.354 N 
ATOM     37  H   UNL     1       5.953  -2.365 -12.602  1.00  0.00     0.163 HD
BRANCH  36  38
ATOM     38  C   UNL     1       5.380  -4.356 -13.122  1.00  0.00     0.116 C 
BRANCH  38  39
ATOM     39  C   UNL     1       4.949  -4.296 -14.586  1.00  0.00     0.023 C 
BRANCH  39  40
ATOM     40  C   UNL     1       3.485  -4.674 -14.779  1.00  0.00     0.026 C 
BRANCH  40  41
ATOM     41  C   UNL     1       2.571  -3.698 -14.037  1.00  0.00     0.146 C 
BRANCH  41  42
ATOM     42  N   UNL     1       1.839  -4.404 -12.994  1.00  0.00    -0.254 NA
ATOM     43  C   UNL     1       1.784  -3.911 -11.814  1.00  0.00     0.185 C 
ATOM     44  N   UNL     1       2.316  -2.776 -11.325  1.00  0.00    -0.370 N 
ATOM     45  N   UNL     1       1.108  -4.580 -10.865  1.00  0.00    -0.370 N 
ATOM     46  H   UNL     1       2.402  -2.636 -10.333  1.00  0.00     0.159 HD
ATOM     47  H   UNL     1       2.850  -2.141 -11.911  1.00  0.00     0.159 HD
ATOM     48  H   UNL     1       0.668  -5.443 -11.153  1.00  0.00     0.159 HD
ATOM     49  H   UNL     1       0.821  -4.156 -10.001  1.00  0.00     0.159 HD
ENDBRANCH  41  42
ENDBRANCH  40  41
ENDBRANCH  39  40
ENDBRANCH  38  39
ENDBRANCH  36  38
ENDBRANCH   5  34
BRANCH   8  50
ATOM     50  O   UNL     1       4.744  -2.367  -9.232  1.00  0.00    -0.245 OA
BRANCH  50  51
ATOM     51  S   UNL     1       3.714  -2.898  -8.091  1.00  0.00     0.397 S 
ATOM     52  O   UNL     1       3.000  -4.034  -8.628  1.00  0.00    -0.169 OA
ATOM     53  O   UNL     1       3.018  -1.773  -7.502  1.00  0.00    -0.169 OA
BRANCH  51  54
ATOM     54  O   UNL     1       4.717  -3.494  -6.985  1.00  0.00    -0.264 OA
ATOM     55  H   UNL     1       4.516  -3.056  -6.133  1.00  0.00     0.236 HD
ENDBRANCH  51  54
ENDBRANCH  50  51
ENDBRANCH   8  50
TORSDOF 19
ENDMDL
MODEL 19
REMARK VINA RESULT:    -6.091      2.215      3.318
REMARK INTER + INTRA:         -16.099
REMARK INTER:                 -13.334
REMARK INTRA:                  -2.766
REMARK UNBOUND:                -3.778
REMARK SMILES CC[C@@H](C)[C@@H](NC(=O)[C@@H](O)Cc1ccc(O)c(Cl)c1)C(=O)N1[C@H](C(=O)NCCCCN=C(N)N)C[C@H]2CC[C@H](OS(=O)(=O)O)C[C@@H]21
REMARK SMILES IDX 22 1 36 2 46 3 35 4 23 5 45 6 37 7 39 8 38 9 20 10 21 11
REMARK SMILES IDX 5 12 6 13 7 14 8 15 9 17 11 18 12 19 17 20 19 21 15 22 14 23
REMARK SMILES IDX 13 24 18 25 16 26 10 28 3 30 4 31 2 32 1 33 24 34 25 35
REMARK SMILES IDX 26 36 27 38 28 39 29 40 30 41 31 42 32 43 33 44 34 45 40 50
REMARK SMILES IDX 41 51 42 52 43 53 44 54
REMARK H PARENT 6 16 16 27 10 29 26 37 33 46 33 47 34 48 34 49 44 55
ROOT
ATOM      1  N   UNL     1       9.689  -0.958 -16.132  1.00  0.00    -0.326 N 
ATOM      2  C   UNL     1      10.417  -1.922 -18.153  1.00  0.00     0.014 C 
ATOM      3  C   UNL     1      10.874  -1.579 -16.732  1.00  0.00     0.091 C 
ATOM      4  C   UNL     1       9.474  -0.776 -18.488  1.00  0.00     0.041 C 
ATOM      5  C   UNL     1       8.670  -0.694 -17.177  1.00  0.00     0.175 C 
ATOM      6  C   UNL     1      11.435  -2.844 -16.086  1.00  0.00     0.059 C 
ATOM      7  C   UNL     1      11.606  -2.194 -19.054  1.00  0.00     0.008 C 
ATOM      8  C   UNL     1      12.109  -3.807 -17.088  1.00  0.00     0.143 C 
ATOM      9  C   UNL     1      12.650  -3.067 -18.328  1.00  0.00     0.034 C 
ENDROOT
BRANCH   1  10
ATOM     10  C   UNL     1       9.510  -0.429 -14.865  1.00  0.00     0.246 C 
ATOM     11  O   UNL     1       8.417  -0.565 -14.306  1.00  0.00    -0.272 OA
BRANCH  10  12
ATOM     12  C   UNL     1      10.698   0.287 -14.158  1.00  0.00     0.174 C 
BRANCH  12  13
ATOM     13  N   UNL     1      10.623   0.069 -12.714  1.00  0.00    -0.342 N 
ATOM     14  C   UNL     1      11.188  -0.993 -12.045  1.00  0.00     0.249 C 
ATOM     15  O   UNL     1      11.848  -1.869 -12.590  1.00  0.00    -0.272 OA
ATOM     16  H   UNL     1       9.981   0.624 -12.154  1.00  0.00     0.164 HD
BRANCH  14  17
ATOM     17  C   UNL     1      10.918  -0.951 -10.526  1.00  0.00     0.207 C 
BRANCH  17  18
ATOM     18  C   UNL     1      10.381  -2.301 -10.040  1.00  0.00     0.077 C 
BRANCH  18  19
ATOM     19  C   UNL     1       8.893  -2.432 -10.276  1.00  0.00    -0.043 A 
ATOM     20  C   UNL     1       6.613  -2.277  -9.463  1.00  0.00     0.083 A 
ATOM     21  C   UNL     1       7.983  -2.109  -9.258  1.00  0.00     0.028 A 
ATOM     22  C   UNL     1       6.145  -2.770 -10.681  1.00  0.00     0.134 A 
ATOM     23  C   UNL     1       7.035  -3.094 -11.699  1.00  0.00     0.048 A 
ATOM     24  C   UNL     1       8.407  -2.928 -11.496  1.00  0.00     0.008 A 
ATOM     25  Cl  UNL     1       5.510  -1.875  -8.200  1.00  0.00    -0.080 Cl
BRANCH  22  26
ATOM     26  O   UNL     1       4.812  -2.962 -10.925  1.00  0.00    -0.506 OA
ATOM     27  H   UNL     1       4.748  -3.446 -11.770  1.00  0.00     0.293 HD
ENDBRANCH  22  26
ENDBRANCH  18  19
ENDBRANCH  17  18
BRANCH  17  28
ATOM     28  O   UNL     1       9.977   0.083 -10.196  1.00  0.00    -0.383 OA
ATOM     29  H   UNL     1       9.493   0.286 -11.028  1.00  0.00     0.211 HD
ENDBRANCH  17  28
ENDBRANCH  14  17
ENDBRANCH  12  13
BRANCH  12  30
ATOM     30  C   UNL     1      10.795   1.792 -14.526  1.00  0.00     0.018 C 
ATOM     31  C   UNL     1      12.070   2.417 -13.937  1.00  0.00     0.010 C 
BRANCH  30  32
ATOM     32  C   UNL     1       9.555   2.617 -14.104  1.00  0.00     0.002 C 
ATOM     33  C   UNL     1       9.095   3.663 -15.111  1.00  0.00     0.004 C 
ENDBRANCH  30  32
ENDBRANCH  12  30
ENDBRANCH  10  12
ENDBRANCH   1  10
BRANCH   5  34
ATOM     34  C   UNL     1       7.544  -1.761 -17.129  1.00  0.00     0.242 C 
ATOM     35  O   UNL     1       6.710  -1.878 -18.027  1.00  0.00    -0.273 OA
ATOM     36  N   UNL     1       7.513  -2.529 -15.987  1.00  0.00    -0.354 N 
ATOM     37  H   UNL     1       8.155  -2.304 -15.226  1.00  0.00     0.163 HD
BRANCH  36  38
ATOM     38  C   UNL     1       6.674  -3.703 -15.867  1.00  0.00     0.116 C 
BRANCH  38  39
ATOM     39  C   UNL     1       5.228  -3.284 -15.615  1.00  0.00     0.023 C 
BRANCH  39  40
ATOM     40  C   UNL     1       4.567  -4.104 -14.512  1.00  0.00     0.026 C 
BRANCH  40  41
ATOM     41  C   UNL     1       3.222  -3.495 -14.116  1.00  0.00     0.146 C 
BRANCH  41  42
ATOM     42  N   UNL     1       2.824  -3.990 -12.805  1.00  0.00    -0.254 NA
ATOM     43  C   UNL     1       1.610  -3.860 -12.420  1.00  0.00     0.185 C 
ATOM     44  N   UNL     1       0.557  -3.310 -13.052  1.00  0.00    -0.370 N 
ATOM     45  N   UNL     1       1.265  -4.319 -11.206  1.00  0.00    -0.370 N 
ATOM     46  H   UNL     1      -0.272  -3.056 -12.541  1.00  0.00     0.159 HD
ATOM     47  H   UNL     1       0.638  -2.925 -13.987  1.00  0.00     0.159 HD
ATOM     48  H   UNL     1       1.999  -4.757 -10.667  1.00  0.00     0.159 HD
ATOM     49  H   UNL     1       0.310  -4.469 -10.933  1.00  0.00     0.159 HD
ENDBRANCH  41  42
ENDBRANCH  40  41
ENDBRANCH  39  40
ENDBRANCH  38  39
ENDBRANCH  36  38
ENDBRANCH   5  34
BRANCH   8  50
ATOM     50  O   UNL     1      11.174  -4.795 -17.522  1.00  0.00    -0.245 OA
BRANCH  50  51
ATOM     51  S   UNL     1      10.749  -5.997 -16.512  1.00  0.00     0.397 S 
ATOM     52  O   UNL     1       9.415  -5.722 -16.027  1.00  0.00    -0.169 OA
ATOM     53  O   UNL     1      11.843  -6.281 -15.606  1.00  0.00    -0.169 OA
BRANCH  51  54
ATOM     54  O   UNL     1      10.601  -7.244 -17.516  1.00  0.00    -0.264 OA
ATOM     55  H   UNL     1      11.421  -7.775 -17.455  1.00  0.00     0.236 HD
ENDBRANCH  51  54
ENDBRANCH  50  51
ENDBRANCH   8  50
TORSDOF 19
ENDMDL
MODEL 20
REMARK VINA RESULT:    -6.077      3.531      7.426
REMARK INTER + INTRA:         -16.073
REMARK INTER:                 -11.873
REMARK INTRA:                  -4.200
REMARK UNBOUND:                -3.778
REMARK SMILES CC[C@@H](C)[C@@H](NC(=O)[C@@H](O)Cc1ccc(O)c(Cl)c1)C(=O)N1[C@H](C(=O)NCCCCN=C(N)N)C[C@H]2CC[C@H](OS(=O)(=O)O)C[C@@H]21
REMARK SMILES IDX 22 1 36 2 46 3 35 4 23 5 45 6 37 7 39 8 38 9 20 10 21 11
REMARK SMILES IDX 5 12 6 13 7 14 8 15 9 17 11 18 12 19 17 20 19 21 15 22 14 23
REMARK SMILES IDX 13 24 18 25 16 26 10 28 3 30 4 31 2 32 1 33 24 34 25 35
REMARK SMILES IDX 26 36 27 38 28 39 29 40 30 41 31 42 32 43 33 44 34 45 40 50
REMARK SMILES IDX 41 51 42 52 43 53 44 54
REMARK H PARENT 6 16 16 27 10 29 26 37 33 46 33 47 34 48 34 49 44 55
ROOT
ATOM      1  N   UNL     1       2.010  -1.559 -13.493  1.00  0.00    -0.326 N 
ATOM      2  C   UNL     1       2.512  -3.842 -13.780  1.00  0.00     0.014 C 
ATOM      3  C   UNL     1       2.875  -2.441 -14.282  1.00  0.00     0.091 C 
ATOM      4  C   UNL     1       1.024  -3.717 -13.488  1.00  0.00     0.041 C 
ATOM      5  C   UNL     1       1.002  -2.362 -12.757  1.00  0.00     0.175 C 
ATOM      6  C   UNL     1       4.388  -2.264 -14.167  1.00  0.00     0.059 C 
ATOM      7  C   UNL     1       2.994  -4.906 -14.746  1.00  0.00     0.008 C 
ATOM      8  C   UNL     1       5.184  -3.573 -14.362  1.00  0.00     0.143 C 
ATOM      9  C   UNL     1       4.422  -4.589 -15.237  1.00  0.00     0.034 C 
ENDROOT
BRANCH   1  10
ATOM     10  C   UNL     1       1.882  -0.181 -13.525  1.00  0.00     0.246 C 
ATOM     11  O   UNL     1       0.808   0.315 -13.878  1.00  0.00    -0.272 OA
BRANCH  10  12
ATOM     12  C   UNL     1       3.076   0.710 -13.074  1.00  0.00     0.174 C 
BRANCH  12  13
ATOM     13  N   UNL     1       4.037   0.846 -14.168  1.00  0.00    -0.342 N 
ATOM     14  C   UNL     1       3.892   1.690 -15.247  1.00  0.00     0.249 C 
ATOM     15  O   UNL     1       2.942   2.449 -15.396  1.00  0.00    -0.272 OA
ATOM     16  H   UNL     1       4.793   0.172 -14.262  1.00  0.00     0.164 HD
BRANCH  14  17
ATOM     17  C   UNL     1       5.068   1.592 -16.242  1.00  0.00     0.207 C 
BRANCH  17  18
ATOM     18  C   UNL     1       6.399   1.833 -15.522  1.00  0.00     0.077 C 
BRANCH  18  19
ATOM     19  C   UNL     1       7.187   0.553 -15.354  1.00  0.00    -0.043 A 
ATOM     20  C   UNL     1       7.719  -1.699 -16.080  1.00  0.00     0.083 A 
ATOM     21  C   UNL     1       7.028  -0.501 -16.267  1.00  0.00     0.028 A 
ATOM     22  C   UNL     1       8.569  -1.852 -14.985  1.00  0.00     0.134 A 
ATOM     23  C   UNL     1       8.736  -0.815 -14.074  1.00  0.00     0.048 A 
ATOM     24  C   UNL     1       8.045   0.384 -14.256  1.00  0.00     0.008 A 
ATOM     25  Cl  UNL     1       7.509  -2.984 -17.212  1.00  0.00    -0.080 Cl
BRANCH  22  26
ATOM     26  O   UNL     1       9.259  -3.011 -14.755  1.00  0.00    -0.506 OA
ATOM     27  H   UNL     1       8.724  -3.537 -14.133  1.00  0.00     0.293 HD
ENDBRANCH  22  26
ENDBRANCH  18  19
ENDBRANCH  17  18
BRANCH  17  28
ATOM     28  O   UNL     1       4.924   2.544 -17.308  1.00  0.00    -0.383 OA
ATOM     29  H   UNL     1       4.462   2.069 -18.036  1.00  0.00     0.211 HD
ENDBRANCH  17  28
ENDBRANCH  14  17
ENDBRANCH  12  13
BRANCH  12  30
ATOM     30  C   UNL     1       3.739   0.207 -11.763  1.00  0.00     0.018 C 
ATOM     31  C   UNL     1       3.153   0.934 -10.542  1.00  0.00     0.010 C 
BRANCH  30  32
ATOM     32  C   UNL     1       5.282   0.325 -11.762  1.00  0.00     0.002 C 
ATOM     33  C   UNL     1       6.028  -0.891 -11.228  1.00  0.00     0.004 C 
ENDBRANCH  30  32
ENDBRANCH  12  30
ENDBRANCH  10  12
ENDBRANCH   1  10
BRANCH   5  34
ATOM     34  C   UNL     1       1.401  -2.511 -11.264  1.00  0.00     0.242 C 
ATOM     35  O   UNL     1       0.989  -1.745 -10.394  1.00  0.00    -0.273 OA
ATOM     36  N   UNL     1       2.291  -3.526 -10.994  1.00  0.00    -0.354 N 
ATOM     37  H   UNL     1       2.690  -4.050 -11.774  1.00  0.00     0.163 HD
BRANCH  36  38
ATOM     38  C   UNL     1       2.602  -3.943  -9.643  1.00  0.00     0.116 C 
BRANCH  38  39
ATOM     39  C   UNL     1       4.085  -3.715  -9.358  1.00  0.00     0.023 C 
BRANCH  39  40
ATOM     40  C   UNL     1       4.423  -3.861  -7.878  1.00  0.00     0.026 C 
BRANCH  40  41
ATOM     41  C   UNL     1       4.187  -2.546  -7.136  1.00  0.00     0.146 C 
BRANCH  41  42
ATOM     42  N   UNL     1       3.281  -2.768  -6.017  1.00  0.00    -0.254 NA
ATOM     43  C   UNL     1       2.063  -2.384  -6.103  1.00  0.00     0.185 C 
ATOM     44  N   UNL     1       1.418  -1.770  -7.112  1.00  0.00    -0.370 N 
ATOM     45  N   UNL     1       1.245  -2.594  -5.059  1.00  0.00    -0.370 N 
ATOM     46  H   UNL     1       0.538  -1.310  -6.953  1.00  0.00     0.159 HD
ATOM     47  H   UNL     1       1.885  -1.547  -7.985  1.00  0.00     0.159 HD
ATOM     48  H   UNL     1       1.650  -3.061  -4.258  1.00  0.00     0.159 HD
ATOM     49  H   UNL     1       0.244  -2.543  -5.133  1.00  0.00     0.159 HD
ENDBRANCH  41  42
ENDBRANCH  40  41
ENDBRANCH  39  40
ENDBRANCH  38  39
ENDBRANCH  36  38
ENDBRANCH   5  34
BRANCH   8  50
ATOM     50  O   UNL     1       5.453  -4.177 -13.096  1.00  0.00    -0.245 OA
BRANCH  50  51
ATOM     51  S   UNL     1       6.898  -4.873 -12.830  1.00  0.00     0.397 S 
ATOM     52  O   UNL     1       6.667  -6.158 -12.209  1.00  0.00    -0.169 OA
ATOM     53  O   UNL     1       7.806  -3.903 -12.254  1.00  0.00    -0.169 OA
BRANCH  51  54
ATOM     54  O   UNL     1       7.398  -5.192 -14.325  1.00  0.00    -0.264 OA
ATOM     55  H   UNL     1       6.837  -5.912 -14.679  1.00  0.00     0.236 HD
ENDBRANCH  51  54
ENDBRANCH  50  51
ENDBRANCH   8  50
TORSDOF 19
ENDMDL
MODEL 21
REMARK VINA RESULT:    -6.062      3.607      7.834
REMARK INTER + INTRA:         -16.041
REMARK INTER:                 -12.578
REMARK INTRA:                  -3.463
REMARK UNBOUND:                -3.778
REMARK SMILES CC[C@@H](C)[C@@H](NC(=O)[C@@H](O)Cc1ccc(O)c(Cl)c1)C(=O)N1[C@H](C(=O)NCCCCN=C(N)N)C[C@H]2CC[C@H](OS(=O)(=O)O)C[C@@H]21
REMARK SMILES IDX 22 1 36 2 46 3 35 4 23 5 45 6 37 7 39 8 38 9 20 10 21 11
REMARK SMILES IDX 5 12 6 13 7 14 8 15 9 17 11 18 12 19 17 20 19 21 15 22 14 23
REMARK SMILES IDX 13 24 18 25 16 26 10 28 3 30 4 31 2 32 1 33 24 34 25 35
REMARK SMILES IDX 26 36 27 38 28 39 29 40 30 41 31 42 32 43 33 44 34 45 40 50
REMARK SMILES IDX 41 51 42 52 43 53 44 54
REMARK H PARENT 6 16 16 27 10 29 26 37 33 46 33 47 34 48 34 49 44 55
ROOT
ATOM      1  N   UNL     1       6.096  -3.886 -13.909  1.00  0.00    -0.326 N 
ATOM      2  C   UNL     1       3.775  -3.798 -14.293  1.00  0.00     0.014 C 
ATOM      3  C   UNL     1       4.840  -3.595 -13.212  1.00  0.00     0.091 C 
ATOM      4  C   UNL     1       4.348  -4.941 -15.117  1.00  0.00     0.041 C 
ATOM      5  C   UNL     1       5.813  -4.482 -15.238  1.00  0.00     0.175 C 
ATOM      6  C   UNL     1       4.653  -2.206 -12.605  1.00  0.00     0.059 C 
ATOM      7  C   UNL     1       2.397  -3.944 -13.678  1.00  0.00     0.008 C 
ATOM      8  C   UNL     1       3.185  -1.728 -12.586  1.00  0.00     0.143 C 
ATOM      9  C   UNL     1       2.192  -2.908 -12.552  1.00  0.00     0.034 C 
ENDROOT
BRANCH   1  10
ATOM     10  C   UNL     1       7.396  -3.885 -13.432  1.00  0.00     0.246 C 
ATOM     11  O   UNL     1       7.893  -4.945 -13.038  1.00  0.00    -0.272 OA
BRANCH  10  12
ATOM     12  C   UNL     1       8.215  -2.562 -13.444  1.00  0.00     0.174 C 
BRANCH  12  13
ATOM     13  N   UNL     1       9.448  -2.745 -14.209  1.00  0.00    -0.342 N 
ATOM     14  C   UNL     1       9.744  -2.109 -15.394  1.00  0.00     0.249 C 
ATOM     15  O   UNL     1       9.010  -1.289 -15.930  1.00  0.00    -0.272 OA
ATOM     16  H   UNL     1      10.079  -3.507 -13.973  1.00  0.00     0.164 HD
BRANCH  14  17
ATOM     17  C   UNL     1      11.115  -2.527 -15.967  1.00  0.00     0.207 C 
BRANCH  17  18
ATOM     18  C   UNL     1      12.230  -2.231 -14.959  1.00  0.00     0.077 C 
BRANCH  18  19
ATOM     19  C   UNL     1      12.123  -0.831 -14.398  1.00  0.00    -0.043 A 
ATOM     20  C   UNL     1      11.598   0.664 -12.561  1.00  0.00     0.083 A 
ATOM     21  C   UNL     1      11.743  -0.630 -13.062  1.00  0.00     0.028 A 
ATOM     22  C   UNL     1      11.830   1.763 -13.390  1.00  0.00     0.134 A 
ATOM     23  C   UNL     1      12.207   1.578 -14.715  1.00  0.00     0.048 A 
ATOM     24  C   UNL     1      12.351   0.284 -15.219  1.00  0.00     0.008 A 
ATOM     25  Cl  UNL     1      11.130   0.891 -10.917  1.00  0.00    -0.080 Cl
BRANCH  22  26
ATOM     26  O   UNL     1      11.690   3.051 -12.947  1.00  0.00    -0.506 OA
ATOM     27  H   UNL     1      11.973   3.630 -13.678  1.00  0.00     0.293 HD
ENDBRANCH  22  26
ENDBRANCH  18  19
ENDBRANCH  17  18
BRANCH  17  28
ATOM     28  O   UNL     1      11.392  -1.840 -17.198  1.00  0.00    -0.383 OA
ATOM     29  H   UNL     1      11.957  -2.447 -17.728  1.00  0.00     0.211 HD
ENDBRANCH  17  28
ENDBRANCH  14  17
ENDBRANCH  12  13
BRANCH  12  30
ATOM     30  C   UNL     1       8.481  -2.009 -12.018  1.00  0.00     0.018 C 
ATOM     31  C   UNL     1       7.907  -2.953 -10.950  1.00  0.00     0.010 C 
BRANCH  30  32
ATOM     32  C   UNL     1       7.947  -0.572 -11.799  1.00  0.00     0.002 C 
ATOM     33  C   UNL     1       7.877   0.294 -13.051  1.00  0.00     0.004 C 
ENDBRANCH  30  32
ENDBRANCH  12  30
ENDBRANCH  10  12
ENDBRANCH   1  10
BRANCH   5  34
ATOM     34  C   UNL     1       5.991  -3.428 -16.363  1.00  0.00     0.242 C 
ATOM     35  O   UNL     1       6.339  -3.735 -17.503  1.00  0.00    -0.273 OA
ATOM     36  N   UNL     1       5.785  -2.122 -15.979  1.00  0.00    -0.354 N 
ATOM     37  H   UNL     1       5.616  -1.920 -14.993  1.00  0.00     0.163 HD
BRANCH  36  38
ATOM     38  C   UNL     1       5.697  -1.040 -16.937  1.00  0.00     0.116 C 
BRANCH  38  39
ATOM     39  C   UNL     1       4.409  -0.251 -16.712  1.00  0.00     0.023 C 
BRANCH  39  40
ATOM     40  C   UNL     1       4.630   1.257 -16.776  1.00  0.00     0.026 C 
BRANCH  40  41
ATOM     41  C   UNL     1       5.921   1.647 -16.056  1.00  0.00     0.146 C 
BRANCH  41  42
ATOM     42  N   UNL     1       6.575   2.734 -16.772  1.00  0.00    -0.254 NA
ATOM     43  C   UNL     1       7.833   2.675 -17.001  1.00  0.00     0.185 C 
ATOM     44  N   UNL     1       8.727   1.722 -16.680  1.00  0.00    -0.370 N 
ATOM     45  N   UNL     1       8.417   3.690 -17.658  1.00  0.00    -0.370 N 
ATOM     46  H   UNL     1       9.714   1.916 -16.704  1.00  0.00     0.159 HD
ATOM     47  H   UNL     1       8.452   0.876 -16.191  1.00  0.00     0.159 HD
ATOM     48  H   UNL     1       7.811   4.447 -17.945  1.00  0.00     0.159 HD
ATOM     49  H   UNL     1       9.327   3.614 -18.079  1.00  0.00     0.159 HD
ENDBRANCH  41  42
ENDBRANCH  40  41
ENDBRANCH  39  40
ENDBRANCH  38  39
ENDBRANCH  36  38
ENDBRANCH   5  34
BRANCH   8  50
ATOM     50  O   UNL     1       2.911  -0.938 -13.744  1.00  0.00    -0.245 OA
BRANCH  50  51
ATOM     51  S   UNL     1       2.257   0.541 -13.571  1.00  0.00     0.397 S 
ATOM     52  O   UNL     1       1.156   0.654 -14.501  1.00  0.00    -0.169 OA
ATOM     53  O   UNL     1       3.310   1.534 -13.515  1.00  0.00    -0.169 OA
BRANCH  51  54
ATOM     54  O   UNL     1       1.589   0.444 -12.111  1.00  0.00    -0.264 OA
ATOM     55  H   UNL     1       1.799  -0.440 -11.746  1.00  0.00     0.236 HD
ENDBRANCH  51  54
ENDBRANCH  50  51
ENDBRANCH   8  50
TORSDOF 19
ENDMDL
MODEL 22
REMARK VINA RESULT:    -6.050      5.766      8.888
REMARK INTER + INTRA:         -16.016
REMARK INTER:                 -12.665
REMARK INTRA:                  -3.352
REMARK UNBOUND:                -3.778
REMARK SMILES CC[C@@H](C)[C@@H](NC(=O)[C@@H](O)Cc1ccc(O)c(Cl)c1)C(=O)N1[C@H](C(=O)NCCCCN=C(N)N)C[C@H]2CC[C@H](OS(=O)(=O)O)C[C@@H]21
REMARK SMILES IDX 22 1 36 2 46 3 35 4 23 5 45 6 37 7 39 8 38 9 20 10 21 11
REMARK SMILES IDX 5 12 6 13 7 14 8 15 9 17 11 18 12 19 17 20 19 21 15 22 14 23
REMARK SMILES IDX 13 24 18 25 16 26 10 28 3 30 4 31 2 32 1 33 24 34 25 35
REMARK SMILES IDX 26 36 27 38 28 39 29 40 30 41 31 42 32 43 33 44 34 45 40 50
REMARK SMILES IDX 41 51 42 52 43 53 44 54
REMARK H PARENT 6 16 16 27 10 29 26 37 33 46 33 47 34 48 34 49 44 55
ROOT
ATOM      1  N   UNL     1       4.455  -1.958  -8.451  1.00  0.00    -0.326 N 
ATOM      2  C   UNL     1       5.111  -0.695 -10.326  1.00  0.00     0.014 C 
ATOM      3  C   UNL     1       5.601  -1.205  -8.968  1.00  0.00     0.091 C 
ATOM      4  C   UNL     1       3.634  -0.434 -10.073  1.00  0.00     0.041 C 
ATOM      5  C   UNL     1       3.261  -1.711  -9.297  1.00  0.00     0.175 C 
ATOM      6  C   UNL     1       6.921  -1.946  -9.178  1.00  0.00     0.059 C 
ATOM      7  C   UNL     1       5.989   0.433 -10.831  1.00  0.00     0.008 C 
ATOM      8  C   UNL     1       7.771  -1.385 -10.338  1.00  0.00     0.143 C 
ATOM      9  C   UNL     1       7.480   0.107 -10.601  1.00  0.00     0.034 C 
ENDROOT
BRANCH   1  10
ATOM     10  C   UNL     1       4.304  -2.632  -7.251  1.00  0.00     0.246 C 
ATOM     11  O   UNL     1       4.529  -3.846  -7.210  1.00  0.00    -0.272 OA
BRANCH  10  12
ATOM     12  C   UNL     1       3.898  -1.841  -5.974  1.00  0.00     0.174 C 
BRANCH  12  13
ATOM     13  N   UNL     1       4.248  -2.609  -4.779  1.00  0.00    -0.342 N 
ATOM     14  C   UNL     1       4.939  -2.114  -3.696  1.00  0.00     0.249 C 
ATOM     15  O   UNL     1       5.318  -0.953  -3.602  1.00  0.00    -0.272 OA
ATOM     16  H   UNL     1       4.138  -3.620  -4.780  1.00  0.00     0.164 HD
BRANCH  14  17
ATOM     17  C   UNL     1       5.169  -3.176  -2.600  1.00  0.00     0.207 C 
BRANCH  17  18
ATOM     18  C   UNL     1       6.314  -4.114  -2.995  1.00  0.00     0.077 C 
BRANCH  18  19
ATOM     19  C   UNL     1       7.500  -3.974  -2.067  1.00  0.00    -0.043 A 
ATOM     20  C   UNL     1       8.480  -4.197   0.141  1.00  0.00     0.083 A 
ATOM     21  C   UNL     1       7.400  -4.373  -0.725  1.00  0.00     0.028 A 
ATOM     22  C   UNL     1       9.663  -3.622  -0.326  1.00  0.00     0.134 A 
ATOM     23  C   UNL     1       9.776  -3.224  -1.653  1.00  0.00     0.048 A 
ATOM     24  C   UNL     1       8.696  -3.397  -2.521  1.00  0.00     0.008 A 
ATOM     25  Cl  UNL     1       8.337  -4.692   1.787  1.00  0.00    -0.080 Cl
BRANCH  22  26
ATOM     26  O   UNL     1      10.744  -3.420   0.488  1.00  0.00    -0.506 OA
ATOM     27  H   UNL     1      11.518  -3.314  -0.096  1.00  0.00     0.293 HD
ENDBRANCH  22  26
ENDBRANCH  18  19
ENDBRANCH  17  18
BRANCH  17  28
ATOM     28  O   UNL     1       3.979  -3.948  -2.370  1.00  0.00    -0.383 OA
ATOM     29  H   UNL     1       3.992  -4.672  -3.036  1.00  0.00     0.211 HD
ENDBRANCH  17  28
ENDBRANCH  14  17
ENDBRANCH  12  13
BRANCH  12  30
ATOM     30  C   UNL     1       2.406  -1.409  -5.985  1.00  0.00     0.018 C 
ATOM     31  C   UNL     1       2.214  -0.088  -5.225  1.00  0.00     0.010 C 
BRANCH  30  32
ATOM     32  C   UNL     1       1.443  -2.487  -5.429  1.00  0.00     0.002 C 
ATOM     33  C   UNL     1       0.064  -1.982  -5.027  1.00  0.00     0.004 C 
ENDBRANCH  30  32
ENDBRANCH  12  30
ENDBRANCH  10  12
ENDBRANCH   1  10
BRANCH   5  34
ATOM     34  C   UNL     1       3.006  -2.907 -10.252  1.00  0.00     0.242 C 
ATOM     35  O   UNL     1       3.779  -3.861 -10.332  1.00  0.00    -0.273 OA
ATOM     36  N   UNL     1       1.882  -2.797 -11.040  1.00  0.00    -0.354 N 
ATOM     37  H   UNL     1       1.347  -1.929 -11.015  1.00  0.00     0.163 HD
BRANCH  36  38
ATOM     38  C   UNL     1       1.377  -3.905 -11.825  1.00  0.00     0.116 C 
BRANCH  38  39
ATOM     39  C   UNL     1       1.415  -3.549 -13.309  1.00  0.00     0.023 C 
BRANCH  39  40
ATOM     40  C   UNL     1       2.168  -4.585 -14.137  1.00  0.00     0.026 C 
BRANCH  40  41
ATOM     41  C   UNL     1       3.506  -4.025 -14.620  1.00  0.00     0.146 C 
BRANCH  41  42
ATOM     42  N   UNL     1       4.541  -5.043 -14.493  1.00  0.00    -0.254 NA
ATOM     43  C   UNL     1       5.400  -4.959 -13.548  1.00  0.00     0.185 C 
ATOM     44  N   UNL     1       5.532  -4.035 -12.578  1.00  0.00    -0.370 N 
ATOM     45  N   UNL     1       6.348  -5.905 -13.452  1.00  0.00    -0.370 N 
ATOM     46  H   UNL     1       6.389  -3.958 -12.057  1.00  0.00     0.159 HD
ATOM     47  H   UNL     1       4.889  -3.254 -12.495  1.00  0.00     0.159 HD
ATOM     48  H   UNL     1       6.315  -6.645 -14.140  1.00  0.00     0.159 HD
ATOM     49  H   UNL     1       6.898  -6.042 -12.622  1.00  0.00     0.159 HD
ENDBRANCH  41  42
ENDBRANCH  40  41
ENDBRANCH  39  40
ENDBRANCH  38  39
ENDBRANCH  36  38
ENDBRANCH   5  34
BRANCH   8  50
ATOM     50  O   UNL     1       7.508  -2.116 -11.536  1.00  0.00    -0.245 OA
BRANCH  50  51
ATOM     51  S   UNL     1       8.688  -2.300 -12.640  1.00  0.00     0.397 S 
ATOM     52  O   UNL     1       8.476  -3.561 -13.314  1.00  0.00    -0.169 OA
ATOM     53  O   UNL     1       9.965  -1.961 -12.047  1.00  0.00    -0.169 OA
BRANCH  51  54
ATOM     54  O   UNL     1       8.323  -1.161 -13.715  1.00  0.00    -0.264 OA
ATOM     55  H   UNL     1       8.625  -1.472 -14.593  1.00  0.00     0.236 HD
ENDBRANCH  51  54
ENDBRANCH  50  51
ENDBRANCH   8  50
TORSDOF 19
ENDMDL
MODEL 23
REMARK VINA RESULT:    -6.031      2.999      4.766
REMARK INTER + INTRA:         -15.979
REMARK INTER:                 -12.396
REMARK INTRA:                  -3.583
REMARK UNBOUND:                -3.778
REMARK SMILES CC[C@@H](C)[C@@H](NC(=O)[C@@H](O)Cc1ccc(O)c(Cl)c1)C(=O)N1[C@H](C(=O)NCCCCN=C(N)N)C[C@H]2CC[C@H](OS(=O)(=O)O)C[C@@H]21
REMARK SMILES IDX 22 1 36 2 46 3 35 4 23 5 45 6 37 7 39 8 38 9 20 10 21 11
REMARK SMILES IDX 5 12 6 13 7 14 8 15 9 17 11 18 12 19 17 20 19 21 15 22 14 23
REMARK SMILES IDX 13 24 18 25 16 26 10 28 3 30 4 31 2 32 1 33 24 34 25 35
REMARK SMILES IDX 26 36 27 38 28 39 29 40 30 41 31 42 32 43 33 44 34 45 40 50
REMARK SMILES IDX 41 51 42 52 43 53 44 54
REMARK H PARENT 6 16 16 27 10 29 26 37 33 46 33 47 34 48 34 49 44 55
ROOT
ATOM      1  N   UNL     1       9.414  -2.154 -15.601  1.00  0.00    -0.326 N 
ATOM      2  C   UNL     1      10.152  -2.523 -17.806  1.00  0.00     0.014 C 
ATOM      3  C   UNL     1      10.647  -2.367 -16.365  1.00  0.00     0.091 C 
ATOM      4  C   UNL     1       8.965  -1.574 -17.857  1.00  0.00     0.041 C 
ATOM      5  C   UNL     1       8.276  -1.927 -16.526  1.00  0.00     0.175 C 
ATOM      6  C   UNL     1      11.514  -3.576 -16.019  1.00  0.00     0.059 C 
ATOM      7  C   UNL     1      11.290  -2.344 -18.792  1.00  0.00     0.008 C 
ATOM      8  C   UNL     1      12.287  -4.153 -17.225  1.00  0.00     0.143 C 
ATOM      9  C   UNL     1      12.553  -3.086 -18.305  1.00  0.00     0.034 C 
ENDROOT
BRANCH   1  10
ATOM     10  C   UNL     1       9.236  -1.933 -14.246  1.00  0.00     0.246 C 
ATOM     11  O   UNL     1       8.907  -2.877 -13.521  1.00  0.00    -0.272 OA
BRANCH  10  12
ATOM     12  C   UNL     1       9.496  -0.515 -13.660  1.00  0.00     0.174 C 
BRANCH  12  13
ATOM     13  N   UNL     1       9.067   0.506 -14.615  1.00  0.00    -0.342 N 
ATOM     14  C   UNL     1       8.286   1.598 -14.307  1.00  0.00     0.249 C 
ATOM     15  O   UNL     1       7.885   1.852 -13.179  1.00  0.00    -0.272 OA
ATOM     16  H   UNL     1       9.190   0.347 -15.612  1.00  0.00     0.164 HD
BRANCH  14  17
ATOM     17  C   UNL     1       7.988   2.483 -15.536  1.00  0.00     0.207 C 
BRANCH  17  18
ATOM     18  C   UNL     1       7.317   1.659 -16.639  1.00  0.00     0.077 C 
BRANCH  18  19
ATOM     19  C   UNL     1       5.837   1.478 -16.384  1.00  0.00    -0.043 A 
ATOM     20  C   UNL     1       3.592   2.392 -16.298  1.00  0.00     0.083 A 
ATOM     21  C   UNL     1       4.949   2.547 -16.582  1.00  0.00     0.028 A 
ATOM     22  C   UNL     1       3.114   1.173 -15.815  1.00  0.00     0.134 A 
ATOM     23  C   UNL     1       3.983   0.106 -15.615  1.00  0.00     0.048 A 
ATOM     24  C   UNL     1       5.342   0.259 -15.896  1.00  0.00     0.008 A 
ATOM     25  Cl  UNL     1       2.516   3.716 -16.548  1.00  0.00    -0.080 Cl
BRANCH  22  26
ATOM     26  O   UNL     1       1.794   0.976 -15.513  1.00  0.00    -0.506 OA
ATOM     27  H   UNL     1       1.278   1.419 -16.212  1.00  0.00     0.293 HD
ENDBRANCH  22  26
ENDBRANCH  18  19
ENDBRANCH  17  18
BRANCH  17  28
ATOM     28  O   UNL     1       9.192   3.076 -16.050  1.00  0.00    -0.383 OA
ATOM     29  H   UNL     1       9.328   3.904 -15.536  1.00  0.00     0.211 HD
ENDBRANCH  17  28
ENDBRANCH  14  17
ENDBRANCH  12  13
BRANCH  12  30
ATOM     30  C   UNL     1      10.966  -0.315 -13.201  1.00  0.00     0.018 C 
ATOM     31  C   UNL     1      11.849   0.132 -14.377  1.00  0.00     0.010 C 
BRANCH  30  32
ATOM     32  C   UNL     1      11.579  -1.563 -12.521  1.00  0.00     0.002 C 
ATOM     33  C   UNL     1      11.209  -1.754 -11.055  1.00  0.00     0.004 C 
ENDBRANCH  30  32
ENDBRANCH  12  30
ENDBRANCH  10  12
ENDBRANCH   1  10
BRANCH   5  34
ATOM     34  C   UNL     1       7.407  -3.207 -16.654  1.00  0.00     0.242 C 
ATOM     35  O   UNL     1       7.128  -3.706 -17.744  1.00  0.00    -0.273 OA
ATOM     36  N   UNL     1       6.927  -3.710 -15.466  1.00  0.00    -0.354 N 
ATOM     37  H   UNL     1       7.093  -3.184 -14.607  1.00  0.00     0.163 HD
BRANCH  36  38
ATOM     38  C   UNL     1       6.287  -5.006 -15.377  1.00  0.00     0.116 C 
BRANCH  38  39
ATOM     39  C   UNL     1       4.816  -4.833 -15.008  1.00  0.00     0.023 C 
BRANCH  39  40
ATOM     40  C   UNL     1       4.454  -3.380 -14.720  1.00  0.00     0.026 C 
BRANCH  40  41
ATOM     41  C   UNL     1       3.989  -3.213 -13.274  1.00  0.00     0.146 C 
BRANCH  41  42
ATOM     42  N   UNL     1       5.025  -3.687 -12.366  1.00  0.00    -0.254 NA
ATOM     43  C   UNL     1       5.971  -2.899 -12.017  1.00  0.00     0.185 C 
ATOM     44  N   UNL     1       6.201  -1.618 -12.360  1.00  0.00    -0.370 N 
ATOM     45  N   UNL     1       6.918  -3.357 -11.183  1.00  0.00    -0.370 N 
ATOM     46  H   UNL     1       7.104  -1.201 -12.210  1.00  0.00     0.159 HD
ATOM     47  H   UNL     1       5.573  -1.110 -12.975  1.00  0.00     0.159 HD
ATOM     48  H   UNL     1       6.815  -4.312 -10.869  1.00  0.00     0.159 HD
ATOM     49  H   UNL     1       7.544  -2.749 -10.684  1.00  0.00     0.159 HD
ENDBRANCH  41  42
ENDBRANCH  40  41
ENDBRANCH  39  40
ENDBRANCH  38  39
ENDBRANCH  36  38
ENDBRANCH   5  34
BRANCH   8  50
ATOM     50  O   UNL     1      11.547  -5.222 -17.815  1.00  0.00    -0.245 OA
BRANCH  50  51
ATOM     51  S   UNL     1      11.253  -6.568 -16.952  1.00  0.00     0.397 S 
ATOM     52  O   UNL     1      12.154  -6.579 -15.821  1.00  0.00    -0.169 OA
ATOM     53  O   UNL     1      11.140  -7.703 -17.845  1.00  0.00    -0.169 OA
BRANCH  51  54
ATOM     54  O   UNL     1       9.794  -6.267 -16.347  1.00  0.00    -0.264 OA
ATOM     55  H   UNL     1       9.367  -7.127 -16.155  1.00  0.00     0.236 HD
ENDBRANCH  51  54
ENDBRANCH  50  51
ENDBRANCH   8  50
TORSDOF 19
ENDMDL
MODEL 24
REMARK VINA RESULT:    -6.026     14.418     17.742
REMARK INTER + INTRA:         -15.969
REMARK INTER:                 -12.296
REMARK INTRA:                  -3.673
REMARK UNBOUND:                -3.778
REMARK SMILES CC[C@@H](C)[C@@H](NC(=O)[C@@H](O)Cc1ccc(O)c(Cl)c1)C(=O)N1[C@H](C(=O)NCCCCN=C(N)N)C[C@H]2CC[C@H](OS(=O)(=O)O)C[C@@H]21
REMARK SMILES IDX 22 1 36 2 46 3 35 4 23 5 45 6 37 7 39 8 38 9 20 10 21 11
REMARK SMILES IDX 5 12 6 13 7 14 8 15 9 17 11 18 12 19 17 20 19 21 15 22 14 23
REMARK SMILES IDX 13 24 18 25 16 26 10 28 3 30 4 31 2 32 1 33 24 34 25 35
REMARK SMILES IDX 26 36 27 38 28 39 29 40 30 41 31 42 32 43 33 44 34 45 40 50
REMARK SMILES IDX 41 51 42 52 43 53 44 54
REMARK H PARENT 6 16 16 27 10 29 26 37 33 46 33 47 34 48 34 49 44 55
ROOT
ATOM      1  N   UNL     1       9.567  -2.991   1.874  1.00  0.00    -0.326 N 
ATOM      2  C   UNL     1       9.438  -3.222  -0.465  1.00  0.00     0.014 C 
ATOM      3  C   UNL     1       9.251  -3.988   0.847  1.00  0.00     0.091 C 
ATOM      4  C   UNL     1      10.593  -2.286  -0.145  1.00  0.00     0.041 C 
ATOM      5  C   UNL     1      10.161  -1.785   1.246  1.00  0.00     0.175 C 
ATOM      6  C   UNL     1       7.857  -4.613   0.848  1.00  0.00     0.059 C 
ATOM      7  C   UNL     1       9.556  -4.175  -1.638  1.00  0.00     0.008 C 
ATOM      8  C   UNL     1       7.353  -5.010  -0.556  1.00  0.00     0.143 C 
ATOM      9  C   UNL     1       8.515  -5.308  -1.526  1.00  0.00     0.034 C 
ENDROOT
BRANCH   1  10
ATOM     10  C   UNL     1       9.588  -3.113   3.253  1.00  0.00     0.246 C 
ATOM     11  O   UNL     1      10.655  -2.952   3.855  1.00  0.00    -0.272 OA
BRANCH  10  12
ATOM     12  C   UNL     1       8.265  -3.407   4.018  1.00  0.00     0.174 C 
BRANCH  12  13
ATOM     13  N   UNL     1       7.932  -2.280   4.889  1.00  0.00    -0.342 N 
ATOM     14  C   UNL     1       6.873  -1.421   4.700  1.00  0.00     0.249 C 
ATOM     15  O   UNL     1       6.066  -1.524   3.785  1.00  0.00    -0.272 OA
ATOM     16  H   UNL     1       8.597  -1.977   5.596  1.00  0.00     0.164 HD
BRANCH  14  17
ATOM     17  C   UNL     1       6.797  -0.322   5.782  1.00  0.00     0.207 C 
BRANCH  17  18
ATOM     18  C   UNL     1       7.511  -0.777   7.059  1.00  0.00     0.077 C 
BRANCH  18  19
ATOM     19  C   UNL     1       8.590   0.197   7.477  1.00  0.00    -0.043 A 
ATOM     20  C   UNL     1       9.259   2.425   8.162  1.00  0.00     0.083 A 
ATOM     21  C   UNL     1       8.257   1.515   7.825  1.00  0.00     0.028 A 
ATOM     22  C   UNL     1      10.596   2.026   8.154  1.00  0.00     0.134 A 
ATOM     23  C   UNL     1      10.940   0.724   7.812  1.00  0.00     0.048 A 
ATOM     24  C   UNL     1       9.939  -0.189   7.471  1.00  0.00     0.008 A 
ATOM     25  Cl  UNL     1       8.830   4.041   8.587  1.00  0.00    -0.080 Cl
BRANCH  22  26
ATOM     26  O   UNL     1      11.614   2.886   8.467  1.00  0.00    -0.506 OA
ATOM     27  H   UNL     1      12.299   2.357   8.917  1.00  0.00     0.293 HD
ENDBRANCH  22  26
ENDBRANCH  18  19
ENDBRANCH  17  18
BRANCH  17  28
ATOM     28  O   UNL     1       5.433   0.007   6.090  1.00  0.00    -0.383 OA
ATOM     29  H   UNL     1       5.469   0.626   6.855  1.00  0.00     0.211 HD
ENDBRANCH  17  28
ENDBRANCH  14  17
ENDBRANCH  12  13
BRANCH  12  30
ATOM     30  C   UNL     1       8.301  -4.757   4.783  1.00  0.00     0.018 C 
ATOM     31  C   UNL     1       8.937  -4.582   6.171  1.00  0.00     0.010 C 
BRANCH  30  32
ATOM     32  C   UNL     1       9.017  -5.891   4.009  1.00  0.00     0.002 C 
ATOM     33  C   UNL     1       9.215  -7.186   4.786  1.00  0.00     0.004 C 
ENDBRANCH  30  32
ENDBRANCH  12  30
ENDBRANCH  10  12
ENDBRANCH   1  10
BRANCH   5  34
ATOM     34  C   UNL     1       9.112  -0.646   1.143  1.00  0.00     0.242 C 
ATOM     35  O   UNL     1       9.434   0.541   1.080  1.00  0.00    -0.273 OA
ATOM     36  N   UNL     1       7.798  -1.053   1.184  1.00  0.00    -0.354 N 
ATOM     37  H   UNL     1       7.594  -2.038   1.358  1.00  0.00     0.163 HD
BRANCH  36  38
ATOM     38  C   UNL     1       6.700  -0.156   0.886  1.00  0.00     0.116 C 
BRANCH  38  39
ATOM     39  C   UNL     1       5.730  -0.828  -0.082  1.00  0.00     0.023 C 
BRANCH  39  40
ATOM     40  C   UNL     1       4.275  -0.486   0.220  1.00  0.00     0.026 C 
BRANCH  40  41
ATOM     41  C   UNL     1       3.740  -1.351   1.360  1.00  0.00     0.146 C 
BRANCH  41  42
ATOM     42  N   UNL     1       3.382  -2.669   0.853  1.00  0.00    -0.254 NA
ATOM     43  C   UNL     1       4.002  -3.703   1.284  1.00  0.00     0.185 C 
ATOM     44  N   UNL     1       4.994  -3.803   2.187  1.00  0.00    -0.370 N 
ATOM     45  N   UNL     1       3.660  -4.909   0.800  1.00  0.00    -0.370 N 
ATOM     46  H   UNL     1       5.549  -4.640   2.249  1.00  0.00     0.159 HD
ATOM     47  H   UNL     1       5.366  -2.987   2.663  1.00  0.00     0.159 HD
ATOM     48  H   UNL     1       2.913  -4.923   0.120  1.00  0.00     0.159 HD
ATOM     49  H   UNL     1       3.922  -5.769   1.248  1.00  0.00     0.159 HD
ENDBRANCH  41  42
ENDBRANCH  40  41
ENDBRANCH  39  40
ENDBRANCH  38  39
ENDBRANCH  36  38
ENDBRANCH   5  34
BRANCH   8  50
ATOM     50  O   UNL     1       6.561  -3.957  -1.108  1.00  0.00    -0.245 OA
BRANCH  50  51
ATOM     51  S   UNL     1       5.384  -4.312  -2.173  1.00  0.00     0.397 S 
ATOM     52  O   UNL     1       4.491  -3.177  -2.245  1.00  0.00    -0.169 OA
ATOM     53  O   UNL     1       4.892  -5.651  -1.925  1.00  0.00    -0.169 OA
BRANCH  51  54
ATOM     54  O   UNL     1       6.186  -4.329  -3.566  1.00  0.00    -0.264 OA
ATOM     55  H   UNL     1       6.896  -3.658  -3.510  1.00  0.00     0.236 HD
ENDBRANCH  51  54
ENDBRANCH  50  51
ENDBRANCH   8  50
TORSDOF 19
ENDMDL
MODEL 25
REMARK VINA RESULT:    -6.025      3.685      8.029
REMARK INTER + INTRA:         -15.966
REMARK INTER:                 -11.756
REMARK INTRA:                  -4.209
REMARK UNBOUND:                -3.778
REMARK SMILES CC[C@@H](C)[C@@H](NC(=O)[C@@H](O)Cc1ccc(O)c(Cl)c1)C(=O)N1[C@H](C(=O)NCCCCN=C(N)N)C[C@H]2CC[C@H](OS(=O)(=O)O)C[C@@H]21
REMARK SMILES IDX 22 1 36 2 46 3 35 4 23 5 45 6 37 7 39 8 38 9 20 10 21 11
REMARK SMILES IDX 5 12 6 13 7 14 8 15 9 17 11 18 12 19 17 20 19 21 15 22 14 23
REMARK SMILES IDX 13 24 18 25 16 26 10 28 3 30 4 31 2 32 1 33 24 34 25 35
REMARK SMILES IDX 26 36 27 38 28 39 29 40 30 41 31 42 32 43 33 44 34 45 40 50
REMARK SMILES IDX 41 51 42 52 43 53 44 54
REMARK H PARENT 6 16 16 27 10 29 26 37 33 46 33 47 34 48 34 49 44 55
ROOT
ATOM      1  N   UNL     1       7.099  -3.330 -14.250  1.00  0.00    -0.326 N 
ATOM      2  C   UNL     1       5.587  -1.732 -13.412  1.00  0.00     0.014 C 
ATOM      3  C   UNL     1       5.741  -2.825 -14.473  1.00  0.00     0.091 C 
ATOM      4  C   UNL     1       6.988  -1.147 -13.328  1.00  0.00     0.041 C 
ATOM      5  C   UNL     1       7.823  -2.441 -13.308  1.00  0.00     0.175 C 
ATOM      6  C   UNL     1       4.573  -3.800 -14.334  1.00  0.00     0.059 C 
ATOM      7  C   UNL     1       4.420  -0.821 -13.737  1.00  0.00     0.008 C 
ATOM      8  C   UNL     1       3.267  -3.141 -13.841  1.00  0.00     0.143 C 
ATOM      9  C   UNL     1       3.201  -1.644 -14.205  1.00  0.00     0.034 C 
ENDROOT
BRANCH   1  10
ATOM     10  C   UNL     1       7.801  -4.315 -14.923  1.00  0.00     0.246 C 
ATOM     11  O   UNL     1       7.490  -5.498 -14.752  1.00  0.00    -0.272 OA
BRANCH  10  12
ATOM     12  C   UNL     1       8.934  -3.910 -15.910  1.00  0.00     0.174 C 
BRANCH  12  13
ATOM     13  N   UNL     1       8.675  -2.575 -16.447  1.00  0.00    -0.342 N 
ATOM     14  C   UNL     1       9.610  -1.570 -16.553  1.00  0.00     0.249 C 
ATOM     15  O   UNL     1      10.785  -1.695 -16.230  1.00  0.00    -0.272 OA
ATOM     16  H   UNL     1       7.717  -2.274 -16.609  1.00  0.00     0.164 HD
BRANCH  14  17
ATOM     17  C   UNL     1       9.024  -0.270 -17.144  1.00  0.00     0.207 C 
BRANCH  17  18
ATOM     18  C   UNL     1       7.503  -0.384 -17.283  1.00  0.00     0.077 C 
BRANCH  18  19
ATOM     19  C   UNL     1       6.787   0.724 -16.544  1.00  0.00    -0.043 A 
ATOM     20  C   UNL     1       4.754   1.956 -16.058  1.00  0.00     0.083 A 
ATOM     21  C   UNL     1       5.403   0.902 -16.702  1.00  0.00     0.028 A 
ATOM     22  C   UNL     1       5.480   2.837 -15.255  1.00  0.00     0.134 A 
ATOM     23  C   UNL     1       6.850   2.672 -15.090  1.00  0.00     0.048 A 
ATOM     24  C   UNL     1       7.503   1.619 -15.735  1.00  0.00     0.008 A 
ATOM     25  Cl  UNL     1       3.054   2.159 -16.265  1.00  0.00    -0.080 Cl
BRANCH  22  26
ATOM     26  O   UNL     1       4.889   3.891 -14.612  1.00  0.00    -0.506 OA
ATOM     27  H   UNL     1       4.589   3.557 -13.746  1.00  0.00     0.293 HD
ENDBRANCH  22  26
ENDBRANCH  18  19
ENDBRANCH  17  18
BRANCH  17  28
ATOM     28  O   UNL     1       9.600   0.020 -18.428  1.00  0.00    -0.383 OA
ATOM     29  H   UNL     1       9.664  -0.843 -18.898  1.00  0.00     0.211 HD
ENDBRANCH  17  28
ENDBRANCH  14  17
ENDBRANCH  12  13
BRANCH  12  30
ATOM     30  C   UNL     1       9.162  -4.964 -17.027  1.00  0.00     0.018 C 
ATOM     31  C   UNL     1      10.662  -5.148 -17.308  1.00  0.00     0.010 C 
BRANCH  30  32
ATOM     32  C   UNL     1       8.409  -4.648 -18.343  1.00  0.00     0.002 C 
ATOM     33  C   UNL     1       9.292  -4.250 -19.518  1.00  0.00     0.004 C 
ENDBRANCH  30  32
ENDBRANCH  12  30
ENDBRANCH  10  12
ENDBRANCH   1  10
BRANCH   5  34
ATOM     34  C   UNL     1       7.873  -3.068 -11.889  1.00  0.00     0.242 C 
ATOM     35  O   UNL     1       8.098  -4.264 -11.706  1.00  0.00    -0.273 OA
ATOM     36  N   UNL     1       7.596  -2.201 -10.856  1.00  0.00    -0.354 N 
ATOM     37  H   UNL     1       7.299  -1.250 -11.078  1.00  0.00     0.163 HD
BRANCH  36  38
ATOM     38  C   UNL     1       7.807  -2.559  -9.469  1.00  0.00     0.116 C 
BRANCH  38  39
ATOM     39  C   UNL     1       8.961  -1.741  -8.893  1.00  0.00     0.023 C 
BRANCH  39  40
ATOM     40  C   UNL     1      10.323  -2.347  -9.215  1.00  0.00     0.026 C 
BRANCH  40  41
ATOM     41  C   UNL     1      11.132  -1.415 -10.117  1.00  0.00     0.146 C 
BRANCH  41  42
ATOM     42  N   UNL     1      11.363  -2.054 -11.406  1.00  0.00    -0.254 NA
ATOM     43  C   UNL     1      11.590  -1.333 -12.439  1.00  0.00     0.185 C 
ATOM     44  N   UNL     1      11.661   0.005 -12.562  1.00  0.00    -0.370 N 
ATOM     45  N   UNL     1      11.796  -1.942 -13.618  1.00  0.00    -0.370 N 
ATOM     46  H   UNL     1      11.602   0.441 -13.466  1.00  0.00     0.159 HD
ATOM     47  H   UNL     1      11.542   0.620 -11.763  1.00  0.00     0.159 HD
ATOM     48  H   UNL     1      11.769  -2.953 -13.612  1.00  0.00     0.159 HD
ATOM     49  H   UNL     1      12.208  -1.475 -14.407  1.00  0.00     0.159 HD
ENDBRANCH  41  42
ENDBRANCH  40  41
ENDBRANCH  39  40
ENDBRANCH  38  39
ENDBRANCH  36  38
ENDBRANCH   5  34
BRANCH   8  50
ATOM     50  O   UNL     1       3.160  -3.267 -12.423  1.00  0.00    -0.245 OA
BRANCH  50  51
ATOM     51  S   UNL     1       1.754  -3.752 -11.764  1.00  0.00     0.397 S 
ATOM     52  O   UNL     1       0.746  -2.767 -12.087  1.00  0.00    -0.169 OA
ATOM     53  O   UNL     1       1.980  -4.190 -10.403  1.00  0.00    -0.169 OA
BRANCH  51  54
ATOM     54  O   UNL     1       1.398  -5.048 -12.649  1.00  0.00    -0.264 OA
ATOM     55  H   UNL     1       0.834  -4.755 -13.393  1.00  0.00     0.236 HD
ENDBRANCH  51  54
ENDBRANCH  50  51
ENDBRANCH   8  50
TORSDOF 19
ENDMDL
MODEL 26
REMARK VINA RESULT:    -6.015      3.853      6.822
REMARK INTER + INTRA:         -15.946
REMARK INTER:                 -12.009
REMARK INTRA:                  -3.937
REMARK UNBOUND:                -3.778
REMARK SMILES CC[C@@H](C)[C@@H](NC(=O)[C@@H](O)Cc1ccc(O)c(Cl)c1)C(=O)N1[C@H](C(=O)NCCCCN=C(N)N)C[C@H]2CC[C@H](OS(=O)(=O)O)C[C@@H]21
REMARK SMILES IDX 22 1 36 2 46 3 35 4 23 5 45 6 37 7 39 8 38 9 20 10 21 11
REMARK SMILES IDX 5 12 6 13 7 14 8 15 9 17 11 18 12 19 17 20 19 21 15 22 14 23
REMARK SMILES IDX 13 24 18 25 16 26 10 28 3 30 4 31 2 32 1 33 24 34 25 35
REMARK SMILES IDX 26 36 27 38 28 39 29 40 30 41 31 42 32 43 33 44 34 45 40 50
REMARK SMILES IDX 41 51 42 52 43 53 44 54
REMARK H PARENT 6 16 16 27 10 29 26 37 33 46 33 47 34 48 34 49 44 55
ROOT
ATOM      1  N   UNL     1       5.196  -3.321 -11.840  1.00  0.00    -0.326 N 
ATOM      2  C   UNL     1       6.555  -4.326 -13.479  1.00  0.00     0.014 C 
ATOM      3  C   UNL     1       5.119  -3.876 -13.194  1.00  0.00     0.091 C 
ATOM      4  C   UNL     1       7.036  -4.793 -12.114  1.00  0.00     0.041 C 
ATOM      5  C   UNL     1       6.510  -3.646 -11.232  1.00  0.00     0.175 C 
ATOM      6  C   UNL     1       4.666  -2.959 -14.328  1.00  0.00     0.059 C 
ATOM      7  C   UNL     1       6.599  -5.286 -14.652  1.00  0.00     0.008 C 
ATOM      8  C   UNL     1       5.293  -3.306 -15.696  1.00  0.00     0.143 C 
ATOM      9  C   UNL     1       5.685  -4.794 -15.793  1.00  0.00     0.034 C 
ENDROOT
BRANCH   1  10
ATOM     10  C   UNL     1       4.201  -2.778 -11.045  1.00  0.00     0.246 C 
ATOM     11  O   UNL     1       4.350  -1.639 -10.590  1.00  0.00    -0.272 OA
BRANCH  10  12
ATOM     12  C   UNL     1       2.902  -3.593 -10.778  1.00  0.00     0.174 C 
BRANCH  12  13
ATOM     13  N   UNL     1       1.770  -2.962 -11.455  1.00  0.00    -0.342 N 
ATOM     14  C   UNL     1       1.132  -3.467 -12.566  1.00  0.00     0.249 C 
ATOM     15  O   UNL     1       1.430  -4.529 -13.099  1.00  0.00    -0.272 OA
ATOM     16  H   UNL     1       1.514  -2.006 -11.223  1.00  0.00     0.164 HD
BRANCH  14  17
ATOM     17  C   UNL     1      -0.016  -2.561 -13.057  1.00  0.00     0.207 C 
BRANCH  17  18
ATOM     18  C   UNL     1      -0.117  -1.304 -12.186  1.00  0.00     0.077 C 
BRANCH  18  19
ATOM     19  C   UNL     1      -0.008  -0.040 -13.009  1.00  0.00    -0.043 A 
ATOM     20  C   UNL     1      -0.009   2.381 -13.153  1.00  0.00     0.083 A 
ATOM     21  C   UNL     1      -0.060   1.217 -12.386  1.00  0.00     0.028 A 
ATOM     22  C   UNL     1       0.092   2.299 -14.542  1.00  0.00     0.134 A 
ATOM     23  C   UNL     1       0.145   1.060 -15.172  1.00  0.00     0.048 A 
ATOM     24  C   UNL     1       0.092  -0.107 -14.407  1.00  0.00     0.008 A 
ATOM     25  Cl  UNL     1      -0.075   3.916 -12.370  1.00  0.00    -0.080 Cl
BRANCH  22  26
ATOM     26  O   UNL     1       0.135   3.412 -15.337  1.00  0.00    -0.506 OA
ATOM     27  H   UNL     1      -0.214   3.148 -16.208  1.00  0.00     0.293 HD
ENDBRANCH  22  26
ENDBRANCH  18  19
ENDBRANCH  17  18
BRANCH  17  28
ATOM     28  O   UNL     1      -1.272  -3.259 -13.034  1.00  0.00    -0.383 OA
ATOM     29  H   UNL     1      -1.852  -2.796 -13.682  1.00  0.00     0.211 HD
ENDBRANCH  17  28
ENDBRANCH  14  17
ENDBRANCH  12  13
BRANCH  12  30
ATOM     30  C   UNL     1       2.637  -3.819  -9.265  1.00  0.00     0.018 C 
ATOM     31  C   UNL     1       1.872  -2.631  -8.661  1.00  0.00     0.010 C 
BRANCH  30  32
ATOM     32  C   UNL     1       3.919  -4.100  -8.444  1.00  0.00     0.002 C 
ATOM     33  C   UNL     1       4.211  -3.101  -7.331  1.00  0.00     0.004 C 
ENDBRANCH  30  32
ENDBRANCH  12  30
ENDBRANCH  10  12
ENDBRANCH   1  10
BRANCH   5  34
ATOM     34  C   UNL     1       7.454  -2.414 -11.273  1.00  0.00     0.242 C 
ATOM     35  O   UNL     1       8.564  -2.418 -10.741  1.00  0.00    -0.273 OA
ATOM     36  N   UNL     1       6.939  -1.302 -11.899  1.00  0.00    -0.354 N 
ATOM     37  H   UNL     1       5.968  -1.321 -12.215  1.00  0.00     0.163 HD
BRANCH  36  38
ATOM     38  C   UNL     1       7.752  -0.147 -12.217  1.00  0.00     0.116 C 
BRANCH  38  39
ATOM     39  C   UNL     1       6.861   1.003 -12.683  1.00  0.00     0.023 C 
BRANCH  39  40
ATOM     40  C   UNL     1       5.820   0.556 -13.703  1.00  0.00     0.026 C 
BRANCH  40  41
ATOM     41  C   UNL     1       4.987   1.744 -14.184  1.00  0.00     0.146 C 
BRANCH  41  42
ATOM     42  N   UNL     1       3.988   1.290 -15.142  1.00  0.00    -0.254 NA
ATOM     43  C   UNL     1       4.113   1.594 -16.379  1.00  0.00     0.185 C 
ATOM     44  N   UNL     1       5.069   2.308 -17.002  1.00  0.00    -0.370 N 
ATOM     45  N   UNL     1       3.180   1.170 -17.247  1.00  0.00    -0.370 N 
ATOM     46  H   UNL     1       4.915   2.675 -17.926  1.00  0.00     0.159 HD
ATOM     47  H   UNL     1       5.860   2.694 -16.497  1.00  0.00     0.159 HD
ATOM     48  H   UNL     1       2.427   0.616 -16.860  1.00  0.00     0.159 HD
ATOM     49  H   UNL     1       3.325   1.160 -18.240  1.00  0.00     0.159 HD
ENDBRANCH  41  42
ENDBRANCH  40  41
ENDBRANCH  39  40
ENDBRANCH  38  39
ENDBRANCH  36  38
ENDBRANCH   5  34
BRANCH   8  50
ATOM     50  O   UNL     1       6.461  -2.514 -15.915  1.00  0.00    -0.245 OA
BRANCH  50  51
ATOM     51  S   UNL     1       6.592  -1.636 -17.278  1.00  0.00     0.397 S 
ATOM     52  O   UNL     1       7.333  -2.417 -18.243  1.00  0.00    -0.169 OA
ATOM     53  O   UNL     1       6.972  -0.278 -16.947  1.00  0.00    -0.169 OA
BRANCH  51  54
ATOM     54  O   UNL     1       5.074  -1.611 -17.808  1.00  0.00    -0.264 OA
ATOM     55  H   UNL     1       5.013  -2.223 -18.569  1.00  0.00     0.236 HD
ENDBRANCH  51  54
ENDBRANCH  50  51
ENDBRANCH   8  50
TORSDOF 19
ENDMDL
MODEL 27
REMARK VINA RESULT:    -6.013      3.718      8.663
REMARK INTER + INTRA:         -15.942
REMARK INTER:                 -11.074
REMARK INTRA:                  -4.868
REMARK UNBOUND:                -3.778
REMARK SMILES CC[C@@H](C)[C@@H](NC(=O)[C@@H](O)Cc1ccc(O)c(Cl)c1)C(=O)N1[C@H](C(=O)NCCCCN=C(N)N)C[C@H]2CC[C@H](OS(=O)(=O)O)C[C@@H]21
REMARK SMILES IDX 22 1 36 2 46 3 35 4 23 5 45 6 37 7 39 8 38 9 20 10 21 11
REMARK SMILES IDX 5 12 6 13 7 14 8 15 9 17 11 18 12 19 17 20 19 21 15 22 14 23
REMARK SMILES IDX 13 24 18 25 16 26 10 28 3 30 4 31 2 32 1 33 24 34 25 35
REMARK SMILES IDX 26 36 27 38 28 39 29 40 30 41 31 42 32 43 33 44 34 45 40 50
REMARK SMILES IDX 41 51 42 52 43 53 44 54
REMARK H PARENT 6 16 16 27 10 29 26 37 33 46 33 47 34 48 34 49 44 55
ROOT
ATOM      1  N   UNL     1       7.129  -2.967 -12.843  1.00  0.00    -0.326 N 
ATOM      2  C   UNL     1       6.020  -1.213 -11.731  1.00  0.00     0.014 C 
ATOM      3  C   UNL     1       5.858  -2.669 -12.177  1.00  0.00     0.091 C 
ATOM      4  C   UNL     1       6.854  -0.611 -12.852  1.00  0.00     0.041 C 
ATOM      5  C   UNL     1       7.908  -1.718 -13.032  1.00  0.00     0.175 C 
ATOM      6  C   UNL     1       5.464  -3.505 -10.961  1.00  0.00     0.059 C 
ATOM      7  C   UNL     1       4.677  -0.597 -11.391  1.00  0.00     0.008 C 
ATOM      8  C   UNL     1       4.616  -2.735  -9.925  1.00  0.00     0.143 C 
ATOM      9  C   UNL     1       3.819  -1.583 -10.570  1.00  0.00     0.034 C 
ENDROOT
BRANCH   1  10
ATOM     10  C   UNL     1       7.554  -4.129 -13.464  1.00  0.00     0.246 C 
ATOM     11  O   UNL     1       8.080  -5.016 -12.784  1.00  0.00    -0.272 OA
BRANCH  10  12
ATOM     12  C   UNL     1       7.324  -4.309 -14.993  1.00  0.00     0.174 C 
BRANCH  12  13
ATOM     13  N   UNL     1       8.483  -3.812 -15.734  1.00  0.00    -0.342 N 
ATOM     14  C   UNL     1       9.539  -4.585 -16.161  1.00  0.00     0.249 C 
ATOM     15  O   UNL     1       9.611  -5.796 -15.989  1.00  0.00    -0.272 OA
ATOM     16  H   UNL     1       8.638  -2.810 -15.813  1.00  0.00     0.164 HD
BRANCH  14  17
ATOM     17  C   UNL     1      10.616  -3.765 -16.902  1.00  0.00     0.207 C 
BRANCH  17  18
ATOM     18  C   UNL     1       9.968  -2.640 -17.715  1.00  0.00     0.077 C 
BRANCH  18  19
ATOM     19  C   UNL     1       9.987  -1.325 -16.968  1.00  0.00    -0.043 A 
ATOM     20  C   UNL     1      11.069   0.203 -15.427  1.00  0.00     0.083 A 
ATOM     21  C   UNL     1      11.078  -0.988 -16.153  1.00  0.00     0.028 A 
ATOM     22  C   UNL     1       9.974   1.063 -15.509  1.00  0.00     0.134 A 
ATOM     23  C   UNL     1       8.886   0.742 -16.313  1.00  0.00     0.048 A 
ATOM     24  C   UNL     1       8.891  -0.451 -17.040  1.00  0.00     0.008 A 
ATOM     25  Cl  UNL     1      12.420   0.599 -14.430  1.00  0.00    -0.080 Cl
BRANCH  22  26
ATOM     26  O   UNL     1       9.915   2.237 -14.808  1.00  0.00    -0.506 OA
ATOM     27  H   UNL     1      10.725   2.734 -15.026  1.00  0.00     0.293 HD
ENDBRANCH  22  26
ENDBRANCH  18  19
ENDBRANCH  17  18
BRANCH  17  28
ATOM     28  O   UNL     1      11.392  -4.600 -17.777  1.00  0.00    -0.383 OA
ATOM     29  H   UNL     1      12.290  -4.200 -17.809  1.00  0.00     0.211 HD
ENDBRANCH  17  28
ENDBRANCH  14  17
ENDBRANCH  12  13
BRANCH  12  30
ATOM     30  C   UNL     1       5.993  -3.674 -15.478  1.00  0.00     0.018 C 
ATOM     31  C   UNL     1       4.837  -4.681 -15.375  1.00  0.00     0.010 C 
BRANCH  30  32
ATOM     32  C   UNL     1       6.068  -3.095 -16.912  1.00  0.00     0.002 C 
ATOM     33  C   UNL     1       5.496  -1.693 -17.079  1.00  0.00     0.004 C 
ENDBRANCH  30  32
ENDBRANCH  12  30
ENDBRANCH  10  12
ENDBRANCH   1  10
BRANCH   5  34
ATOM     34  C   UNL     1       9.039  -1.609 -11.975  1.00  0.00     0.242 C 
ATOM     35  O   UNL     1       9.278  -2.511 -11.172  1.00  0.00    -0.273 OA
ATOM     36  N   UNL     1       9.718  -0.412 -11.965  1.00  0.00    -0.354 N 
ATOM     37  H   UNL     1       9.395   0.342 -12.573  1.00  0.00     0.163 HD
BRANCH  36  38
ATOM     38  C   UNL     1      10.932  -0.217 -11.199  1.00  0.00     0.116 C 
BRANCH  38  39
ATOM     39  C   UNL     1      10.997   1.219 -10.686  1.00  0.00     0.023 C 
BRANCH  39  40
ATOM     40  C   UNL     1      11.406   1.296  -9.219  1.00  0.00     0.026 C 
BRANCH  40  41
ATOM     41  C   UNL     1      10.190   1.134  -8.307  1.00  0.00     0.146 C 
BRANCH  41  42
ATOM     42  N   UNL     1       9.936  -0.281  -8.070  1.00  0.00    -0.254 NA
ATOM     43  C   UNL     1       8.776  -0.765  -8.311  1.00  0.00     0.185 C 
ATOM     44  N   UNL     1       7.666  -0.163  -8.777  1.00  0.00    -0.370 N 
ATOM     45  N   UNL     1       8.561  -2.071  -8.081  1.00  0.00    -0.370 N 
ATOM     46  H   UNL     1       6.767  -0.604  -8.686  1.00  0.00     0.159 HD
ATOM     47  H   UNL     1       7.656   0.824  -9.017  1.00  0.00     0.159 HD
ATOM     48  H   UNL     1       9.350  -2.601  -7.736  1.00  0.00     0.159 HD
ATOM     49  H   UNL     1       7.774  -2.567  -8.459  1.00  0.00     0.159 HD
ENDBRANCH  41  42
ENDBRANCH  40  41
ENDBRANCH  39  40
ENDBRANCH  38  39
ENDBRANCH  36  38
ENDBRANCH   5  34
BRANCH   8  50
ATOM     50  O   UNL     1       5.459  -2.189  -8.910  1.00  0.00    -0.245 OA
BRANCH  50  51
ATOM     51  S   UNL     1       5.022  -2.318  -7.349  1.00  0.00     0.397 S 
ATOM     52  O   UNL     1       6.045  -1.686  -6.545  1.00  0.00    -0.169 OA
ATOM     53  O   UNL     1       4.571  -3.668  -7.080  1.00  0.00    -0.169 OA
BRANCH  51  54
ATOM     54  O   UNL     1       3.745  -1.344  -7.276  1.00  0.00    -0.264 OA
ATOM     55  H   UNL     1       3.528  -1.068  -8.190  1.00  0.00     0.236 HD
ENDBRANCH  51  54
ENDBRANCH  50  51
ENDBRANCH   8  50
TORSDOF 19
ENDMDL
MODEL 28
REMARK VINA RESULT:    -5.999      2.982      4.963
REMARK INTER + INTRA:         -15.913
REMARK INTER:                 -11.954
REMARK INTRA:                  -3.960
REMARK UNBOUND:                -3.778
REMARK SMILES CC[C@@H](C)[C@@H](NC(=O)[C@@H](O)Cc1ccc(O)c(Cl)c1)C(=O)N1[C@H](C(=O)NCCCCN=C(N)N)C[C@H]2CC[C@H](OS(=O)(=O)O)C[C@@H]21
REMARK SMILES IDX 22 1 36 2 46 3 35 4 23 5 45 6 37 7 39 8 38 9 20 10 21 11
REMARK SMILES IDX 5 12 6 13 7 14 8 15 9 17 11 18 12 19 17 20 19 21 15 22 14 23
REMARK SMILES IDX 13 24 18 25 16 26 10 28 3 30 4 31 2 32 1 33 24 34 25 35
REMARK SMILES IDX 26 36 27 38 28 39 29 40 30 41 31 42 32 43 33 44 34 45 40 50
REMARK SMILES IDX 41 51 42 52 43 53 44 54
REMARK H PARENT 6 16 16 27 10 29 26 37 33 46 33 47 34 48 34 49 44 55
ROOT
ATOM      1  N   UNL     1       6.997  -1.861 -15.772  1.00  0.00    -0.326 N 
ATOM      2  C   UNL     1       7.336  -4.105 -16.397  1.00  0.00     0.014 C 
ATOM      3  C   UNL     1       7.626  -2.664 -16.824  1.00  0.00     0.091 C 
ATOM      4  C   UNL     1       5.960  -3.994 -15.758  1.00  0.00     0.041 C 
ATOM      5  C   UNL     1       6.156  -2.726 -14.908  1.00  0.00     0.175 C 
ATOM      6  C   UNL     1       9.131  -2.519 -17.044  1.00  0.00     0.059 C 
ATOM      7  C   UNL     1       7.544  -5.066 -17.551  1.00  0.00     0.008 C 
ATOM      8  C   UNL     1       9.812  -3.810 -17.550  1.00  0.00     0.143 C 
ATOM      9  C   UNL     1       8.833  -4.716 -18.324  1.00  0.00     0.034 C 
ENDROOT
BRANCH   1  10
ATOM     10  C   UNL     1       6.917  -0.486 -15.632  1.00  0.00     0.246 C 
ATOM     11  O   UNL     1       5.812   0.062 -15.702  1.00  0.00    -0.272 OA
BRANCH  10  12
ATOM     12  C   UNL     1       8.210   0.333 -15.349  1.00  0.00     0.174 C 
BRANCH  12  13
ATOM     13  N   UNL     1       9.094  -0.422 -14.462  1.00  0.00    -0.342 N 
ATOM     14  C   UNL     1      10.467  -0.464 -14.562  1.00  0.00     0.249 C 
ATOM     15  O   UNL     1      11.109   0.158 -15.400  1.00  0.00    -0.272 OA
ATOM     16  H   UNL     1       8.700  -1.106 -13.821  1.00  0.00     0.164 HD
BRANCH  14  17
ATOM     17  C   UNL     1      11.116  -1.364 -13.489  1.00  0.00     0.207 C 
BRANCH  17  18
ATOM     18  C   UNL     1      11.498  -0.537 -12.257  1.00  0.00     0.077 C 
BRANCH  18  19
ATOM     19  C   UNL     1      10.671  -0.915 -11.048  1.00  0.00    -0.043 A 
ATOM     20  C   UNL     1       8.971  -0.364  -9.409  1.00  0.00     0.083 A 
ATOM     21  C   UNL     1       9.697  -0.034 -10.553  1.00  0.00     0.028 A 
ATOM     22  C   UNL     1       9.213  -1.571  -8.752  1.00  0.00     0.134 A 
ATOM     23  C   UNL     1      10.175  -2.453  -9.231  1.00  0.00     0.048 A 
ATOM     24  C   UNL     1      10.905  -2.124 -10.376  1.00  0.00     0.008 A 
ATOM     25  Cl  UNL     1       7.778   0.731  -8.816  1.00  0.00    -0.080 Cl
BRANCH  22  26
ATOM     26  O   UNL     1       8.533  -1.933  -7.620  1.00  0.00    -0.506 OA
ATOM     27  H   UNL     1       9.135  -1.777  -6.870  1.00  0.00     0.293 HD
ENDBRANCH  22  26
ENDBRANCH  18  19
ENDBRANCH  17  18
BRANCH  17  28
ATOM     28  O   UNL     1      12.285  -2.022 -14.003  1.00  0.00    -0.383 OA
ATOM     29  H   UNL     1      12.075  -2.983 -14.009  1.00  0.00     0.211 HD
ENDBRANCH  17  28
ENDBRANCH  14  17
ENDBRANCH  12  13
BRANCH  12  30
ATOM     30  C   UNL     1       7.912   1.759 -14.815  1.00  0.00     0.018 C 
ATOM     31  C   UNL     1       8.778   2.805 -15.534  1.00  0.00     0.010 C 
BRANCH  30  32
ATOM     32  C   UNL     1       8.078   1.896 -13.281  1.00  0.00     0.002 C 
ATOM     33  C   UNL     1       6.842   1.553 -12.460  1.00  0.00     0.004 C 
ENDBRANCH  30  32
ENDBRANCH  12  30
ENDBRANCH  10  12
ENDBRANCH   1  10
BRANCH   5  34
ATOM     34  C   UNL     1       6.879  -3.039 -13.571  1.00  0.00     0.242 C 
ATOM     35  O   UNL     1       8.106  -3.083 -13.482  1.00  0.00    -0.273 OA
ATOM     36  N   UNL     1       6.050  -3.317 -12.508  1.00  0.00    -0.354 N 
ATOM     37  H   UNL     1       5.045  -3.383 -12.672  1.00  0.00     0.163 HD
BRANCH  36  38
ATOM     38  C   UNL     1       6.542  -3.417 -11.149  1.00  0.00     0.116 C 
BRANCH  38  39
ATOM     39  C   UNL     1       5.956  -2.291 -10.301  1.00  0.00     0.023 C 
BRANCH  39  40
ATOM     40  C   UNL     1       5.394  -2.792  -8.975  1.00  0.00     0.026 C 
BRANCH  40  41
ATOM     41  C   UNL     1       4.027  -3.446  -9.178  1.00  0.00     0.146 C 
BRANCH  41  42
ATOM     42  N   UNL     1       3.295  -3.459  -7.919  1.00  0.00    -0.254 NA
ATOM     43  C   UNL     1       2.281  -4.229  -7.783  1.00  0.00     0.185 C 
ATOM     44  N   UNL     1       1.728  -5.092  -8.655  1.00  0.00    -0.370 N 
ATOM     45  N   UNL     1       1.617  -4.222  -6.616  1.00  0.00    -0.370 N 
ATOM     46  H   UNL     1       0.798  -5.446  -8.505  1.00  0.00     0.159 HD
ATOM     47  H   UNL     1       2.113  -5.232  -9.584  1.00  0.00     0.159 HD
ATOM     48  H   UNL     1       1.975  -3.605  -5.900  1.00  0.00     0.159 HD
ATOM     49  H   UNL     1       0.977  -4.949  -6.350  1.00  0.00     0.159 HD
ENDBRANCH  41  42
ENDBRANCH  40  41
ENDBRANCH  39  40
ENDBRANCH  38  39
ENDBRANCH  36  38
ENDBRANCH   5  34
BRANCH   8  50
ATOM     50  O   UNL     1      10.340  -4.549 -16.449  1.00  0.00    -0.245 OA
BRANCH  50  51
ATOM     51  S   UNL     1      11.896  -5.024 -16.474  1.00  0.00     0.397 S 
ATOM     52  O   UNL     1      12.583  -4.360 -15.389  1.00  0.00    -0.169 OA
ATOM     53  O   UNL     1      12.397  -4.979 -17.832  1.00  0.00    -0.169 OA
BRANCH  51  54
ATOM     54  O   UNL     1      11.782  -6.568 -16.039  1.00  0.00    -0.264 OA
ATOM     55  H   UNL     1      10.870  -6.867 -16.235  1.00  0.00     0.236 HD
ENDBRANCH  51  54
ENDBRANCH  50  51
ENDBRANCH   8  50
TORSDOF 19
ENDMDL
MODEL 29
REMARK VINA RESULT:    -5.990     14.968     18.405
REMARK INTER + INTRA:         -15.895
REMARK INTER:                 -11.825
REMARK INTRA:                  -4.070
REMARK UNBOUND:                -3.778
REMARK SMILES CC[C@@H](C)[C@@H](NC(=O)[C@@H](O)Cc1ccc(O)c(Cl)c1)C(=O)N1[C@H](C(=O)NCCCCN=C(N)N)C[C@H]2CC[C@H](OS(=O)(=O)O)C[C@@H]21
REMARK SMILES IDX 22 1 36 2 46 3 35 4 23 5 45 6 37 7 39 8 38 9 20 10 21 11
REMARK SMILES IDX 5 12 6 13 7 14 8 15 9 17 11 18 12 19 17 20 19 21 15 22 14 23
REMARK SMILES IDX 13 24 18 25 16 26 10 28 3 30 4 31 2 32 1 33 24 34 25 35
REMARK SMILES IDX 26 36 27 38 28 39 29 40 30 41 31 42 32 43 33 44 34 45 40 50
REMARK SMILES IDX 41 51 42 52 43 53 44 54
REMARK H PARENT 6 16 16 27 10 29 26 37 33 46 33 47 34 48 34 49 44 55
ROOT
ATOM      1  N   UNL     1       7.998  -2.416   4.135  1.00  0.00    -0.326 N 
ATOM      2  C   UNL     1       8.554  -1.593   2.000  1.00  0.00     0.014 C 
ATOM      3  C   UNL     1       8.936  -2.656   3.034  1.00  0.00     0.091 C 
ATOM      4  C   UNL     1       8.141  -0.415   2.868  1.00  0.00     0.041 C 
ATOM      5  C   UNL     1       7.274  -1.139   3.915  1.00  0.00     0.175 C 
ATOM      6  C   UNL     1       8.916  -4.023   2.352  1.00  0.00     0.059 C 
ATOM      7  C   UNL     1       9.658  -1.412   0.977  1.00  0.00     0.008 C 
ATOM      8  C   UNL     1       9.304  -3.977   0.858  1.00  0.00     0.143 C 
ATOM      9  C   UNL     1      10.220  -2.779   0.534  1.00  0.00     0.034 C 
ENDROOT
BRANCH   1  10
ATOM     10  C   UNL     1       7.877  -3.058   5.355  1.00  0.00     0.246 C 
ATOM     11  O   UNL     1       7.497  -4.234   5.380  1.00  0.00    -0.272 OA
BRANCH  10  12
ATOM     12  C   UNL     1       8.263  -2.304   6.660  1.00  0.00     0.174 C 
BRANCH  12  13
ATOM     13  N   UNL     1       7.168  -1.426   7.071  1.00  0.00    -0.342 N 
ATOM     14  C   UNL     1       6.158  -1.776   7.939  1.00  0.00     0.249 C 
ATOM     15  O   UNL     1       6.080  -2.867   8.491  1.00  0.00    -0.272 OA
ATOM     16  H   UNL     1       7.012  -0.550   6.578  1.00  0.00     0.164 HD
BRANCH  14  17
ATOM     17  C   UNL     1       5.141  -0.636   8.160  1.00  0.00     0.207 C 
BRANCH  17  18
ATOM     18  C   UNL     1       5.149   0.327   6.969  1.00  0.00     0.077 C 
BRANCH  18  19
ATOM     19  C   UNL     1       3.749   0.687   6.526  1.00  0.00    -0.043 A 
ATOM     20  C   UNL     1       1.461   0.034   6.052  1.00  0.00     0.083 A 
ATOM     21  C   UNL     1       2.740  -0.289   6.507  1.00  0.00     0.028 A 
ATOM     22  C   UNL     1       1.183   1.328   5.612  1.00  0.00     0.134 A 
ATOM     23  C   UNL     1       2.173   2.304   5.625  1.00  0.00     0.048 A 
ATOM     24  C   UNL     1       3.454   1.984   6.079  1.00  0.00     0.008 A 
ATOM     25  Cl  UNL     1       0.235  -1.178   6.036  1.00  0.00    -0.080 Cl
BRANCH  22  26
ATOM     26  O   UNL     1      -0.053   1.689   5.146  1.00  0.00    -0.506 OA
ATOM     27  H   UNL     1      -0.010   1.641   4.173  1.00  0.00     0.293 HD
ENDBRANCH  22  26
ENDBRANCH  18  19
ENDBRANCH  17  18
BRANCH  17  28
ATOM     28  O   UNL     1       5.432   0.091   9.364  1.00  0.00    -0.383 OA
ATOM     29  H   UNL     1       4.975   0.958   9.275  1.00  0.00     0.211 HD
ENDBRANCH  17  28
ENDBRANCH  14  17
ENDBRANCH  12  13
BRANCH  12  30
ATOM     30  C   UNL     1       9.614  -1.549   6.540  1.00  0.00     0.018 C 
ATOM     31  C   UNL     1      10.656  -2.136   7.505  1.00  0.00     0.010 C 
BRANCH  30  32
ATOM     32  C   UNL     1       9.493  -0.020   6.754  1.00  0.00     0.002 C 
ATOM     33  C   UNL     1      10.485   0.580   7.741  1.00  0.00     0.004 C 
ENDBRANCH  30  32
ENDBRANCH  12  30
ENDBRANCH  10  12
ENDBRANCH   1  10
BRANCH   5  34
ATOM     34  C   UNL     1       5.839  -1.403   3.387  1.00  0.00     0.242 C 
ATOM     35  O   UNL     1       5.463  -2.521   3.037  1.00  0.00    -0.273 OA
ATOM     36  N   UNL     1       5.037  -0.288   3.287  1.00  0.00    -0.354 N 
ATOM     37  H   UNL     1       5.444   0.629   3.479  1.00  0.00     0.163 HD
BRANCH  36  38
ATOM     38  C   UNL     1       3.617  -0.379   3.022  1.00  0.00     0.116 C 
BRANCH  38  39
ATOM     39  C   UNL     1       3.329   0.054   1.586  1.00  0.00     0.023 C 
BRANCH  39  40
ATOM     40  C   UNL     1       2.462  -0.952   0.837  1.00  0.00     0.026 C 
BRANCH  40  41
ATOM     41  C   UNL     1       2.845  -2.384   1.213  1.00  0.00     0.146 C 
BRANCH  41  42
ATOM     42  N   UNL     1       3.273  -3.108   0.024  1.00  0.00    -0.254 NA
ATOM     43  C   UNL     1       3.891  -4.222   0.149  1.00  0.00     0.185 C 
ATOM     44  N   UNL     1       4.242  -4.897   1.259  1.00  0.00    -0.370 N 
ATOM     45  N   UNL     1       4.281  -4.872  -0.960  1.00  0.00    -0.370 N 
ATOM     46  H   UNL     1       4.932  -5.628   1.218  1.00  0.00     0.159 HD
ATOM     47  H   UNL     1       4.012  -4.554   2.186  1.00  0.00     0.159 HD
ATOM     48  H   UNL     1       4.048  -4.436  -1.841  1.00  0.00     0.159 HD
ATOM     49  H   UNL     1       4.550  -5.840  -0.957  1.00  0.00     0.159 HD
ENDBRANCH  41  42
ENDBRANCH  40  41
ENDBRANCH  39  40
ENDBRANCH  38  39
ENDBRANCH  36  38
ENDBRANCH   5  34
BRANCH   8  50
ATOM     50  O   UNL     1       8.131  -3.883   0.049  1.00  0.00    -0.245 OA
BRANCH  50  51
ATOM     51  S   UNL     1       7.627  -5.184  -0.787  1.00  0.00     0.397 S 
ATOM     52  O   UNL     1       6.993  -4.716  -2.000  1.00  0.00    -0.169 OA
ATOM     53  O   UNL     1       6.964  -6.110   0.107  1.00  0.00    -0.169 OA
BRANCH  51  54
ATOM     54  O   UNL     1       9.017  -5.847  -1.247  1.00  0.00    -0.264 OA
ATOM     55  H   UNL     1       9.348  -6.391  -0.503  1.00  0.00     0.236 HD
ENDBRANCH  51  54
ENDBRANCH  50  51
ENDBRANCH   8  50
TORSDOF 19
ENDMDL
MODEL 30
REMARK VINA RESULT:    -5.974      3.645      7.459
REMARK INTER + INTRA:         -15.863
REMARK INTER:                 -11.972
REMARK INTRA:                  -3.890
REMARK UNBOUND:                -3.778
REMARK SMILES CC[C@@H](C)[C@@H](NC(=O)[C@@H](O)Cc1ccc(O)c(Cl)c1)C(=O)N1[C@H](C(=O)NCCCCN=C(N)N)C[C@H]2CC[C@H](OS(=O)(=O)O)C[C@@H]21
REMARK SMILES IDX 22 1 36 2 46 3 35 4 23 5 45 6 37 7 39 8 38 9 20 10 21 11
REMARK SMILES IDX 5 12 6 13 7 14 8 15 9 17 11 18 12 19 17 20 19 21 15 22 14 23
REMARK SMILES IDX 13 24 18 25 16 26 10 28 3 30 4 31 2 32 1 33 24 34 25 35
REMARK SMILES IDX 26 36 27 38 28 39 29 40 30 41 31 42 32 43 33 44 34 45 40 50
REMARK SMILES IDX 41 51 42 52 43 53 44 54
REMARK H PARENT 6 16 16 27 10 29 26 37 33 46 33 47 34 48 34 49 44 55
ROOT
ATOM      1  N   UNL     1       6.799  -3.717 -15.436  1.00  0.00    -0.326 N 
ATOM      2  C   UNL     1       6.582  -4.234 -13.149  1.00  0.00     0.014 C 
ATOM      3  C   UNL     1       7.544  -3.630 -14.176  1.00  0.00     0.091 C 
ATOM      4  C   UNL     1       5.877  -5.319 -13.949  1.00  0.00     0.041 C 
ATOM      5  C   UNL     1       5.586  -4.552 -15.252  1.00  0.00     0.175 C 
ATOM      6  C   UNL     1       7.972  -2.249 -13.683  1.00  0.00     0.059 C 
ATOM      7  C   UNL     1       7.313  -4.606 -11.875  1.00  0.00     0.008 C 
ATOM      8  C   UNL     1       8.038  -2.132 -12.145  1.00  0.00     0.143 C 
ATOM      9  C   UNL     1       8.303  -3.493 -11.471  1.00  0.00     0.034 C 
ENDROOT
BRANCH   1  10
ATOM     10  C   UNL     1       7.172  -3.341 -16.715  1.00  0.00     0.246 C 
ATOM     11  O   UNL     1       6.401  -2.645 -17.385  1.00  0.00    -0.272 OA
BRANCH  10  12
ATOM     12  C   UNL     1       8.565  -3.764 -17.264  1.00  0.00     0.174 C 
BRANCH  12  13
ATOM     13  N   UNL     1       9.508  -2.653 -17.139  1.00  0.00    -0.342 N 
ATOM     14  C   UNL     1      10.649  -2.669 -16.368  1.00  0.00     0.249 C 
ATOM     15  O   UNL     1      11.018  -3.637 -15.715  1.00  0.00    -0.272 OA
ATOM     16  H   UNL     1       9.256  -1.735 -17.495  1.00  0.00     0.164 HD
BRANCH  14  17
ATOM     17  C   UNL     1      11.428  -1.337 -16.430  1.00  0.00     0.207 C 
BRANCH  17  18
ATOM     18  C   UNL     1      12.533  -1.313 -15.369  1.00  0.00     0.077 C 
BRANCH  18  19
ATOM     19  C   UNL     1      12.051  -0.709 -14.070  1.00  0.00    -0.043 A 
ATOM     20  C   UNL     1      11.618   1.238 -12.689  1.00  0.00     0.083 A 
ATOM     21  C   UNL     1      12.016   0.685 -13.907  1.00  0.00     0.028 A 
ATOM     22  C   UNL     1      11.255   0.407 -11.629  1.00  0.00     0.134 A 
ATOM     23  C   UNL     1      11.286  -0.975 -11.777  1.00  0.00     0.048 A 
ATOM     24  C   UNL     1      11.685  -1.532 -12.994  1.00  0.00     0.008 A 
ATOM     25  Cl  UNL     1      11.581   2.953 -12.509  1.00  0.00    -0.080 Cl
BRANCH  22  26
ATOM     26  O   UNL     1      10.868   0.903 -10.414  1.00  0.00    -0.506 OA
ATOM     27  H   UNL     1      11.466   1.646 -10.212  1.00  0.00     0.293 HD
ENDBRANCH  22  26
ENDBRANCH  18  19
ENDBRANCH  17  18
BRANCH  17  28
ATOM     28  O   UNL     1      10.552  -0.216 -16.232  1.00  0.00    -0.383 OA
ATOM     29  H   UNL     1       9.676  -0.489 -16.586  1.00  0.00     0.211 HD
ENDBRANCH  17  28
ENDBRANCH  14  17
ENDBRANCH  12  13
BRANCH  12  30
ATOM     30  C   UNL     1       8.496  -4.322 -18.711  1.00  0.00     0.018 C 
ATOM     31  C   UNL     1       7.789  -5.686 -18.737  1.00  0.00     0.010 C 
BRANCH  30  32
ATOM     32  C   UNL     1       9.876  -4.425 -19.404  1.00  0.00     0.002 C 
ATOM     33  C   UNL     1      10.765  -5.564 -18.920  1.00  0.00     0.004 C 
ENDBRANCH  30  32
ENDBRANCH  12  30
ENDBRANCH  10  12
ENDBRANCH   1  10
BRANCH   5  34
ATOM     34  C   UNL     1       4.321  -3.662 -15.122  1.00  0.00     0.242 C 
ATOM     35  O   UNL     1       3.184  -4.133 -15.116  1.00  0.00    -0.273 OA
ATOM     36  N   UNL     1       4.560  -2.308 -15.069  1.00  0.00    -0.354 N 
ATOM     37  H   UNL     1       5.515  -1.972 -15.199  1.00  0.00     0.163 HD
BRANCH  36  38
ATOM     38  C   UNL     1       3.525  -1.352 -14.734  1.00  0.00     0.116 C 
BRANCH  38  39
ATOM     39  C   UNL     1       3.843   0.000 -15.367  1.00  0.00     0.023 C 
BRANCH  39  40
ATOM     40  C   UNL     1       5.056   0.671 -14.731  1.00  0.00     0.026 C 
BRANCH  40  41
ATOM     41  C   UNL     1       6.244   0.668 -15.692  1.00  0.00     0.146 C 
BRANCH  41  42
ATOM     42  N   UNL     1       7.161   1.745 -15.345  1.00  0.00    -0.254 NA
ATOM     43  C   UNL     1       8.074   2.091 -16.173  1.00  0.00     0.185 C 
ATOM     44  N   UNL     1       8.362   1.608 -17.396  1.00  0.00    -0.370 N 
ATOM     45  N   UNL     1       8.912   3.084 -15.833  1.00  0.00    -0.370 N 
ATOM     46  H   UNL     1       9.248   1.803 -17.829  1.00  0.00     0.159 HD
ATOM     47  H   UNL     1       7.817   0.861 -17.815  1.00  0.00     0.159 HD
ATOM     48  H   UNL     1       8.759   3.510 -14.929  1.00  0.00     0.159 HD
ATOM     49  H   UNL     1       9.486   3.565 -16.502  1.00  0.00     0.159 HD
ENDBRANCH  41  42
ENDBRANCH  40  41
ENDBRANCH  39  40
ENDBRANCH  38  39
ENDBRANCH  36  38
ENDBRANCH   5  34
BRANCH   8  50
ATOM     50  O   UNL     1       6.810  -1.608 -11.640  1.00  0.00    -0.245 OA
BRANCH  50  51
ATOM     51  S   UNL     1       6.817  -0.705 -10.287  1.00  0.00     0.397 S 
ATOM     52  O   UNL     1       5.748   0.262 -10.389  1.00  0.00    -0.169 OA
ATOM     53  O   UNL     1       8.174  -0.307  -9.975  1.00  0.00    -0.169 OA
BRANCH  51  54
ATOM     54  O   UNL     1       6.344  -1.765  -9.174  1.00  0.00    -0.264 OA
ATOM     55  H   UNL     1       5.685  -2.358  -9.588  1.00  0.00     0.236 HD
ENDBRANCH  51  54
ENDBRANCH  50  51
ENDBRANCH   8  50
TORSDOF 19
ENDMDL
MODEL 31
REMARK VINA RESULT:    -5.927      2.474      4.985
REMARK INTER + INTRA:         -15.769
REMARK INTER:                 -12.397
REMARK INTRA:                  -3.372
REMARK UNBOUND:                -3.778
REMARK SMILES CC[C@@H](C)[C@@H](NC(=O)[C@@H](O)Cc1ccc(O)c(Cl)c1)C(=O)N1[C@H](C(=O)NCCCCN=C(N)N)C[C@H]2CC[C@H](OS(=O)(=O)O)C[C@@H]21
REMARK SMILES IDX 22 1 36 2 46 3 35 4 23 5 45 6 37 7 39 8 38 9 20 10 21 11
REMARK SMILES IDX 5 12 6 13 7 14 8 15 9 17 11 18 12 19 17 20 19 21 15 22 14 23
REMARK SMILES IDX 13 24 18 25 16 26 10 28 3 30 4 31 2 32 1 33 24 34 25 35
REMARK SMILES IDX 26 36 27 38 28 39 29 40 30 41 31 42 32 43 33 44 34 45 40 50
REMARK SMILES IDX 41 51 42 52 43 53 44 54
REMARK H PARENT 6 16 16 27 10 29 26 37 33 46 33 47 34 48 34 49 44 55
ROOT
ATOM      1  N   UNL     1       7.111  -3.135 -17.224  1.00  0.00    -0.326 N 
ATOM      2  C   UNL     1       8.880  -4.411 -18.110  1.00  0.00     0.014 C 
ATOM      3  C   UNL     1       8.295  -2.996 -18.076  1.00  0.00     0.091 C 
ATOM      4  C   UNL     1       7.638  -5.288 -18.071  1.00  0.00     0.041 C 
ATOM      5  C   UNL     1       6.833  -4.571 -16.971  1.00  0.00     0.175 C 
ATOM      6  C   UNL     1       9.393  -2.029 -17.638  1.00  0.00     0.059 C 
ATOM      7  C   UNL     1       9.861  -4.564 -19.255  1.00  0.00     0.008 C 
ATOM      8  C   UNL     1      10.809  -2.455 -18.083  1.00  0.00     0.143 C 
ATOM      9  C   UNL     1      10.779  -3.327 -19.355  1.00  0.00     0.034 C 
ENDROOT
BRANCH   1  10
ATOM     10  C   UNL     1       6.172  -2.190 -16.847  1.00  0.00     0.246 C 
ATOM     11  O   UNL     1       5.210  -1.968 -17.590  1.00  0.00    -0.272 OA
BRANCH  10  12
ATOM     12  C   UNL     1       6.325  -1.460 -15.481  1.00  0.00     0.174 C 
BRANCH  12  13
ATOM     13  N   UNL     1       5.034  -0.917 -15.058  1.00  0.00    -0.342 N 
ATOM     14  C   UNL     1       4.125  -1.572 -14.258  1.00  0.00     0.249 C 
ATOM     15  O   UNL     1       4.312  -2.685 -13.783  1.00  0.00    -0.272 OA
ATOM     16  H   UNL     1       4.674  -0.074 -15.498  1.00  0.00     0.164 HD
BRANCH  14  17
ATOM     17  C   UNL     1       2.848  -0.742 -14.005  1.00  0.00     0.207 C 
BRANCH  17  18
ATOM     18  C   UNL     1       1.667  -1.662 -13.678  1.00  0.00     0.077 C 
BRANCH  18  19
ATOM     19  C   UNL     1       1.121  -1.403 -12.292  1.00  0.00    -0.043 A 
ATOM     20  C   UNL     1       1.201  -1.777  -9.896  1.00  0.00     0.083 A 
ATOM     21  C   UNL     1       1.737  -1.977 -11.169  1.00  0.00     0.028 A 
ATOM     22  C   UNL     1       0.049  -1.006  -9.737  1.00  0.00     0.134 A 
ATOM     23  C   UNL     1      -0.571  -0.432 -10.841  1.00  0.00     0.048 A 
ATOM     24  C   UNL     1      -0.038  -0.632 -12.116  1.00  0.00     0.008 A 
ATOM     25  Cl  UNL     1       1.972  -2.490  -8.529  1.00  0.00    -0.080 Cl
BRANCH  22  26
ATOM     26  O   UNL     1      -0.519  -0.790  -8.511  1.00  0.00    -0.506 OA
ATOM     27  H   UNL     1      -1.470  -0.988  -8.604  1.00  0.00     0.293 HD
ENDBRANCH  22  26
ENDBRANCH  18  19
ENDBRANCH  17  18
BRANCH  17  28
ATOM     28  O   UNL     1       2.521   0.066 -15.147  1.00  0.00    -0.383 OA
ATOM     29  H   UNL     1       1.590  -0.156 -15.379  1.00  0.00     0.211 HD
ENDBRANCH  17  28
ENDBRANCH  14  17
ENDBRANCH  12  13
BRANCH  12  30
ATOM     30  C   UNL     1       7.443  -0.384 -15.497  1.00  0.00     0.018 C 
ATOM     31  C   UNL     1       7.991  -0.143 -14.082  1.00  0.00     0.010 C 
BRANCH  30  32
ATOM     32  C   UNL     1       7.005   0.958 -16.133  1.00  0.00     0.002 C 
ATOM     33  C   UNL     1       8.141   1.898 -16.517  1.00  0.00     0.004 C 
ENDBRANCH  30  32
ENDBRANCH  12  30
ENDBRANCH  10  12
ENDBRANCH   1  10
BRANCH   5  34
ATOM     34  C   UNL     1       7.311  -4.982 -15.552  1.00  0.00     0.242 C 
ATOM     35  O   UNL     1       8.456  -5.377 -15.333  1.00  0.00    -0.273 OA
ATOM     36  N   UNL     1       6.348  -4.924 -14.570  1.00  0.00    -0.354 N 
ATOM     37  H   UNL     1       5.387  -4.705 -14.836  1.00  0.00     0.163 HD
BRANCH  36  38
ATOM     38  C   UNL     1       6.667  -5.063 -13.164  1.00  0.00     0.116 C 
BRANCH  38  39
ATOM     39  C   UNL     1       7.692  -4.006 -12.759  1.00  0.00     0.023 C 
BRANCH  39  40
ATOM     40  C   UNL     1       7.191  -3.109 -11.633  1.00  0.00     0.026 C 
BRANCH  40  41
ATOM     41  C   UNL     1       8.362  -2.501 -10.861  1.00  0.00     0.146 C 
BRANCH  41  42
ATOM     42  N   UNL     1       9.549  -2.480 -11.706  1.00  0.00    -0.254 NA
ATOM     43  C   UNL     1      10.402  -1.534 -11.575  1.00  0.00     0.185 C 
ATOM     44  N   UNL     1      10.404  -0.480 -10.739  1.00  0.00    -0.370 N 
ATOM     45  N   UNL     1      11.488  -1.530 -12.366  1.00  0.00    -0.370 N 
ATOM     46  H   UNL     1      11.004   0.309 -10.910  1.00  0.00     0.159 HD
ATOM     47  H   UNL     1       9.662  -0.336 -10.061  1.00  0.00     0.159 HD
ATOM     48  H   UNL     1      11.569  -2.296 -13.020  1.00  0.00     0.159 HD
ATOM     49  H   UNL     1      12.302  -0.975 -12.169  1.00  0.00     0.159 HD
ENDBRANCH  41  42
ENDBRANCH  40  41
ENDBRANCH  39  40
ENDBRANCH  38  39
ENDBRANCH  36  38
ENDBRANCH   5  34
BRANCH   8  50
ATOM     50  O   UNL     1      11.449  -3.193 -17.042  1.00  0.00    -0.245 OA
BRANCH  50  51
ATOM     51  S   UNL     1      11.606  -2.528 -15.566  1.00  0.00     0.397 S 
ATOM     52  O   UNL     1      11.630  -1.091 -15.724  1.00  0.00    -0.169 OA
ATOM     53  O   UNL     1      12.634  -3.228 -14.824  1.00  0.00    -0.169 OA
BRANCH  51  54
ATOM     54  O   UNL     1      10.187  -2.871 -14.891  1.00  0.00    -0.264 OA
ATOM     55  H   UNL     1      10.357  -3.432 -14.107  1.00  0.00     0.236 HD
ENDBRANCH  51  54
ENDBRANCH  50  51
ENDBRANCH   8  50
TORSDOF 19
ENDMDL
MODEL 32
REMARK VINA RESULT:    -5.915      3.208      5.006
REMARK INTER + INTRA:         -15.743
REMARK INTER:                 -13.288
REMARK INTRA:                  -2.455
REMARK UNBOUND:                -3.778
REMARK SMILES CC[C@@H](C)[C@@H](NC(=O)[C@@H](O)Cc1ccc(O)c(Cl)c1)C(=O)N1[C@H](C(=O)NCCCCN=C(N)N)C[C@H]2CC[C@H](OS(=O)(=O)O)C[C@@H]21
REMARK SMILES IDX 22 1 36 2 46 3 35 4 23 5 45 6 37 7 39 8 38 9 20 10 21 11
REMARK SMILES IDX 5 12 6 13 7 14 8 15 9 17 11 18 12 19 17 20 19 21 15 22 14 23
REMARK SMILES IDX 13 24 18 25 16 26 10 28 3 30 4 31 2 32 1 33 24 34 25 35
REMARK SMILES IDX 26 36 27 38 28 39 29 40 30 41 31 42 32 43 33 44 34 45 40 50
REMARK SMILES IDX 41 51 42 52 43 53 44 54
REMARK H PARENT 6 16 16 27 10 29 26 37 33 46 33 47 34 48 34 49 44 55
ROOT
ATOM      1  N   UNL     1       8.820  -1.637 -16.422  1.00  0.00    -0.326 N 
ATOM      2  C   UNL     1       9.569  -2.506 -18.477  1.00  0.00     0.014 C 
ATOM      3  C   UNL     1      10.058  -1.997 -17.118  1.00  0.00     0.091 C 
ATOM      4  C   UNL     1       8.359  -1.626 -18.749  1.00  0.00     0.041 C 
ATOM      5  C   UNL     1       7.677  -1.666 -17.368  1.00  0.00     0.175 C 
ATOM      6  C   UNL     1      10.955  -3.065 -16.496  1.00  0.00     0.059 C 
ATOM      7  C   UNL     1      10.703  -2.541 -19.483  1.00  0.00     0.008 C 
ATOM      8  C   UNL     1      11.743  -3.896 -17.532  1.00  0.00     0.143 C 
ATOM      9  C   UNL     1      11.984  -3.113 -18.839  1.00  0.00     0.034 C 
ENDROOT
BRANCH   1  10
ATOM     10  C   UNL     1       8.635  -1.100 -15.159  1.00  0.00     0.246 C 
ATOM     11  O   UNL     1       8.411  -1.860 -14.210  1.00  0.00    -0.272 OA
BRANCH  10  12
ATOM     12  C   UNL     1       8.756   0.437 -14.953  1.00  0.00     0.174 C 
BRANCH  12  13
ATOM     13  N   UNL     1       7.717   1.126 -15.718  1.00  0.00    -0.342 N 
ATOM     14  C   UNL     1       6.406   1.267 -15.321  1.00  0.00     0.249 C 
ATOM     15  O   UNL     1       5.967   0.850 -14.256  1.00  0.00    -0.272 OA
ATOM     16  H   UNL     1       7.892   1.385 -16.685  1.00  0.00     0.164 HD
BRANCH  14  17
ATOM     17  C   UNL     1       5.549   2.028 -16.355  1.00  0.00     0.207 C 
BRANCH  17  18
ATOM     18  C   UNL     1       4.526   2.923 -15.647  1.00  0.00     0.077 C 
BRANCH  18  19
ATOM     19  C   UNL     1       3.108   2.456 -15.890  1.00  0.00    -0.043 A 
ATOM     20  C   UNL     1       1.228   1.046 -15.291  1.00  0.00     0.083 A 
ATOM     21  C   UNL     1       2.518   1.511 -15.036  1.00  0.00     0.028 A 
ATOM     22  C   UNL     1       0.521   1.518 -16.397  1.00  0.00     0.134 A 
ATOM     23  C   UNL     1       1.094   2.454 -17.251  1.00  0.00     0.048 A 
ATOM     24  C   UNL     1       2.386   2.920 -16.999  1.00  0.00     0.008 A 
ATOM     25  Cl  UNL     1       0.520  -0.116 -14.231  1.00  0.00    -0.080 Cl
BRANCH  22  26
ATOM     26  O   UNL     1      -0.742   1.083 -16.694  1.00  0.00    -0.506 OA
ATOM     27  H   UNL     1      -1.198   0.945 -15.843  1.00  0.00     0.293 HD
ENDBRANCH  22  26
ENDBRANCH  18  19
ENDBRANCH  17  18
BRANCH  17  28
ATOM     28  O   UNL     1       4.862   1.118 -17.228  1.00  0.00    -0.383 OA
ATOM     29  H   UNL     1       5.303   1.198 -18.105  1.00  0.00     0.211 HD
ENDBRANCH  17  28
ENDBRANCH  14  17
ENDBRANCH  12  13
BRANCH  12  30
ATOM     30  C   UNL     1      10.178   0.975 -15.268  1.00  0.00     0.018 C 
ATOM     31  C   UNL     1      11.239   0.229 -14.444  1.00  0.00     0.010 C 
BRANCH  30  32
ATOM     32  C   UNL     1      10.323   2.503 -15.066  1.00  0.00     0.002 C 
ATOM     33  C   UNL     1      11.746   2.997 -14.836  1.00  0.00     0.004 C 
ENDBRANCH  30  32
ENDBRANCH  12  30
ENDBRANCH  10  12
ENDBRANCH   1  10
BRANCH   5  34
ATOM     34  C   UNL     1       6.841  -2.960 -17.181  1.00  0.00     0.242 C 
ATOM     35  O   UNL     1       6.999  -3.954 -17.889  1.00  0.00    -0.273 OA
ATOM     36  N   UNL     1       5.874  -2.896 -16.202  1.00  0.00    -0.354 N 
ATOM     37  H   UNL     1       5.711  -2.006 -15.730  1.00  0.00     0.163 HD
BRANCH  36  38
ATOM     38  C   UNL     1       5.155  -4.068 -15.748  1.00  0.00     0.116 C 
BRANCH  38  39
ATOM     39  C   UNL     1       4.410  -3.749 -14.454  1.00  0.00     0.023 C 
BRANCH  39  40
ATOM     40  C   UNL     1       4.973  -2.523 -13.744  1.00  0.00     0.026 C 
BRANCH  40  41
ATOM     41  C   UNL     1       5.620  -2.915 -12.415  1.00  0.00     0.146 C 
BRANCH  41  42
ATOM     42  N   UNL     1       5.671  -4.367 -12.302  1.00  0.00    -0.254 NA
ATOM     43  C   UNL     1       6.771  -4.981 -12.525  1.00  0.00     0.185 C 
ATOM     44  N   UNL     1       7.978  -4.496 -12.870  1.00  0.00    -0.370 N 
ATOM     45  N   UNL     1       6.796  -6.320 -12.420  1.00  0.00    -0.370 N 
ATOM     46  H   UNL     1       8.685  -5.103 -13.250  1.00  0.00     0.159 HD
ATOM     47  H   UNL     1       8.141  -3.500 -12.980  1.00  0.00     0.159 HD
ATOM     48  H   UNL     1       5.928  -6.765 -12.154  1.00  0.00     0.159 HD
ATOM     49  H   UNL     1       7.650  -6.844 -12.344  1.00  0.00     0.159 HD
ENDBRANCH  41  42
ENDBRANCH  40  41
ENDBRANCH  39  40
ENDBRANCH  38  39
ENDBRANCH  36  38
ENDBRANCH   5  34
BRANCH   8  50
ATOM     50  O   UNL     1      11.031  -5.093 -17.845  1.00  0.00    -0.245 OA
BRANCH  50  51
ATOM     51  S   UNL     1      10.956  -6.293 -16.749  1.00  0.00     0.397 S 
ATOM     52  O   UNL     1      11.817  -5.941 -15.643  1.00  0.00    -0.169 OA
ATOM     53  O   UNL     1      11.066  -7.571 -17.420  1.00  0.00    -0.169 OA
BRANCH  51  54
ATOM     54  O   UNL     1       9.453  -6.150 -16.197  1.00  0.00    -0.264 OA
ATOM     55  H   UNL     1       9.441  -5.416 -15.549  1.00  0.00     0.236 HD
ENDBRANCH  51  54
ENDBRANCH  50  51
ENDBRANCH   8  50
TORSDOF 19
ENDMDL
MODEL 33
REMARK VINA RESULT:    -5.890      3.223      7.351
REMARK INTER + INTRA:         -15.693
REMARK INTER:                 -12.631
REMARK INTRA:                  -3.062
REMARK UNBOUND:                -3.778
REMARK SMILES CC[C@@H](C)[C@@H](NC(=O)[C@@H](O)Cc1ccc(O)c(Cl)c1)C(=O)N1[C@H](C(=O)NCCCCN=C(N)N)C[C@H]2CC[C@H](OS(=O)(=O)O)C[C@@H]21
REMARK SMILES IDX 22 1 36 2 46 3 35 4 23 5 45 6 37 7 39 8 38 9 20 10 21 11
REMARK SMILES IDX 5 12 6 13 7 14 8 15 9 17 11 18 12 19 17 20 19 21 15 22 14 23
REMARK SMILES IDX 13 24 18 25 16 26 10 28 3 30 4 31 2 32 1 33 24 34 25 35
REMARK SMILES IDX 26 36 27 38 28 39 29 40 30 41 31 42 32 43 33 44 34 45 40 50
REMARK SMILES IDX 41 51 42 52 43 53 44 54
REMARK H PARENT 6 16 16 27 10 29 26 37 33 46 33 47 34 48 34 49 44 55
ROOT
ATOM      1  N   UNL     1       5.744  -2.894 -11.763  1.00  0.00    -0.326 N 
ATOM      2  C   UNL     1       6.935  -4.099 -13.398  1.00  0.00     0.014 C 
ATOM      3  C   UNL     1       5.538  -3.584 -13.040  1.00  0.00     0.091 C 
ATOM      4  C   UNL     1       7.527  -4.435 -12.037  1.00  0.00     0.041 C 
ATOM      5  C   UNL     1       7.101  -3.188 -11.240  1.00  0.00     0.175 C 
ATOM      6  C   UNL     1       5.003  -2.777 -14.222  1.00  0.00     0.059 C 
ATOM      7  C   UNL     1       6.860  -5.176 -14.462  1.00  0.00     0.008 C 
ATOM      8  C   UNL     1       5.501  -3.280 -15.594  1.00  0.00     0.143 C 
ATOM      9  C   UNL     1       5.857  -4.781 -15.566  1.00  0.00     0.034 C 
ENDROOT
BRANCH   1  10
ATOM     10  C   UNL     1       4.833  -2.244 -10.948  1.00  0.00     0.246 C 
ATOM     11  O   UNL     1       5.032  -1.063 -10.645  1.00  0.00    -0.272 OA
BRANCH  10  12
ATOM     12  C   UNL     1       3.560  -2.999 -10.468  1.00  0.00     0.174 C 
BRANCH  12  13
ATOM     13  N   UNL     1       2.385  -2.501 -11.183  1.00  0.00    -0.342 N 
ATOM     14  C   UNL     1       1.677  -3.208 -12.128  1.00  0.00     0.249 C 
ATOM     15  O   UNL     1       1.940  -4.357 -12.459  1.00  0.00    -0.272 OA
ATOM     16  H   UNL     1       2.144  -1.514 -11.129  1.00  0.00     0.164 HD
BRANCH  14  17
ATOM     17  C   UNL     1       0.498  -2.402 -12.715  1.00  0.00     0.207 C 
BRANCH  17  18
ATOM     18  C   UNL     1       0.133  -1.237 -11.790  1.00  0.00     0.077 C 
BRANCH  18  19
ATOM     19  C   UNL     1      -0.013   0.061 -12.552  1.00  0.00    -0.043 A 
ATOM     20  C   UNL     1       0.272   1.347 -14.589  1.00  0.00     0.083 A 
ATOM     21  C   UNL     1       0.361   0.135 -13.903  1.00  0.00     0.028 A 
ATOM     22  C   UNL     1      -0.188   2.489 -13.933  1.00  0.00     0.134 A 
ATOM     23  C   UNL     1      -0.562   2.430 -12.596  1.00  0.00     0.048 A 
ATOM     24  C   UNL     1      -0.472   1.219 -11.905  1.00  0.00     0.008 A 
ATOM     25  Cl  UNL     1       0.737   1.418 -16.249  1.00  0.00    -0.080 Cl
BRANCH  22  26
ATOM     26  O   UNL     1      -0.283   3.701 -14.562  1.00  0.00    -0.506 OA
ATOM     27  H   UNL     1      -0.303   4.379 -13.861  1.00  0.00     0.293 HD
ENDBRANCH  22  26
ENDBRANCH  18  19
ENDBRANCH  17  18
BRANCH  17  28
ATOM     28  O   UNL     1      -0.655  -3.237 -12.907  1.00  0.00    -0.383 OA
ATOM     29  H   UNL     1      -1.291  -2.989 -12.199  1.00  0.00     0.211 HD
ENDBRANCH  17  28
ENDBRANCH  14  17
ENDBRANCH  12  13
BRANCH  12  30
ATOM     30  C   UNL     1       3.379  -2.951  -8.927  1.00  0.00     0.018 C 
ATOM     31  C   UNL     1       3.927  -4.229  -8.272  1.00  0.00     0.010 C 
BRANCH  30  32
ATOM     32  C   UNL     1       1.917  -2.709  -8.479  1.00  0.00     0.002 C 
ATOM     33  C   UNL     1       1.658  -1.373  -7.795  1.00  0.00     0.004 C 
ENDBRANCH  30  32
ENDBRANCH  12  30
ENDBRANCH  10  12
ENDBRANCH   1  10
BRANCH   5  34
ATOM     34  C   UNL     1       8.059  -1.993 -11.492  1.00  0.00     0.242 C 
ATOM     35  O   UNL     1       8.109  -1.020 -10.740  1.00  0.00    -0.273 OA
ATOM     36  N   UNL     1       8.809  -2.076 -12.644  1.00  0.00    -0.354 N 
ATOM     37  H   UNL     1       8.636  -2.849 -13.288  1.00  0.00     0.163 HD
BRANCH  36  38
ATOM     38  C   UNL     1       9.900  -1.166 -12.924  1.00  0.00     0.116 C 
BRANCH  38  39
ATOM     39  C   UNL     1      10.729  -1.694 -14.091  1.00  0.00     0.023 C 
BRANCH  39  40
ATOM     40  C   UNL     1      10.262  -1.144 -15.434  1.00  0.00     0.026 C 
BRANCH  40  41
ATOM     41  C   UNL     1      10.400  -2.200 -16.531  1.00  0.00     0.146 C 
BRANCH  41  42
ATOM     42  N   UNL     1      10.602  -3.512 -15.928  1.00  0.00    -0.254 NA
ATOM     43  C   UNL     1       9.931  -4.514 -16.355  1.00  0.00     0.185 C 
ATOM     44  N   UNL     1       9.006  -4.585 -17.330  1.00  0.00    -0.370 N 
ATOM     45  N   UNL     1      10.129  -5.714 -15.784  1.00  0.00    -0.370 N 
ATOM     46  H   UNL     1       8.388  -5.376 -17.394  1.00  0.00     0.159 HD
ATOM     47  H   UNL     1       8.744  -3.771 -17.876  1.00  0.00     0.159 HD
ATOM     48  H   UNL     1      10.817  -5.750 -15.045  1.00  0.00     0.159 HD
ATOM     49  H   UNL     1       9.829  -6.574 -16.207  1.00  0.00     0.159 HD
ENDBRANCH  41  42
ENDBRANCH  40  41
ENDBRANCH  39  40
ENDBRANCH  38  39
ENDBRANCH  36  38
ENDBRANCH   5  34
BRANCH   8  50
ATOM     50  O   UNL     1       6.659  -2.547 -15.995  1.00  0.00    -0.245 OA
BRANCH  50  51
ATOM     51  S   UNL     1       6.580  -1.568 -17.291  1.00  0.00     0.397 S 
ATOM     52  O   UNL     1       7.467  -2.095 -18.303  1.00  0.00    -0.169 OA
ATOM     53  O   UNL     1       6.653  -0.187 -16.861  1.00  0.00    -0.169 OA
BRANCH  51  54
ATOM     54  O   UNL     1       5.090  -1.842 -17.828  1.00  0.00    -0.264 OA
ATOM     55  H   UNL     1       4.480  -1.770 -17.066  1.00  0.00     0.236 HD
ENDBRANCH  51  54
ENDBRANCH  50  51
ENDBRANCH   8  50
TORSDOF 19
ENDMDL
MODEL 34
REMARK VINA RESULT:    -5.874     17.685     21.160
REMARK INTER + INTRA:         -15.661
REMARK INTER:                 -13.074
REMARK INTRA:                  -2.587
REMARK UNBOUND:                -3.778
REMARK SMILES CC[C@@H](C)[C@@H](NC(=O)[C@@H](O)Cc1ccc(O)c(Cl)c1)C(=O)N1[C@H](C(=O)NCCCCN=C(N)N)C[C@H]2CC[C@H](OS(=O)(=O)O)C[C@@H]21
REMARK SMILES IDX 22 1 36 2 46 3 35 4 23 5 45 6 37 7 39 8 38 9 20 10 21 11
REMARK SMILES IDX 5 12 6 13 7 14 8 15 9 17 11 18 12 19 17 20 19 21 15 22 14 23
REMARK SMILES IDX 13 24 18 25 16 26 10 28 3 30 4 31 2 32 1 33 24 34 25 35
REMARK SMILES IDX 26 36 27 38 28 39 29 40 30 41 31 42 32 43 33 44 34 45 40 50
REMARK SMILES IDX 41 51 42 52 43 53 44 54
REMARK H PARENT 6 16 16 27 10 29 26 37 33 46 33 47 34 48 34 49 44 55
ROOT
ATOM      1  N   UNL     1      10.353  -3.579   6.071  1.00  0.00    -0.326 N 
ATOM      2  C   UNL     1      10.953  -5.735   6.803  1.00  0.00     0.014 C 
ATOM      3  C   UNL     1      10.499  -4.360   7.303  1.00  0.00     0.091 C 
ATOM      4  C   UNL     1      11.817  -5.386   5.601  1.00  0.00     0.041 C 
ATOM      5  C   UNL     1      10.928  -4.326   4.925  1.00  0.00     0.175 C 
ATOM      6  C   UNL     1       9.270  -4.550   8.190  1.00  0.00     0.059 C 
ATOM      7  C   UNL     1      11.546  -6.554   7.933  1.00  0.00     0.008 C 
ATOM      8  C   UNL     1       9.264  -5.886   8.965  1.00  0.00     0.143 C 
ATOM      9  C   UNL     1      10.689  -6.420   9.210  1.00  0.00     0.034 C 
ENDROOT
BRANCH   1  10
ATOM     10  C   UNL     1       9.984  -2.256   5.897  1.00  0.00     0.246 C 
ATOM     11  O   UNL     1       9.857  -1.813   4.751  1.00  0.00    -0.272 OA
BRANCH  10  12
ATOM     12  C   UNL     1       9.697  -1.370   7.144  1.00  0.00     0.174 C 
BRANCH  12  13
ATOM     13  N   UNL     1       8.465  -0.608   6.941  1.00  0.00    -0.342 N 
ATOM     14  C   UNL     1       7.199  -1.055   7.247  1.00  0.00     0.249 C 
ATOM     15  O   UNL     1       6.966  -2.144   7.757  1.00  0.00    -0.272 OA
ATOM     16  H   UNL     1       8.485   0.244   6.386  1.00  0.00     0.164 HD
BRANCH  14  17
ATOM     17  C   UNL     1       6.103  -0.026   6.899  1.00  0.00     0.207 C 
BRANCH  17  18
ATOM     18  C   UNL     1       5.931   0.980   8.042  1.00  0.00     0.077 C 
BRANCH  18  19
ATOM     19  C   UNL     1       6.769   2.221   7.830  1.00  0.00    -0.043 A 
ATOM     20  C   UNL     1       7.938   4.148   8.727  1.00  0.00     0.083 A 
ATOM     21  C   UNL     1       7.207   2.976   8.929  1.00  0.00     0.028 A 
ATOM     22  C   UNL     1       8.235   4.571   7.431  1.00  0.00     0.134 A 
ATOM     23  C   UNL     1       7.808   3.832   6.334  1.00  0.00     0.048 A 
ATOM     24  C   UNL     1       7.074   2.661   6.532  1.00  0.00     0.008 A 
ATOM     25  Cl  UNL     1       8.466   5.063  10.090  1.00  0.00    -0.080 Cl
BRANCH  22  26
ATOM     26  O   UNL     1       8.940   5.718   7.184  1.00  0.00    -0.506 OA
ATOM     27  H   UNL     1       9.050   6.170   8.041  1.00  0.00     0.293 HD
ENDBRANCH  22  26
ENDBRANCH  18  19
ENDBRANCH  17  18
BRANCH  17  28
ATOM     28  O   UNL     1       4.847  -0.674   6.642  1.00  0.00    -0.383 OA
ATOM     29  H   UNL     1       4.169   0.039   6.635  1.00  0.00     0.211 HD
ENDBRANCH  17  28
ENDBRANCH  14  17
ENDBRANCH  12  13
BRANCH  12  30
ATOM     30  C   UNL     1      10.898  -0.464   7.526  1.00  0.00     0.018 C 
ATOM     31  C   UNL     1      11.849  -1.194   8.487  1.00  0.00     0.010 C 
BRANCH  30  32
ATOM     32  C   UNL     1      10.480   0.901   8.125  1.00  0.00     0.002 C 
ATOM     33  C   UNL     1      11.094   2.122   7.452  1.00  0.00     0.004 C 
ENDBRANCH  30  32
ENDBRANCH  12  30
ENDBRANCH  10  12
ENDBRANCH   1  10
BRANCH   5  34
ATOM     34  C   UNL     1       9.805  -4.979   4.075  1.00  0.00     0.242 C 
ATOM     35  O   UNL     1       9.394  -6.119   4.293  1.00  0.00    -0.273 OA
ATOM     36  N   UNL     1       9.343  -4.214   3.028  1.00  0.00    -0.354 N 
ATOM     37  H   UNL     1       9.807  -3.327   2.825  1.00  0.00     0.163 HD
BRANCH  36  38
ATOM     38  C   UNL     1       8.161  -4.572   2.272  1.00  0.00     0.116 C 
BRANCH  38  39
ATOM     39  C   UNL     1       8.198  -3.897   0.902  1.00  0.00     0.023 C 
BRANCH  39  40
ATOM     40  C   UNL     1       8.150  -4.902  -0.244  1.00  0.00     0.026 C 
BRANCH  40  41
ATOM     41  C   UNL     1       6.877  -5.744  -0.174  1.00  0.00     0.146 C 
BRANCH  41  42
ATOM     42  N   UNL     1       5.985  -5.380  -1.267  1.00  0.00    -0.254 NA
ATOM     43  C   UNL     1       4.823  -4.910  -1.007  1.00  0.00     0.185 C 
ATOM     44  N   UNL     1       4.232  -4.671   0.178  1.00  0.00    -0.370 N 
ATOM     45  N   UNL     1       4.015  -4.585  -2.029  1.00  0.00    -0.370 N 
ATOM     46  H   UNL     1       3.237  -4.533   0.236  1.00  0.00     0.159 HD
ATOM     47  H   UNL     1       4.709  -4.848   1.057  1.00  0.00     0.159 HD
ATOM     48  H   UNL     1       4.387  -4.726  -2.958  1.00  0.00     0.159 HD
ATOM     49  H   UNL     1       3.204  -4.001  -1.917  1.00  0.00     0.159 HD
ENDBRANCH  41  42
ENDBRANCH  40  41
ENDBRANCH  39  40
ENDBRANCH  38  39
ENDBRANCH  36  38
ENDBRANCH   5  34
BRANCH   8  50
ATOM     50  O   UNL     1       8.528  -6.871   8.239  1.00  0.00    -0.245 OA
BRANCH  50  51
ATOM     51  S   UNL     1       7.584  -7.923   9.043  1.00  0.00     0.397 S 
ATOM     52  O   UNL     1       6.731  -7.167   9.932  1.00  0.00    -0.169 OA
ATOM     53  O   UNL     1       8.386  -9.031   9.518  1.00  0.00    -0.169 OA
BRANCH  51  54
ATOM     54  O   UNL     1       6.623  -8.471   7.876  1.00  0.00    -0.264 OA
ATOM     55  H   UNL     1       7.183  -8.941   7.225  1.00  0.00     0.236 HD
ENDBRANCH  51  54
ENDBRANCH  50  51
ENDBRANCH   8  50
TORSDOF 19
ENDMDL
MODEL 35
REMARK VINA RESULT:    -5.821     16.343     19.747
REMARK INTER + INTRA:         -15.555
REMARK INTER:                 -12.439
REMARK INTRA:                  -3.116
REMARK UNBOUND:                -3.778
REMARK SMILES CC[C@@H](C)[C@@H](NC(=O)[C@@H](O)Cc1ccc(O)c(Cl)c1)C(=O)N1[C@H](C(=O)NCCCCN=C(N)N)C[C@H]2CC[C@H](OS(=O)(=O)O)C[C@@H]21
REMARK SMILES IDX 22 1 36 2 46 3 35 4 23 5 45 6 37 7 39 8 38 9 20 10 21 11
REMARK SMILES IDX 5 12 6 13 7 14 8 15 9 17 11 18 12 19 17 20 19 21 15 22 14 23
REMARK SMILES IDX 13 24 18 25 16 26 10 28 3 30 4 31 2 32 1 33 24 34 25 35
REMARK SMILES IDX 26 36 27 38 28 39 29 40 30 41 31 42 32 43 33 44 34 45 40 50
REMARK SMILES IDX 41 51 42 52 43 53 44 54
REMARK H PARENT 6 16 16 27 10 29 26 37 33 46 33 47 34 48 34 49 44 55
ROOT
ATOM      1  N   UNL     1       9.382  -2.901   2.680  1.00  0.00    -0.326 N 
ATOM      2  C   UNL     1       7.991  -1.820   1.119  1.00  0.00     0.014 C 
ATOM      3  C   UNL     1       8.972  -2.984   1.275  1.00  0.00     0.091 C 
ATOM      4  C   UNL     1       8.575  -0.763   2.044  1.00  0.00     0.041 C 
ATOM      5  C   UNL     1       8.902  -1.629   3.274  1.00  0.00     0.175 C 
ATOM      6  C   UNL     1       8.286  -4.262   0.795  1.00  0.00     0.059 C 
ATOM      7  C   UNL     1       7.771  -1.488  -0.344  1.00  0.00     0.008 C 
ATOM      8  C   UNL     1       7.269  -4.031  -0.344  1.00  0.00     0.143 C 
ATOM      9  C   UNL     1       7.606  -2.777  -1.176  1.00  0.00     0.034 C 
ENDROOT
BRANCH   1  10
ATOM     10  C   UNL     1      10.273  -3.685   3.393  1.00  0.00     0.246 C 
ATOM     11  O   UNL     1      11.472  -3.653   3.096  1.00  0.00    -0.272 OA
BRANCH  10  12
ATOM     12  C   UNL     1       9.755  -4.554   4.575  1.00  0.00     0.174 C 
BRANCH  12  13
ATOM     13  N   UNL     1      10.121  -3.934   5.848  1.00  0.00    -0.342 N 
ATOM     14  C   UNL     1       9.263  -3.735   6.906  1.00  0.00     0.249 C 
ATOM     15  O   UNL     1       8.090  -4.085   6.908  1.00  0.00    -0.272 OA
ATOM     16  H   UNL     1      11.014  -3.454   5.936  1.00  0.00     0.164 HD
BRANCH  14  17
ATOM     17  C   UNL     1       9.946  -3.039   8.103  1.00  0.00     0.207 C 
BRANCH  17  18
ATOM     18  C   UNL     1      11.328  -2.514   7.701  1.00  0.00     0.077 C 
BRANCH  18  19
ATOM     19  C   UNL     1      11.375  -1.003   7.697  1.00  0.00    -0.043 A 
ATOM     20  C   UNL     1      10.341   1.132   7.191  1.00  0.00     0.083 A 
ATOM     21  C   UNL     1      10.275  -0.261   7.239  1.00  0.00     0.028 A 
ATOM     22  C   UNL     1      11.502   1.791   7.596  1.00  0.00     0.134 A 
ATOM     23  C   UNL     1      12.599   1.069   8.052  1.00  0.00     0.048 A 
ATOM     24  C   UNL     1      12.537  -0.326   8.100  1.00  0.00     0.008 A 
ATOM     25  Cl  UNL     1       8.980   2.027   6.625  1.00  0.00    -0.080 Cl
BRANCH  22  26
ATOM     26  O   UNL     1      11.617   3.154   7.557  1.00  0.00    -0.506 OA
ATOM     27  H   UNL     1      12.054   3.374   6.713  1.00  0.00     0.293 HD
ENDBRANCH  22  26
ENDBRANCH  18  19
ENDBRANCH  17  18
BRANCH  17  28
ATOM     28  O   UNL     1      10.083  -3.939   9.215  1.00  0.00    -0.383 OA
ATOM     29  H   UNL     1      10.149  -3.372  10.017  1.00  0.00     0.211 HD
ENDBRANCH  17  28
ENDBRANCH  14  17
ENDBRANCH  12  13
BRANCH  12  30
ATOM     30  C   UNL     1      10.218  -6.033   4.482  1.00  0.00     0.018 C 
ATOM     31  C   UNL     1       9.042  -6.991   4.726  1.00  0.00     0.010 C 
BRANCH  30  32
ATOM     32  C   UNL     1      11.391  -6.378   5.431  1.00  0.00     0.002 C 
ATOM     33  C   UNL     1      11.083  -7.426   6.492  1.00  0.00     0.004 C 
ENDBRANCH  30  32
ENDBRANCH  12  30
ENDBRANCH  10  12
ENDBRANCH   1  10
BRANCH   5  34
ATOM     34  C   UNL     1       7.646  -1.872   4.154  1.00  0.00     0.242 C 
ATOM     35  O   UNL     1       6.944  -2.876   4.035  1.00  0.00    -0.273 OA
ATOM     36  N   UNL     1       7.345  -0.859   5.036  1.00  0.00    -0.354 N 
ATOM     37  H   UNL     1       7.894   0.000   5.004  1.00  0.00     0.163 HD
BRANCH  36  38
ATOM     38  C   UNL     1       6.345  -1.010   6.074  1.00  0.00     0.116 C 
BRANCH  38  39
ATOM     39  C   UNL     1       5.033  -0.370   5.626  1.00  0.00     0.023 C 
BRANCH  39  40
ATOM     40  C   UNL     1       3.915  -0.559   6.647  1.00  0.00     0.026 C 
BRANCH  40  41
ATOM     41  C   UNL     1       3.438   0.791   7.183  1.00  0.00     0.146 C 
BRANCH  41  42
ATOM     42  N   UNL     1       4.587   1.627   7.505  1.00  0.00    -0.254 NA
ATOM     43  C   UNL     1       5.166   1.497   8.639  1.00  0.00     0.185 C 
ATOM     44  N   UNL     1       4.889   0.669   9.663  1.00  0.00    -0.370 N 
ATOM     45  N   UNL     1       6.220   2.281   8.919  1.00  0.00    -0.370 N 
ATOM     46  H   UNL     1       5.266   0.842  10.579  1.00  0.00     0.159 HD
ATOM     47  H   UNL     1       4.128  -0.002   9.615  1.00  0.00     0.159 HD
ATOM     48  H   UNL     1       6.501   2.929   8.196  1.00  0.00     0.159 HD
ATOM     49  H   UNL     1       6.862   2.083   9.666  1.00  0.00     0.159 HD
ENDBRANCH  41  42
ENDBRANCH  40  41
ENDBRANCH  39  40
ENDBRANCH  38  39
ENDBRANCH  36  38
ENDBRANCH   5  34
BRANCH   8  50
ATOM     50  O   UNL     1       5.956  -3.878   0.196  1.00  0.00    -0.245 OA
BRANCH  50  51
ATOM     51  S   UNL     1       4.670  -4.375  -0.667  1.00  0.00     0.397 S 
ATOM     52  O   UNL     1       5.064  -5.544  -1.421  1.00  0.00    -0.169 OA
ATOM     53  O   UNL     1       4.042  -3.236  -1.304  1.00  0.00    -0.169 OA
BRANCH  51  54
ATOM     54  O   UNL     1       3.680  -4.909   0.482  1.00  0.00    -0.264 OA
ATOM     55  H   UNL     1       2.868  -4.364   0.452  1.00  0.00     0.236 HD
ENDBRANCH  51  54
ENDBRANCH  50  51
ENDBRANCH   8  50
TORSDOF 19
ENDMDL
MODEL 36
REMARK VINA RESULT:    -5.781      3.975      5.840
REMARK INTER + INTRA:         -15.473
REMARK INTER:                 -11.348
REMARK INTRA:                  -4.125
REMARK UNBOUND:                -3.778
REMARK SMILES CC[C@@H](C)[C@@H](NC(=O)[C@@H](O)Cc1ccc(O)c(Cl)c1)C(=O)N1[C@H](C(=O)NCCCCN=C(N)N)C[C@H]2CC[C@H](OS(=O)(=O)O)C[C@@H]21
REMARK SMILES IDX 22 1 36 2 46 3 35 4 23 5 45 6 37 7 39 8 38 9 20 10 21 11
REMARK SMILES IDX 5 12 6 13 7 14 8 15 9 17 11 18 12 19 17 20 19 21 15 22 14 23
REMARK SMILES IDX 13 24 18 25 16 26 10 28 3 30 4 31 2 32 1 33 24 34 25 35
REMARK SMILES IDX 26 36 27 38 28 39 29 40 30 41 31 42 32 43 33 44 34 45 40 50
REMARK SMILES IDX 41 51 42 52 43 53 44 54
REMARK H PARENT 6 16 16 27 10 29 26 37 33 46 33 47 34 48 34 49 44 55
ROOT
ATOM      1  N   UNL     1       6.053  -1.021 -14.599  1.00  0.00    -0.326 N 
ATOM      2  C   UNL     1       7.532  -1.218 -16.420  1.00  0.00     0.014 C 
ATOM      3  C   UNL     1       7.474  -0.877 -14.929  1.00  0.00     0.091 C 
ATOM      4  C   UNL     1       6.211  -0.672 -16.940  1.00  0.00     0.041 C 
ATOM      5  C   UNL     1       5.257  -1.175 -15.842  1.00  0.00     0.175 C 
ATOM      6  C   UNL     1       8.481  -1.759 -14.192  1.00  0.00     0.059 C 
ATOM      7  C   UNL     1       8.830  -0.737 -17.037  1.00  0.00     0.008 C 
ATOM      8  C   UNL     1       9.727  -2.113 -15.032  1.00  0.00     0.143 C 
ATOM      9  C   UNL     1      10.023  -1.049 -16.108  1.00  0.00     0.034 C 
ENDROOT
BRANCH   1  10
ATOM     10  C   UNL     1       5.396  -0.822 -13.397  1.00  0.00     0.246 C 
ATOM     11  O   UNL     1       5.309  -1.759 -12.597  1.00  0.00    -0.272 OA
BRANCH  10  12
ATOM     12  C   UNL     1       4.819   0.585 -13.062  1.00  0.00     0.174 C 
BRANCH  12  13
ATOM     13  N   UNL     1       3.393   0.628 -13.381  1.00  0.00    -0.342 N 
ATOM     14  C   UNL     1       2.380   0.268 -12.521  1.00  0.00     0.249 C 
ATOM     15  O   UNL     1       2.563  -0.107 -11.369  1.00  0.00    -0.272 OA
ATOM     16  H   UNL     1       3.096   0.767 -14.344  1.00  0.00     0.164 HD
BRANCH  14  17
ATOM     17  C   UNL     1       0.980   0.407 -13.157  1.00  0.00     0.207 C 
BRANCH  17  18
ATOM     18  C   UNL     1       0.717   1.862 -13.558  1.00  0.00     0.077 C 
BRANCH  18  19
ATOM     19  C   UNL     1       0.569   2.015 -15.056  1.00  0.00    -0.043 A 
ATOM     20  C   UNL     1       1.108   3.180 -17.114  1.00  0.00     0.083 A 
ATOM     21  C   UNL     1       1.284   3.010 -15.740  1.00  0.00     0.028 A 
ATOM     22  C   UNL     1       0.219   2.361 -17.810  1.00  0.00     0.134 A 
ATOM     23  C   UNL     1      -0.495   1.371 -17.145  1.00  0.00     0.048 A 
ATOM     24  C   UNL     1      -0.322   1.200 -15.770  1.00  0.00     0.008 A 
ATOM     25  Cl  UNL     1       1.996   4.409 -17.937  1.00  0.00    -0.080 Cl
BRANCH  22  26
ATOM     26  O   UNL     1       0.006   2.497 -19.156  1.00  0.00    -0.506 OA
ATOM     27  H   UNL     1      -0.832   2.985 -19.258  1.00  0.00     0.293 HD
ENDBRANCH  22  26
ENDBRANCH  18  19
ENDBRANCH  17  18
BRANCH  17  28
ATOM     28  O   UNL     1      -0.046  -0.031 -12.252  1.00  0.00    -0.383 OA
ATOM     29  H   UNL     1      -0.372   0.779 -11.799  1.00  0.00     0.211 HD
ENDBRANCH  17  28
ENDBRANCH  14  17
ENDBRANCH  12  13
BRANCH  12  30
ATOM     30  C   UNL     1       5.613   1.735 -13.739  1.00  0.00     0.018 C 
ATOM     31  C   UNL     1       6.431   2.519 -12.701  1.00  0.00     0.010 C 
BRANCH  30  32
ATOM     32  C   UNL     1       4.725   2.703 -14.559  1.00  0.00     0.002 C 
ATOM     33  C   UNL     1       4.970   2.696 -16.062  1.00  0.00     0.004 C 
ENDBRANCH  30  32
ENDBRANCH  12  30
ENDBRANCH  10  12
ENDBRANCH   1  10
BRANCH   5  34
ATOM     34  C   UNL     1       4.863  -2.660 -16.063  1.00  0.00     0.242 C 
ATOM     35  O   UNL     1       5.148  -3.270 -17.093  1.00  0.00    -0.273 OA
ATOM     36  N   UNL     1       4.124  -3.227 -15.048  1.00  0.00    -0.354 N 
ATOM     37  H   UNL     1       3.816  -2.635 -14.275  1.00  0.00     0.163 HD
BRANCH  36  38
ATOM     38  C   UNL     1       3.858  -4.649 -14.987  1.00  0.00     0.116 C 
BRANCH  38  39
ATOM     39  C   UNL     1       2.593  -4.905 -14.171  1.00  0.00     0.023 C 
BRANCH  39  40
ATOM     40  C   UNL     1       1.559  -3.797 -14.336  1.00  0.00     0.026 C 
BRANCH  40  41
ATOM     41  C   UNL     1       1.051  -3.322 -12.974  1.00  0.00     0.146 C 
BRANCH  41  42
ATOM     42  N   UNL     1       1.857  -3.914 -11.915  1.00  0.00    -0.254 NA
ATOM     43  C   UNL     1       1.800  -3.430 -10.731  1.00  0.00     0.185 C 
ATOM     44  N   UNL     1       1.078  -2.401 -10.250  1.00  0.00    -0.370 N 
ATOM     45  N   UNL     1       2.554  -3.987  -9.769  1.00  0.00    -0.370 N 
ATOM     46  H   UNL     1       1.312  -1.978  -9.368  1.00  0.00     0.159 HD
ATOM     47  H   UNL     1       0.442  -1.875 -10.841  1.00  0.00     0.159 HD
ATOM     48  H   UNL     1       3.123  -4.776 -10.045  1.00  0.00     0.159 HD
ATOM     49  H   UNL     1       2.392  -3.828  -8.790  1.00  0.00     0.159 HD
ENDBRANCH  41  42
ENDBRANCH  40  41
ENDBRANCH  39  40
ENDBRANCH  38  39
ENDBRANCH  36  38
ENDBRANCH   5  34
BRANCH   8  50
ATOM     50  O   UNL     1       9.541  -3.373 -15.678  1.00  0.00    -0.245 OA
BRANCH  50  51
ATOM     51  S   UNL     1      10.833  -4.185 -16.241  1.00  0.00     0.397 S 
ATOM     52  O   UNL     1      11.980  -3.803 -15.450  1.00  0.00    -0.169 OA
ATOM     53  O   UNL     1      10.853  -4.124 -17.688  1.00  0.00    -0.169 OA
BRANCH  51  54
ATOM     54  O   UNL     1      10.490  -5.697 -15.814  1.00  0.00    -0.264 OA
ATOM     55  H   UNL     1      11.015  -6.295 -16.385  1.00  0.00     0.236 HD
ENDBRANCH  51  54
ENDBRANCH  50  51
ENDBRANCH   8  50
TORSDOF 19
ENDMDL
MODEL 37
REMARK VINA RESULT:    -5.766     15.529     18.847
REMARK INTER + INTRA:         -15.443
REMARK INTER:                 -11.950
REMARK INTRA:                  -3.494
REMARK UNBOUND:                -3.778
REMARK SMILES CC[C@@H](C)[C@@H](NC(=O)[C@@H](O)Cc1ccc(O)c(Cl)c1)C(=O)N1[C@H](C(=O)NCCCCN=C(N)N)C[C@H]2CC[C@H](OS(=O)(=O)O)C[C@@H]21
REMARK SMILES IDX 22 1 36 2 46 3 35 4 23 5 45 6 37 7 39 8 38 9 20 10 21 11
REMARK SMILES IDX 5 12 6 13 7 14 8 15 9 17 11 18 12 19 17 20 19 21 15 22 14 23
REMARK SMILES IDX 13 24 18 25 16 26 10 28 3 30 4 31 2 32 1 33 24 34 25 35
REMARK SMILES IDX 26 36 27 38 28 39 29 40 30 41 31 42 32 43 33 44 34 45 40 50
REMARK SMILES IDX 41 51 42 52 43 53 44 54
REMARK H PARENT 6 16 16 27 10 29 26 37 33 46 33 47 34 48 34 49 44 55
ROOT
ATOM      1  N   UNL     1       8.022  -2.912   4.005  1.00  0.00    -0.326 N 
ATOM      2  C   UNL     1       8.488  -1.358   2.299  1.00  0.00     0.014 C 
ATOM      3  C   UNL     1       9.149  -2.203   3.392  1.00  0.00     0.091 C 
ATOM      4  C   UNL     1       7.151  -0.989   2.923  1.00  0.00     0.041 C 
ATOM      5  C   UNL     1       6.740  -2.351   3.512  1.00  0.00     0.175 C 
ATOM      6  C   UNL     1      10.265  -3.029   2.756  1.00  0.00     0.059 C 
ATOM      7  C   UNL     1       9.418  -0.257   1.828  1.00  0.00     0.008 C 
ATOM      8  C   UNL     1      10.948  -2.333   1.559  1.00  0.00     0.143 C 
ATOM      9  C   UNL     1      10.853  -0.796   1.651  1.00  0.00     0.034 C 
ENDROOT
BRANCH   1  10
ATOM     10  C   UNL     1       8.005  -3.807   5.061  1.00  0.00     0.246 C 
ATOM     11  O   UNL     1       7.764  -4.998   4.837  1.00  0.00    -0.272 OA
BRANCH  10  12
ATOM     12  C   UNL     1       8.331  -3.304   6.498  1.00  0.00     0.174 C 
BRANCH  12  13
ATOM     13  N   UNL     1       7.698  -2.005   6.727  1.00  0.00    -0.342 N 
ATOM     14  C   UNL     1       6.627  -1.785   7.564  1.00  0.00     0.249 C 
ATOM     15  O   UNL     1       6.097  -2.659   8.238  1.00  0.00    -0.272 OA
ATOM     16  H   UNL     1       7.927  -1.220   6.122  1.00  0.00     0.164 HD
BRANCH  14  17
ATOM     17  C   UNL     1       6.177  -0.308   7.578  1.00  0.00     0.207 C 
BRANCH  17  18
ATOM     18  C   UNL     1       7.041   0.524   6.625  1.00  0.00     0.077 C 
BRANCH  18  19
ATOM     19  C   UNL     1       8.135   1.264   7.361  1.00  0.00    -0.043 A 
ATOM     20  C   UNL     1       8.884   3.190   8.632  1.00  0.00     0.083 A 
ATOM     21  C   UNL     1       7.861   2.485   7.996  1.00  0.00     0.028 A 
ATOM     22  C   UNL     1      10.184   2.682   8.636  1.00  0.00     0.134 A 
ATOM     23  C   UNL     1      10.469   1.474   8.010  1.00  0.00     0.048 A 
ATOM     24  C   UNL     1       9.448   0.767   7.372  1.00  0.00     0.008 A 
ATOM     25  Cl  UNL     1       8.528   4.688   9.407  1.00  0.00    -0.080 Cl
BRANCH  22  26
ATOM     26  O   UNL     1      11.222   3.342   9.237  1.00  0.00    -0.506 OA
ATOM     27  H   UNL     1      10.911   4.248   9.416  1.00  0.00     0.293 HD
ENDBRANCH  22  26
ENDBRANCH  18  19
ENDBRANCH  17  18
BRANCH  17  28
ATOM     28  O   UNL     1       6.258   0.245   8.901  1.00  0.00    -0.383 OA
ATOM     29  H   UNL     1       6.455   1.202   8.784  1.00  0.00     0.211 HD
ENDBRANCH  17  28
ENDBRANCH  14  17
ENDBRANCH  12  13
BRANCH  12  30
ATOM     30  C   UNL     1       9.855  -3.281   6.794  1.00  0.00     0.018 C 
ATOM     31  C   UNL     1      10.396  -4.707   6.982  1.00  0.00     0.010 C 
BRANCH  30  32
ATOM     32  C   UNL     1      10.238  -2.402   8.009  1.00  0.00     0.002 C 
ATOM     33  C   UNL     1      11.639  -2.632   8.563  1.00  0.00     0.004 C 
ENDBRANCH  30  32
ENDBRANCH  12  30
ENDBRANCH  10  12
ENDBRANCH   1  10
BRANCH   5  34
ATOM     34  C   UNL     1       6.113  -3.274   2.434  1.00  0.00     0.242 C 
ATOM     35  O   UNL     1       6.747  -4.182   1.896  1.00  0.00    -0.273 OA
ATOM     36  N   UNL     1       4.816  -2.970   2.084  1.00  0.00    -0.354 N 
ATOM     37  H   UNL     1       4.385  -2.133   2.477  1.00  0.00     0.163 HD
BRANCH  36  38
ATOM     38  C   UNL     1       4.011  -3.849   1.262  1.00  0.00     0.116 C 
BRANCH  38  39
ATOM     39  C   UNL     1       4.070  -3.394  -0.195  1.00  0.00     0.023 C 
BRANCH  39  40
ATOM     40  C   UNL     1       4.383  -4.540  -1.151  1.00  0.00     0.026 C 
BRANCH  40  41
ATOM     41  C   UNL     1       5.449  -4.125  -2.164  1.00  0.00     0.146 C 
BRANCH  41  42
ATOM     42  N   UNL     1       6.484  -5.148  -2.238  1.00  0.00    -0.254 NA
ATOM     43  C   UNL     1       7.546  -5.027  -1.533  1.00  0.00     0.185 C 
ATOM     44  N   UNL     1       7.907  -4.057  -0.673  1.00  0.00    -0.370 N 
ATOM     45  N   UNL     1       8.489  -5.979  -1.618  1.00  0.00    -0.370 N 
ATOM     46  H   UNL     1       8.864  -3.964  -0.378  1.00  0.00     0.159 HD
ATOM     47  H   UNL     1       7.303  -3.265  -0.478  1.00  0.00     0.159 HD
ATOM     48  H   UNL     1       8.291  -6.752  -2.239  1.00  0.00     0.159 HD
ATOM     49  H   UNL     1       9.222  -6.081  -0.939  1.00  0.00     0.159 HD
ENDBRANCH  41  42
ENDBRANCH  40  41
ENDBRANCH  39  40
ENDBRANCH  38  39
ENDBRANCH  36  38
ENDBRANCH   5  34
BRANCH   8  50
ATOM     50  O   UNL     1      10.340  -2.752   0.336  1.00  0.00    -0.245 OA
BRANCH  50  51
ATOM     51  S   UNL     1      11.270  -3.024  -0.970  1.00  0.00     0.397 S 
ATOM     52  O   UNL     1      12.652  -2.876  -0.573  1.00  0.00    -0.169 OA
ATOM     53  O   UNL     1      10.726  -2.316  -2.110  1.00  0.00    -0.169 OA
BRANCH  51  54
ATOM     54  O   UNL     1      11.052  -4.599  -1.215  1.00  0.00    -0.264 OA
ATOM     55  H   UNL     1      10.089  -4.774  -1.192  1.00  0.00     0.236 HD
ENDBRANCH  51  54
ENDBRANCH  50  51
ENDBRANCH   8  50
TORSDOF 19
ENDMDL
MODEL 38
REMARK VINA RESULT:    -5.761      2.922      5.517
REMARK INTER + INTRA:         -15.433
REMARK INTER:                 -12.006
REMARK INTRA:                  -3.427
REMARK UNBOUND:                -3.778
REMARK SMILES CC[C@@H](C)[C@@H](NC(=O)[C@@H](O)Cc1ccc(O)c(Cl)c1)C(=O)N1[C@H](C(=O)NCCCCN=C(N)N)C[C@H]2CC[C@H](OS(=O)(=O)O)C[C@@H]21
REMARK SMILES IDX 22 1 36 2 46 3 35 4 23 5 45 6 37 7 39 8 38 9 20 10 21 11
REMARK SMILES IDX 5 12 6 13 7 14 8 15 9 17 11 18 12 19 17 20 19 21 15 22 14 23
REMARK SMILES IDX 13 24 18 25 16 26 10 28 3 30 4 31 2 32 1 33 24 34 25 35
REMARK SMILES IDX 26 36 27 38 28 39 29 40 30 41 31 42 32 43 33 44 34 45 40 50
REMARK SMILES IDX 41 51 42 52 43 53 44 54
REMARK H PARENT 6 16 16 27 10 29 26 37 33 46 33 47 34 48 34 49 44 55
ROOT
ATOM      1  N   UNL     1       6.865  -3.535 -16.180  1.00  0.00    -0.326 N 
ATOM      2  C   UNL     1       9.087  -4.313 -16.191  1.00  0.00     0.014 C 
ATOM      3  C   UNL     1       8.207  -3.133 -16.613  1.00  0.00     0.091 C 
ATOM      4  C   UNL     1       8.166  -5.507 -16.393  1.00  0.00     0.041 C 
ATOM      5  C   UNL     1       6.870  -4.960 -15.767  1.00  0.00     0.175 C 
ATOM      6  C   UNL     1       8.804  -1.853 -16.031  1.00  0.00     0.059 C 
ATOM      7  C   UNL     1      10.424  -4.276 -16.906  1.00  0.00     0.008 C 
ATOM      8  C   UNL     1      10.342  -1.886 -15.906  1.00  0.00     0.143 C 
ATOM      9  C   UNL     1      10.987  -2.839 -16.932  1.00  0.00     0.034 C 
ENDROOT
BRANCH   1  10
ATOM     10  C   UNL     1       5.656  -2.874 -16.311  1.00  0.00     0.246 C 
ATOM     11  O   UNL     1       5.042  -2.950 -17.381  1.00  0.00    -0.272 OA
BRANCH  10  12
ATOM     12  C   UNL     1       5.076  -2.088 -15.099  1.00  0.00     0.174 C 
BRANCH  12  13
ATOM     13  N   UNL     1       3.768  -2.630 -14.733  1.00  0.00    -0.342 N 
ATOM     14  C   UNL     1       3.496  -3.326 -13.577  1.00  0.00     0.249 C 
ATOM     15  O   UNL     1       4.326  -3.547 -12.703  1.00  0.00    -0.272 OA
ATOM     16  H   UNL     1       3.024  -2.662 -15.426  1.00  0.00     0.164 HD
BRANCH  14  17
ATOM     17  C   UNL     1       2.025  -3.783 -13.488  1.00  0.00     0.207 C 
BRANCH  17  18
ATOM     18  C   UNL     1       1.084  -2.635 -13.869  1.00  0.00     0.077 C 
BRANCH  18  19
ATOM     19  C   UNL     1       0.896  -1.660 -12.728  1.00  0.00    -0.043 A 
ATOM     20  C   UNL     1      -0.534  -0.606 -11.077  1.00  0.00     0.083 A 
ATOM     21  C   UNL     1      -0.351  -1.542 -12.095  1.00  0.00     0.028 A 
ATOM     22  C   UNL     1       0.524   0.216 -10.685  1.00  0.00     0.134 A 
ATOM     23  C   UNL     1       1.764   0.109 -11.303  1.00  0.00     0.048 A 
ATOM     24  C   UNL     1       1.950  -0.826 -12.325  1.00  0.00     0.008 A 
ATOM     25  Cl  UNL     1      -2.074  -0.475 -10.311  1.00  0.00    -0.080 Cl
BRANCH  22  26
ATOM     26  O   UNL     1       0.390   1.155  -9.698  1.00  0.00    -0.506 OA
ATOM     27  H   UNL     1       0.815   1.968 -10.026  1.00  0.00     0.293 HD
ENDBRANCH  22  26
ENDBRANCH  18  19
ENDBRANCH  17  18
BRANCH  17  28
ATOM     28  O   UNL     1       1.704  -4.243 -12.165  1.00  0.00    -0.383 OA
ATOM     29  H   UNL     1       0.935  -4.848 -12.266  1.00  0.00     0.211 HD
ENDBRANCH  17  28
ENDBRANCH  14  17
ENDBRANCH  12  13
BRANCH  12  30
ATOM     30  C   UNL     1       5.035  -0.555 -15.342  1.00  0.00     0.018 C 
ATOM     31  C   UNL     1       5.772   0.195 -14.223  1.00  0.00     0.010 C 
BRANCH  30  32
ATOM     32  C   UNL     1       3.603   0.010 -15.508  1.00  0.00     0.002 C 
ATOM     33  C   UNL     1       3.505   1.316 -16.285  1.00  0.00     0.004 C 
ENDBRANCH  30  32
ENDBRANCH  12  30
ENDBRANCH  10  12
ENDBRANCH   1  10
BRANCH   5  34
ATOM     34  C   UNL     1       6.885  -5.085 -14.220  1.00  0.00     0.242 C 
ATOM     35  O   UNL     1       6.393  -6.048 -13.633  1.00  0.00    -0.273 OA
ATOM     36  N   UNL     1       7.437  -4.015 -13.552  1.00  0.00    -0.354 N 
ATOM     37  H   UNL     1       7.719  -3.193 -14.087  1.00  0.00     0.163 HD
BRANCH  36  38
ATOM     38  C   UNL     1       7.727  -4.056 -12.133  1.00  0.00     0.116 C 
BRANCH  38  39
ATOM     39  C   UNL     1       7.662  -2.647 -11.550  1.00  0.00     0.023 C 
BRANCH  39  40
ATOM     40  C   UNL     1       8.441  -2.520 -10.245  1.00  0.00     0.026 C 
BRANCH  40  41
ATOM     41  C   UNL     1       9.135  -1.160 -10.158  1.00  0.00     0.146 C 
BRANCH  41  42
ATOM     42  N   UNL     1       8.499  -0.224 -11.076  1.00  0.00    -0.254 NA
ATOM     43  C   UNL     1       8.476   1.024 -10.791  1.00  0.00     0.185 C 
ATOM     44  N   UNL     1       8.969   1.678  -9.723  1.00  0.00    -0.370 N 
ATOM     45  N   UNL     1       7.882   1.871 -11.648  1.00  0.00    -0.370 N 
ATOM     46  H   UNL     1       8.668   2.613  -9.511  1.00  0.00     0.159 HD
ATOM     47  H   UNL     1       9.463   1.190  -8.982  1.00  0.00     0.159 HD
ATOM     48  H   UNL     1       7.492   1.460 -12.486  1.00  0.00     0.159 HD
ATOM     49  H   UNL     1       8.027   2.864 -11.620  1.00  0.00     0.159 HD
ENDBRANCH  41  42
ENDBRANCH  40  41
ENDBRANCH  39  40
ENDBRANCH  38  39
ENDBRANCH  36  38
ENDBRANCH   5  34
BRANCH   8  50
ATOM     50  O   UNL     1      10.718  -2.308 -14.595  1.00  0.00    -0.245 OA
BRANCH  50  51
ATOM     51  S   UNL     1      11.543  -1.292 -13.629  1.00  0.00     0.397 S 
ATOM     52  O   UNL     1      12.630  -0.730 -14.397  1.00  0.00    -0.169 OA
ATOM     53  O   UNL     1      11.766  -1.918 -12.342  1.00  0.00    -0.169 OA
BRANCH  51  54
ATOM     54  O   UNL     1      10.488  -0.096 -13.422  1.00  0.00    -0.264 OA
ATOM     55  H   UNL     1      10.228  -0.087 -12.479  1.00  0.00     0.236 HD
ENDBRANCH  51  54
ENDBRANCH  50  51
ENDBRANCH   8  50
TORSDOF 19
ENDMDL
MODEL 39
REMARK VINA RESULT:    -5.706     15.094     20.107
REMARK INTER + INTRA:         -15.322
REMARK INTER:                 -12.158
REMARK INTRA:                  -3.164
REMARK UNBOUND:                -3.778
REMARK SMILES CC[C@@H](C)[C@@H](NC(=O)[C@@H](O)Cc1ccc(O)c(Cl)c1)C(=O)N1[C@H](C(=O)NCCCCN=C(N)N)C[C@H]2CC[C@H](OS(=O)(=O)O)C[C@@H]21
REMARK SMILES IDX 22 1 36 2 46 3 35 4 23 5 45 6 37 7 39 8 38 9 20 10 21 11
REMARK SMILES IDX 5 12 6 13 7 14 8 15 9 17 11 18 12 19 17 20 19 21 15 22 14 23
REMARK SMILES IDX 13 24 18 25 16 26 10 28 3 30 4 31 2 32 1 33 24 34 25 35
REMARK SMILES IDX 26 36 27 38 28 39 29 40 30 41 31 42 32 43 33 44 34 45 40 50
REMARK SMILES IDX 41 51 42 52 43 53 44 54
REMARK H PARENT 6 16 16 27 10 29 26 37 33 46 33 47 34 48 34 49 44 55
ROOT
ATOM      1  N   UNL     1       2.221  -0.074   3.268  1.00  0.00    -0.326 N 
ATOM      2  C   UNL     1       3.659   1.118   4.701  1.00  0.00     0.014 C 
ATOM      3  C   UNL     1       2.324   0.369   4.661  1.00  0.00     0.091 C 
ATOM      4  C   UNL     1       3.723   1.762   3.325  1.00  0.00     0.041 C 
ATOM      5  C   UNL     1       3.273   0.578   2.449  1.00  0.00     0.175 C 
ATOM      6  C   UNL     1       2.333  -0.693   5.760  1.00  0.00     0.059 C 
ATOM      7  C   UNL     1       3.753   1.992   5.936  1.00  0.00     0.008 C 
ATOM      8  C   UNL     1       3.154  -0.293   7.005  1.00  0.00     0.143 C 
ATOM      9  C   UNL     1       3.233   1.238   7.178  1.00  0.00     0.034 C 
ENDROOT
BRANCH   1  10
ATOM     10  C   UNL     1       1.216  -0.783   2.633  1.00  0.00     0.246 C 
ATOM     11  O   UNL     1       1.268  -2.018   2.620  1.00  0.00    -0.272 OA
BRANCH  10  12
ATOM     12  C   UNL     1       0.024  -0.016   1.990  1.00  0.00     0.174 C 
BRANCH  12  13
ATOM     13  N   UNL     1      -0.820   0.561   3.036  1.00  0.00    -0.342 N 
ATOM     14  C   UNL     1      -1.315   1.846   3.032  1.00  0.00     0.249 C 
ATOM     15  O   UNL     1      -1.123   2.648   2.126  1.00  0.00    -0.272 OA
ATOM     16  H   UNL     1      -0.933   0.071   3.920  1.00  0.00     0.164 HD
BRANCH  14  17
ATOM     17  C   UNL     1      -2.159   2.163   4.285  1.00  0.00     0.207 C 
BRANCH  17  18
ATOM     18  C   UNL     1      -1.465   1.636   5.545  1.00  0.00     0.077 C 
BRANCH  18  19
ATOM     19  C   UNL     1      -0.452   2.621   6.083  1.00  0.00    -0.043 A 
ATOM     20  C   UNL     1       0.672   3.667   7.961  1.00  0.00     0.083 A 
ATOM     21  C   UNL     1      -0.227   2.723   7.465  1.00  0.00     0.028 A 
ATOM     22  C   UNL     1       1.349   4.515   7.083  1.00  0.00     0.134 A 
ATOM     23  C   UNL     1       1.136   4.425   5.713  1.00  0.00     0.048 A 
ATOM     24  C   UNL     1       0.236   3.482   5.213  1.00  0.00     0.008 A 
ATOM     25  Cl  UNL     1       0.934   3.778   9.662  1.00  0.00    -0.080 Cl
BRANCH  22  26
ATOM     26  O   UNL     1       2.232   5.463   7.523  1.00  0.00    -0.506 OA
ATOM     27  H   UNL     1       1.906   5.770   8.390  1.00  0.00     0.293 HD
ENDBRANCH  22  26
ENDBRANCH  18  19
ENDBRANCH  17  18
BRANCH  17  28
ATOM     28  O   UNL     1      -3.470   1.585   4.185  1.00  0.00    -0.383 OA
ATOM     29  H   UNL     1      -3.957   1.875   4.990  1.00  0.00     0.211 HD
ENDBRANCH  17  28
ENDBRANCH  14  17
ENDBRANCH  12  13
BRANCH  12  30
ATOM     30  C   UNL     1      -0.783  -0.890   0.993  1.00  0.00     0.018 C 
ATOM     31  C   UNL     1      -0.631  -0.363  -0.443  1.00  0.00     0.010 C 
BRANCH  30  32
ATOM     32  C   UNL     1      -2.282  -1.022   1.355  1.00  0.00     0.002 C 
ATOM     33  C   UNL     1      -3.072  -2.011   0.507  1.00  0.00     0.004 C 
ENDBRANCH  30  32
ENDBRANCH  12  30
ENDBRANCH  10  12
ENDBRANCH   1  10
BRANCH   5  34
ATOM     34  C   UNL     1       4.442  -0.404   2.172  1.00  0.00     0.242 C 
ATOM     35  O   UNL     1       5.592  -0.017   1.964  1.00  0.00    -0.273 OA
ATOM     36  N   UNL     1       4.090  -1.734   2.122  1.00  0.00    -0.354 N 
ATOM     37  H   UNL     1       3.102  -1.984   2.183  1.00  0.00     0.163 HD
BRANCH  36  38
ATOM     38  C   UNL     1       5.076  -2.794   2.089  1.00  0.00     0.116 C 
BRANCH  38  39
ATOM     39  C   UNL     1       4.639  -3.879   1.108  1.00  0.00     0.023 C 
BRANCH  39  40
ATOM     40  C   UNL     1       4.822  -3.458  -0.346  1.00  0.00     0.026 C 
BRANCH  40  41
ATOM     41  C   UNL     1       4.583  -4.639  -1.287  1.00  0.00     0.146 C 
BRANCH  41  42
ATOM     42  N   UNL     1       5.828  -5.369  -1.488  1.00  0.00    -0.254 NA
ATOM     43  C   UNL     1       6.556  -5.110  -2.508  1.00  0.00     0.185 C 
ATOM     44  N   UNL     1       6.370  -4.221  -3.501  1.00  0.00    -0.370 N 
ATOM     45  N   UNL     1       7.698  -5.797  -2.678  1.00  0.00    -0.370 N 
ATOM     46  H   UNL     1       6.890  -4.294  -4.359  1.00  0.00     0.159 HD
ATOM     47  H   UNL     1       5.561  -3.607  -3.522  1.00  0.00     0.159 HD
ATOM     48  H   UNL     1       7.918  -6.482  -1.968  1.00  0.00     0.159 HD
ATOM     49  H   UNL     1       8.425  -5.497  -3.302  1.00  0.00     0.159 HD
ENDBRANCH  41  42
ENDBRANCH  40  41
ENDBRANCH  39  40
ENDBRANCH  38  39
ENDBRANCH  36  38
ENDBRANCH   5  34
BRANCH   8  50
ATOM     50  O   UNL     1       4.482  -0.807   6.903  1.00  0.00    -0.245 OA
BRANCH  50  51
ATOM     51  S   UNL     1       5.194  -1.458   8.212  1.00  0.00     0.397 S 
ATOM     52  O   UNL     1       6.430  -2.075   7.788  1.00  0.00    -0.169 OA
ATOM     53  O   UNL     1       4.210  -2.184   8.989  1.00  0.00    -0.169 OA
BRANCH  51  54
ATOM     54  O   UNL     1       5.620  -0.152   9.047  1.00  0.00    -0.264 OA
ATOM     55  H   UNL     1       5.642   0.605   8.427  1.00  0.00     0.236 HD
ENDBRANCH  51  54
ENDBRANCH  50  51
ENDBRANCH   8  50
TORSDOF 19
ENDMDL
MODEL 40
REMARK VINA RESULT:    -5.681     16.396     20.214
REMARK INTER + INTRA:         -15.271
REMARK INTER:                 -11.641
REMARK INTRA:                  -3.630
REMARK UNBOUND:                -3.778
REMARK SMILES CC[C@@H](C)[C@@H](NC(=O)[C@@H](O)Cc1ccc(O)c(Cl)c1)C(=O)N1[C@H](C(=O)NCCCCN=C(N)N)C[C@H]2CC[C@H](OS(=O)(=O)O)C[C@@H]21
REMARK SMILES IDX 22 1 36 2 46 3 35 4 23 5 45 6 37 7 39 8 38 9 20 10 21 11
REMARK SMILES IDX 5 12 6 13 7 14 8 15 9 17 11 18 12 19 17 20 19 21 15 22 14 23
REMARK SMILES IDX 13 24 18 25 16 26 10 28 3 30 4 31 2 32 1 33 24 34 25 35
REMARK SMILES IDX 26 36 27 38 28 39 29 40 30 41 31 42 32 43 33 44 34 45 40 50
REMARK SMILES IDX 41 51 42 52 43 53 44 54
REMARK H PARENT 6 16 16 27 10 29 26 37 33 46 33 47 34 48 34 49 44 55
ROOT
ATOM      1  N   UNL     1       9.012  -1.747   5.540  1.00  0.00    -0.326 N 
ATOM      2  C   UNL     1      10.046  -1.824   7.654  1.00  0.00     0.014 C 
ATOM      3  C   UNL     1      10.318  -1.540   6.174  1.00  0.00     0.091 C 
ATOM      4  C   UNL     1       9.004  -2.929   7.597  1.00  0.00     0.041 C 
ATOM      5  C   UNL     1       8.073  -2.370   6.505  1.00  0.00     0.175 C 
ATOM      6  C   UNL     1      10.968  -0.162   6.057  1.00  0.00     0.059 C 
ATOM      7  C   UNL     1      11.341  -2.060   8.407  1.00  0.00     0.008 C 
ATOM      8  C   UNL     1      11.851   0.212   7.268  1.00  0.00     0.143 C 
ATOM      9  C   UNL     1      12.412  -1.034   7.983  1.00  0.00     0.034 C 
ENDROOT
BRANCH   1  10
ATOM     10  C   UNL     1       8.647  -1.653   4.208  1.00  0.00     0.246 C 
ATOM     11  O   UNL     1       7.904  -0.731   3.852  1.00  0.00    -0.272 OA
BRANCH  10  12
ATOM     12  C   UNL     1       9.211  -2.679   3.183  1.00  0.00     0.174 C 
BRANCH  12  13
ATOM     13  N   UNL     1       9.410  -2.031   1.887  1.00  0.00    -0.342 N 
ATOM     14  C   UNL     1      10.485  -2.245   1.054  1.00  0.00     0.249 C 
ATOM     15  O   UNL     1      11.391  -3.032   1.297  1.00  0.00    -0.272 OA
ATOM     16  H   UNL     1       8.826  -1.242   1.624  1.00  0.00     0.164 HD
BRANCH  14  17
ATOM     17  C   UNL     1      10.417  -1.399  -0.236  1.00  0.00     0.207 C 
BRANCH  17  18
ATOM     18  C   UNL     1      10.241  -2.302  -1.460  1.00  0.00     0.077 C 
BRANCH  18  19
ATOM     19  C   UNL     1       9.038  -3.208  -1.322  1.00  0.00    -0.043 A 
ATOM     20  C   UNL     1       6.643  -3.499  -1.066  1.00  0.00     0.083 A 
ATOM     21  C   UNL     1       7.747  -2.664  -1.243  1.00  0.00     0.028 A 
ATOM     22  C   UNL     1       6.822  -4.880  -0.966  1.00  0.00     0.134 A 
ATOM     23  C   UNL     1       8.095  -5.432  -1.044  1.00  0.00     0.048 A 
ATOM     24  C   UNL     1       9.202  -4.598  -1.219  1.00  0.00     0.008 A 
ATOM     25  Cl  UNL     1       5.065  -2.812  -0.970  1.00  0.00    -0.080 Cl
BRANCH  22  26
ATOM     26  O   UNL     1       5.772  -5.738  -0.782  1.00  0.00    -0.506 OA
ATOM     27  H   UNL     1       6.144  -6.562  -0.415  1.00  0.00     0.293 HD
ENDBRANCH  22  26
ENDBRANCH  18  19
ENDBRANCH  17  18
BRANCH  17  28
ATOM     28  O   UNL     1      11.602  -0.604  -0.396  1.00  0.00    -0.383 OA
ATOM     29  H   UNL     1      12.329  -1.109   0.035  1.00  0.00     0.211 HD
ENDBRANCH  17  28
ENDBRANCH  14  17
ENDBRANCH  12  13
BRANCH  12  30
ATOM     30  C   UNL     1       8.342  -3.961   3.077  1.00  0.00     0.018 C 
ATOM     31  C   UNL     1       6.850  -3.624   3.230  1.00  0.00     0.010 C 
BRANCH  30  32
ATOM     32  C   UNL     1       8.743  -5.068   4.083  1.00  0.00     0.002 C 
ATOM     33  C   UNL     1      10.200  -5.050   4.525  1.00  0.00     0.004 C 
ENDBRANCH  30  32
ENDBRANCH  12  30
ENDBRANCH  10  12
ENDBRANCH   1  10
BRANCH   5  34
ATOM     34  C   UNL     1       7.090  -1.314   7.077  1.00  0.00     0.242 C 
ATOM     35  O   UNL     1       7.267  -0.104   6.931  1.00  0.00    -0.273 OA
ATOM     36  N   UNL     1       6.038  -1.825   7.803  1.00  0.00    -0.354 N 
ATOM     37  H   UNL     1       6.012  -2.828   7.990  1.00  0.00     0.163 HD
BRANCH  36  38
ATOM     38  C   UNL     1       4.918  -1.008   8.222  1.00  0.00     0.116 C 
BRANCH  38  39
ATOM     39  C   UNL     1       3.928  -0.855   7.070  1.00  0.00     0.023 C 
BRANCH  39  40
ATOM     40  C   UNL     1       3.133   0.443   7.153  1.00  0.00     0.026 C 
BRANCH  40  41
ATOM     41  C   UNL     1       3.763   1.401   8.165  1.00  0.00     0.146 C 
BRANCH  41  42
ATOM     42  N   UNL     1       4.529   2.424   7.465  1.00  0.00    -0.254 NA
ATOM     43  C   UNL     1       5.693   2.745   7.890  1.00  0.00     0.185 C 
ATOM     44  N   UNL     1       6.390   2.276   8.942  1.00  0.00    -0.370 N 
ATOM     45  N   UNL     1       6.381   3.693   7.233  1.00  0.00    -0.370 N 
ATOM     46  H   UNL     1       7.179   2.785   9.301  1.00  0.00     0.159 HD
ATOM     47  H   UNL     1       6.022   1.544   9.541  1.00  0.00     0.159 HD
ATOM     48  H   UNL     1       5.930   4.093   6.422  1.00  0.00     0.159 HD
ATOM     49  H   UNL     1       7.369   3.830   7.353  1.00  0.00     0.159 HD
ENDBRANCH  41  42
ENDBRANCH  40  41
ENDBRANCH  39  40
ENDBRANCH  38  39
ENDBRANCH  36  38
ENDBRANCH   5  34
BRANCH   8  50
ATOM     50  O   UNL     1      11.094   0.973   8.209  1.00  0.00    -0.245 OA
BRANCH  50  51
ATOM     51  S   UNL     1      10.719   2.520   7.876  1.00  0.00     0.397 S 
ATOM     52  O   UNL     1       9.279   2.635   7.852  1.00  0.00    -0.169 OA
ATOM     53  O   UNL     1      11.537   2.992   6.778  1.00  0.00    -0.169 OA
BRANCH  51  54
ATOM     54  O   UNL     1      11.198   3.277   9.211  1.00  0.00    -0.264 OA
ATOM     55  H   UNL     1      11.987   3.811   8.986  1.00  0.00     0.236 HD
ENDBRANCH  51  54
ENDBRANCH  50  51
ENDBRANCH   8  50
TORSDOF 19
ENDMDL
MODEL 41
REMARK VINA RESULT:    -5.671     15.217     20.084
REMARK INTER + INTRA:         -15.250
REMARK INTER:                 -10.337
REMARK INTRA:                  -4.914
REMARK UNBOUND:                -3.778
REMARK SMILES CC[C@@H](C)[C@@H](NC(=O)[C@@H](O)Cc1ccc(O)c(Cl)c1)C(=O)N1[C@H](C(=O)NCCCCN=C(N)N)C[C@H]2CC[C@H](OS(=O)(=O)O)C[C@@H]21
REMARK SMILES IDX 22 1 36 2 46 3 35 4 23 5 45 6 37 7 39 8 38 9 20 10 21 11
REMARK SMILES IDX 5 12 6 13 7 14 8 15 9 17 11 18 12 19 17 20 19 21 15 22 14 23
REMARK SMILES IDX 13 24 18 25 16 26 10 28 3 30 4 31 2 32 1 33 24 34 25 35
REMARK SMILES IDX 26 36 27 38 28 39 29 40 30 41 31 42 32 43 33 44 34 45 40 50
REMARK SMILES IDX 41 51 42 52 43 53 44 54
REMARK H PARENT 6 16 16 27 10 29 26 37 33 46 33 47 34 48 34 49 44 55
ROOT
ATOM      1  N   UNL     1       2.324  -0.022   6.725  1.00  0.00    -0.326 N 
ATOM      2  C   UNL     1       0.542   1.483   6.406  1.00  0.00     0.014 C 
ATOM      3  C   UNL     1       1.831   1.272   7.205  1.00  0.00     0.091 C 
ATOM      4  C   UNL     1      -0.003   0.069   6.271  1.00  0.00     0.041 C 
ATOM      5  C   UNL     1       1.286  -0.685   5.897  1.00  0.00     0.175 C 
ATOM      6  C   UNL     1       2.721   2.500   7.018  1.00  0.00     0.059 C 
ATOM      7  C   UNL     1      -0.322   2.554   7.043  1.00  0.00     0.008 C 
ATOM      8  C   UNL     1       1.934   3.814   6.825  1.00  0.00     0.143 C 
ATOM      9  C   UNL     1       0.540   3.756   7.483  1.00  0.00     0.034 C 
ENDROOT
BRANCH   1  10
ATOM     10  C   UNL     1       3.446  -0.740   7.102  1.00  0.00     0.246 C 
ATOM     11  O   UNL     1       3.306  -1.765   7.777  1.00  0.00    -0.272 OA
BRANCH  10  12
ATOM     12  C   UNL     1       4.852  -0.266   6.633  1.00  0.00     0.174 C 
BRANCH  12  13
ATOM     13  N   UNL     1       5.117  -0.752   5.279  1.00  0.00    -0.342 N 
ATOM     14  C   UNL     1       5.531   0.031   4.225  1.00  0.00     0.249 C 
ATOM     15  O   UNL     1       5.753   1.233   4.314  1.00  0.00    -0.272 OA
ATOM     16  H   UNL     1       4.828  -1.690   5.015  1.00  0.00     0.164 HD
BRANCH  14  17
ATOM     17  C   UNL     1       5.707  -0.772   2.919  1.00  0.00     0.207 C 
BRANCH  17  18
ATOM     18  C   UNL     1       6.090  -2.222   3.230  1.00  0.00     0.077 C 
BRANCH  18  19
ATOM     19  C   UNL     1       5.856  -3.132   2.045  1.00  0.00    -0.043 A 
ATOM     20  C   UNL     1       6.724  -4.525   0.259  1.00  0.00     0.083 A 
ATOM     21  C   UNL     1       6.941  -3.726   1.382  1.00  0.00     0.028 A 
ATOM     22  C   UNL     1       5.426  -4.735  -0.208  1.00  0.00     0.134 A 
ATOM     23  C   UNL     1       4.342  -4.153   0.439  1.00  0.00     0.048 A 
ATOM     24  C   UNL     1       4.556  -3.351   1.562  1.00  0.00     0.008 A 
ATOM     25  Cl  UNL     1       8.070  -5.246  -0.542  1.00  0.00    -0.080 Cl
BRANCH  22  26
ATOM     26  O   UNL     1       5.165  -5.502  -1.312  1.00  0.00    -0.506 OA
ATOM     27  H   UNL     1       5.256  -4.918  -2.087  1.00  0.00     0.293 HD
ENDBRANCH  22  26
ENDBRANCH  18  19
ENDBRANCH  17  18
BRANCH  17  28
ATOM     28  O   UNL     1       6.713  -0.182   2.080  1.00  0.00    -0.383 OA
ATOM     29  H   UNL     1       7.566  -0.593   2.349  1.00  0.00     0.211 HD
ENDBRANCH  17  28
ENDBRANCH  14  17
ENDBRANCH  12  13
BRANCH  12  30
ATOM     30  C   UNL     1       5.978  -0.649   7.630  1.00  0.00     0.018 C 
ATOM     31  C   UNL     1       6.979   0.506   7.795  1.00  0.00     0.010 C 
BRANCH  30  32
ATOM     32  C   UNL     1       6.726  -1.951   7.253  1.00  0.00     0.002 C 
ATOM     33  C   UNL     1       8.209  -1.785   6.946  1.00  0.00     0.004 C 
ENDBRANCH  30  32
ENDBRANCH  12  30
ENDBRANCH  10  12
ENDBRANCH   1  10
BRANCH   5  34
ATOM     34  C   UNL     1       1.615  -0.542   4.386  1.00  0.00     0.242 C 
ATOM     35  O   UNL     1       2.356   0.340   3.955  1.00  0.00    -0.273 OA
ATOM     36  N   UNL     1       0.975  -1.439   3.561  1.00  0.00    -0.354 N 
ATOM     37  H   UNL     1       0.280  -2.069   3.964  1.00  0.00     0.163 HD
BRANCH  36  38
ATOM     38  C   UNL     1       1.325  -1.590   2.163  1.00  0.00     0.116 C 
BRANCH  38  39
ATOM     39  C   UNL     1       0.121  -1.251   1.288  1.00  0.00     0.023 C 
BRANCH  39  40
ATOM     40  C   UNL     1       0.435  -0.171   0.258  1.00  0.00     0.026 C 
BRANCH  40  41
ATOM     41  C   UNL     1      -0.456   1.053   0.467  1.00  0.00     0.146 C 
BRANCH  41  42
ATOM     42  N   UNL     1       0.344   2.267   0.368  1.00  0.00    -0.254 NA
ATOM     43  C   UNL     1       0.775   2.830   1.433  1.00  0.00     0.185 C 
ATOM     44  N   UNL     1       0.614   2.480   2.723  1.00  0.00    -0.370 N 
ATOM     45  N   UNL     1       1.507   3.951   1.320  1.00  0.00    -0.370 N 
ATOM     46  H   UNL     1       0.796   3.141   3.459  1.00  0.00     0.159 HD
ATOM     47  H   UNL     1       0.097   1.648   2.989  1.00  0.00     0.159 HD
ATOM     48  H   UNL     1       1.683   4.278   0.380  1.00  0.00     0.159 HD
ATOM     49  H   UNL     1       2.070   4.310   2.070  1.00  0.00     0.159 HD
ENDBRANCH  41  42
ENDBRANCH  40  41
ENDBRANCH  39  40
ENDBRANCH  38  39
ENDBRANCH  36  38
ENDBRANCH   5  34
BRANCH   8  50
ATOM     50  O   UNL     1       1.767   4.086   5.434  1.00  0.00    -0.245 OA
BRANCH  50  51
ATOM     51  S   UNL     1       3.051   4.544   4.546  1.00  0.00     0.397 S 
ATOM     52  O   UNL     1       4.155   4.784   5.448  1.00  0.00    -0.169 OA
ATOM     53  O   UNL     1       2.640   5.531   3.569  1.00  0.00    -0.169 OA
BRANCH  51  54
ATOM     54  O   UNL     1       3.415   3.189   3.759  1.00  0.00    -0.264 OA
ATOM     55  H   UNL     1       3.340   2.447   4.393  1.00  0.00     0.236 HD
ENDBRANCH  51  54
ENDBRANCH  50  51
ENDBRANCH   8  50
TORSDOF 19
ENDMDL
MODEL 42
REMARK VINA RESULT:    -5.631      3.881      7.189
REMARK INTER + INTRA:         -15.169
REMARK INTER:                 -11.624
REMARK INTRA:                  -3.546
REMARK UNBOUND:                -3.778
REMARK SMILES CC[C@@H](C)[C@@H](NC(=O)[C@@H](O)Cc1ccc(O)c(Cl)c1)C(=O)N1[C@H](C(=O)NCCCCN=C(N)N)C[C@H]2CC[C@H](OS(=O)(=O)O)C[C@@H]21
REMARK SMILES IDX 22 1 36 2 46 3 35 4 23 5 45 6 37 7 39 8 38 9 20 10 21 11
REMARK SMILES IDX 5 12 6 13 7 14 8 15 9 17 11 18 12 19 17 20 19 21 15 22 14 23
REMARK SMILES IDX 13 24 18 25 16 26 10 28 3 30 4 31 2 32 1 33 24 34 25 35
REMARK SMILES IDX 26 36 27 38 28 39 29 40 30 41 31 42 32 43 33 44 34 45 40 50
REMARK SMILES IDX 41 51 42 52 43 53 44 54
REMARK H PARENT 6 16 16 27 10 29 26 37 33 46 33 47 34 48 34 49 44 55
ROOT
ATOM      1  N   UNL     1       5.445  -3.345 -11.821  1.00  0.00    -0.326 N 
ATOM      2  C   UNL     1       6.546  -4.401 -13.614  1.00  0.00     0.014 C 
ATOM      3  C   UNL     1       5.181  -3.872 -13.163  1.00  0.00     0.091 C 
ATOM      4  C   UNL     1       7.149  -4.919 -12.318  1.00  0.00     0.041 C 
ATOM      5  C   UNL     1       6.797  -3.758 -11.371  1.00  0.00     0.175 C 
ATOM      6  C   UNL     1       4.660  -2.910 -14.229  1.00  0.00     0.059 C 
ATOM      7  C   UNL     1       6.399  -5.342 -14.794  1.00  0.00     0.008 C 
ATOM      8  C   UNL     1       5.106  -3.270 -15.663  1.00  0.00     0.143 C 
ATOM      9  C   UNL     1       5.393  -4.777 -15.819  1.00  0.00     0.034 C 
ENDROOT
BRANCH   1  10
ATOM     10  C   UNL     1       4.581  -2.757 -10.913  1.00  0.00     0.246 C 
ATOM     11  O   UNL     1       4.902  -1.688 -10.384  1.00  0.00    -0.272 OA
BRANCH  10  12
ATOM     12  C   UNL     1       3.211  -3.430 -10.611  1.00  0.00     0.174 C 
BRANCH  12  13
ATOM     13  N   UNL     1       2.161  -2.807 -11.415  1.00  0.00    -0.342 N 
ATOM     14  C   UNL     1       1.471  -3.428 -12.432  1.00  0.00     0.249 C 
ATOM     15  O   UNL     1       1.643  -4.595 -12.760  1.00  0.00    -0.272 OA
ATOM     16  H   UNL     1       2.018  -1.801 -11.364  1.00  0.00     0.164 HD
BRANCH  14  17
ATOM     17  C   UNL     1       0.436  -2.499 -13.103  1.00  0.00     0.207 C 
BRANCH  17  18
ATOM     18  C   UNL     1       0.353  -1.163 -12.358  1.00  0.00     0.077 C 
BRANCH  18  19
ATOM     19  C   UNL     1       0.671   0.006 -13.263  1.00  0.00    -0.043 A 
ATOM     20  C   UNL     1       2.007   0.995 -15.030  1.00  0.00     0.083 A 
ATOM     21  C   UNL     1       1.683  -0.101 -14.230  1.00  0.00     0.028 A 
ATOM     22  C   UNL     1       1.326   2.202 -14.869  1.00  0.00     0.134 A 
ATOM     23  C   UNL     1       0.321   2.322 -13.916  1.00  0.00     0.048 A 
ATOM     24  C   UNL     1      -0.004   1.227 -13.112  1.00  0.00     0.008 A 
ATOM     25  Cl  UNL     1       3.253   0.844 -16.212  1.00  0.00    -0.080 Cl
BRANCH  22  26
ATOM     26  O   UNL     1       1.615   3.307 -15.623  1.00  0.00    -0.506 OA
ATOM     27  H   UNL     1       2.198   3.871 -15.081  1.00  0.00     0.293 HD
ENDBRANCH  22  26
ENDBRANCH  18  19
ENDBRANCH  17  18
BRANCH  17  28
ATOM     28  O   UNL     1      -0.864  -3.110 -13.134  1.00  0.00    -0.383 OA
ATOM     29  H   UNL     1      -1.297  -2.784 -13.956  1.00  0.00     0.211 HD
ENDBRANCH  17  28
ENDBRANCH  14  17
ENDBRANCH  12  13
BRANCH  12  30
ATOM     30  C   UNL     1       2.869  -3.442  -9.096  1.00  0.00     0.018 C 
ATOM     31  C   UNL     1       2.205  -2.121  -8.676  1.00  0.00     0.010 C 
BRANCH  30  32
ATOM     32  C   UNL     1       4.086  -3.738  -8.187  1.00  0.00     0.002 C 
ATOM     33  C   UNL     1       4.254  -2.801  -6.998  1.00  0.00     0.004 C 
ENDBRANCH  30  32
ENDBRANCH  12  30
ENDBRANCH  10  12
ENDBRANCH   1  10
BRANCH   5  34
ATOM     34  C   UNL     1       7.804  -2.584 -11.506  1.00  0.00     0.242 C 
ATOM     35  O   UNL     1       8.979  -2.681 -11.152  1.00  0.00    -0.273 OA
ATOM     36  N   UNL     1       7.275  -1.413 -12.001  1.00  0.00    -0.354 N 
ATOM     37  H   UNL     1       6.269  -1.358 -12.164  1.00  0.00     0.163 HD
BRANCH  36  38
ATOM     38  C   UNL     1       8.106  -0.294 -12.393  1.00  0.00     0.116 C 
BRANCH  38  39
ATOM     39  C   UNL     1       7.744   0.936 -11.564  1.00  0.00     0.023 C 
BRANCH  39  40
ATOM     40  C   UNL     1       8.266   0.850 -10.134  1.00  0.00     0.026 C 
BRANCH  40  41
ATOM     41  C   UNL     1       7.109   0.785  -9.137  1.00  0.00     0.146 C 
BRANCH  41  42
ATOM     42  N   UNL     1       7.597   0.325  -7.844  1.00  0.00    -0.254 NA
ATOM     43  C   UNL     1       7.645  -0.930  -7.595  1.00  0.00     0.185 C 
ATOM     44  N   UNL     1       7.303  -1.978  -8.366  1.00  0.00    -0.370 N 
ATOM     45  N   UNL     1       8.095  -1.333  -6.396  1.00  0.00    -0.370 N 
ATOM     46  H   UNL     1       7.161  -2.888  -7.961  1.00  0.00     0.159 HD
ATOM     47  H   UNL     1       6.956  -1.854  -9.312  1.00  0.00     0.159 HD
ATOM     48  H   UNL     1       8.382  -0.605  -5.756  1.00  0.00     0.159 HD
ATOM     49  H   UNL     1       8.383  -2.278  -6.212  1.00  0.00     0.159 HD
ENDBRANCH  41  42
ENDBRANCH  40  41
ENDBRANCH  39  40
ENDBRANCH  38  39
ENDBRANCH  36  38
ENDBRANCH   5  34
BRANCH   8  50
ATOM     50  O   UNL     1       6.288  -2.546 -16.006  1.00  0.00    -0.245 OA
BRANCH  50  51
ATOM     51  S   UNL     1       6.317  -1.654 -17.365  1.00  0.00     0.397 S 
ATOM     52  O   UNL     1       4.981  -1.636 -17.916  1.00  0.00    -0.169 OA
ATOM     53  O   UNL     1       7.464  -2.027 -18.167  1.00  0.00    -0.169 OA
BRANCH  51  54
ATOM     54  O   UNL     1       6.574  -0.174 -16.790  1.00  0.00    -0.264 OA
ATOM     55  H   UNL     1       5.718   0.172 -16.464  1.00  0.00     0.236 HD
ENDBRANCH  51  54
ENDBRANCH  50  51
ENDBRANCH   8  50
TORSDOF 19
ENDMDL
MODEL 43
REMARK VINA RESULT:    -5.618      2.951      6.196
REMARK INTER + INTRA:         -15.144
REMARK INTER:                 -11.631
REMARK INTRA:                  -3.513
REMARK UNBOUND:                -3.778
REMARK SMILES CC[C@@H](C)[C@@H](NC(=O)[C@@H](O)Cc1ccc(O)c(Cl)c1)C(=O)N1[C@H](C(=O)NCCCCN=C(N)N)C[C@H]2CC[C@H](OS(=O)(=O)O)C[C@@H]21
REMARK SMILES IDX 22 1 36 2 46 3 35 4 23 5 45 6 37 7 39 8 38 9 20 10 21 11
REMARK SMILES IDX 5 12 6 13 7 14 8 15 9 17 11 18 12 19 17 20 19 21 15 22 14 23
REMARK SMILES IDX 13 24 18 25 16 26 10 28 3 30 4 31 2 32 1 33 24 34 25 35
REMARK SMILES IDX 26 36 27 38 28 39 29 40 30 41 31 42 32 43 33 44 34 45 40 50
REMARK SMILES IDX 41 51 42 52 43 53 44 54
REMARK H PARENT 6 16 16 27 10 29 26 37 33 46 33 47 34 48 34 49 44 55
ROOT
ATOM      1  N   UNL     1       4.951  -3.897 -14.931  1.00  0.00    -0.326 N 
ATOM      2  C   UNL     1       7.023  -3.869 -16.049  1.00  0.00     0.014 C 
ATOM      3  C   UNL     1       5.672  -3.153 -15.968  1.00  0.00     0.091 C 
ATOM      4  C   UNL     1       6.650  -5.319 -15.779  1.00  0.00     0.041 C 
ATOM      5  C   UNL     1       5.691  -5.137 -14.588  1.00  0.00     0.175 C 
ATOM      6  C   UNL     1       5.927  -1.664 -15.746  1.00  0.00     0.059 C 
ATOM      7  C   UNL     1       7.749  -3.515 -17.331  1.00  0.00     0.008 C 
ATOM      8  C   UNL     1       7.229  -1.152 -16.399  1.00  0.00     0.143 C 
ATOM      9  C   UNL     1       7.638  -2.002 -17.619  1.00  0.00     0.034 C 
ENDROOT
BRANCH   1  10
ATOM     10  C   UNL     1       3.669  -3.719 -14.439  1.00  0.00     0.246 C 
ATOM     11  O   UNL     1       2.751  -4.416 -14.886  1.00  0.00    -0.272 OA
BRANCH  10  12
ATOM     12  C   UNL     1       3.419  -2.680 -13.309  1.00  0.00     0.174 C 
BRANCH  12  13
ATOM     13  N   UNL     1       3.367  -3.355 -12.013  1.00  0.00    -0.342 N 
ATOM     14  C   UNL     1       4.074  -2.975 -10.894  1.00  0.00     0.249 C 
ATOM     15  O   UNL     1       4.814  -2.000 -10.854  1.00  0.00    -0.272 OA
ATOM     16  H   UNL     1       2.921  -4.266 -11.937  1.00  0.00     0.164 HD
BRANCH  14  17
ATOM     17  C   UNL     1       3.819  -3.901  -9.685  1.00  0.00     0.207 C 
BRANCH  17  18
ATOM     18  C   UNL     1       2.330  -3.914  -9.326  1.00  0.00     0.077 C 
BRANCH  18  19
ATOM     19  C   UNL     1       1.928  -2.679  -8.551  1.00  0.00    -0.043 A 
ATOM     20  C   UNL     1       1.645  -1.522  -6.437  1.00  0.00     0.083 A 
ATOM     21  C   UNL     1       2.062  -2.644  -7.154  1.00  0.00     0.028 A 
ATOM     22  C   UNL     1       1.091  -0.431  -7.108  1.00  0.00     0.134 A 
ATOM     23  C   UNL     1       0.953  -0.452  -8.491  1.00  0.00     0.048 A 
ATOM     24  C   UNL     1       1.368  -1.574  -9.211  1.00  0.00     0.008 A 
ATOM     25  Cl  UNL     1       1.817  -1.499  -4.722  1.00  0.00    -0.080 Cl
BRANCH  22  26
ATOM     26  O   UNL     1       0.658   0.686  -6.448  1.00  0.00    -0.506 OA
ATOM     27  H   UNL     1       0.023   1.133  -7.039  1.00  0.00     0.293 HD
ENDBRANCH  22  26
ENDBRANCH  18  19
ENDBRANCH  17  18
BRANCH  17  28
ATOM     28  O   UNL     1       4.582  -3.481  -8.543  1.00  0.00    -0.383 OA
ATOM     29  H   UNL     1       4.417  -4.154  -7.844  1.00  0.00     0.211 HD
ENDBRANCH  17  28
ENDBRANCH  14  17
ENDBRANCH  12  13
BRANCH  12  30
ATOM     30  C   UNL     1       2.167  -1.800 -13.569  1.00  0.00     0.018 C 
ATOM     31  C   UNL     1       2.505  -0.308 -13.415  1.00  0.00     0.010 C 
BRANCH  30  32
ATOM     32  C   UNL     1       0.955  -2.165 -12.678  1.00  0.00     0.002 C 
ATOM     33  C   UNL     1      -0.121  -3.005 -13.353  1.00  0.00     0.004 C 
ENDBRANCH  30  32
ENDBRANCH  12  30
ENDBRANCH  10  12
ENDBRANCH   1  10
BRANCH   5  34
ATOM     34  C   UNL     1       6.463  -4.966 -13.253  1.00  0.00     0.242 C 
ATOM     35  O   UNL     1       6.695  -5.912 -12.501  1.00  0.00    -0.273 OA
ATOM     36  N   UNL     1       6.820  -3.672 -12.945  1.00  0.00    -0.354 N 
ATOM     37  H   UNL     1       6.495  -2.916 -13.548  1.00  0.00     0.163 HD
BRANCH  36  38
ATOM     38  C   UNL     1       7.724  -3.358 -11.858  1.00  0.00     0.116 C 
BRANCH  38  39
ATOM     39  C   UNL     1       8.596  -2.163 -12.237  1.00  0.00     0.023 C 
BRANCH  39  40
ATOM     40  C   UNL     1       9.491  -1.707 -11.090  1.00  0.00     0.026 C 
BRANCH  40  41
ATOM     41  C   UNL     1       9.364  -2.652  -9.895  1.00  0.00     0.146 C 
BRANCH  41  42
ATOM     42  N   UNL     1       9.326  -1.881  -8.660  1.00  0.00    -0.254 NA
ATOM     43  C   UNL     1       8.201  -1.630  -8.104  1.00  0.00     0.185 C 
ATOM     44  N   UNL     1       6.955  -1.974  -8.479  1.00  0.00    -0.370 N 
ATOM     45  N   UNL     1       8.187  -0.913  -6.968  1.00  0.00    -0.370 N 
ATOM     46  H   UNL     1       6.154  -1.507  -8.089  1.00  0.00     0.159 HD
ATOM     47  H   UNL     1       6.783  -2.530  -9.311  1.00  0.00     0.159 HD
ATOM     48  H   UNL     1       9.086  -0.621  -6.612  1.00  0.00     0.159 HD
ATOM     49  H   UNL     1       7.390  -0.878  -6.357  1.00  0.00     0.159 HD
ENDBRANCH  41  42
ENDBRANCH  40  41
ENDBRANCH  39  40
ENDBRANCH  38  39
ENDBRANCH  36  38
ENDBRANCH   5  34
BRANCH   8  50
ATOM     50  O   UNL     1       8.296  -1.177 -15.451  1.00  0.00    -0.245 OA
BRANCH  50  51
ATOM     51  S   UNL     1       9.115   0.191 -15.127  1.00  0.00     0.397 S 
ATOM     52  O   UNL     1      10.407  -0.178 -14.594  1.00  0.00    -0.169 OA
ATOM     53  O   UNL     1       8.248   1.125 -14.439  1.00  0.00    -0.169 OA
BRANCH  51  54
ATOM     54  O   UNL     1       9.397   0.769 -16.600  1.00  0.00    -0.264 OA
ATOM     55  H   UNL     1      10.177   1.359 -16.545  1.00  0.00     0.236 HD
ENDBRANCH  51  54
ENDBRANCH  50  51
ENDBRANCH   8  50
TORSDOF 19
ENDMDL
MODEL 44
REMARK VINA RESULT:    -5.617     14.426     18.409
REMARK INTER + INTRA:         -15.142
REMARK INTER:                 -11.584
REMARK INTRA:                  -3.557
REMARK UNBOUND:                -3.778
REMARK SMILES CC[C@@H](C)[C@@H](NC(=O)[C@@H](O)Cc1ccc(O)c(Cl)c1)C(=O)N1[C@H](C(=O)NCCCCN=C(N)N)C[C@H]2CC[C@H](OS(=O)(=O)O)C[C@@H]21
REMARK SMILES IDX 22 1 36 2 46 3 35 4 23 5 45 6 37 7 39 8 38 9 20 10 21 11
REMARK SMILES IDX 5 12 6 13 7 14 8 15 9 17 11 18 12 19 17 20 19 21 15 22 14 23
REMARK SMILES IDX 13 24 18 25 16 26 10 28 3 30 4 31 2 32 1 33 24 34 25 35
REMARK SMILES IDX 26 36 27 38 28 39 29 40 30 41 31 42 32 43 33 44 34 45 40 50
REMARK SMILES IDX 41 51 42 52 43 53 44 54
REMARK H PARENT 6 16 16 27 10 29 26 37 33 46 33 47 34 48 34 49 44 55
ROOT
ATOM      1  N   UNL     1       6.405  -1.691   3.281  1.00  0.00    -0.326 N 
ATOM      2  C   UNL     1       5.324  -3.118   1.752  1.00  0.00     0.014 C 
ATOM      3  C   UNL     1       5.077  -1.957   2.721  1.00  0.00     0.091 C 
ATOM      4  C   UNL     1       6.412  -3.914   2.455  1.00  0.00     0.041 C 
ATOM      5  C   UNL     1       7.346  -2.771   2.894  1.00  0.00     0.175 C 
ATOM      6  C   UNL     1       4.373  -0.835   1.961  1.00  0.00     0.059 C 
ATOM      7  C   UNL     1       4.022  -3.802   1.384  1.00  0.00     0.008 C 
ATOM      8  C   UNL     1       3.446  -1.335   0.832  1.00  0.00     0.143 C 
ATOM      9  C   UNL     1       2.920  -2.759   1.103  1.00  0.00     0.034 C 
ENDROOT
BRANCH   1  10
ATOM     10  C   UNL     1       6.799  -0.760   4.227  1.00  0.00     0.246 C 
ATOM     11  O   UNL     1       6.988   0.410   3.878  1.00  0.00    -0.272 OA
BRANCH  10  12
ATOM     12  C   UNL     1       6.953  -1.195   5.713  1.00  0.00     0.174 C 
BRANCH  12  13
ATOM     13  N   UNL     1       6.045  -0.418   6.557  1.00  0.00    -0.342 N 
ATOM     14  C   UNL     1       5.395  -0.900   7.671  1.00  0.00     0.249 C 
ATOM     15  O   UNL     1       5.528  -2.040   8.099  1.00  0.00    -0.272 OA
ATOM     16  H   UNL     1       5.716   0.490   6.240  1.00  0.00     0.164 HD
BRANCH  14  17
ATOM     17  C   UNL     1       4.492   0.160   8.338  1.00  0.00     0.207 C 
BRANCH  17  18
ATOM     18  C   UNL     1       3.980   1.159   7.296  1.00  0.00     0.077 C 
BRANCH  18  19
ATOM     19  C   UNL     1       2.491   1.024   7.071  1.00  0.00    -0.043 A 
ATOM     20  C   UNL     1       0.216   1.689   7.590  1.00  0.00     0.083 A 
ATOM     21  C   UNL     1       1.592   1.850   7.763  1.00  0.00     0.028 A 
ATOM     22  C   UNL     1      -0.268   0.704   6.729  1.00  0.00     0.134 A 
ATOM     23  C   UNL     1       0.611  -0.122   6.038  1.00  0.00     0.048 A 
ATOM     24  C   UNL     1       1.988   0.036   6.210  1.00  0.00     0.008 A 
ATOM     25  Cl  UNL     1      -0.873   2.714   8.449  1.00  0.00    -0.080 Cl
BRANCH  22  26
ATOM     26  O   UNL     1      -1.608   0.501   6.536  1.00  0.00    -0.506 OA
ATOM     27  H   UNL     1      -1.795  -0.416   6.809  1.00  0.00     0.293 HD
ENDBRANCH  22  26
ENDBRANCH  18  19
ENDBRANCH  17  18
BRANCH  17  28
ATOM     28  O   UNL     1       5.199   0.866   9.370  1.00  0.00    -0.383 OA
ATOM     29  H   UNL     1       4.866   1.792   9.342  1.00  0.00     0.211 HD
ENDBRANCH  17  28
ENDBRANCH  14  17
ENDBRANCH  12  13
BRANCH  12  30
ATOM     30  C   UNL     1       8.423  -1.131   6.209  1.00  0.00     0.018 C 
ATOM     31  C   UNL     1       8.823  -2.442   6.902  1.00  0.00     0.010 C 
BRANCH  30  32
ATOM     32  C   UNL     1       8.713   0.073   7.138  1.00  0.00     0.002 C 
ATOM     33  C   UNL     1       9.348   1.280   6.460  1.00  0.00     0.004 C 
ENDBRANCH  30  32
ENDBRANCH  12  30
ENDBRANCH  10  12
ENDBRANCH   1  10
BRANCH   5  34
ATOM     34  C   UNL     1       8.269  -2.309   1.736  1.00  0.00     0.242 C 
ATOM     35  O   UNL     1       8.301  -1.142   1.346  1.00  0.00    -0.273 OA
ATOM     36  N   UNL     1       9.009  -3.308   1.142  1.00  0.00    -0.354 N 
ATOM     37  H   UNL     1       8.850  -4.274   1.430  1.00  0.00     0.163 HD
BRANCH  36  38
ATOM     38  C   UNL     1      10.072  -3.026   0.201  1.00  0.00     0.116 C 
BRANCH  38  39
ATOM     39  C   UNL     1       9.910  -3.900  -1.041  1.00  0.00     0.023 C 
BRANCH  39  40
ATOM     40  C   UNL     1       8.757  -4.890  -0.910  1.00  0.00     0.026 C 
BRANCH  40  41
ATOM     41  C   UNL     1       8.124  -5.168  -2.274  1.00  0.00     0.146 C 
BRANCH  41  42
ATOM     42  N   UNL     1       6.700  -5.428  -2.111  1.00  0.00    -0.254 NA
ATOM     43  C   UNL     1       5.879  -4.447  -2.060  1.00  0.00     0.185 C 
ATOM     44  N   UNL     1       6.107  -3.123  -2.134  1.00  0.00    -0.370 N 
ATOM     45  N   UNL     1       4.570  -4.708  -1.905  1.00  0.00    -0.370 N 
ATOM     46  H   UNL     1       5.408  -2.465  -1.835  1.00  0.00     0.159 HD
ATOM     47  H   UNL     1       7.042  -2.750  -2.265  1.00  0.00     0.159 HD
ATOM     48  H   UNL     1       4.311  -5.683  -1.849  1.00  0.00     0.159 HD
ATOM     49  H   UNL     1       3.855  -4.028  -2.091  1.00  0.00     0.159 HD
ENDBRANCH  41  42
ENDBRANCH  40  41
ENDBRANCH  39  40
ENDBRANCH  38  39
ENDBRANCH  36  38
ENDBRANCH   5  34
BRANCH   8  50
ATOM     50  O   UNL     1       4.147  -1.340  -0.412  1.00  0.00    -0.245 OA
BRANCH  50  51
ATOM     51  S   UNL     1       3.443  -0.706  -1.734  1.00  0.00     0.397 S 
ATOM     52  O   UNL     1       4.285   0.364  -2.219  1.00  0.00    -0.169 OA
ATOM     53  O   UNL     1       2.030  -0.507  -1.483  1.00  0.00    -0.169 OA
BRANCH  51  54
ATOM     54  O   UNL     1       3.593  -1.900  -2.800  1.00  0.00    -0.264 OA
ATOM     55  H   UNL     1       2.777  -2.439  -2.763  1.00  0.00     0.236 HD
ENDBRANCH  51  54
ENDBRANCH  50  51
ENDBRANCH   8  50
TORSDOF 19
ENDMDL
MODEL 45
REMARK VINA RESULT:    -5.611      3.221      5.985
REMARK INTER + INTRA:         -15.128
REMARK INTER:                 -11.276
REMARK INTRA:                  -3.852
REMARK UNBOUND:                -3.778
REMARK SMILES CC[C@@H](C)[C@@H](NC(=O)[C@@H](O)Cc1ccc(O)c(Cl)c1)C(=O)N1[C@H](C(=O)NCCCCN=C(N)N)C[C@H]2CC[C@H](OS(=O)(=O)O)C[C@@H]21
REMARK SMILES IDX 22 1 36 2 46 3 35 4 23 5 45 6 37 7 39 8 38 9 20 10 21 11
REMARK SMILES IDX 5 12 6 13 7 14 8 15 9 17 11 18 12 19 17 20 19 21 15 22 14 23
REMARK SMILES IDX 13 24 18 25 16 26 10 28 3 30 4 31 2 32 1 33 24 34 25 35
REMARK SMILES IDX 26 36 27 38 28 39 29 40 30 41 31 42 32 43 33 44 34 45 40 50
REMARK SMILES IDX 41 51 42 52 43 53 44 54
REMARK H PARENT 6 16 16 27 10 29 26 37 33 46 33 47 34 48 34 49 44 55
ROOT
ATOM      1  N   UNL     1       6.869  -1.542 -12.938  1.00  0.00    -0.326 N 
ATOM      2  C   UNL     1       7.617  -0.493 -14.908  1.00  0.00     0.014 C 
ATOM      3  C   UNL     1       8.000  -1.551 -13.870  1.00  0.00     0.091 C 
ATOM      4  C   UNL     1       6.874   0.540 -14.075  1.00  0.00     0.041 C 
ATOM      5  C   UNL     1       5.985  -0.385 -13.224  1.00  0.00     0.175 C 
ATOM      6  C   UNL     1       8.325  -2.852 -14.603  1.00  0.00     0.059 C 
ATOM      7  C   UNL     1       8.825  -0.065 -15.718  1.00  0.00     0.008 C 
ATOM      8  C   UNL     1       8.937  -2.639 -16.005  1.00  0.00     0.143 C 
ATOM      9  C   UNL     1       9.676  -1.290 -16.115  1.00  0.00     0.034 C 
ENDROOT
BRANCH   1  10
ATOM     10  C   UNL     1       6.663  -2.280 -11.785  1.00  0.00     0.246 C 
ATOM     11  O   UNL     1       6.808  -3.507 -11.823  1.00  0.00    -0.272 OA
BRANCH  10  12
ATOM     12  C   UNL     1       6.297  -1.549 -10.461  1.00  0.00     0.174 C 
BRANCH  12  13
ATOM     13  N   UNL     1       7.515  -1.212  -9.724  1.00  0.00    -0.342 N 
ATOM     14  C   UNL     1       8.054   0.051  -9.623  1.00  0.00     0.249 C 
ATOM     15  O   UNL     1       7.550   1.049 -10.122  1.00  0.00    -0.272 OA
ATOM     16  H   UNL     1       8.124  -1.956  -9.392  1.00  0.00     0.164 HD
BRANCH  14  17
ATOM     17  C   UNL     1       9.354   0.079  -8.792  1.00  0.00     0.207 C 
BRANCH  17  18
ATOM     18  C   UNL     1      10.345  -0.968  -9.312  1.00  0.00     0.077 C 
BRANCH  18  19
ATOM     19  C   UNL     1      10.898  -0.592 -10.668  1.00  0.00    -0.043 A 
ATOM     20  C   UNL     1      11.560   1.102 -12.274  1.00  0.00     0.083 A 
ATOM     21  C   UNL     1      11.096   0.757 -11.004  1.00  0.00     0.028 A 
ATOM     22  C   UNL     1      11.827   0.107 -13.214  1.00  0.00     0.134 A 
ATOM     23  C   UNL     1      11.636  -1.233 -12.895  1.00  0.00     0.048 A 
ATOM     24  C   UNL     1      11.170  -1.582 -11.626  1.00  0.00     0.008 A 
ATOM     25  Cl  UNL     1      11.797   2.764 -12.667  1.00  0.00    -0.080 Cl
BRANCH  22  26
ATOM     26  O   UNL     1      12.274   0.397 -14.475  1.00  0.00    -0.506 OA
ATOM     27  H   UNL     1      12.081   1.341 -14.630  1.00  0.00     0.293 HD
ENDBRANCH  22  26
ENDBRANCH  18  19
ENDBRANCH  17  18
BRANCH  17  28
ATOM     28  O   UNL     1       9.085  -0.169  -7.402  1.00  0.00    -0.383 OA
ATOM     29  H   UNL     1       8.228  -0.651  -7.373  1.00  0.00     0.211 HD
ENDBRANCH  17  28
ENDBRANCH  14  17
ENDBRANCH  12  13
BRANCH  12  30
ATOM     30  C   UNL     1       5.283  -2.344  -9.596  1.00  0.00     0.018 C 
ATOM     31  C   UNL     1       4.122  -2.867 -10.458  1.00  0.00     0.010 C 
BRANCH  30  32
ATOM     32  C   UNL     1       4.732  -1.545  -8.391  1.00  0.00     0.002 C 
ATOM     33  C   UNL     1       5.390  -1.850  -7.051  1.00  0.00     0.004 C 
ENDBRANCH  30  32
ENDBRANCH  12  30
ENDBRANCH  10  12
ENDBRANCH   1  10
BRANCH   5  34
ATOM     34  C   UNL     1       4.721  -0.838 -14.002  1.00  0.00     0.242 C 
ATOM     35  O   UNL     1       4.782  -1.584 -14.979  1.00  0.00    -0.273 OA
ATOM     36  N   UNL     1       3.534  -0.303 -13.554  1.00  0.00    -0.354 N 
ATOM     37  H   UNL     1       3.561   0.403 -12.816  1.00  0.00     0.163 HD
BRANCH  36  38
ATOM     38  C   UNL     1       2.247  -0.778 -14.018  1.00  0.00     0.116 C 
BRANCH  38  39
ATOM     39  C   UNL     1       1.609  -1.668 -12.955  1.00  0.00     0.023 C 
BRANCH  39  40
ATOM     40  C   UNL     1       0.523  -2.573 -13.527  1.00  0.00     0.026 C 
BRANCH  40  41
ATOM     41  C   UNL     1       1.130  -3.862 -14.083  1.00  0.00     0.146 C 
BRANCH  41  42
ATOM     42  N   UNL     1       2.421  -4.109 -13.456  1.00  0.00    -0.254 NA
ATOM     43  C   UNL     1       3.445  -4.344 -14.187  1.00  0.00     0.185 C 
ATOM     44  N   UNL     1       3.557  -4.408 -15.526  1.00  0.00    -0.370 N 
ATOM     45  N   UNL     1       4.626  -4.574 -13.589  1.00  0.00    -0.370 N 
ATOM     46  H   UNL     1       4.358  -4.840 -15.954  1.00  0.00     0.159 HD
ATOM     47  H   UNL     1       2.761  -4.246 -16.135  1.00  0.00     0.159 HD
ATOM     48  H   UNL     1       4.632  -4.536 -12.579  1.00  0.00     0.159 HD
ATOM     49  H   UNL     1       5.502  -4.530 -14.079  1.00  0.00     0.159 HD
ENDBRANCH  41  42
ENDBRANCH  40  41
ENDBRANCH  39  40
ENDBRANCH  38  39
ENDBRANCH  36  38
ENDBRANCH   5  34
BRANCH   8  50
ATOM     50  O   UNL     1       7.912  -2.678 -16.998  1.00  0.00    -0.245 OA
BRANCH  50  51
ATOM     51  S   UNL     1       6.878  -3.933 -17.037  1.00  0.00     0.397 S 
ATOM     52  O   UNL     1       6.757  -4.453 -15.694  1.00  0.00    -0.169 OA
ATOM     53  O   UNL     1       7.198  -4.791 -18.158  1.00  0.00    -0.169 OA
BRANCH  51  54
ATOM     54  O   UNL     1       5.479  -3.205 -17.353  1.00  0.00    -0.264 OA
ATOM     55  H   UNL     1       5.640  -2.240 -17.360  1.00  0.00     0.236 HD
ENDBRANCH  51  54
ENDBRANCH  50  51
ENDBRANCH   8  50
TORSDOF 19
ENDMDL
MODEL 46
REMARK VINA RESULT:    -5.609      3.339      7.443
REMARK INTER + INTRA:         -15.125
REMARK INTER:                 -12.228
REMARK INTRA:                  -2.896
REMARK UNBOUND:                -3.778
REMARK SMILES CC[C@@H](C)[C@@H](NC(=O)[C@@H](O)Cc1ccc(O)c(Cl)c1)C(=O)N1[C@H](C(=O)NCCCCN=C(N)N)C[C@H]2CC[C@H](OS(=O)(=O)O)C[C@@H]21
REMARK SMILES IDX 22 1 36 2 46 3 35 4 23 5 45 6 37 7 39 8 38 9 20 10 21 11
REMARK SMILES IDX 5 12 6 13 7 14 8 15 9 17 11 18 12 19 17 20 19 21 15 22 14 23
REMARK SMILES IDX 13 24 18 25 16 26 10 28 3 30 4 31 2 32 1 33 24 34 25 35
REMARK SMILES IDX 26 36 27 38 28 39 29 40 30 41 31 42 32 43 33 44 34 45 40 50
REMARK SMILES IDX 41 51 42 52 43 53 44 54
REMARK H PARENT 6 16 16 27 10 29 26 37 33 46 33 47 34 48 34 49 44 55
ROOT
ATOM      1  N   UNL     1       5.949  -2.809 -11.915  1.00  0.00    -0.326 N 
ATOM      2  C   UNL     1       6.709  -4.311 -13.561  1.00  0.00     0.014 C 
ATOM      3  C   UNL     1       5.477  -3.523 -13.105  1.00  0.00     0.091 C 
ATOM      4  C   UNL     1       7.383  -4.670 -12.246  1.00  0.00     0.041 C 
ATOM      5  C   UNL     1       7.282  -3.320 -11.511  1.00  0.00     0.175 C 
ATOM      6  C   UNL     1       4.964  -2.702 -14.287  1.00  0.00     0.059 C 
ATOM      7  C   UNL     1       6.319  -5.416 -14.523  1.00  0.00     0.008 C 
ATOM      8  C   UNL     1       5.202  -3.371 -15.658  1.00  0.00     0.143 C 
ATOM      9  C   UNL     1       5.283  -4.907 -15.547  1.00  0.00     0.034 C 
ENDROOT
BRANCH   1  10
ATOM     10  C   UNL     1       5.269  -1.953 -11.066  1.00  0.00     0.246 C 
ATOM     11  O   UNL     1       5.691  -0.802 -10.907  1.00  0.00    -0.272 OA
BRANCH  10  12
ATOM     12  C   UNL     1       3.969  -2.442 -10.364  1.00  0.00     0.174 C 
BRANCH  12  13
ATOM     13  N   UNL     1       2.800  -2.056 -11.154  1.00  0.00    -0.342 N 
ATOM     14  C   UNL     1       1.896  -2.933 -11.708  1.00  0.00     0.249 C 
ATOM     15  O   UNL     1       1.957  -4.149 -11.575  1.00  0.00    -0.272 OA
ATOM     16  H   UNL     1       2.707  -1.096 -11.479  1.00  0.00     0.164 HD
BRANCH  14  17
ATOM     17  C   UNL     1       0.781  -2.218 -12.501  1.00  0.00     0.207 C 
BRANCH  17  18
ATOM     18  C   UNL     1       0.405  -0.897 -11.822  1.00  0.00     0.077 C 
BRANCH  18  19
ATOM     19  C   UNL     1       0.273   0.230 -12.822  1.00  0.00    -0.043 A 
ATOM     20  C   UNL     1      -0.362   2.512 -13.345  1.00  0.00     0.083 A 
ATOM     21  C   UNL     1      -0.194   1.489 -12.412  1.00  0.00     0.028 A 
ATOM     22  C   UNL     1      -0.067   2.285 -14.690  1.00  0.00     0.134 A 
ATOM     23  C   UNL     1       0.396   1.044 -15.110  1.00  0.00     0.048 A 
ATOM     24  C   UNL     1       0.564   0.017 -14.178  1.00  0.00     0.008 A 
ATOM     25  Cl  UNL     1      -0.937   4.051 -12.823  1.00  0.00    -0.080 Cl
BRANCH  22  26
ATOM     26  O   UNL     1      -0.225   3.255 -15.644  1.00  0.00    -0.506 OA
ATOM     27  H   UNL     1      -0.109   4.112 -15.194  1.00  0.00     0.293 HD
ENDBRANCH  22  26
ENDBRANCH  18  19
ENDBRANCH  17  18
BRANCH  17  28
ATOM     28  O   UNL     1      -0.387  -3.047 -12.612  1.00  0.00    -0.383 OA
ATOM     29  H   UNL     1      -0.832  -2.779 -13.449  1.00  0.00     0.211 HD
ENDBRANCH  17  28
ENDBRANCH  14  17
ENDBRANCH  12  13
BRANCH  12  30
ATOM     30  C   UNL     1       3.869  -1.969  -8.889  1.00  0.00     0.018 C 
ATOM     31  C   UNL     1       5.036  -2.524  -8.057  1.00  0.00     0.010 C 
BRANCH  30  32
ATOM     32  C   UNL     1       2.521  -2.319  -8.214  1.00  0.00     0.002 C 
ATOM     33  C   UNL     1       1.592  -1.139  -7.963  1.00  0.00     0.004 C 
ENDBRANCH  30  32
ENDBRANCH  12  30
ENDBRANCH  10  12
ENDBRANCH   1  10
BRANCH   5  34
ATOM     34  C   UNL     1       8.404  -2.343 -11.954  1.00  0.00     0.242 C 
ATOM     35  O   UNL     1       8.886  -2.364 -13.086  1.00  0.00    -0.273 OA
ATOM     36  N   UNL     1       8.857  -1.489 -10.973  1.00  0.00    -0.354 N 
ATOM     37  H   UNL     1       8.502  -1.600 -10.023  1.00  0.00     0.163 HD
BRANCH  36  38
ATOM     38  C   UNL     1       9.738  -0.376 -11.264  1.00  0.00     0.116 C 
BRANCH  38  39
ATOM     39  C   UNL     1      11.097  -0.898 -11.723  1.00  0.00     0.023 C 
BRANCH  39  40
ATOM     40  C   UNL     1      11.740  -0.002 -12.776  1.00  0.00     0.026 C 
BRANCH  40  41
ATOM     41  C   UNL     1      11.661  -0.648 -14.159  1.00  0.00     0.146 C 
BRANCH  41  42
ATOM     42  N   UNL     1      10.597  -0.024 -14.934  1.00  0.00    -0.254 NA
ATOM     43  C   UNL     1      10.480  -0.294 -16.180  1.00  0.00     0.185 C 
ATOM     44  N   UNL     1      11.212  -1.109 -16.962  1.00  0.00    -0.370 N 
ATOM     45  N   UNL     1       9.495   0.295 -16.878  1.00  0.00    -0.370 N 
ATOM     46  H   UNL     1      11.163  -1.039 -17.964  1.00  0.00     0.159 HD
ATOM     47  H   UNL     1      11.991  -1.645 -16.591  1.00  0.00     0.159 HD
ATOM     48  H   UNL     1       8.891   0.919 -16.362  1.00  0.00     0.159 HD
ATOM     49  H   UNL     1       9.193  -0.036 -17.777  1.00  0.00     0.159 HD
ENDBRANCH  41  42
ENDBRANCH  40  41
ENDBRANCH  39  40
ENDBRANCH  38  39
ENDBRANCH  36  38
ENDBRANCH   5  34
BRANCH   8  50
ATOM     50  O   UNL     1       6.419  -2.892 -16.232  1.00  0.00    -0.245 OA
BRANCH  50  51
ATOM     51  S   UNL     1       6.383  -1.620 -17.245  1.00  0.00     0.397 S 
ATOM     52  O   UNL     1       7.348  -1.859 -18.295  1.00  0.00    -0.169 OA
ATOM     53  O   UNL     1       6.381  -0.390 -16.481  1.00  0.00    -0.169 OA
BRANCH  51  54
ATOM     54  O   UNL     1       4.939  -1.779 -17.933  1.00  0.00    -0.264 OA
ATOM     55  H   UNL     1       4.388  -1.021 -17.649  1.00  0.00     0.236 HD
ENDBRANCH  51  54
ENDBRANCH  50  51
ENDBRANCH   8  50
TORSDOF 19
ENDMDL
MODEL 47
REMARK VINA RESULT:    -5.605      3.465      4.760
REMARK INTER + INTRA:         -15.116
REMARK INTER:                 -12.919
REMARK INTRA:                  -2.197
REMARK UNBOUND:                -3.778
REMARK SMILES CC[C@@H](C)[C@@H](NC(=O)[C@@H](O)Cc1ccc(O)c(Cl)c1)C(=O)N1[C@H](C(=O)NCCCCN=C(N)N)C[C@H]2CC[C@H](OS(=O)(=O)O)C[C@@H]21
REMARK SMILES IDX 22 1 36 2 46 3 35 4 23 5 45 6 37 7 39 8 38 9 20 10 21 11
REMARK SMILES IDX 5 12 6 13 7 14 8 15 9 17 11 18 12 19 17 20 19 21 15 22 14 23
REMARK SMILES IDX 13 24 18 25 16 26 10 28 3 30 4 31 2 32 1 33 24 34 25 35
REMARK SMILES IDX 26 36 27 38 28 39 29 40 30 41 31 42 32 43 33 44 34 45 40 50
REMARK SMILES IDX 41 51 42 52 43 53 44 54
REMARK H PARENT 6 16 16 27 10 29 26 37 33 46 33 47 34 48 34 49 44 55
ROOT
ATOM      1  N   UNL     1       8.997  -2.001 -16.342  1.00  0.00    -0.326 N 
ATOM      2  C   UNL     1       9.838  -2.773 -18.401  1.00  0.00     0.014 C 
ATOM      3  C   UNL     1      10.268  -2.229 -17.035  1.00  0.00     0.091 C 
ATOM      4  C   UNL     1       8.547  -2.015 -18.671  1.00  0.00     0.041 C 
ATOM      5  C   UNL     1       7.868  -2.135 -17.294  1.00  0.00     0.175 C 
ATOM      6  C   UNL     1      11.264  -3.209 -16.417  1.00  0.00     0.059 C 
ATOM      7  C   UNL     1      10.974  -2.686 -19.401  1.00  0.00     0.008 C 
ATOM      8  C   UNL     1      12.136  -3.948 -17.457  1.00  0.00     0.143 C 
ATOM      9  C   UNL     1      12.303  -3.133 -18.756  1.00  0.00     0.034 C 
ENDROOT
BRANCH   1  10
ATOM     10  C   UNL     1       8.755  -1.497 -15.075  1.00  0.00     0.246 C 
ATOM     11  O   UNL     1       8.528  -2.283 -14.149  1.00  0.00    -0.272 OA
BRANCH  10  12
ATOM     12  C   UNL     1       8.817   0.040 -14.836  1.00  0.00     0.174 C 
BRANCH  12  13
ATOM     13  N   UNL     1       7.778   0.708 -15.619  1.00  0.00    -0.342 N 
ATOM     14  C   UNL     1       6.445   0.765 -15.277  1.00  0.00     0.249 C 
ATOM     15  O   UNL     1       5.982   0.279 -14.253  1.00  0.00    -0.272 OA
ATOM     16  H   UNL     1       7.981   1.019 -16.565  1.00  0.00     0.164 HD
BRANCH  14  17
ATOM     17  C   UNL     1       5.596   1.527 -16.317  1.00  0.00     0.207 C 
BRANCH  17  18
ATOM     18  C   UNL     1       4.614   2.472 -15.617  1.00  0.00     0.077 C 
BRANCH  18  19
ATOM     19  C   UNL     1       3.176   2.083 -15.879  1.00  0.00    -0.043 A 
ATOM     20  C   UNL     1       1.165   2.251 -17.224  1.00  0.00     0.083 A 
ATOM     21  C   UNL     1       2.506   2.572 -17.011  1.00  0.00     0.028 A 
ATOM     22  C   UNL     1       0.486   1.445 -16.310  1.00  0.00     0.134 A 
ATOM     23  C   UNL     1       1.138   0.954 -15.184  1.00  0.00     0.048 A 
ATOM     24  C   UNL     1       2.480   1.275 -14.968  1.00  0.00     0.008 A 
ATOM     25  Cl  UNL     1       0.358   2.861 -18.621  1.00  0.00    -0.080 Cl
BRANCH  22  26
ATOM     26  O   UNL     1      -0.832   1.112 -16.470  1.00  0.00    -0.506 OA
ATOM     27  H   UNL     1      -0.960   0.925 -17.418  1.00  0.00     0.293 HD
ENDBRANCH  22  26
ENDBRANCH  18  19
ENDBRANCH  17  18
BRANCH  17  28
ATOM     28  O   UNL     1       4.866   0.618 -17.156  1.00  0.00    -0.383 OA
ATOM     29  H   UNL     1       4.916   0.988 -18.066  1.00  0.00     0.211 HD
ENDBRANCH  17  28
ENDBRANCH  14  17
ENDBRANCH  12  13
BRANCH  12  30
ATOM     30  C   UNL     1      10.228   0.632 -15.097  1.00  0.00     0.018 C 
ATOM     31  C   UNL     1      11.265   0.012 -14.147  1.00  0.00     0.010 C 
BRANCH  30  32
ATOM     32  C   UNL     1      10.280   2.176 -15.008  1.00  0.00     0.002 C 
ATOM     33  C   UNL     1      11.676   2.774 -14.883  1.00  0.00     0.004 C 
ENDBRANCH  30  32
ENDBRANCH  12  30
ENDBRANCH  10  12
ENDBRANCH   1  10
BRANCH   5  34
ATOM     34  C   UNL     1       7.163  -3.508 -17.122  1.00  0.00     0.242 C 
ATOM     35  O   UNL     1       6.941  -4.257 -18.073  1.00  0.00    -0.273 OA
ATOM     36  N   UNL     1       6.758  -3.801 -15.839  1.00  0.00    -0.354 N 
ATOM     37  H   UNL     1       6.863  -3.088 -15.116  1.00  0.00     0.163 HD
BRANCH  36  38
ATOM     38  C   UNL     1       6.284  -5.115 -15.459  1.00  0.00     0.116 C 
BRANCH  38  39
ATOM     39  C   UNL     1       5.137  -4.984 -14.460  1.00  0.00     0.023 C 
BRANCH  39  40
ATOM     40  C   UNL     1       3.882  -4.388 -15.089  1.00  0.00     0.026 C 
BRANCH  40  41
ATOM     41  C   UNL     1       3.320  -3.265 -14.217  1.00  0.00     0.146 C 
BRANCH  41  42
ATOM     42  N   UNL     1       2.210  -3.770 -13.419  1.00  0.00    -0.254 NA
ATOM     43  C   UNL     1       2.295  -3.766 -12.142  1.00  0.00     0.185 C 
ATOM     44  N   UNL     1       3.294  -3.350 -11.342  1.00  0.00    -0.370 N 
ATOM     45  N   UNL     1       1.262  -4.240 -11.425  1.00  0.00    -0.370 N 
ATOM     46  H   UNL     1       3.328  -3.630 -10.377  1.00  0.00     0.159 HD
ATOM     47  H   UNL     1       4.147  -2.950 -11.720  1.00  0.00     0.159 HD
ATOM     48  H   UNL     1       0.463  -4.566 -11.951  1.00  0.00     0.159 HD
ATOM     49  H   UNL     1       1.152  -4.056 -10.444  1.00  0.00     0.159 HD
ENDBRANCH  41  42
ENDBRANCH  40  41
ENDBRANCH  39  40
ENDBRANCH  38  39
ENDBRANCH  36  38
ENDBRANCH   5  34
BRANCH   8  50
ATOM     50  O   UNL     1      11.547  -5.207 -17.783  1.00  0.00    -0.245 OA
BRANCH  50  51
ATOM     51  S   UNL     1      11.137  -6.235 -16.591  1.00  0.00     0.397 S 
ATOM     52  O   UNL     1       9.857  -5.818 -16.064  1.00  0.00    -0.169 OA
ATOM     53  O   UNL     1      12.278  -6.459 -15.728  1.00  0.00    -0.169 OA
BRANCH  51  54
ATOM     54  O   UNL     1      10.854  -7.594 -17.403  1.00  0.00    -0.264 OA
ATOM     55  H   UNL     1       9.960  -7.527 -17.795  1.00  0.00     0.236 HD
ENDBRANCH  51  54
ENDBRANCH  50  51
ENDBRANCH   8  50
TORSDOF 19
ENDMDL
MODEL 48
REMARK VINA RESULT:    -5.575      3.446      5.325
REMARK INTER + INTRA:         -15.057
REMARK INTER:                 -11.717
REMARK INTRA:                  -3.340
REMARK UNBOUND:                -3.778
REMARK SMILES CC[C@@H](C)[C@@H](NC(=O)[C@@H](O)Cc1ccc(O)c(Cl)c1)C(=O)N1[C@H](C(=O)NCCCCN=C(N)N)C[C@H]2CC[C@H](OS(=O)(=O)O)C[C@@H]21
REMARK SMILES IDX 22 1 36 2 46 3 35 4 23 5 45 6 37 7 39 8 38 9 20 10 21 11
REMARK SMILES IDX 5 12 6 13 7 14 8 15 9 17 11 18 12 19 17 20 19 21 15 22 14 23
REMARK SMILES IDX 13 24 18 25 16 26 10 28 3 30 4 31 2 32 1 33 24 34 25 35
REMARK SMILES IDX 26 36 27 38 28 39 29 40 30 41 31 42 32 43 33 44 34 45 40 50
REMARK SMILES IDX 41 51 42 52 43 53 44 54
REMARK H PARENT 6 16 16 27 10 29 26 37 33 46 33 47 34 48 34 49 44 55
ROOT
ATOM      1  N   UNL     1       9.503  -2.291 -16.302  1.00  0.00    -0.326 N 
ATOM      2  C   UNL     1      10.120  -2.958 -18.474  1.00  0.00     0.014 C 
ATOM      3  C   UNL     1      10.693  -2.608 -17.098  1.00  0.00     0.091 C 
ATOM      4  C   UNL     1       8.925  -2.023 -18.587  1.00  0.00     0.041 C 
ATOM      5  C   UNL     1       8.314  -2.192 -17.184  1.00  0.00     0.175 C 
ATOM      6  C   UNL     1      11.586  -3.759 -16.640  1.00  0.00     0.059 C 
ATOM      7  C   UNL     1      11.199  -2.916 -19.538  1.00  0.00     0.008 C 
ATOM      8  C   UNL     1      12.294  -4.495 -17.798  1.00  0.00     0.143 C 
ATOM      9  C   UNL     1      12.492  -3.585 -19.027  1.00  0.00     0.034 C 
ENDROOT
BRANCH   1  10
ATOM     10  C   UNL     1       9.401  -1.887 -14.982  1.00  0.00     0.246 C 
ATOM     11  O   UNL     1       9.017  -2.699 -14.133  1.00  0.00    -0.272 OA
BRANCH  10  12
ATOM     12  C   UNL     1       9.809  -0.438 -14.590  1.00  0.00     0.174 C 
BRANCH  12  13
ATOM     13  N   UNL     1       9.231   0.517 -15.535  1.00  0.00    -0.342 N 
ATOM     14  C   UNL     1       7.946   1.008 -15.475  1.00  0.00     0.249 C 
ATOM     15  O   UNL     1       7.144   0.716 -14.596  1.00  0.00    -0.272 OA
ATOM     16  H   UNL     1       9.720   0.727 -16.401  1.00  0.00     0.164 HD
BRANCH  14  17
ATOM     17  C   UNL     1       7.628   1.985 -16.627  1.00  0.00     0.207 C 
BRANCH  17  18
ATOM     18  C   UNL     1       8.373   3.309 -16.428  1.00  0.00     0.077 C 
BRANCH  18  19
ATOM     19  C   UNL     1       8.114   3.899 -15.060  1.00  0.00    -0.043 A 
ATOM     20  C   UNL     1       6.706   5.177 -13.553  1.00  0.00     0.083 A 
ATOM     21  C   UNL     1       6.920   4.591 -14.801  1.00  0.00     0.028 A 
ATOM     22  C   UNL     1       7.680   5.077 -12.558  1.00  0.00     0.134 A 
ATOM     23  C   UNL     1       8.866   4.394 -12.801  1.00  0.00     0.048 A 
ATOM     24  C   UNL     1       9.084   3.808 -14.050  1.00  0.00     0.008 A 
ATOM     25  Cl  UNL     1       5.234   6.023 -13.255  1.00  0.00    -0.080 Cl
BRANCH  22  26
ATOM     26  O   UNL     1       7.519   5.643 -11.323  1.00  0.00    -0.506 OA
ATOM     27  H   UNL     1       8.322   5.433 -10.812  1.00  0.00     0.293 HD
ENDBRANCH  22  26
ENDBRANCH  18  19
ENDBRANCH  17  18
BRANCH  17  28
ATOM     28  O   UNL     1       6.217   2.241 -16.714  1.00  0.00    -0.383 OA
ATOM     29  H   UNL     1       5.867   1.613 -17.386  1.00  0.00     0.211 HD
ENDBRANCH  17  28
ENDBRANCH  14  17
ENDBRANCH  12  13
BRANCH  12  30
ATOM     30  C   UNL     1      11.345  -0.267 -14.440  1.00  0.00     0.018 C 
ATOM     31  C   UNL     1      11.944  -1.415 -13.613  1.00  0.00     0.010 C 
BRANCH  30  32
ATOM     32  C   UNL     1      11.763   1.097 -13.839  1.00  0.00     0.002 C 
ATOM     33  C   UNL     1      12.361   2.089 -14.829  1.00  0.00     0.004 C 
ENDBRANCH  30  32
ENDBRANCH  12  30
ENDBRANCH  10  12
ENDBRANCH   1  10
BRANCH   5  34
ATOM     34  C   UNL     1       7.448  -3.476 -17.087  1.00  0.00     0.242 C 
ATOM     35  O   UNL     1       7.040  -4.071 -18.084  1.00  0.00    -0.273 OA
ATOM     36  N   UNL     1       7.125  -3.869 -15.808  1.00  0.00    -0.354 N 
ATOM     37  H   UNL     1       7.391  -3.269 -15.027  1.00  0.00     0.163 HD
BRANCH  36  38
ATOM     38  C   UNL     1       6.513  -5.151 -15.524  1.00  0.00     0.116 C 
BRANCH  38  39
ATOM     39  C   UNL     1       5.591  -5.029 -14.314  1.00  0.00     0.023 C 
BRANCH  39  40
ATOM     40  C   UNL     1       4.196  -4.541 -14.690  1.00  0.00     0.026 C 
BRANCH  40  41
ATOM     41  C   UNL     1       4.038  -3.054 -14.376  1.00  0.00     0.146 C 
BRANCH  41  42
ATOM     42  N   UNL     1       4.399  -2.262 -15.545  1.00  0.00    -0.254 NA
ATOM     43  C   UNL     1       4.429  -0.985 -15.460  1.00  0.00     0.185 C 
ATOM     44  N   UNL     1       4.169  -0.181 -14.413  1.00  0.00    -0.370 N 
ATOM     45  N   UNL     1       4.760  -0.274 -16.551  1.00  0.00    -0.370 N 
ATOM     46  H   UNL     1       3.993   0.799 -14.551  1.00  0.00     0.159 HD
ATOM     47  H   UNL     1       3.916  -0.555 -13.504  1.00  0.00     0.159 HD
ATOM     48  H   UNL     1       4.979  -0.804 -17.383  1.00  0.00     0.159 HD
ATOM     49  H   UNL     1       5.033   0.692 -16.508  1.00  0.00     0.159 HD
ENDBRANCH  41  42
ENDBRANCH  40  41
ENDBRANCH  39  40
ENDBRANCH  38  39
ENDBRANCH  36  38
ENDBRANCH   5  34
BRANCH   8  50
ATOM     50  O   UNL     1      11.530  -5.634 -18.195  1.00  0.00    -0.245 OA
BRANCH  50  51
ATOM     51  S   UNL     1      11.255  -6.828 -17.126  1.00  0.00     0.397 S 
ATOM     52  O   UNL     1      12.192  -6.677 -16.036  1.00  0.00    -0.169 OA
ATOM     53  O   UNL     1      11.105  -8.085 -17.830  1.00  0.00    -0.169 OA
BRANCH  51  54
ATOM     54  O   UNL     1       9.818  -6.420 -16.529  1.00  0.00    -0.264 OA
ATOM     55  H   UNL     1       9.392  -5.812 -17.167  1.00  0.00     0.236 HD
ENDBRANCH  51  54
ENDBRANCH  50  51
ENDBRANCH   8  50
TORSDOF 19
ENDMDL
MODEL 49
REMARK VINA RESULT:    -5.470      3.654      6.732
REMARK INTER + INTRA:         -14.845
REMARK INTER:                 -10.694
REMARK INTRA:                  -4.151
REMARK UNBOUND:                -3.778
REMARK SMILES CC[C@@H](C)[C@@H](NC(=O)[C@@H](O)Cc1ccc(O)c(Cl)c1)C(=O)N1[C@H](C(=O)NCCCCN=C(N)N)C[C@H]2CC[C@H](OS(=O)(=O)O)C[C@@H]21
REMARK SMILES IDX 22 1 36 2 46 3 35 4 23 5 45 6 37 7 39 8 38 9 20 10 21 11
REMARK SMILES IDX 5 12 6 13 7 14 8 15 9 17 11 18 12 19 17 20 19 21 15 22 14 23
REMARK SMILES IDX 13 24 18 25 16 26 10 28 3 30 4 31 2 32 1 33 24 34 25 35
REMARK SMILES IDX 26 36 27 38 28 39 29 40 30 41 31 42 32 43 33 44 34 45 40 50
REMARK SMILES IDX 41 51 42 52 43 53 44 54
REMARK H PARENT 6 16 16 27 10 29 26 37 33 46 33 47 34 48 34 49 44 55
ROOT
ATOM      1  N   UNL     1       5.448  -3.325 -11.844  1.00  0.00    -0.326 N 
ATOM      2  C   UNL     1       6.716  -4.372 -13.529  1.00  0.00     0.014 C 
ATOM      3  C   UNL     1       5.325  -3.811 -13.221  1.00  0.00     0.091 C 
ATOM      4  C   UNL     1       7.153  -4.939 -12.187  1.00  0.00     0.041 C 
ATOM      5  C   UNL     1       6.728  -3.790 -11.254  1.00  0.00     0.175 C 
ATOM      6  C   UNL     1       4.956  -2.809 -14.313  1.00  0.00     0.059 C 
ATOM      7  C   UNL     1       6.679  -5.280 -14.742  1.00  0.00     0.008 C 
ATOM      8  C   UNL     1       5.553  -3.149 -15.696  1.00  0.00     0.143 C 
ATOM      9  C   UNL     1       5.813  -4.660 -15.859  1.00  0.00     0.034 C 
ENDROOT
BRANCH   1  10
ATOM     10  C   UNL     1       4.503  -2.732 -11.024  1.00  0.00     0.246 C 
ATOM     11  O   UNL     1       4.732  -1.612 -10.556  1.00  0.00    -0.272 OA
BRANCH  10  12
ATOM     12  C   UNL     1       3.160  -3.467 -10.746  1.00  0.00     0.174 C 
BRANCH  12  13
ATOM     13  N   UNL     1       2.089  -2.868 -11.541  1.00  0.00    -0.342 N 
ATOM     14  C   UNL     1       1.504  -3.449 -12.644  1.00  0.00     0.249 C 
ATOM     15  O   UNL     1       1.801  -4.559 -13.068  1.00  0.00    -0.272 OA
ATOM     16  H   UNL     1       1.848  -1.889 -11.405  1.00  0.00     0.164 HD
BRANCH  14  17
ATOM     17  C   UNL     1       0.414  -2.559 -13.278  1.00  0.00     0.207 C 
BRANCH  17  18
ATOM     18  C   UNL     1       0.601  -1.099 -12.853  1.00  0.00     0.077 C 
BRANCH  18  19
ATOM     19  C   UNL     1       1.107  -0.242 -13.991  1.00  0.00    -0.043 A 
ATOM     20  C   UNL     1       2.942   0.585 -15.345  1.00  0.00     0.083 A 
ATOM     21  C   UNL     1       2.470  -0.243 -14.326  1.00  0.00     0.028 A 
ATOM     22  C   UNL     1       2.060   1.419 -16.032  1.00  0.00     0.134 A 
ATOM     23  C   UNL     1       0.707   1.430 -15.711  1.00  0.00     0.048 A 
ATOM     24  C   UNL     1       0.232   0.603 -14.691  1.00  0.00     0.008 A 
ATOM     25  Cl  UNL     1       4.621   0.570 -15.742  1.00  0.00    -0.080 Cl
BRANCH  22  26
ATOM     26  O   UNL     1       2.477   2.257 -17.031  1.00  0.00    -0.506 OA
ATOM     27  H   UNL     1       2.581   3.140 -16.631  1.00  0.00     0.293 HD
ENDBRANCH  22  26
ENDBRANCH  18  19
ENDBRANCH  17  18
BRANCH  17  28
ATOM     28  O   UNL     1      -0.900  -3.001 -12.900  1.00  0.00    -0.383 OA
ATOM     29  H   UNL     1      -1.048  -3.849 -13.377  1.00  0.00     0.211 HD
ENDBRANCH  17  28
ENDBRANCH  14  17
ENDBRANCH  12  13
BRANCH  12  30
ATOM     30  C   UNL     1       2.812  -3.528  -9.234  1.00  0.00     0.018 C 
ATOM     31  C   UNL     1       2.236  -2.188  -8.751  1.00  0.00     0.010 C 
BRANCH  30  32
ATOM     32  C   UNL     1       4.003  -3.948  -8.338  1.00  0.00     0.002 C 
ATOM     33  C   UNL     1       4.390  -2.947  -7.258  1.00  0.00     0.004 C 
ENDBRANCH  30  32
ENDBRANCH  12  30
ENDBRANCH  10  12
ENDBRANCH   1  10
BRANCH   5  34
ATOM     34  C   UNL     1       7.776  -2.645 -11.243  1.00  0.00     0.242 C 
ATOM     35  O   UNL     1       8.931  -2.814 -10.851  1.00  0.00    -0.273 OA
ATOM     36  N   UNL     1       7.306  -1.417 -11.651  1.00  0.00    -0.354 N 
ATOM     37  H   UNL     1       6.310  -1.313 -11.850  1.00  0.00     0.163 HD
BRANCH  36  38
ATOM     38  C   UNL     1       8.189  -0.297 -11.907  1.00  0.00     0.116 C 
BRANCH  38  39
ATOM     39  C   UNL     1       7.562   0.630 -12.945  1.00  0.00     0.023 C 
BRANCH  39  40
ATOM     40  C   UNL     1       7.136   1.968 -12.350  1.00  0.00     0.026 C 
BRANCH  40  41
ATOM     41  C   UNL     1       5.723   2.337 -12.801  1.00  0.00     0.146 C 
BRANCH  41  42
ATOM     42  N   UNL     1       5.007   2.976 -11.705  1.00  0.00    -0.254 NA
ATOM     43  C   UNL     1       4.139   2.309 -11.042  1.00  0.00     0.185 C 
ATOM     44  N   UNL     1       3.738   1.032 -11.181  1.00  0.00    -0.370 N 
ATOM     45  N   UNL     1       3.486   2.917 -10.038  1.00  0.00    -0.370 N 
ATOM     46  H   UNL     1       2.882   0.714 -10.758  1.00  0.00     0.159 HD
ATOM     47  H   UNL     1       4.139   0.421 -11.886  1.00  0.00     0.159 HD
ATOM     48  H   UNL     1       3.736   3.880  -9.860  1.00  0.00     0.159 HD
ATOM     49  H   UNL     1       2.979   2.412  -9.333  1.00  0.00     0.159 HD
ENDBRANCH  41  42
ENDBRANCH  40  41
ENDBRANCH  39  40
ENDBRANCH  38  39
ENDBRANCH  36  38
ENDBRANCH   5  34
BRANCH   8  50
ATOM     50  O   UNL     1       6.786  -2.454 -15.883  1.00  0.00    -0.245 OA
BRANCH  50  51
ATOM     51  S   UNL     1       7.165  -1.872 -17.354  1.00  0.00     0.397 S 
ATOM     52  O   UNL     1       5.933  -1.634 -18.071  1.00  0.00    -0.169 OA
ATOM     53  O   UNL     1       8.237  -2.660 -17.926  1.00  0.00    -0.169 OA
BRANCH  51  54
ATOM     54  O   UNL     1       7.753  -0.418 -16.998  1.00  0.00    -0.264 OA
ATOM     55  H   UNL     1       6.995   0.182 -16.847  1.00  0.00     0.236 HD
ENDBRANCH  51  54
ENDBRANCH  50  51
ENDBRANCH   8  50
TORSDOF 19
ENDMDL
MODEL 50
REMARK VINA RESULT:    -5.460      3.516      4.950
REMARK INTER + INTRA:         -14.824
REMARK INTER:                 -11.526
REMARK INTRA:                  -3.298
REMARK UNBOUND:                -3.778
REMARK SMILES CC[C@@H](C)[C@@H](NC(=O)[C@@H](O)Cc1ccc(O)c(Cl)c1)C(=O)N1[C@H](C(=O)NCCCCN=C(N)N)C[C@H]2CC[C@H](OS(=O)(=O)O)C[C@@H]21
REMARK SMILES IDX 22 1 36 2 46 3 35 4 23 5 45 6 37 7 39 8 38 9 20 10 21 11
REMARK SMILES IDX 5 12 6 13 7 14 8 15 9 17 11 18 12 19 17 20 19 21 15 22 14 23
REMARK SMILES IDX 13 24 18 25 16 26 10 28 3 30 4 31 2 32 1 33 24 34 25 35
REMARK SMILES IDX 26 36 27 38 28 39 29 40 30 41 31 42 32 43 33 44 34 45 40 50
REMARK SMILES IDX 41 51 42 52 43 53 44 54
REMARK H PARENT 6 16 16 27 10 29 26 37 33 46 33 47 34 48 34 49 44 55
ROOT
ATOM      1  N   UNL     1       8.993  -2.015 -16.126  1.00  0.00    -0.326 N 
ATOM      2  C   UNL     1       9.824  -2.636 -18.239  1.00  0.00     0.014 C 
ATOM      3  C   UNL     1      10.261  -2.216 -16.833  1.00  0.00     0.091 C 
ATOM      4  C   UNL     1       8.552  -1.829 -18.449  1.00  0.00     0.041 C 
ATOM      5  C   UNL     1       7.864  -2.046 -17.089  1.00  0.00     0.175 C 
ATOM      6  C   UNL     1      11.232  -3.266 -16.295  1.00  0.00     0.059 C 
ATOM      7  C   UNL     1      10.966  -2.494 -19.226  1.00  0.00     0.008 C 
ATOM      8  C   UNL     1      12.090  -3.937 -17.389  1.00  0.00     0.143 C 
ATOM      9  C   UNL     1      12.281  -3.024 -18.617  1.00  0.00     0.034 C 
ENDROOT
BRANCH   1  10
ATOM     10  C   UNL     1       8.757  -1.611 -14.823  1.00  0.00     0.246 C 
ATOM     11  O   UNL     1       8.209  -2.394 -14.040  1.00  0.00    -0.272 OA
BRANCH  10  12
ATOM     12  C   UNL     1       9.225  -0.200 -14.361  1.00  0.00     0.174 C 
BRANCH  12  13
ATOM     13  N   UNL     1       8.593   0.829 -15.185  1.00  0.00    -0.342 N 
ATOM     14  C   UNL     1       7.460   1.531 -14.841  1.00  0.00     0.249 C 
ATOM     15  O   UNL     1       6.864   1.387 -13.780  1.00  0.00    -0.272 OA
ATOM     16  H   UNL     1       8.881   0.947 -16.153  1.00  0.00     0.164 HD
BRANCH  14  17
ATOM     17  C   UNL     1       7.029   2.538 -15.929  1.00  0.00     0.207 C 
BRANCH  17  18
ATOM     18  C   UNL     1       6.247   3.698 -15.306  1.00  0.00     0.077 C 
BRANCH  18  19
ATOM     19  C   UNL     1       4.798   3.696 -15.738  1.00  0.00    -0.043 A 
ATOM     20  C   UNL     1       2.530   2.873 -15.485  1.00  0.00     0.083 A 
ATOM     21  C   UNL     1       3.856   2.911 -15.053  1.00  0.00     0.028 A 
ATOM     22  C   UNL     1       2.137   3.614 -16.600  1.00  0.00     0.134 A 
ATOM     23  C   UNL     1       3.059   4.394 -17.287  1.00  0.00     0.048 A 
ATOM     24  C   UNL     1       4.388   4.434 -16.859  1.00  0.00     0.008 A 
ATOM     25  Cl  UNL     1       1.388   1.903 -14.631  1.00  0.00    -0.080 Cl
BRANCH  22  26
ATOM     26  O   UNL     1       0.850   3.599 -17.067  1.00  0.00    -0.506 OA
ATOM     27  H   UNL     1       0.835   2.990 -17.828  1.00  0.00     0.293 HD
ENDBRANCH  22  26
ENDBRANCH  18  19
ENDBRANCH  17  18
BRANCH  17  28
ATOM     28  O   UNL     1       6.220   1.901 -16.931  1.00  0.00    -0.383 OA
ATOM     29  H   UNL     1       6.842   1.399 -17.505  1.00  0.00     0.211 HD
ENDBRANCH  17  28
ENDBRANCH  14  17
ENDBRANCH  12  13
BRANCH  12  30
ATOM     30  C   UNL     1      10.771  -0.063 -14.324  1.00  0.00     0.018 C 
ATOM     31  C   UNL     1      11.278   0.021 -12.876  1.00  0.00     0.010 C 
BRANCH  30  32
ATOM     32  C   UNL     1      11.309   1.134 -15.146  1.00  0.00     0.002 C 
ATOM     33  C   UNL     1      12.540   1.820 -14.569  1.00  0.00     0.004 C 
ENDBRANCH  30  32
ENDBRANCH  12  30
ENDBRANCH  10  12
ENDBRANCH   1  10
BRANCH   5  34
ATOM     34  C   UNL     1       7.128  -3.410 -17.030  1.00  0.00     0.242 C 
ATOM     35  O   UNL     1       7.011  -4.138 -18.017  1.00  0.00    -0.273 OA
ATOM     36  N   UNL     1       6.569  -3.723 -15.811  1.00  0.00    -0.354 N 
ATOM     37  H   UNL     1       6.596  -3.026 -15.065  1.00  0.00     0.163 HD
BRANCH  36  38
ATOM     38  C   UNL     1       6.038  -5.038 -15.518  1.00  0.00     0.116 C 
BRANCH  38  39
ATOM     39  C   UNL     1       5.148  -4.973 -14.279  1.00  0.00     0.023 C 
BRANCH  39  40
ATOM     40  C   UNL     1       3.708  -4.599 -14.615  1.00  0.00     0.026 C 
BRANCH  40  41
ATOM     41  C   UNL     1       3.353  -3.232 -14.032  1.00  0.00     0.146 C 
BRANCH  41  42
ATOM     42  N   UNL     1       3.685  -2.186 -14.991  1.00  0.00    -0.254 NA
ATOM     43  C   UNL     1       4.594  -1.331 -14.707  1.00  0.00     0.185 C 
ATOM     44  N   UNL     1       5.357  -1.213 -13.604  1.00  0.00    -0.370 N 
ATOM     45  N   UNL     1       4.882  -0.373 -15.603  1.00  0.00    -0.370 N 
ATOM     46  H   UNL     1       5.852  -0.359 -13.413  1.00  0.00     0.159 HD
ATOM     47  H   UNL     1       5.279  -1.865 -12.830  1.00  0.00     0.159 HD
ATOM     48  H   UNL     1       4.358  -0.395 -16.467  1.00  0.00     0.159 HD
ATOM     49  H   UNL     1       5.723   0.175 -15.562  1.00  0.00     0.159 HD
ENDBRANCH  41  42
ENDBRANCH  40  41
ENDBRANCH  39  40
ENDBRANCH  38  39
ENDBRANCH  36  38
ENDBRANCH   5  34
BRANCH   8  50
ATOM     50  O   UNL     1      11.475  -5.151 -17.818  1.00  0.00    -0.245 OA
BRANCH  50  51
ATOM     51  S   UNL     1      11.215  -6.344 -16.744  1.00  0.00     0.397 S 
ATOM     52  O   UNL     1      11.998  -6.059 -15.562  1.00  0.00    -0.169 OA
ATOM     53  O   UNL     1      11.290  -7.626 -17.413  1.00  0.00    -0.169 OA
BRANCH  51  54
ATOM     54  O   UNL     1       9.683  -6.092 -16.325  1.00  0.00    -0.264 OA
ATOM     55  H   UNL     1       9.406  -6.831 -15.746  1.00  0.00     0.236 HD
ENDBRANCH  51  54
ENDBRANCH  50  51
ENDBRANCH   8  50
TORSDOF 19
ENDMDL
