MODEL 1
REMARK VINA RESULT:    -5.502      0.000      0.000
REMARK INTER + INTRA:         -11.879
REMARK INTER:                  -9.845
REMARK INTRA:                  -2.034
REMARK UNBOUND:                -2.034
REMARK SMILES CC[C@H](C)[C@H]1NC(=O)c2coc(n2)[C@H](C(C)C)NC(=O)[C@H]([C@@H](C)O)NC(=O)[C@H](C)NC(=O)c2csc1n2
REMARK SMILES IDX 11 1 13 2 12 3 9 4 10 5 7 6 6 7 8 8 5 10 36 11 35 12 34 13
REMARK SMILES IDX 37 14 33 15 31 16 32 17 30 18 28 20 29 21 3 23 4 24 2 25
REMARK SMILES IDX 1 26 14 27 18 28 19 29 20 30 21 32 25 33 26 34 27 35 22 38
REMARK SMILES IDX 23 39 24 40 15 42 16 43 17 44
REMARK H PARENT 6 9 30 19 18 31 25 36 24 41
REMARK Flexibility Score:   94.900
ROOT
ATOM      1  O   UNL     1       5.184  13.811  -6.277  1.00  0.00    -0.446 OA
ATOM      2  N   UNL     1       6.854  12.298  -6.230  1.00  0.00    -0.207 NA
ATOM      3  C   UNL     1       5.551  12.492  -6.320  1.00  0.00     0.217 A 
ATOM      4  C   UNL     1       7.382  13.575  -6.149  1.00  0.00     0.167 A 
ATOM      5  C   UNL     1       6.360  14.491  -6.179  1.00  0.00     0.231 A 
ENDROOT
BRANCH   4   6
ATOM      6  C   UNL     1       8.805  13.838  -6.021  1.00  0.00     0.273 C 
ATOM      7  N   UNL     1       9.318  14.428  -7.149  1.00  0.00    -0.341 N 
ATOM      8  O   UNL     1       9.463  13.542  -5.031  1.00  0.00    -0.267 OA
ATOM      9  H   UNL     1       8.671  14.528  -7.926  1.00  0.00     0.164 HD
BRANCH   7  10
ATOM     10  C   UNL     1      10.740  14.573  -7.390  1.00  0.00     0.145 C 
BRANCH  10  11
ATOM     11  C   UNL     1      11.235  13.278  -8.018  1.00  0.00     0.116 A 
ATOM     12  S   UNL     1      12.926  12.952  -8.083  1.00  0.00    -0.124 S 
ATOM     13  C   UNL     1      12.599  11.445  -8.822  1.00  0.00     0.101 A 
ATOM     14  N   UNL     1      10.457  12.336  -8.526  1.00  0.00    -0.234 NA
ATOM     15  C   UNL     1      11.238  11.268  -8.976  1.00  0.00     0.139 A 
BRANCH  15  16
ATOM     16  C   UNL     1      10.635  10.065  -9.554  1.00  0.00     0.271 C 
ATOM     17  O   UNL     1      10.997   9.588 -10.624  1.00  0.00    -0.267 OA
ATOM     18  N   UNL     1       9.630   9.526  -8.779  1.00  0.00    -0.339 N 
ATOM     19  H   UNL     1       9.348  10.075  -7.971  1.00  0.00     0.164 HD
BRANCH  18  20
ATOM     20  C   UNL     1       8.871   8.366  -9.227  1.00  0.00     0.168 CG0
ATOM     21  C   UNL     1       8.552   7.426  -8.062  1.00  0.00     0.041 C 
ATOM     22  G   UNL     1       7.543   8.748  -9.899  1.00  0.00     0.000 G0
ENDBRANCH  18  20
ENDBRANCH  15  16
ENDBRANCH  10  11
BRANCH  10  23
ATOM     23  C   UNL     1      11.063  15.815  -8.263  1.00  0.00     0.015 C 
ATOM     24  C   UNL     1      12.498  16.334  -8.074  1.00  0.00     0.010 C 
BRANCH  23  25
ATOM     25  C   UNL     1      10.820  15.567  -9.769  1.00  0.00     0.002 C 
ATOM     26  C   UNL     1       9.627  16.324 -10.335  1.00  0.00     0.004 C 
ENDBRANCH  23  25
ENDBRANCH  10  23
ENDBRANCH   7  10
ENDBRANCH   4   6
BRANCH   3  27
ATOM     27  C   UNL     1       4.481  11.438  -6.405  1.00  0.00     0.171 C 
BRANCH  27  28
ATOM     28  N   UNL     1       4.920  10.433  -7.367  1.00  0.00    -0.342 N 
ATOM     29  C   UNL     1       4.487  10.410  -8.674  1.00  0.00     0.245 C 
ATOM     30  O   UNL     1       3.708  11.244  -9.132  1.00  0.00    -0.273 OA
ATOM     31  H   UNL     1       5.652   9.778  -7.092  1.00  0.00     0.164 HD
BRANCH  29  32
ATOM     32  C   UNL     1       5.160   9.351  -9.573  1.00  0.00     0.200 C 
BRANCH  32  33
ATOM     33  N   UNL     1       6.513   9.103  -9.059  1.00  0.00    -0.340 N 
ATOM     34  C   UNL     1       7.544   8.741  -9.902  1.00  0.00     0.243 CG0
ATOM     35  O   UNL     1       7.364   8.549 -11.102  1.00  0.00    -0.273 OA
ATOM     36  H   UNL     1       6.685   9.224  -8.068  1.00  0.00     0.164 HD
ATOM     37  G   UNL     1       8.870   8.379  -9.214  1.00  0.00     0.000 G0
ENDBRANCH  32  33
BRANCH  32  38
ATOM     38  C   UNL     1       4.306   8.066  -9.670  1.00  0.00     0.143 C 
ATOM     39  C   UNL     1       4.367   7.183  -8.428  1.00  0.00     0.041 C 
BRANCH  38  40
ATOM     40  O   UNL     1       2.932   8.406  -9.935  1.00  0.00    -0.391 OA
ATOM     41  H   UNL     1       2.410   8.064  -9.184  1.00  0.00     0.211 HD
ENDBRANCH  38  40
ENDBRANCH  32  38
ENDBRANCH  29  32
ENDBRANCH  27  28
BRANCH  27  42
ATOM     42  C   UNL     1       4.010  10.790  -5.080  1.00  0.00     0.015 C 
ATOM     43  C   UNL     1       3.102  11.662  -4.204  1.00  0.00     0.010 C 
ATOM     44  C   UNL     1       3.367   9.418  -5.310  1.00  0.00     0.010 C 
ENDBRANCH  27  42
ENDBRANCH   3  27
TORSDOF 5
ENDMDL
MODEL 2
REMARK VINA RESULT:    -5.369      6.979      9.695
REMARK INTER + INTRA:         -11.641
REMARK INTER:                  -9.129
REMARK INTRA:                  -2.512
REMARK UNBOUND:                -2.034
REMARK SMILES CC[C@H](C)[C@H]1NC(=O)c2coc(n2)[C@H](C(C)C)NC(=O)[C@H]([C@@H](C)O)NC(=O)[C@H](C)NC(=O)c2csc1n2
REMARK SMILES IDX 11 1 13 2 12 3 9 4 10 5 7 6 6 7 8 8 5 10 36 11 35 12 34 13
REMARK SMILES IDX 37 14 33 15 31 16 32 17 30 18 28 20 29 21 3 23 4 24 2 25
REMARK SMILES IDX 1 26 14 27 18 28 19 29 20 30 21 32 25 33 26 34 27 35 22 38
REMARK SMILES IDX 23 39 24 40 15 42 16 43 17 44
REMARK H PARENT 6 9 30 19 18 31 25 36 24 41
REMARK Flexibility Score:   94.900
ROOT
ATOM      1  O   UNL     1       3.525   9.285   3.132  1.00  0.00    -0.446 OA
ATOM      2  N   UNL     1       3.558  10.984   1.652  1.00  0.00    -0.207 NA
ATOM      3  C   UNL     1       2.812  10.214   2.423  1.00  0.00     0.217 A 
ATOM      4  C   UNL     1       4.851  10.552   1.890  1.00  0.00     0.167 A 
ATOM      5  C   UNL     1       4.824   9.517   2.793  1.00  0.00     0.231 A 
ENDROOT
BRANCH   4   6
ATOM      6  C   UNL     1       6.013  11.122   1.230  1.00  0.00     0.273 C 
ATOM      7  N   UNL     1       5.744  12.361   0.705  1.00  0.00    -0.341 N 
ATOM      8  O   UNL     1       7.090  10.546   1.138  1.00  0.00    -0.267 OA
ATOM      9  H   UNL     1       4.779  12.670   0.779  1.00  0.00     0.164 HD
BRANCH   7  10
ATOM     10  C   UNL     1       6.637  13.043  -0.210  1.00  0.00     0.145 C 
BRANCH  10  11
ATOM     11  C   UNL     1       6.005  12.992  -1.594  1.00  0.00     0.116 A 
ATOM     12  S   UNL     1       6.980  12.618  -2.965  1.00  0.00    -0.124 S 
ATOM     13  C   UNL     1       5.599  12.726  -3.967  1.00  0.00     0.101 A 
ATOM     14  N   UNL     1       4.725  13.202  -1.851  1.00  0.00    -0.234 NA
ATOM     15  C   UNL     1       4.481  13.033  -3.216  1.00  0.00     0.139 A 
BRANCH  15  16
ATOM     16  C   UNL     1       3.136  13.168  -3.781  1.00  0.00     0.271 C 
ATOM     17  O   UNL     1       2.794  14.128  -4.462  1.00  0.00    -0.267 OA
ATOM     18  N   UNL     1       2.301  12.115  -3.472  1.00  0.00    -0.339 N 
ATOM     19  H   UNL     1       2.667  11.437  -2.809  1.00  0.00     0.164 HD
BRANCH  18  20
ATOM     20  C   UNL     1       0.906  12.110  -3.891  1.00  0.00     0.168 CG0
ATOM     21  C   UNL     1       0.694  11.209  -5.109  1.00  0.00     0.041 C 
ATOM     22  G   UNL     1      -0.046  11.633  -2.782  1.00  0.00     0.000 G0
ENDBRANCH  18  20
ENDBRANCH  15  16
ENDBRANCH  10  11
BRANCH  10  23
ATOM     23  C   UNL     1       6.945  14.494   0.245  1.00  0.00     0.015 C 
ATOM     24  C   UNL     1       6.607  14.753   1.723  1.00  0.00     0.010 C 
BRANCH  23  25
ATOM     25  C   UNL     1       8.416  14.899  -0.004  1.00  0.00     0.002 C 
ATOM     26  C   UNL     1       9.429  13.846   0.423  1.00  0.00     0.004 C 
ENDBRANCH  23  25
ENDBRANCH  10  23
ENDBRANCH   7  10
ENDBRANCH   4   6
BRANCH   3  27
ATOM     27  C   UNL     1       1.312  10.230   2.542  1.00  0.00     0.171 C 
BRANCH  27  28
ATOM     28  N   UNL     1       0.758   9.820   1.256  1.00  0.00    -0.342 N 
ATOM     29  C   UNL     1      -0.031  10.644   0.485  1.00  0.00     0.245 C 
ATOM     30  O   UNL     1      -0.314  11.794   0.816  1.00  0.00    -0.273 OA
ATOM     31  H   UNL     1       1.042   8.923   0.864  1.00  0.00     0.164 HD
BRANCH  29  32
ATOM     32  C   UNL     1      -0.417  10.082  -0.899  1.00  0.00     0.200 C 
BRANCH  32  33
ATOM     33  N   UNL     1       0.444  10.711  -1.908  1.00  0.00    -0.340 N 
ATOM     34  C   UNL     1      -0.061  11.627  -2.809  1.00  0.00     0.243 CG0
ATOM     35  O   UNL     1      -1.257  11.907  -2.849  1.00  0.00    -0.273 OA
ATOM     36  H   UNL     1       1.430  10.477  -1.919  1.00  0.00     0.164 HD
ATOM     37  G   UNL     1       0.918  12.102  -3.895  1.00  0.00     0.000 G0
ENDBRANCH  32  33
BRANCH  32  38
ATOM     38  C   UNL     1      -0.342   8.537  -0.923  1.00  0.00     0.143 C 
ATOM     39  C   UNL     1      -1.080   7.896  -2.093  1.00  0.00     0.041 C 
BRANCH  38  40
ATOM     40  O   UNL     1       1.034   8.110  -0.947  1.00  0.00    -0.391 OA
ATOM     41  H   UNL     1       1.026   7.154  -1.144  1.00  0.00     0.211 HD
ENDBRANCH  38  40
ENDBRANCH  32  38
ENDBRANCH  29  32
ENDBRANCH  27  28
BRANCH  27  42
ATOM     42  C   UNL     1       0.681   9.439   3.714  1.00  0.00     0.015 C 
ATOM     43  C   UNL     1      -0.017  10.287   4.784  1.00  0.00     0.010 C 
ATOM     44  C   UNL     1      -0.256   8.333   3.218  1.00  0.00     0.010 C 
ENDBRANCH  27  42
ENDBRANCH   3  27
TORSDOF 5
ENDMDL
MODEL 3
REMARK VINA RESULT:    -5.360     10.573     14.030
REMARK INTER + INTRA:         -11.624
REMARK INTER:                  -9.329
REMARK INTRA:                  -2.295
REMARK UNBOUND:                -2.034
REMARK SMILES CC[C@H](C)[C@H]1NC(=O)c2coc(n2)[C@H](C(C)C)NC(=O)[C@H]([C@@H](C)O)NC(=O)[C@H](C)NC(=O)c2csc1n2
REMARK SMILES IDX 11 1 13 2 12 3 9 4 10 5 7 6 6 7 8 8 5 10 36 11 35 12 34 13
REMARK SMILES IDX 37 14 33 15 31 16 32 17 30 18 28 20 29 21 3 23 4 24 2 25
REMARK SMILES IDX 1 26 14 27 18 28 19 29 20 30 21 32 25 33 26 34 27 35 22 38
REMARK SMILES IDX 23 39 24 40 15 42 16 43 17 44
REMARK H PARENT 6 9 30 19 18 31 25 36 24 41
REMARK Flexibility Score:   94.900
ROOT
ATOM      1  O   UNL     1       2.063  11.433  -0.930  1.00  0.00    -0.446 OA
ATOM      2  N   UNL     1       2.429  10.087   0.841  1.00  0.00    -0.207 NA
ATOM      3  C   UNL     1       1.572  10.471  -0.088  1.00  0.00     0.217 A 
ATOM      4  C   UNL     1       3.569  10.826   0.577  1.00  0.00     0.167 A 
ATOM      5  C   UNL     1       3.339  11.644  -0.503  1.00  0.00     0.231 A 
ENDROOT
BRANCH   4   6
ATOM      6  C   UNL     1       4.779  10.732   1.375  1.00  0.00     0.273 C 
ATOM      7  N   UNL     1       4.724   9.687   2.262  1.00  0.00    -0.341 N 
ATOM      8  O   UNL     1       5.718  11.512   1.277  1.00  0.00    -0.267 OA
ATOM      9  H   UNL     1       3.843   9.182   2.295  1.00  0.00     0.164 HD
BRANCH   7  10
ATOM     10  C   UNL     1       5.677   9.512   3.340  1.00  0.00     0.145 C 
BRANCH  10  11
ATOM     11  C   UNL     1       5.071  10.123   4.595  1.00  0.00     0.116 A 
ATOM     12  S   UNL     1       6.089  10.913   5.739  1.00  0.00    -0.124 S 
ATOM     13  C   UNL     1       4.719  11.287   6.690  1.00  0.00     0.101 A 
ATOM     14  N   UNL     1       3.782  10.116   4.895  1.00  0.00    -0.234 NA
ATOM     15  C   UNL     1       3.570  10.801   6.094  1.00  0.00     0.139 A 
BRANCH  15  16
ATOM     16  C   UNL     1       2.228  10.983   6.649  1.00  0.00     0.271 C 
ATOM     17  O   UNL     1       1.976  10.843   7.841  1.00  0.00    -0.267 OA
ATOM     18  N   UNL     1       1.283  11.327   5.705  1.00  0.00    -0.339 N 
ATOM     19  H   UNL     1       1.593  11.303   4.737  1.00  0.00     0.164 HD
BRANCH  18  20
ATOM     20  C   UNL     1      -0.120  11.483   6.064  1.00  0.00     0.168 CG0
ATOM     21  C   UNL     1      -0.487  12.957   6.247  1.00  0.00     0.041 C 
ATOM     22  G   UNL     1      -1.071  10.888   5.013  1.00  0.00     0.000 G0
ENDBRANCH  18  20
ENDBRANCH  15  16
ENDBRANCH  10  11
BRANCH  10  23
ATOM     23  C   UNL     1       6.073   8.025   3.538  1.00  0.00     0.015 C 
ATOM     24  C   UNL     1       7.555   7.831   3.900  1.00  0.00     0.010 C 
BRANCH  23  25
ATOM     25  C   UNL     1       5.206   7.312   4.601  1.00  0.00     0.002 C 
ATOM     26  C   UNL     1       5.623   5.873   4.874  1.00  0.00     0.004 C 
ENDBRANCH  23  25
ENDBRANCH  10  23
ENDBRANCH   7  10
ENDBRANCH   4   6
BRANCH   3  27
ATOM     27  C   UNL     1       0.152  10.005  -0.260  1.00  0.00     0.171 C 
BRANCH  27  28
ATOM     28  N   UNL     1      -0.681  10.759   0.671  1.00  0.00    -0.342 N 
ATOM     29  C   UNL     1      -1.253  10.194   1.788  1.00  0.00     0.245 C 
ATOM     30  O   UNL     1      -1.092   9.013   2.094  1.00  0.00    -0.273 OA
ATOM     31  H   UNL     1      -0.766  11.767   0.546  1.00  0.00     0.164 HD
BRANCH  29  32
ATOM     32  C   UNL     1      -1.992  11.177   2.720  1.00  0.00     0.200 C 
BRANCH  32  33
ATOM     33  N   UNL     1      -1.076  11.568   3.798  1.00  0.00    -0.340 N 
ATOM     34  C   UNL     1      -1.052  10.888   4.999  1.00  0.00     0.243 CG0
ATOM     35  O   UNL     1      -1.835   9.973   5.243  1.00  0.00    -0.273 OA
ATOM     36  H   UNL     1      -0.439  12.339   3.638  1.00  0.00     0.164 HD
ATOM     37  G   UNL     1      -0.145  11.487   6.086  1.00  0.00     0.000 G0
ENDBRANCH  32  33
BRANCH  32  38
ATOM     38  C   UNL     1      -2.551  12.387   1.936  1.00  0.00     0.143 C 
ATOM     39  C   UNL     1      -3.756  13.051   2.592  1.00  0.00     0.041 C 
BRANCH  38  40
ATOM     40  O   UNL     1      -1.518  13.374   1.751  1.00  0.00    -0.391 OA
ATOM     41  H   UNL     1      -0.839  12.965   1.181  1.00  0.00     0.211 HD
ENDBRANCH  38  40
ENDBRANCH  32  38
ENDBRANCH  29  32
ENDBRANCH  27  28
BRANCH  27  42
ATOM     42  C   UNL     1      -0.436  10.021  -1.692  1.00  0.00     0.015 C 
ATOM     43  C   UNL     1      -1.241   8.779  -2.090  1.00  0.00     0.010 C 
ATOM     44  C   UNL     1      -1.249  11.291  -1.963  1.00  0.00     0.010 C 
ENDBRANCH  27  42
ENDBRANCH   3  27
TORSDOF 5
ENDMDL
MODEL 4
REMARK VINA RESULT:    -5.185      7.956     11.072
REMARK INTER + INTRA:         -11.312
REMARK INTER:                  -9.157
REMARK INTRA:                  -2.155
REMARK UNBOUND:                -2.034
REMARK SMILES CC[C@H](C)[C@H]1NC(=O)c2coc(n2)[C@H](C(C)C)NC(=O)[C@H]([C@@H](C)O)NC(=O)[C@H](C)NC(=O)c2csc1n2
REMARK SMILES IDX 11 1 13 2 12 3 9 4 10 5 7 6 6 7 8 8 5 10 36 11 35 12 34 13
REMARK SMILES IDX 37 14 33 15 31 16 32 17 30 18 28 20 29 21 3 23 4 24 2 25
REMARK SMILES IDX 1 26 14 27 18 28 19 29 20 30 21 32 25 33 26 34 27 35 22 38
REMARK SMILES IDX 23 39 24 40 15 42 16 43 17 44
REMARK H PARENT 6 9 30 19 18 31 25 36 24 41
REMARK Flexibility Score:   94.900
ROOT
ATOM      1  O   UNL     1       3.289   9.466   3.628  1.00  0.00    -0.446 OA
ATOM      2  N   UNL     1       3.523  11.436   2.558  1.00  0.00    -0.207 NA
ATOM      3  C   UNL     1       2.795  10.723   3.399  1.00  0.00     0.217 A 
ATOM      4  C   UNL     1       4.579  10.603   2.233  1.00  0.00     0.167 A 
ATOM      5  C   UNL     1       4.431   9.405   2.888  1.00  0.00     0.231 A 
ENDROOT
BRANCH   4   6
ATOM      6  C   UNL     1       5.634  10.982   1.308  1.00  0.00     0.273 C 
ATOM      7  N   UNL     1       5.378  12.191   0.712  1.00  0.00    -0.341 N 
ATOM      8  O   UNL     1       6.615  10.287   1.078  1.00  0.00    -0.267 OA
ATOM      9  H   UNL     1       4.479  12.610   0.932  1.00  0.00     0.164 HD
BRANCH   7  10
ATOM     10  C   UNL     1       6.130  12.689  -0.423  1.00  0.00     0.145 C 
BRANCH  10  11
ATOM     11  C   UNL     1       5.179  12.760  -1.609  1.00  0.00     0.116 A 
ATOM     12  S   UNL     1       5.799  13.088  -3.183  1.00  0.00    -0.124 S 
ATOM     13  C   UNL     1       4.220  12.954  -3.825  1.00  0.00     0.101 A 
ATOM     14  N   UNL     1       3.871  12.574  -1.544  1.00  0.00    -0.234 NA
ATOM     15  C   UNL     1       3.314  12.667  -2.822  1.00  0.00     0.139 A 
BRANCH  15  16
ATOM     16  C   UNL     1       1.882  12.465  -3.055  1.00  0.00     0.271 C 
ATOM     17  O   UNL     1       1.333  12.752  -4.113  1.00  0.00    -0.267 OA
ATOM     18  N   UNL     1       1.220  11.923  -1.974  1.00  0.00    -0.339 N 
ATOM     19  H   UNL     1       1.763  11.834  -1.119  1.00  0.00     0.164 HD
BRANCH  18  20
ATOM     20  C   UNL     1      -0.221  11.714  -1.999  1.00  0.00     0.168 CG0
ATOM     21  C   UNL     1      -0.568  10.267  -2.357  1.00  0.00     0.041 C 
ATOM     22  G   UNL     1      -0.892  12.039  -0.654  1.00  0.00     0.000 G0
ENDBRANCH  18  20
ENDBRANCH  15  16
ENDBRANCH  10  11
BRANCH  10  23
ATOM     23  C   UNL     1       6.808  14.052  -0.126  1.00  0.00     0.015 C 
ATOM     24  C   UNL     1       6.482  14.601   1.273  1.00  0.00     0.010 C 
BRANCH  23  25
ATOM     25  C   UNL     1       8.343  14.006  -0.293  1.00  0.00     0.002 C 
ATOM     26  C   UNL     1       8.905  15.130  -1.153  1.00  0.00     0.004 C 
ENDBRANCH  23  25
ENDBRANCH  10  23
ENDBRANCH   7  10
ENDBRANCH   4   6
BRANCH   3  27
ATOM     27  C   UNL     1       1.504  11.132   4.053  1.00  0.00     0.171 C 
BRANCH  27  28
ATOM     28  N   UNL     1       0.413  10.754   3.162  1.00  0.00    -0.342 N 
ATOM     29  C   UNL     1      -0.454  11.672   2.611  1.00  0.00     0.245 C 
ATOM     30  O   UNL     1      -0.362  12.881   2.818  1.00  0.00    -0.273 OA
ATOM     31  H   UNL     1       0.345   9.785   2.854  1.00  0.00     0.164 HD
BRANCH  29  32
ATOM     32  C   UNL     1      -1.461  11.099   1.592  1.00  0.00     0.200 C 
BRANCH  32  33
ATOM     33  N   UNL     1      -0.793  10.998   0.289  1.00  0.00    -0.340 N 
ATOM     34  C   UNL     1      -0.869  12.018  -0.635  1.00  0.00     0.243 CG0
ATOM     35  O   UNL     1      -1.547  13.024  -0.438  1.00  0.00    -0.273 OA
ATOM     36  H   UNL     1      -0.251  10.166   0.086  1.00  0.00     0.164 HD
ATOM     37  G   UNL     1      -0.239  11.724  -2.007  1.00  0.00     0.000 G0
ENDBRANCH  32  33
BRANCH  32  38
ATOM     38  C   UNL     1      -2.049   9.752   2.075  1.00  0.00     0.143 C 
ATOM     39  C   UNL     1      -1.269   8.529   1.605  1.00  0.00     0.041 C 
BRANCH  38  40
ATOM     40  O   UNL     1      -2.123   9.734   3.514  1.00  0.00    -0.391 OA
ATOM     41  H   UNL     1      -1.828   8.847   3.797  1.00  0.00     0.211 HD
ENDBRANCH  38  40
ENDBRANCH  32  38
ENDBRANCH  29  32
ENDBRANCH  27  28
BRANCH  27  42
ATOM     42  C   UNL     1       1.252  10.644   5.501  1.00  0.00     0.015 C 
ATOM     43  C   UNL     1       2.313  11.051   6.530  1.00  0.00     0.010 C 
ATOM     44  C   UNL     1      -0.145  11.027   5.999  1.00  0.00     0.010 C 
ENDBRANCH  27  42
ENDBRANCH   3  27
TORSDOF 5
ENDMDL
MODEL 5
REMARK VINA RESULT:    -5.111      5.829      9.241
REMARK INTER + INTRA:         -11.179
REMARK INTER:                  -8.956
REMARK INTRA:                  -2.223
REMARK UNBOUND:                -2.034
REMARK SMILES CC[C@H](C)[C@H]1NC(=O)c2coc(n2)[C@H](C(C)C)NC(=O)[C@H]([C@@H](C)O)NC(=O)[C@H](C)NC(=O)c2csc1n2
REMARK SMILES IDX 11 1 13 2 12 3 9 4 10 5 7 6 6 7 8 8 5 10 36 11 35 12 34 13
REMARK SMILES IDX 37 14 33 15 31 16 32 17 30 18 28 20 29 21 3 23 4 24 2 25
REMARK SMILES IDX 1 26 14 27 18 28 19 29 20 30 21 32 25 33 26 34 27 35 22 38
REMARK SMILES IDX 23 39 24 40 15 42 16 43 17 44
REMARK H PARENT 6 9 30 19 18 31 25 36 24 41
REMARK Flexibility Score:   94.900
ROOT
ATOM      1  O   UNL     1      -0.747  10.739  -3.016  1.00  0.00    -0.446 OA
ATOM      2  N   UNL     1       1.067  12.067  -2.849  1.00  0.00    -0.207 NA
ATOM      3  C   UNL     1       0.105  11.435  -2.200  1.00  0.00     0.217 A 
ATOM      4  C   UNL     1       0.849  11.743  -4.177  1.00  0.00     0.167 A 
ATOM      5  C   UNL     1      -0.257  10.934  -4.272  1.00  0.00     0.231 A 
ENDROOT
BRANCH   4   6
ATOM      6  C   UNL     1       1.678  12.242  -5.261  1.00  0.00     0.273 C 
ATOM      7  N   UNL     1       2.840  11.523  -5.386  1.00  0.00    -0.341 N 
ATOM      8  O   UNL     1       1.377  13.204  -5.957  1.00  0.00    -0.267 OA
ATOM      9  H   UNL     1       2.996  10.811  -4.678  1.00  0.00     0.164 HD
BRANCH   7  10
ATOM     10  C   UNL     1       3.951  11.951  -6.214  1.00  0.00     0.145 C 
BRANCH  10  11
ATOM     11  C   UNL     1       4.947  12.666  -5.313  1.00  0.00     0.116 A 
ATOM     12  S   UNL     1       5.937  13.921  -5.959  1.00  0.00    -0.124 S 
ATOM     13  C   UNL     1       6.633  14.157  -4.416  1.00  0.00     0.101 A 
ATOM     14  N   UNL     1       5.122  12.415  -4.026  1.00  0.00    -0.234 NA
ATOM     15  C   UNL     1       6.081  13.283  -3.498  1.00  0.00     0.139 A 
BRANCH  15  16
ATOM     16  C   UNL     1       6.449  13.254  -2.081  1.00  0.00     0.271 C 
ATOM     17  O   UNL     1       7.521  13.677  -1.664  1.00  0.00    -0.267 OA
ATOM     18  N   UNL     1       5.475  12.711  -1.270  1.00  0.00    -0.339 N 
ATOM     19  H   UNL     1       4.679  12.296  -1.748  1.00  0.00     0.164 HD
BRANCH  18  20
ATOM     20  C   UNL     1       5.693  12.539   0.160  1.00  0.00     0.168 CG0
ATOM     21  C   UNL     1       5.105  13.706   0.956  1.00  0.00     0.041 C 
ATOM     22  G   UNL     1       5.075  11.241   0.703  1.00  0.00     0.000 G0
ENDBRANCH  18  20
ENDBRANCH  15  16
ENDBRANCH  10  11
BRANCH  10  23
ATOM     23  C   UNL     1       4.594  10.770  -6.987  1.00  0.00     0.015 C 
ATOM     24  C   UNL     1       3.931   9.415  -6.691  1.00  0.00     0.010 C 
BRANCH  23  25
ATOM     25  C   UNL     1       4.605  10.993  -8.517  1.00  0.00     0.002 C 
ATOM     26  C   UNL     1       3.372  10.453  -9.229  1.00  0.00     0.004 C 
ENDBRANCH  23  25
ENDBRANCH  10  23
ENDBRANCH   7  10
ENDBRANCH   4   6
BRANCH   3  27
ATOM     27  C   UNL     1      -0.156  11.457  -0.719  1.00  0.00     0.171 C 
BRANCH  27  28
ATOM     28  N   UNL     1       1.119  11.255  -0.038  1.00  0.00    -0.342 N 
ATOM     29  C   UNL     1       1.513  10.034   0.461  1.00  0.00     0.245 C 
ATOM     30  O   UNL     1       0.827   9.019   0.357  1.00  0.00    -0.273 OA
ATOM     31  H   UNL     1       1.789  12.023  -0.015  1.00  0.00     0.164 HD
BRANCH  29  32
ATOM     32  C   UNL     1       2.946   9.987   1.032  1.00  0.00     0.200 C 
BRANCH  32  33
ATOM     33  N   UNL     1       3.702  11.115   0.473  1.00  0.00    -0.340 N 
ATOM     34  C   UNL     1       5.057  11.250   0.698  1.00  0.00     0.243 CG0
ATOM     35  O   UNL     1       5.675  10.475   1.424  1.00  0.00    -0.273 OA
ATOM     36  H   UNL     1       3.213  11.788  -0.105  1.00  0.00     0.164 HD
ATOM     37  G   UNL     1       5.693  12.547   0.171  1.00  0.00     0.000 G0
ENDBRANCH  32  33
BRANCH  32  38
ATOM     38  C   UNL     1       2.939   9.974   2.578  1.00  0.00     0.143 C 
ATOM     39  C   UNL     1       2.318  11.215   3.209  1.00  0.00     0.041 C 
BRANCH  38  40
ATOM     40  O   UNL     1       2.241   8.808   3.058  1.00  0.00    -0.391 OA
ATOM     41  H   UNL     1       1.663   9.108   3.784  1.00  0.00     0.211 HD
ENDBRANCH  38  40
ENDBRANCH  32  38
ENDBRANCH  29  32
ENDBRANCH  27  28
BRANCH  27  42
ATOM     42  C   UNL     1      -0.920  12.677  -0.148  1.00  0.00     0.015 C 
ATOM     43  C   UNL     1      -2.394  12.784  -0.555  1.00  0.00     0.010 C 
ATOM     44  C   UNL     1      -0.781  12.778   1.375  1.00  0.00     0.010 C 
ENDBRANCH  27  42
ENDBRANCH   3  27
TORSDOF 5
ENDMDL
MODEL 6
REMARK VINA RESULT:    -5.083      4.432      8.369
REMARK INTER + INTRA:         -11.128
REMARK INTER:                  -9.055
REMARK INTRA:                  -2.074
REMARK UNBOUND:                -2.034
REMARK SMILES CC[C@H](C)[C@H]1NC(=O)c2coc(n2)[C@H](C(C)C)NC(=O)[C@H]([C@@H](C)O)NC(=O)[C@H](C)NC(=O)c2csc1n2
REMARK SMILES IDX 11 1 13 2 12 3 9 4 10 5 7 6 6 7 8 8 5 10 36 11 35 12 34 13
REMARK SMILES IDX 37 14 33 15 31 16 32 17 30 18 28 20 29 21 3 23 4 24 2 25
REMARK SMILES IDX 1 26 14 27 18 28 19 29 20 30 21 32 25 33 26 34 27 35 22 38
REMARK SMILES IDX 23 39 24 40 15 42 16 43 17 44
REMARK H PARENT 6 9 30 19 18 31 25 36 24 41
REMARK Flexibility Score:   94.900
ROOT
ATOM      1  O   UNL     1       1.592   9.933  -2.079  1.00  0.00    -0.446 OA
ATOM      2  N   UNL     1       2.883  11.225  -3.400  1.00  0.00    -0.207 NA
ATOM      3  C   UNL     1       2.378  11.049  -2.192  1.00  0.00     0.217 A 
ATOM      4  C   UNL     1       2.420  10.140  -4.123  1.00  0.00     0.167 A 
ATOM      5  C   UNL     1       1.635   9.357  -3.313  1.00  0.00     0.231 A 
ENDROOT
BRANCH   4   6
ATOM      6  C   UNL     1       2.726   9.934  -5.528  1.00  0.00     0.273 C 
ATOM      7  N   UNL     1       3.786   9.080  -5.700  1.00  0.00    -0.341 N 
ATOM      8  O   UNL     1       2.119  10.482  -6.441  1.00  0.00    -0.267 OA
ATOM      9  H   UNL     1       4.249   8.776  -4.848  1.00  0.00     0.164 HD
BRANCH   7  10
ATOM     10  C   UNL     1       4.455   8.894  -6.972  1.00  0.00     0.145 C 
BRANCH  10  11
ATOM     11  C   UNL     1       5.546   9.950  -7.077  1.00  0.00     0.116 A 
ATOM     12  S   UNL     1       6.207  10.346  -8.619  1.00  0.00    -0.124 S 
ATOM     13  C   UNL     1       7.212  11.513  -7.880  1.00  0.00     0.101 A 
ATOM     14  N   UNL     1       6.045  10.629  -6.058  1.00  0.00    -0.234 NA
ATOM     15  C   UNL     1       6.995  11.545  -6.516  1.00  0.00     0.139 A 
BRANCH  15  16
ATOM     16  C   UNL     1       7.684  12.461  -5.604  1.00  0.00     0.271 C 
ATOM     17  O   UNL     1       8.602  13.190  -5.963  1.00  0.00    -0.267 OA
ATOM     18  N   UNL     1       7.201  12.420  -4.314  1.00  0.00    -0.339 N 
ATOM     19  H   UNL     1       6.515  11.696  -4.119  1.00  0.00     0.164 HD
BRANCH  18  20
ATOM     20  C   UNL     1       7.810  13.214  -3.255  1.00  0.00     0.168 CG0
ATOM     21  C   UNL     1       7.330  14.666  -3.301  1.00  0.00     0.041 C 
ATOM     22  G   UNL     1       7.507  12.663  -1.852  1.00  0.00     0.000 G0
ENDBRANCH  18  20
ENDBRANCH  15  16
ENDBRANCH  10  11
BRANCH  10  23
ATOM     23  C   UNL     1       5.008   7.454  -7.139  1.00  0.00     0.015 C 
ATOM     24  C   UNL     1       5.137   6.694  -5.808  1.00  0.00     0.010 C 
BRANCH  23  25
ATOM     25  C   UNL     1       4.169   6.601  -8.116  1.00  0.00     0.002 C 
ATOM     26  C   UNL     1       4.138   7.141  -9.540  1.00  0.00     0.004 C 
ENDBRANCH  23  25
ENDBRANCH  10  23
ENDBRANCH   7  10
ENDBRANCH   4   6
BRANCH   3  27
ATOM     27  C   UNL     1       2.539  11.953  -1.001  1.00  0.00     0.171 C 
BRANCH  27  28
ATOM     28  N   UNL     1       3.945  12.335  -0.917  1.00  0.00    -0.342 N 
ATOM     29  C   UNL     1       4.570  12.626   0.275  1.00  0.00     0.245 C 
ATOM     30  O   UNL     1       3.994  12.570   1.360  1.00  0.00    -0.273 OA
ATOM     31  H   UNL     1       4.516  12.291  -1.760  1.00  0.00     0.164 HD
BRANCH  29  32
ATOM     32  C   UNL     1       6.089  12.882   0.177  1.00  0.00     0.200 C 
BRANCH  32  33
ATOM     33  N   UNL     1       6.409  13.231  -1.212  1.00  0.00    -0.340 N 
ATOM     34  C   UNL     1       7.488  12.667  -1.862  1.00  0.00     0.243 CG0
ATOM     35  O   UNL     1       8.263  11.902  -1.291  1.00  0.00    -0.273 OA
ATOM     36  H   UNL     1       5.806  13.883  -1.700  1.00  0.00     0.164 HD
ATOM     37  G   UNL     1       7.788  13.224  -3.263  1.00  0.00     0.000 G0
ENDBRANCH  32  33
BRANCH  32  38
ATOM     38  C   UNL     1       6.547  13.958   1.190  1.00  0.00     0.143 C 
ATOM     39  C   UNL     1       8.010  14.363   1.048  1.00  0.00     0.041 C 
BRANCH  38  40
ATOM     40  O   UNL     1       5.723  15.133   1.066  1.00  0.00    -0.391 OA
ATOM     41  H   UNL     1       6.148  15.704   0.399  1.00  0.00     0.211 HD
ENDBRANCH  38  40
ENDBRANCH  32  38
ENDBRANCH  29  32
ENDBRANCH  27  28
BRANCH  27  42
ATOM     42  C   UNL     1       1.608  13.186  -0.910  1.00  0.00     0.015 C 
ATOM     43  C   UNL     1       2.049  14.409  -1.723  1.00  0.00     0.010 C 
ATOM     44  C   UNL     1       0.153  12.830  -1.234  1.00  0.00     0.010 C 
ENDBRANCH  27  42
ENDBRANCH   3  27
TORSDOF 5
ENDMDL
MODEL 7
REMARK VINA RESULT:    -5.022      7.631     10.843
REMARK INTER + INTRA:         -11.019
REMARK INTER:                  -9.850
REMARK INTRA:                  -1.169
REMARK UNBOUND:                -2.034
REMARK SMILES CC[C@H](C)[C@H]1NC(=O)c2coc(n2)[C@H](C(C)C)NC(=O)[C@H]([C@@H](C)O)NC(=O)[C@H](C)NC(=O)c2csc1n2
REMARK SMILES IDX 11 1 13 2 12 3 9 4 10 5 7 6 6 7 8 8 5 10 36 11 35 12 34 13
REMARK SMILES IDX 37 14 33 15 31 16 32 17 30 18 28 20 29 21 3 23 4 24 2 25
REMARK SMILES IDX 1 26 14 27 18 28 19 29 20 30 21 32 25 33 26 34 27 35 22 38
REMARK SMILES IDX 23 39 24 40 15 42 16 43 17 44
REMARK H PARENT 6 9 30 19 18 31 25 36 24 41
REMARK Flexibility Score:   94.900
ROOT
ATOM      1  O   UNL     1       2.965  10.032   3.728  1.00  0.00    -0.446 OA
ATOM      2  N   UNL     1       2.844  10.702   1.579  1.00  0.00    -0.207 NA
ATOM      3  C   UNL     1       2.171  10.331   2.653  1.00  0.00     0.217 A 
ATOM      4  C   UNL     1       4.168  10.671   1.981  1.00  0.00     0.167 A 
ATOM      5  C   UNL     1       4.235  10.262   3.291  1.00  0.00     0.231 A 
ENDROOT
BRANCH   4   6
ATOM      6  C   UNL     1       5.274  10.998   1.098  1.00  0.00     0.273 C 
ATOM      7  N   UNL     1       5.118  12.234   0.522  1.00  0.00    -0.341 N 
ATOM      8  O   UNL     1       6.215  10.244   0.881  1.00  0.00    -0.267 OA
ATOM      9  H   UNL     1       4.242  12.706   0.725  1.00  0.00     0.164 HD
BRANCH   7  10
ATOM     10  C   UNL     1       5.936  12.703  -0.578  1.00  0.00     0.145 C 
BRANCH  10  11
ATOM     11  C   UNL     1       5.052  12.765  -1.816  1.00  0.00     0.116 A 
ATOM     12  S   UNL     1       5.761  13.059  -3.359  1.00  0.00    -0.124 S 
ATOM     13  C   UNL     1       4.218  12.930  -4.084  1.00  0.00     0.101 A 
ATOM     14  N   UNL     1       3.740  12.592  -1.820  1.00  0.00    -0.234 NA
ATOM     15  C   UNL     1       3.255  12.670  -3.128  1.00  0.00     0.139 A 
BRANCH  15  16
ATOM     16  C   UNL     1       1.836  12.478  -3.435  1.00  0.00     0.271 C 
ATOM     17  O   UNL     1       1.358  12.707  -4.541  1.00  0.00    -0.267 OA
ATOM     18  N   UNL     1       1.099  12.016  -2.365  1.00  0.00    -0.339 N 
ATOM     19  H   UNL     1       1.587  11.972  -1.475  1.00  0.00     0.164 HD
BRANCH  18  20
ATOM     20  C   UNL     1      -0.343  11.831  -2.466  1.00  0.00     0.168 CG0
ATOM     21  C   UNL     1      -0.705  10.351  -2.605  1.00  0.00     0.041 C 
ATOM     22  G   UNL     1      -1.100  12.389  -1.250  1.00  0.00     0.000 G0
ENDBRANCH  18  20
ENDBRANCH  15  16
ENDBRANCH  10  11
BRANCH  10  23
ATOM     23  C   UNL     1       6.612  14.065  -0.267  1.00  0.00     0.015 C 
ATOM     24  C   UNL     1       6.150  14.684   1.063  1.00  0.00     0.010 C 
BRANCH  23  25
ATOM     25  C   UNL     1       8.155  13.980  -0.263  1.00  0.00     0.002 C 
ATOM     26  C   UNL     1       8.696  12.577  -0.019  1.00  0.00     0.004 C 
ENDBRANCH  23  25
ENDBRANCH  10  23
ENDBRANCH   7  10
ENDBRANCH   4   6
BRANCH   3  27
ATOM     27  C   UNL     1       0.681  10.164   2.777  1.00  0.00     0.171 C 
BRANCH  27  28
ATOM     28  N   UNL     1       0.049  11.092   1.845  1.00  0.00    -0.342 N 
ATOM     29  C   UNL     1      -0.440  12.320   2.230  1.00  0.00     0.245 C 
ATOM     30  O   UNL     1      -0.366  12.733   3.386  1.00  0.00    -0.273 OA
ATOM     31  H   UNL     1       0.055  10.868   0.851  1.00  0.00     0.164 HD
BRANCH  29  32
ATOM     32  C   UNL     1      -0.955  13.214   1.083  1.00  0.00     0.200 C 
BRANCH  32  33
ATOM     33  N   UNL     1      -0.334  12.762  -0.168  1.00  0.00    -0.340 N 
ATOM     34  C   UNL     1      -1.100  12.399  -1.257  1.00  0.00     0.243 CG0
ATOM     35  O   UNL     1      -2.328  12.376  -1.209  1.00  0.00    -0.273 OA
ATOM     36  H   UNL     1       0.677  12.740  -0.228  1.00  0.00     0.164 HD
ATOM     37  G   UNL     1      -0.327  11.815  -2.451  1.00  0.00     0.000 G0
ENDBRANCH  32  33
BRANCH  32  38
ATOM     38  C   UNL     1      -2.500  13.220   1.021  1.00  0.00     0.143 C 
ATOM     39  C   UNL     1      -3.173  12.533   2.204  1.00  0.00     0.041 C 
BRANCH  38  40
ATOM     40  O   UNL     1      -2.984  14.575   0.931  1.00  0.00    -0.391 OA
ATOM     41  H   UNL     1      -2.241  15.154   1.184  1.00  0.00     0.211 HD
ENDBRANCH  38  40
ENDBRANCH  32  38
ENDBRANCH  29  32
ENDBRANCH  27  28
BRANCH  27  42
ATOM     42  C   UNL     1       0.110   8.732   2.630  1.00  0.00     0.015 C 
ATOM     43  C   UNL     1      -1.206   8.622   1.851  1.00  0.00     0.010 C 
ATOM     44  C   UNL     1       1.146   7.757   2.062  1.00  0.00     0.010 C 
ENDBRANCH  27  42
ENDBRANCH   3  27
TORSDOF 5
ENDMDL
MODEL 8
REMARK VINA RESULT:    -4.820     11.371     13.911
REMARK INTER + INTRA:         -10.659
REMARK INTER:                  -8.065
REMARK INTRA:                  -2.594
REMARK UNBOUND:                -2.034
REMARK SMILES CC[C@H](C)[C@H]1NC(=O)c2coc(n2)[C@H](C(C)C)NC(=O)[C@H]([C@@H](C)O)NC(=O)[C@H](C)NC(=O)c2csc1n2
REMARK SMILES IDX 11 1 13 2 12 3 9 4 10 5 7 6 6 7 8 8 5 10 36 11 35 12 34 13
REMARK SMILES IDX 37 14 33 15 31 16 32 17 30 18 28 20 29 21 3 23 4 24 2 25
REMARK SMILES IDX 1 26 14 27 18 28 19 29 20 30 21 32 25 33 26 34 27 35 22 38
REMARK SMILES IDX 23 39 24 40 15 42 16 43 17 44
REMARK H PARENT 6 9 30 19 18 31 25 36 24 41
REMARK Flexibility Score:   94.900
ROOT
ATOM      1  O   UNL     1      -2.363  12.746   4.973  1.00  0.00    -0.446 OA
ATOM      2  N   UNL     1      -0.149  12.985   4.623  1.00  0.00    -0.207 NA
ATOM      3  C   UNL     1      -1.362  13.127   4.119  1.00  0.00     0.217 A 
ATOM      4  C   UNL     1      -0.367  12.505   5.903  1.00  0.00     0.167 A 
ATOM      5  C   UNL     1      -1.718  12.362   6.110  1.00  0.00     0.231 A 
ENDROOT
BRANCH   4   6
ATOM      6  C   UNL     1       0.709  12.188   6.826  1.00  0.00     0.273 C 
ATOM      7  N   UNL     1       1.798  13.000   6.637  1.00  0.00    -0.341 N 
ATOM      8  O   UNL     1       0.649  11.286   7.652  1.00  0.00    -0.267 OA
ATOM      9  H   UNL     1       1.738  13.643   5.852  1.00  0.00     0.164 HD
BRANCH   7  10
ATOM     10  C   UNL     1       3.090  12.746   7.244  1.00  0.00     0.145 C 
BRANCH  10  11
ATOM     11  C   UNL     1       3.876  11.852   6.296  1.00  0.00     0.116 A 
ATOM     12  S   UNL     1       5.444  11.298   6.748  1.00  0.00    -0.124 S 
ATOM     13  C   UNL     1       5.550  10.425   5.282  1.00  0.00     0.101 A 
ATOM     14  N   UNL     1       3.446  11.432   5.118  1.00  0.00    -0.234 NA
ATOM     15  C   UNL     1       4.400  10.595   4.535  1.00  0.00     0.139 A 
BRANCH  15  16
ATOM     16  C   UNL     1       4.172   9.953   3.238  1.00  0.00     0.271 C 
ATOM     17  O   UNL     1       5.077   9.470   2.567  1.00  0.00    -0.267 OA
ATOM     18  N   UNL     1       2.848   9.946   2.853  1.00  0.00    -0.339 N 
ATOM     19  H   UNL     1       2.211  10.476   3.442  1.00  0.00     0.164 HD
BRANCH  18  20
ATOM     20  C   UNL     1       2.441   9.411   1.561  1.00  0.00     0.168 CG0
ATOM     21  C   UNL     1       1.317   8.384   1.713  1.00  0.00     0.041 C 
ATOM     22  G   UNL     1       1.954  10.500   0.592  1.00  0.00     0.000 G0
ENDBRANCH  18  20
ENDBRANCH  15  16
ENDBRANCH  10  11
BRANCH  10  23
ATOM     23  C   UNL     1       3.846  14.058   7.583  1.00  0.00     0.015 C 
ATOM     24  C   UNL     1       3.587  15.189   6.573  1.00  0.00     0.010 C 
BRANCH  23  25
ATOM     25  C   UNL     1       3.530  14.581   9.002  1.00  0.00     0.002 C 
ATOM     26  C   UNL     1       3.018  13.511   9.956  1.00  0.00     0.004 C 
ENDBRANCH  23  25
ENDBRANCH  10  23
ENDBRANCH   7  10
ENDBRANCH   4   6
BRANCH   3  27
ATOM     27  C   UNL     1      -1.720  13.595   2.736  1.00  0.00     0.171 C 
BRANCH  27  28
ATOM     28  N   UNL     1      -1.195  12.621   1.785  1.00  0.00    -0.342 N 
ATOM     29  C   UNL     1      -0.585  12.983   0.605  1.00  0.00     0.245 C 
ATOM     30  O   UNL     1      -0.423  14.156   0.272  1.00  0.00    -0.273 OA
ATOM     31  H   UNL     1      -1.190  11.636   2.045  1.00  0.00     0.164 HD
BRANCH  29  32
ATOM     32  C   UNL     1       0.021  11.820  -0.209  1.00  0.00     0.200 C 
BRANCH  32  33
ATOM     33  N   UNL     1       0.644  10.878   0.729  1.00  0.00    -0.340 N 
ATOM     34  C   UNL     1       1.963  10.498   0.592  1.00  0.00     0.243 CG0
ATOM     35  O   UNL     1       2.654  10.879  -0.351  1.00  0.00    -0.273 OA
ATOM     36  H   UNL     1       0.090  10.522   1.500  1.00  0.00     0.164 HD
ATOM     37  G   UNL     1       2.446   9.404   1.558  1.00  0.00     0.000 G0
ENDBRANCH  32  33
BRANCH  32  38
ATOM     38  C   UNL     1      -1.038  11.154  -1.118  1.00  0.00     0.143 C 
ATOM     39  C   UNL     1      -1.314   9.692  -0.785  1.00  0.00     0.041 C 
BRANCH  38  40
ATOM     40  O   UNL     1      -2.276  11.890  -1.053  1.00  0.00    -0.391 OA
ATOM     41  H   UNL     1      -2.712  11.779  -1.919  1.00  0.00     0.211 HD
ENDBRANCH  38  40
ENDBRANCH  32  38
ENDBRANCH  29  32
ENDBRANCH  27  28
BRANCH  27  42
ATOM     42  C   UNL     1      -3.208  13.921   2.456  1.00  0.00     0.015 C 
ATOM     43  C   UNL     1      -3.466  15.214   1.674  1.00  0.00     0.010 C 
ATOM     44  C   UNL     1      -3.936  12.746   1.794  1.00  0.00     0.010 C 
ENDBRANCH  27  42
ENDBRANCH   3  27
TORSDOF 5
ENDMDL
MODEL 9
REMARK VINA RESULT:    -4.619      7.079      9.925
REMARK INTER + INTRA:         -10.298
REMARK INTER:                  -8.675
REMARK INTRA:                  -1.623
REMARK UNBOUND:                -2.034
REMARK SMILES CC[C@H](C)[C@H]1NC(=O)c2coc(n2)[C@H](C(C)C)NC(=O)[C@H]([C@@H](C)O)NC(=O)[C@H](C)NC(=O)c2csc1n2
REMARK SMILES IDX 11 1 13 2 12 3 9 4 10 5 7 6 6 7 8 8 5 10 36 11 35 12 34 13
REMARK SMILES IDX 37 14 33 15 31 16 32 17 30 18 28 20 29 21 3 23 4 24 2 25
REMARK SMILES IDX 1 26 14 27 18 28 19 29 20 30 21 32 25 33 26 34 27 35 22 38
REMARK SMILES IDX 23 39 24 40 15 42 16 43 17 44
REMARK H PARENT 6 9 30 19 18 31 25 36 24 41
REMARK Flexibility Score:   94.900
ROOT
ATOM      1  O   UNL     1       0.280  11.325  -1.185  1.00  0.00    -0.446 OA
ATOM      2  N   UNL     1       2.472  10.952  -1.559  1.00  0.00    -0.207 NA
ATOM      3  C   UNL     1       1.341  10.465  -1.081  1.00  0.00     0.217 A 
ATOM      4  C   UNL     1       2.127  12.205  -2.034  1.00  0.00     0.167 A 
ATOM      5  C   UNL     1       0.791  12.426  -1.803  1.00  0.00     0.231 A 
ENDROOT
BRANCH   4   6
ATOM      6  C   UNL     1       3.083  13.114  -2.642  1.00  0.00     0.273 C 
ATOM      7  N   UNL     1       4.359  12.610  -2.606  1.00  0.00    -0.341 N 
ATOM      8  O   UNL     1       2.780  14.207  -3.105  1.00  0.00    -0.267 OA
ATOM      9  H   UNL     1       4.472  11.732  -2.108  1.00  0.00     0.164 HD
BRANCH   7  10
ATOM     10  C   UNL     1       5.532  13.404  -2.915  1.00  0.00     0.145 C 
BRANCH  10  11
ATOM     11  C   UNL     1       6.623  13.016  -1.927  1.00  0.00     0.116 A 
ATOM     12  S   UNL     1       8.095  13.911  -1.884  1.00  0.00    -0.124 S 
ATOM     13  C   UNL     1       8.650  12.924  -0.604  1.00  0.00     0.101 A 
ATOM     14  N   UNL     1       6.538  12.025  -1.055  1.00  0.00    -0.234 NA
ATOM     15  C   UNL     1       7.698  11.977  -0.277  1.00  0.00     0.139 A 
BRANCH  15  16
ATOM     16  C   UNL     1       7.863  10.997   0.799  1.00  0.00     0.271 C 
ATOM     17  O   UNL     1       8.884  10.335   0.945  1.00  0.00    -0.267 OA
ATOM     18  N   UNL     1       6.764  10.897   1.626  1.00  0.00    -0.339 N 
ATOM     19  H   UNL     1       5.940  11.417   1.335  1.00  0.00     0.164 HD
BRANCH  18  20
ATOM     20  C   UNL     1       6.721   9.926   2.711  1.00  0.00     0.168 CG0
ATOM     21  C   UNL     1       7.177  10.547   4.032  1.00  0.00     0.041 C 
ATOM     22  G   UNL     1       5.317   9.338   2.927  1.00  0.00     0.000 G0
ENDBRANCH  18  20
ENDBRANCH  15  16
ENDBRANCH  10  11
BRANCH  10  23
ATOM     23  C   UNL     1       5.983  13.234  -4.390  1.00  0.00     0.015 C 
ATOM     24  C   UNL     1       5.406  11.977  -5.062  1.00  0.00     0.010 C 
BRANCH  23  25
ATOM     25  C   UNL     1       5.642  14.463  -5.264  1.00  0.00     0.002 C 
ATOM     26  C   UNL     1       6.617  15.622  -5.108  1.00  0.00     0.004 C 
ENDBRANCH  23  25
ENDBRANCH  10  23
ENDBRANCH   7  10
ENDBRANCH   4   6
BRANCH   3  27
ATOM     27  C   UNL     1       1.138   9.132  -0.413  1.00  0.00     0.171 C 
BRANCH  27  28
ATOM     28  N   UNL     1       1.996   9.088   0.766  1.00  0.00    -0.342 N 
ATOM     29  C   UNL     1       2.002  10.079   1.722  1.00  0.00     0.245 C 
ATOM     30  O   UNL     1       1.274  11.068   1.661  1.00  0.00    -0.273 OA
ATOM     31  H   UNL     1       2.542   8.246   0.944  1.00  0.00     0.164 HD
BRANCH  29  32
ATOM     32  C   UNL     1       2.879   9.795   2.960  1.00  0.00     0.200 C 
BRANCH  32  33
ATOM     33  N   UNL     1       4.262  10.174   2.642  1.00  0.00    -0.340 N 
ATOM     34  C   UNL     1       5.320   9.345   2.951  1.00  0.00     0.243 CG0
ATOM     35  O   UNL     1       5.162   8.288   3.558  1.00  0.00    -0.273 OA
ATOM     36  H   UNL     1       4.426  11.054   2.168  1.00  0.00     0.164 HD
ATOM     37  G   UNL     1       6.719   9.925   2.688  1.00  0.00     0.000 G0
ENDBRANCH  32  33
BRANCH  32  38
ATOM     38  C   UNL     1       2.332  10.511   4.217  1.00  0.00     0.143 C 
ATOM     39  C   UNL     1       2.897   9.981   5.530  1.00  0.00     0.041 C 
BRANCH  38  40
ATOM     40  O   UNL     1       2.593  11.925   4.132  1.00  0.00    -0.391 OA
ATOM     41  H   UNL     1       3.512  12.058   4.432  1.00  0.00     0.211 HD
ENDBRANCH  38  40
ENDBRANCH  32  38
ENDBRANCH  29  32
ENDBRANCH  27  28
BRANCH  27  42
ATOM     42  C   UNL     1      -0.315   8.717  -0.077  1.00  0.00     0.015 C 
ATOM     43  C   UNL     1      -1.095   8.054  -1.218  1.00  0.00     0.010 C 
ATOM     44  C   UNL     1      -0.386   7.853   1.187  1.00  0.00     0.010 C 
ENDBRANCH  27  42
ENDBRANCH   3  27
TORSDOF 5
ENDMDL
MODEL 10
REMARK VINA RESULT:    -4.600      6.194      8.822
REMARK INTER + INTRA:         -10.264
REMARK INTER:                  -7.710
REMARK INTRA:                  -2.554
REMARK UNBOUND:                -2.034
REMARK SMILES CC[C@H](C)[C@H]1NC(=O)c2coc(n2)[C@H](C(C)C)NC(=O)[C@H]([C@@H](C)O)NC(=O)[C@H](C)NC(=O)c2csc1n2
REMARK SMILES IDX 11 1 13 2 12 3 9 4 10 5 7 6 6 7 8 8 5 10 36 11 35 12 34 13
REMARK SMILES IDX 37 14 33 15 31 16 32 17 30 18 28 20 29 21 3 23 4 24 2 25
REMARK SMILES IDX 1 26 14 27 18 28 19 29 20 30 21 32 25 33 26 34 27 35 22 38
REMARK SMILES IDX 23 39 24 40 15 42 16 43 17 44
REMARK H PARENT 6 9 30 19 18 31 25 36 24 41
REMARK Flexibility Score:   94.900
ROOT
ATOM      1  O   UNL     1       2.449   9.952   2.234  1.00  0.00    -0.446 OA
ATOM      2  N   UNL     1       3.716  11.415   1.078  1.00  0.00    -0.207 NA
ATOM      3  C   UNL     1       2.496  11.081   1.459  1.00  0.00     0.217 A 
ATOM      4  C   UNL     1       4.528  10.459   1.662  1.00  0.00     0.167 A 
ATOM      5  C   UNL     1       3.751   9.571   2.365  1.00  0.00     0.231 A 
ENDROOT
BRANCH   4   6
ATOM      6  C   UNL     1       5.971  10.432   1.492  1.00  0.00     0.273 C 
ATOM      7  N   UNL     1       6.457  11.644   1.070  1.00  0.00    -0.341 N 
ATOM      8  O   UNL     1       6.657   9.435   1.682  1.00  0.00    -0.267 OA
ATOM      9  H   UNL     1       5.758  12.352   0.866  1.00  0.00     0.164 HD
BRANCH   7  10
ATOM     10  C   UNL     1       7.811  11.829   0.589  1.00  0.00     0.145 C 
BRANCH  10  11
ATOM     11  C   UNL     1       7.734  12.621  -0.709  1.00  0.00     0.116 A 
ATOM     12  S   UNL     1       8.893  13.857  -1.025  1.00  0.00    -0.124 S 
ATOM     13  C   UNL     1       8.157  14.149  -2.540  1.00  0.00     0.101 A 
ATOM     14  N   UNL     1       6.834  12.433  -1.659  1.00  0.00    -0.234 NA
ATOM     15  C   UNL     1       7.083  13.300  -2.726  1.00  0.00     0.139 A 
BRANCH  15  16
ATOM     16  C   UNL     1       6.260  13.285  -3.938  1.00  0.00     0.271 C 
ATOM     17  O   UNL     1       6.678  13.655  -5.030  1.00  0.00    -0.267 OA
ATOM     18  N   UNL     1       4.981  12.814  -3.730  1.00  0.00    -0.339 N 
ATOM     19  H   UNL     1       4.722  12.644  -2.761  1.00  0.00     0.164 HD
BRANCH  18  20
ATOM     20  C   UNL     1       4.001  12.790  -4.807  1.00  0.00     0.168 CG0
ATOM     21  C   UNL     1       4.007  11.445  -5.535  1.00  0.00     0.041 C 
ATOM     22  G   UNL     1       2.569  13.051  -4.313  1.00  0.00     0.000 G0
ENDBRANCH  18  20
ENDBRANCH  15  16
ENDBRANCH  10  11
BRANCH  10  23
ATOM     23  C   UNL     1       8.721  12.511   1.645  1.00  0.00     0.015 C 
ATOM     24  C   UNL     1       7.934  13.183   2.783  1.00  0.00     0.010 C 
BRANCH  23  25
ATOM     25  C   UNL     1       9.752  11.539   2.263  1.00  0.00     0.002 C 
ATOM     26  C   UNL     1      10.673  10.884   1.243  1.00  0.00     0.004 C 
ENDBRANCH  23  25
ENDBRANCH  10  23
ENDBRANCH   7  10
ENDBRANCH   4   6
BRANCH   3  27
ATOM     27  C   UNL     1       1.210  11.767   1.089  1.00  0.00     0.171 C 
BRANCH  27  28
ATOM     28  N   UNL     1       1.021  11.617  -0.350  1.00  0.00    -0.342 N 
ATOM     29  C   UNL     1       0.887  12.690  -1.202  1.00  0.00     0.245 C 
ATOM     30  O   UNL     1       0.932  13.857  -0.815  1.00  0.00    -0.273 OA
ATOM     31  H   UNL     1       1.088  10.685  -0.758  1.00  0.00     0.164 HD
BRANCH  29  32
ATOM     32  C   UNL     1       0.826  12.337  -2.703  1.00  0.00     0.200 C 
BRANCH  32  33
ATOM     33  N   UNL     1       2.199  12.291  -3.221  1.00  0.00    -0.340 N 
ATOM     34  C   UNL     1       2.578  13.047  -4.312  1.00  0.00     0.243 CG0
ATOM     35  O   UNL     1       1.774  13.739  -4.933  1.00  0.00    -0.273 OA
ATOM     36  H   UNL     1       2.877  11.706  -2.748  1.00  0.00     0.164 HD
ATOM     37  G   UNL     1       4.003  12.799  -4.831  1.00  0.00     0.000 G0
ENDBRANCH  32  33
BRANCH  32  38
ATOM     38  C   UNL     1       0.047  11.023  -2.943  1.00  0.00     0.143 C 
ATOM     39  C   UNL     1      -0.825  11.036  -4.193  1.00  0.00     0.041 C 
BRANCH  38  40
ATOM     40  O   UNL     1       0.964   9.914  -3.025  1.00  0.00    -0.391 OA
ATOM     41  H   UNL     1       1.620  10.042  -2.314  1.00  0.00     0.211 HD
ENDBRANCH  38  40
ENDBRANCH  32  38
ENDBRANCH  29  32
ENDBRANCH  27  28
BRANCH  27  42
ATOM     42  C   UNL     1      -0.063  11.369   1.875  1.00  0.00     0.015 C 
ATOM     43  C   UNL     1      -0.715  12.492   2.691  1.00  0.00     0.010 C 
ATOM     44  C   UNL     1      -1.103  10.692   0.976  1.00  0.00     0.010 C 
ENDBRANCH  27  42
ENDBRANCH   3  27
TORSDOF 5
ENDMDL
