MODEL 1
REMARK VINA RESULT:    -3.074      0.000      0.000
REMARK INTER + INTRA:         -12.413
REMARK INTER:                  -9.184
REMARK INTRA:                  -3.228
REMARK UNBOUND:                -3.228
REMARK SMILES C=C1C(=O)N[C@H](C)C(=O)N[C@@H](CC(C)C)C(=O)N[C@@H](C(=O)O)[C@H](C)C(=O)N[C@@H](CCCN=C(N)N)C(=O)N[C@@H](/C=C/C(C)=C/[C@H](C)[C@H](Cc2ccccc2)OC)[C@H](C)C(=O)N[C@@H](C(=O)O)CCC(=O)N1C
REMARK SMILES IDX 39 1 38 2 37 3 36 4 28 6 27 7 25 8 26 9 23 11 24 12 19 13
REMARK SMILES IDX 18 14 16 15 17 16 11 18 10 19 8 20 9 21 12 24 13 25 14 26
REMARK SMILES IDX 15 27 20 28 21 29 22 30 29 32 30 33 31 34 32 35 33 36 34 37
REMARK SMILES IDX 35 38 57 43 58 44 59 45 60 46 61 47 62 49 66 50 67 51 68 52
REMARK SMILES IDX 69 53 70 54 71 55 2 56 1 57 3 58 4 59 5 60 6 62 7 63 63 65
REMARK SMILES IDX 64 66 65 67 40 69 41 70 42 71 44 72 43 73 45 74 46 75 47 76
REMARK SMILES IDX 55 77 56 78 48 79 49 80 50 81 54 82 51 83 53 84 52 85
REMARK H PARENT 38 5 27 10 18 17 10 22 22 31 34 39 34 40 35 41 35 42 61 48
REMARK H PARENT 5 61 65 68
REMARK Flexibility Score:  369.900
ROOT
ATOM      1  C   UNL     1       4.539   4.198  -7.335  1.00  0.00     0.117 C 
ENDROOT
BRANCH   1   2
ATOM      2  N   UNL     1       3.850   4.537  -8.580  1.00  0.00    -0.347 N 
ATOM      3  O   UNL     1       5.449   3.776 -10.040  1.00  0.00    -0.273 OA
ATOM      4  C   UNL     1       4.322   4.214  -9.838  1.00  0.00     0.243 C 
ATOM      5  H   UNL     1       2.950   4.991  -8.539  1.00  0.00     0.164 HD
BRANCH   4   6
ATOM      6  C   UNL     1       3.358   4.611 -10.985  1.00  0.00     0.171 C 
BRANCH   6   7
ATOM      7  N   UNL     1       4.019   5.543 -11.913  1.00  0.00    -0.344 N 
ATOM      8  C   UNL     1       4.476   6.766 -11.472  1.00  0.00     0.226 C 
ATOM      9  O   UNL     1       4.340   7.144 -10.315  1.00  0.00    -0.275 OA
ATOM     10  H   UNL     1       4.090   5.294 -12.891  1.00  0.00     0.164 HD
BRANCH   8  11
ATOM     11  C   UNL     1       5.183   7.589 -12.535  1.00  0.00     0.109 C 
ATOM     12  C   UNL     1       5.927   6.670 -13.504  1.00  0.00     0.021 C 
BRANCH  11  13
ATOM     13  C   UNL     1       4.181   8.556 -13.197  1.00  0.00     0.204 C 
BRANCH  13  14
ATOM     14  N   UNL     1       2.854   8.485 -12.577  1.00  0.00    -0.340 N 
ATOM     15  C   UNL     1       1.875   7.615 -13.004  1.00  0.00     0.243 C 
ATOM     16  O   UNL     1       2.066   6.791 -13.897  1.00  0.00    -0.273 OA
ATOM     17  H   UNL     1       2.581   9.237 -11.939  1.00  0.00     0.164 HD
BRANCH  15  18
ATOM     18  C   UNL     1       0.496   7.862 -12.343  1.00  0.00     0.171 C 
BRANCH  18  19
ATOM     19  N   UNL     1       0.744   8.665 -11.147  1.00  0.00    -0.343 N 
ATOM     20  C   UNL     1       0.943  10.031 -11.214  1.00  0.00     0.242 CG0
ATOM     21  O   UNL     1       1.053  10.613 -12.291  1.00  0.00    -0.273 OA
ATOM     22  H   UNL     1       0.778   8.211 -10.241  1.00  0.00     0.164 HD
ATOM     23  G   UNL     1       1.110  10.718  -9.843  1.00  0.00     0.000 G0
ENDBRANCH  18  19
BRANCH  18  24
ATOM     24  C   UNL     1      -0.449   8.579 -13.315  1.00  0.00     0.038 C 
BRANCH  24  25
ATOM     25  C   UNL     1      -1.570   7.690 -13.896  1.00  0.00    -0.015 C 
ATOM     26  C   UNL     1      -2.966   8.199 -13.537  1.00  0.00     0.007 C 
ATOM     27  C   UNL     1      -1.400   6.254 -13.395  1.00  0.00     0.007 C 
ENDBRANCH  24  25
ENDBRANCH  18  24
ENDBRANCH  15  18
ENDBRANCH  13  14
BRANCH  13  28
ATOM     28  C   UNL     1       4.629  10.020 -13.144  1.00  0.00     0.327 C 
ATOM     29  O   UNL     1       5.731  10.426 -12.809  1.00  0.00    -0.250 OA
BRANCH  28  30
ATOM     30  O   UNL     1       3.630  10.888 -13.401  1.00  0.00    -0.480 OA
ATOM     31  H   UNL     1       2.814  10.375 -13.226  1.00  0.00     0.296 HD
ENDBRANCH  28  30
ENDBRANCH  13  28
ENDBRANCH  11  13
ENDBRANCH   8  11
ENDBRANCH   6   7
BRANCH   6  32
ATOM     32  C   UNL     1       2.899   3.344 -11.717  1.00  0.00     0.037 C 
BRANCH  32  33
ATOM     33  C   UNL     1       1.791   2.605 -10.955  1.00  0.00     0.026 C 
BRANCH  33  34
ATOM     34  C   UNL     1       2.227   1.214 -10.491  1.00  0.00     0.146 C 
BRANCH  34  35
ATOM     35  N   UNL     1       3.188   1.361  -9.407  1.00  0.00    -0.254 NA
ATOM     36  C   UNL     1       4.334   0.799  -9.522  1.00  0.00     0.185 C 
ATOM     37  N   UNL     1       5.229   0.932  -8.531  1.00  0.00    -0.370 N 
ATOM     38  N   UNL     1       4.812   0.055 -10.535  1.00  0.00    -0.370 N 
ATOM     39  H   UNL     1       4.947   1.489  -7.735  1.00  0.00     0.159 HD
ATOM     40  H   UNL     1       6.197   0.674  -8.618  1.00  0.00     0.159 HD
ATOM     41  H   UNL     1       5.680  -0.449 -10.447  1.00  0.00     0.159 HD
ATOM     42  H   UNL     1       4.241  -0.141 -11.342  1.00  0.00     0.159 HD
ENDBRANCH  34  35
ENDBRANCH  33  34
ENDBRANCH  32  33
ENDBRANCH   6  32
ENDBRANCH   4   6
ENDBRANCH   1   2
BRANCH   1  43
ATOM     43  C   UNL     1       3.490   3.667  -6.316  1.00  0.00     0.102 C 
ATOM     44  C   UNL     1       2.565   4.763  -5.762  1.00  0.00     0.020 C 
BRANCH  43  45
ATOM     45  C   UNL     1       4.157   2.811  -5.235  1.00  0.00     0.225 C 
ATOM     46  O   UNL     1       4.973   3.259  -4.434  1.00  0.00    -0.275 OA
ATOM     47  N   UNL     1       3.855   1.469  -5.271  1.00  0.00    -0.342 N 
ATOM     48  H   UNL     1       3.077   1.147  -5.829  1.00  0.00     0.164 HD
BRANCH  47  49
ATOM     49  C   UNL     1       4.392   0.536  -4.276  1.00  0.00     0.192 C 
BRANCH  49  50
ATOM     50  C   UNL     1       4.509  -0.861  -4.892  1.00  0.00     0.047 C 
BRANCH  50  51
ATOM     51  C   UNL     1       5.667  -1.667  -4.290  1.00  0.00     0.103 C 
BRANCH  51  52
ATOM     52  C   UNL     1       6.618  -2.195  -5.363  1.00  0.00     0.226 C 
ATOM     53  O   UNL     1       6.658  -1.646  -6.466  1.00  0.00    -0.275 OA
BRANCH  52  54
ATOM     54  N   UNL     1       7.462  -3.256  -4.986  1.00  0.00    -0.311 N 
ATOM     55  C   UNL     1       8.299  -3.165  -3.782  1.00  0.00     0.153 C 
BRANCH  54  56
ATOM     56  C   UNL     1       7.532  -4.439  -5.740  1.00  0.00     0.102 C 
ATOM     57  C   UNL     1       6.729  -4.740  -6.774  1.00  0.00     0.043 C 
BRANCH  56  58
ATOM     58  C   UNL     1       8.591  -5.478  -5.455  1.00  0.00     0.268 C 
ATOM     59  O   UNL     1       9.785  -5.286  -5.641  1.00  0.00    -0.268 OA
ATOM     60  N   UNL     1       8.083  -6.631  -4.905  1.00  0.00    -0.339 N 
ATOM     61  H   UNL     1       7.080  -6.715  -4.793  1.00  0.00     0.164 HD
BRANCH  60  62
ATOM     62  C   UNL     1       8.940  -7.742  -4.495  1.00  0.00     0.168 CG0
ATOM     63  C   UNL     1       9.290  -7.645  -3.015  1.00  0.00     0.041 C 
ATOM     64  G   UNL     1      10.218  -7.755  -5.358  1.00  0.00     0.000 G0
ENDBRANCH  60  62
ENDBRANCH  56  58
ENDBRANCH  54  56
ENDBRANCH  52  54
ENDBRANCH  51  52
ENDBRANCH  50  51
ENDBRANCH  49  50
BRANCH  49  65
ATOM     65  C   UNL     1       3.503   0.468  -3.025  1.00  0.00     0.326 C 
ATOM     66  O   UNL     1       3.585   1.206  -2.054  1.00  0.00    -0.250 OA
BRANCH  65  67
ATOM     67  O   UNL     1       2.607  -0.543  -3.024  1.00  0.00    -0.480 OA
ATOM     68  H   UNL     1       1.929  -0.253  -3.672  1.00  0.00     0.296 HD
ENDBRANCH  65  67
ENDBRANCH  49  65
ENDBRANCH  47  49
ENDBRANCH  43  45
ENDBRANCH   1  43
BRANCH   1  69
ATOM     69  C   UNL     1       5.369   5.414  -6.965  1.00  0.00    -0.001 C 
ATOM     70  C   UNL     1       6.367   5.969  -7.676  1.00  0.00     0.001 C 
BRANCH  70  71
ATOM     71  C   UNL     1       7.147   7.156  -7.319  1.00  0.00    -0.055 C 
ATOM     72  C   UNL     1       8.394   7.263  -7.823  1.00  0.00    -0.018 C 
ATOM     73  C   UNL     1       6.499   8.178  -6.420  1.00  0.00     0.044 C 
BRANCH  72  74
ATOM     74  C   UNL     1       9.420   8.371  -7.630  1.00  0.00     0.038 C 
ATOM     75  C   UNL     1       9.721   8.956  -9.015  1.00  0.00     0.015 C 
BRANCH  74  76
ATOM     76  C   UNL     1      10.655   7.785  -6.886  1.00  0.00     0.128 C 
BRANCH  76  77
ATOM     77  O   UNL     1      11.341   6.848  -7.734  1.00  0.00    -0.381 OA
ATOM     78  C   UNL     1      12.723   7.132  -7.899  1.00  0.00     0.195 C 
ENDBRANCH  76  77
BRANCH  76  79
ATOM     79  C   UNL     1      11.601   8.859  -6.293  1.00  0.00     0.068 C 
BRANCH  79  80
ATOM     80  C   UNL     1      11.876   8.818  -4.809  1.00  0.00    -0.045 A 
ATOM     81  C   UNL     1      10.947   8.266  -3.918  1.00  0.00     0.004 A 
ATOM     82  C   UNL     1      13.063   9.362  -4.294  1.00  0.00     0.004 A 
ATOM     83  C   UNL     1      11.202   8.244  -2.545  1.00  0.00     0.000 A 
ATOM     84  C   UNL     1      13.317   9.340  -2.921  1.00  0.00     0.000 A 
ATOM     85  C   UNL     1      12.388   8.780  -2.047  1.00  0.00     0.000 A 
ENDBRANCH  79  80
ENDBRANCH  76  79
ENDBRANCH  74  76
ENDBRANCH  72  74
ENDBRANCH  70  71
ENDBRANCH   1  69
TORSDOF 17
ENDMDL
MODEL 2
REMARK VINA RESULT:    -2.013      1.559      2.165
REMARK INTER + INTRA:          -9.242
REMARK INTER:                  -9.715
REMARK INTRA:                   0.473
REMARK UNBOUND:                -3.228
REMARK SMILES C=C1C(=O)N[C@H](C)C(=O)N[C@@H](CC(C)C)C(=O)N[C@@H](C(=O)O)[C@H](C)C(=O)N[C@@H](CCCN=C(N)N)C(=O)N[C@@H](/C=C/C(C)=C/[C@H](C)[C@H](Cc2ccccc2)OC)[C@H](C)C(=O)N[C@@H](C(=O)O)CCC(=O)N1C
REMARK SMILES IDX 39 1 38 2 37 3 36 4 28 6 27 7 25 8 26 9 23 11 24 12 19 13
REMARK SMILES IDX 18 14 16 15 17 16 11 18 10 19 8 20 9 21 12 24 13 25 14 26
REMARK SMILES IDX 15 27 20 28 21 29 22 30 29 32 30 33 31 34 32 35 33 36 34 37
REMARK SMILES IDX 35 38 57 43 58 44 59 45 60 46 61 47 62 49 66 50 67 51 68 52
REMARK SMILES IDX 69 53 70 54 71 55 2 56 1 57 3 58 4 59 5 60 6 62 7 63 63 65
REMARK SMILES IDX 64 66 65 67 40 69 41 70 42 71 44 72 43 73 45 74 46 75 47 76
REMARK SMILES IDX 55 77 56 78 48 79 49 80 50 81 54 82 51 83 53 84 52 85
REMARK H PARENT 38 5 27 10 18 17 10 22 22 31 34 39 34 40 35 41 35 42 61 48
REMARK H PARENT 5 61 65 68
REMARK Flexibility Score:  369.900
ROOT
ATOM      1  C   UNL     1       4.304   3.266  -7.061  1.00  0.00     0.117 C 
ENDROOT
BRANCH   1   2
ATOM      2  N   UNL     1       3.502   3.257  -8.285  1.00  0.00    -0.347 N 
ATOM      3  O   UNL     1       3.113   5.515  -8.422  1.00  0.00    -0.273 OA
ATOM      4  C   UNL     1       3.046   4.396  -8.919  1.00  0.00     0.243 C 
ATOM      5  H   UNL     1       3.299   2.378  -8.736  1.00  0.00     0.164 HD
BRANCH   4   6
ATOM      6  C   UNL     1       2.293   4.112 -10.244  1.00  0.00     0.171 C 
BRANCH   6   7
ATOM      7  N   UNL     1       3.123   4.493 -11.399  1.00  0.00    -0.344 N 
ATOM      8  C   UNL     1       3.848   5.665 -11.388  1.00  0.00     0.226 C 
ATOM      9  O   UNL     1       3.823   6.447 -10.445  1.00  0.00    -0.275 OA
ATOM     10  H   UNL     1       3.116   3.905 -12.223  1.00  0.00     0.164 HD
BRANCH   8  11
ATOM     11  C   UNL     1       4.695   5.888 -12.628  1.00  0.00     0.109 C 
ATOM     12  C   UNL     1       4.589   4.682 -13.562  1.00  0.00     0.021 C 
BRANCH  11  13
ATOM     13  C   UNL     1       4.331   7.241 -13.272  1.00  0.00     0.204 C 
BRANCH  13  14
ATOM     14  N   UNL     1       3.093   7.799 -12.720  1.00  0.00    -0.340 N 
ATOM     15  C   UNL     1       1.841   7.369 -13.106  1.00  0.00     0.243 C 
ATOM     16  O   UNL     1       1.676   6.444 -13.899  1.00  0.00    -0.273 OA
ATOM     17  H   UNL     1       3.155   8.665 -12.178  1.00  0.00     0.164 HD
BRANCH  15  18
ATOM     18  C   UNL     1       0.689   8.241 -12.549  1.00  0.00     0.171 C 
BRANCH  18  19
ATOM     19  N   UNL     1      -0.470   7.362 -12.409  1.00  0.00    -0.343 N 
ATOM     20  C   UNL     1      -1.642   7.585 -13.107  1.00  0.00     0.242 CG0
ATOM     21  O   UNL     1      -1.810   8.603 -13.774  1.00  0.00    -0.273 OA
ATOM     22  H   UNL     1      -0.420   6.570 -11.779  1.00  0.00     0.164 HD
ATOM     23  G   UNL     1      -2.726   6.509 -12.890  1.00  0.00     0.000 G0
ENDBRANCH  18  19
BRANCH  18  24
ATOM     24  C   UNL     1       1.085   8.868 -11.207  1.00  0.00     0.038 C 
BRANCH  24  25
ATOM     25  C   UNL     1       1.034  10.411 -11.177  1.00  0.00    -0.015 C 
ATOM     26  C   UNL     1       1.854  11.045 -12.300  1.00  0.00     0.007 C 
ATOM     27  C   UNL     1       1.539  10.915  -9.822  1.00  0.00     0.007 C 
ENDBRANCH  24  25
ENDBRANCH  18  24
ENDBRANCH  15  18
ENDBRANCH  13  14
BRANCH  13  28
ATOM     28  C   UNL     1       5.422   8.302 -13.102  1.00  0.00     0.327 C 
ATOM     29  O   UNL     1       5.295   9.504 -13.280  1.00  0.00    -0.250 OA
BRANCH  28  30
ATOM     30  O   UNL     1       6.635   7.777 -12.836  1.00  0.00    -0.480 OA
ATOM     31  H   UNL     1       6.691   6.992 -13.420  1.00  0.00     0.296 HD
ENDBRANCH  28  30
ENDBRANCH  13  28
ENDBRANCH  11  13
ENDBRANCH   8  11
ENDBRANCH   6   7
BRANCH   6  32
ATOM     32  C   UNL     1       1.920   2.627 -10.304  1.00  0.00     0.037 C 
BRANCH  32  33
ATOM     33  C   UNL     1       2.281   1.993 -11.654  1.00  0.00     0.026 C 
BRANCH  33  34
ATOM     34  C   UNL     1       3.721   1.480 -11.694  1.00  0.00     0.146 C 
BRANCH  34  35
ATOM     35  N   UNL     1       4.226   1.390 -10.331  1.00  0.00    -0.254 NA
ATOM     36  C   UNL     1       4.725   0.280  -9.932  1.00  0.00     0.185 C 
ATOM     37  N   UNL     1       5.197   0.187  -8.680  1.00  0.00    -0.370 N 
ATOM     38  N   UNL     1       4.861  -0.876 -10.607  1.00  0.00    -0.370 N 
ATOM     39  H   UNL     1       5.140   1.022  -8.110  1.00  0.00     0.159 HD
ATOM     40  H   UNL     1       5.755  -0.582  -8.351  1.00  0.00     0.159 HD
ATOM     41  H   UNL     1       5.142  -1.722 -10.139  1.00  0.00     0.159 HD
ATOM     42  H   UNL     1       4.533  -0.956 -11.557  1.00  0.00     0.159 HD
ENDBRANCH  34  35
ENDBRANCH  33  34
ENDBRANCH  32  33
ENDBRANCH   6  32
ENDBRANCH   4   6
ENDBRANCH   1   2
BRANCH   1  43
ATOM     43  C   UNL     1       3.350   3.103  -5.842  1.00  0.00     0.102 C 
ATOM     44  C   UNL     1       2.852   4.442  -5.272  1.00  0.00     0.020 C 
BRANCH  43  45
ATOM     45  C   UNL     1       3.955   2.167  -4.792  1.00  0.00     0.225 C 
ATOM     46  O   UNL     1       4.016   2.448  -3.598  1.00  0.00    -0.275 OA
ATOM     47  N   UNL     1       4.521   1.013  -5.283  1.00  0.00    -0.342 N 
ATOM     48  H   UNL     1       4.330   0.727  -6.233  1.00  0.00     0.164 HD
BRANCH  47  49
ATOM     49  C   UNL     1       5.105   0.006  -4.391  1.00  0.00     0.192 C 
BRANCH  49  50
ATOM     50  C   UNL     1       6.220  -0.745  -5.124  1.00  0.00     0.047 C 
BRANCH  50  51
ATOM     51  C   UNL     1       6.817  -1.874  -4.273  1.00  0.00     0.103 C 
BRANCH  51  52
ATOM     52  C   UNL     1       7.091  -3.130  -5.097  1.00  0.00     0.226 C 
ATOM     53  O   UNL     1       6.521  -3.286  -6.179  1.00  0.00    -0.275 OA
BRANCH  52  54
ATOM     54  N   UNL     1       8.060  -4.015  -4.588  1.00  0.00    -0.311 N 
ATOM     55  C   UNL     1       8.899  -3.640  -3.443  1.00  0.00     0.153 C 
BRANCH  54  56
ATOM     56  C   UNL     1       8.256  -5.287  -5.150  1.00  0.00     0.102 C 
ATOM     57  C   UNL     1       7.903  -5.640  -6.397  1.00  0.00     0.043 C 
BRANCH  56  58
ATOM     58  C   UNL     1       8.950  -6.380  -4.370  1.00  0.00     0.268 C 
ATOM     59  O   UNL     1      10.032  -6.227  -3.820  1.00  0.00    -0.268 OA
ATOM     60  N   UNL     1       8.211  -7.537  -4.288  1.00  0.00    -0.339 N 
ATOM     61  H   UNL     1       7.328  -7.587  -4.781  1.00  0.00     0.164 HD
BRANCH  60  62
ATOM     62  C   UNL     1       8.667  -8.699  -3.527  1.00  0.00     0.168 CG0
ATOM     63  C   UNL     1       8.216  -8.614  -2.075  1.00  0.00     0.041 C 
ATOM     64  G   UNL     1      10.204  -8.805  -3.616  1.00  0.00     0.000 G0
ENDBRANCH  60  62
ENDBRANCH  56  58
ENDBRANCH  54  56
ENDBRANCH  52  54
ENDBRANCH  51  52
ENDBRANCH  50  51
ENDBRANCH  49  50
BRANCH  49  65
ATOM     65  C   UNL     1       4.050  -0.998  -3.902  1.00  0.00     0.326 C 
ATOM     66  O   UNL     1       3.802  -2.077  -4.420  1.00  0.00    -0.250 OA
BRANCH  65  67
ATOM     67  O   UNL     1       3.326  -0.583  -2.839  1.00  0.00    -0.480 OA
ATOM     68  H   UNL     1       2.549  -0.143  -3.247  1.00  0.00     0.296 HD
ENDBRANCH  65  67
ENDBRANCH  49  65
ENDBRANCH  47  49
ENDBRANCH  43  45
ENDBRANCH   1  43
BRANCH   1  69
ATOM     69  C   UNL     1       5.186   4.498  -7.142  1.00  0.00    -0.001 C 
ATOM     70  C   UNL     1       6.086   4.797  -8.096  1.00  0.00     0.001 C 
BRANCH  70  71
ATOM     71  C   UNL     1       6.917   6.000  -8.175  1.00  0.00    -0.055 C 
ATOM     72  C   UNL     1       7.480   6.450  -7.034  1.00  0.00    -0.018 C 
ATOM     73  C   UNL     1       7.091   6.646  -9.525  1.00  0.00     0.044 C 
BRANCH  72  74
ATOM     74  C   UNL     1       8.382   7.657  -6.815  1.00  0.00     0.038 C 
ATOM     75  C   UNL     1       8.450   8.418  -8.145  1.00  0.00     0.015 C 
BRANCH  74  76
ATOM     76  C   UNL     1       9.756   7.164  -6.274  1.00  0.00     0.128 C 
BRANCH  76  77
ATOM     77  O   UNL     1      10.215   6.042  -7.047  1.00  0.00    -0.381 OA
ATOM     78  C   UNL     1      11.629   5.967  -7.161  1.00  0.00     0.195 C 
ENDBRANCH  76  77
BRANCH  76  79
ATOM     79  C   UNL     1      10.822   8.283  -6.150  1.00  0.00     0.068 C 
BRANCH  79  80
ATOM     80  C   UNL     1      11.404   8.556  -4.785  1.00  0.00    -0.045 A 
ATOM     81  C   UNL     1      10.656   8.330  -3.622  1.00  0.00     0.004 A 
ATOM     82  C   UNL     1      12.704   9.070  -4.660  1.00  0.00     0.004 A 
ATOM     83  C   UNL     1      11.197   8.599  -2.363  1.00  0.00     0.000 A 
ATOM     84  C   UNL     1      13.244   9.340  -3.401  1.00  0.00     0.000 A 
ATOM     85  C   UNL     1      12.491   9.103  -2.253  1.00  0.00     0.000 A 
ENDBRANCH  79  80
ENDBRANCH  76  79
ENDBRANCH  74  76
ENDBRANCH  72  74
ENDBRANCH  70  71
ENDBRANCH   1  69
TORSDOF 17
ENDMDL
MODEL 3
REMARK VINA RESULT:    -0.078      3.015     13.321
REMARK INTER + INTRA:          -3.461
REMARK INTER:                  -3.758
REMARK INTRA:                   0.298
REMARK UNBOUND:                -3.228
REMARK SMILES C=C1C(=O)N[C@H](C)C(=O)N[C@@H](CC(C)C)C(=O)N[C@@H](C(=O)O)[C@H](C)C(=O)N[C@@H](CCCN=C(N)N)C(=O)N[C@@H](/C=C/C(C)=C/[C@H](C)[C@H](Cc2ccccc2)OC)[C@H](C)C(=O)N[C@@H](C(=O)O)CCC(=O)N1C
REMARK SMILES IDX 39 1 38 2 37 3 36 4 28 6 27 7 25 8 26 9 23 11 24 12 19 13
REMARK SMILES IDX 18 14 16 15 17 16 11 18 10 19 8 20 9 21 12 24 13 25 14 26
REMARK SMILES IDX 15 27 20 28 21 29 22 30 29 32 30 33 31 34 32 35 33 36 34 37
REMARK SMILES IDX 35 38 57 43 58 44 59 45 60 46 61 47 62 49 66 50 67 51 68 52
REMARK SMILES IDX 69 53 70 54 71 55 2 56 1 57 3 58 4 59 5 60 6 62 7 63 63 65
REMARK SMILES IDX 64 66 65 67 40 69 41 70 42 71 44 72 43 73 45 74 46 75 47 76
REMARK SMILES IDX 55 77 56 78 48 79 49 80 50 81 54 82 51 83 53 84 52 85
REMARK H PARENT 38 5 27 10 18 17 10 22 22 31 34 39 34 40 35 41 35 42 61 48
REMARK H PARENT 5 61 65 68
REMARK Flexibility Score:  369.900
ROOT
ATOM      1  C   UNL     1       4.778   3.108  -7.515  1.00  0.00     0.117 C 
ENDROOT
BRANCH   1   2
ATOM      2  N   UNL     1       4.683   2.010  -6.553  1.00  0.00    -0.347 N 
ATOM      3  O   UNL     1       5.548   0.352  -7.885  1.00  0.00    -0.273 OA
ATOM      4  C   UNL     1       5.162   0.735  -6.785  1.00  0.00     0.243 C 
ATOM      5  H   UNL     1       4.292   2.185  -5.640  1.00  0.00     0.164 HD
BRANCH   4   6
ATOM      6  C   UNL     1       5.014  -0.217  -5.571  1.00  0.00     0.171 C 
BRANCH   6   7
ATOM      7  N   UNL     1       6.309  -0.834  -5.240  1.00  0.00    -0.344 N 
ATOM      8  C   UNL     1       6.364  -2.059  -4.611  1.00  0.00     0.226 C 
ATOM      9  O   UNL     1       5.359  -2.676  -4.280  1.00  0.00    -0.275 OA
ATOM     10  H   UNL     1       7.160  -0.323  -5.438  1.00  0.00     0.164 HD
BRANCH   8  11
ATOM     11  C   UNL     1       7.771  -2.585  -4.388  1.00  0.00     0.109 C 
ATOM     12  C   UNL     1       8.009  -2.833  -2.898  1.00  0.00     0.021 C 
BRANCH  11  13
ATOM     13  C   UNL     1       8.021  -3.805  -5.297  1.00  0.00     0.204 C 
BRANCH  13  14
ATOM     14  N   UNL     1       8.048  -5.060  -4.540  1.00  0.00    -0.340 N 
ATOM     15  C   UNL     1       8.871  -6.116  -4.870  1.00  0.00     0.243 C 
ATOM     16  O   UNL     1       9.686  -6.055  -5.789  1.00  0.00    -0.273 OA
ATOM     17  H   UNL     1       7.296  -5.232  -3.867  1.00  0.00     0.164 HD
BRANCH  15  18
ATOM     18  C   UNL     1       8.577  -7.404  -4.063  1.00  0.00     0.171 C 
BRANCH  18  19
ATOM     19  N   UNL     1       9.377  -8.468  -4.668  1.00  0.00    -0.343 N 
ATOM     20  C   UNL     1       9.064  -9.802  -4.496  1.00  0.00     0.242 CG0
ATOM     21  O   UNL     1       8.180 -10.161  -3.721  1.00  0.00    -0.273 OA
ATOM     22  H   UNL     1      10.188  -8.225  -5.225  1.00  0.00     0.164 HD
ATOM     23  G   UNL     1       9.974 -10.775  -5.274  1.00  0.00     0.000 G0
ENDBRANCH  18  19
BRANCH  18  24
ATOM     24  C   UNL     1       8.930  -7.208  -2.584  1.00  0.00     0.038 C 
BRANCH  24  25
ATOM     25  C   UNL     1       8.697  -8.449  -1.696  1.00  0.00    -0.015 C 
ATOM     26  C   UNL     1       7.822  -8.143  -0.480  1.00  0.00     0.007 C 
ATOM     27  C   UNL     1      10.044  -9.011  -1.233  1.00  0.00     0.007 C 
ENDBRANCH  24  25
ENDBRANCH  18  24
ENDBRANCH  15  18
ENDBRANCH  13  14
BRANCH  13  28
ATOM     28  C   UNL     1       6.970  -3.962  -6.400  1.00  0.00     0.327 C 
ATOM     29  O   UNL     1       6.452  -5.007  -6.761  1.00  0.00    -0.250 OA
BRANCH  28  30
ATOM     30  O   UNL     1       6.723  -2.813  -7.062  1.00  0.00    -0.480 OA
ATOM     31  H   UNL     1       7.466  -2.226  -6.813  1.00  0.00     0.296 HD
ENDBRANCH  28  30
ENDBRANCH  13  28
ENDBRANCH  11  13
ENDBRANCH   8  11
ENDBRANCH   6   7
BRANCH   6  32
ATOM     32  C   UNL     1       4.462   0.571  -4.378  1.00  0.00     0.037 C 
BRANCH  32  33
ATOM     33  C   UNL     1       3.314  -0.169  -3.677  1.00  0.00     0.026 C 
BRANCH  33  34
ATOM     34  C   UNL     1       2.203   0.776  -3.218  1.00  0.00     0.146 C 
BRANCH  34  35
ATOM     35  N   UNL     1       2.729   2.134  -3.176  1.00  0.00    -0.254 NA
ATOM     36  C   UNL     1       2.096   3.057  -3.800  1.00  0.00     0.185 C 
ATOM     37  N   UNL     1       2.569   4.312  -3.764  1.00  0.00    -0.370 N 
ATOM     38  N   UNL     1       0.969   2.965  -4.527  1.00  0.00    -0.370 N 
ATOM     39  H   UNL     1       3.413   4.465  -3.226  1.00  0.00     0.159 HD
ATOM     40  H   UNL     1       2.046   5.113  -4.076  1.00  0.00     0.159 HD
ATOM     41  H   UNL     1       0.645   3.738  -5.085  1.00  0.00     0.159 HD
ATOM     42  H   UNL     1       0.511   2.076  -4.653  1.00  0.00     0.159 HD
ENDBRANCH  34  35
ENDBRANCH  33  34
ENDBRANCH  32  33
ENDBRANCH   6  32
ENDBRANCH   4   6
ENDBRANCH   1   2
BRANCH   1  43
ATOM     43  C   UNL     1       4.710   4.455  -6.737  1.00  0.00     0.102 C 
ATOM     44  C   UNL     1       3.279   4.866  -6.350  1.00  0.00     0.020 C 
BRANCH  43  45
ATOM     45  C   UNL     1       5.497   5.550  -7.464  1.00  0.00     0.225 C 
ATOM     46  O   UNL     1       5.152   6.728  -7.474  1.00  0.00    -0.275 OA
ATOM     47  N   UNL     1       6.579   5.116  -8.195  1.00  0.00    -0.342 N 
ATOM     48  H   UNL     1       6.935   4.181  -8.055  1.00  0.00     0.164 HD
BRANCH  47  49
ATOM     49  C   UNL     1       7.445   6.057  -8.912  1.00  0.00     0.192 C 
BRANCH  49  50
ATOM     50  C   UNL     1       7.710   7.283  -8.036  1.00  0.00     0.047 C 
BRANCH  50  51
ATOM     51  C   UNL     1       9.166   7.762  -8.130  1.00  0.00     0.103 C 
BRANCH  51  52
ATOM     52  C   UNL     1       9.958   7.441  -6.864  1.00  0.00     0.226 C 
ATOM     53  O   UNL     1      10.570   6.374  -6.781  1.00  0.00    -0.275 OA
BRANCH  52  54
ATOM     54  N   UNL     1       9.999   8.444  -5.878  1.00  0.00    -0.311 N 
ATOM     55  C   UNL     1       9.332   9.736  -6.087  1.00  0.00     0.153 C 
BRANCH  54  56
ATOM     56  C   UNL     1      10.672   8.248  -4.661  1.00  0.00     0.102 C 
ATOM     57  C   UNL     1      10.294   7.384  -3.705  1.00  0.00     0.043 C 
BRANCH  56  58
ATOM     58  C   UNL     1      11.946   8.997  -4.350  1.00  0.00     0.268 C 
ATOM     59  O   UNL     1      12.633   9.535  -5.208  1.00  0.00    -0.268 OA
ATOM     60  N   UNL     1      12.218   9.066  -3.005  1.00  0.00    -0.339 N 
ATOM     61  H   UNL     1      11.605   8.584  -2.358  1.00  0.00     0.164 HD
BRANCH  60  62
ATOM     62  C   UNL     1      13.370   9.797  -2.479  1.00  0.00     0.168 CG0
ATOM     63  C   UNL     1      14.256   8.890  -1.635  1.00  0.00     0.041 C 
ATOM     64  G   UNL     1      12.882  11.006  -1.654  1.00  0.00     0.000 G0
ENDBRANCH  60  62
ENDBRANCH  56  58
ENDBRANCH  54  56
ENDBRANCH  52  54
ENDBRANCH  51  52
ENDBRANCH  50  51
ENDBRANCH  49  50
BRANCH  49  65
ATOM     65  C   UNL     1       6.816   6.506 -10.240  1.00  0.00     0.326 C 
ATOM     66  O   UNL     1       5.737   6.132 -10.678  1.00  0.00    -0.250 OA
BRANCH  65  67
ATOM     67  O   UNL     1       7.583   7.343 -10.973  1.00  0.00    -0.480 OA
ATOM     68  H   UNL     1       7.066   8.178 -10.988  1.00  0.00     0.296 HD
ENDBRANCH  65  67
ENDBRANCH  49  65
ENDBRANCH  47  49
ENDBRANCH  43  45
ENDBRANCH   1  43
BRANCH   1  69
ATOM     69  C   UNL     1       3.740   2.826  -8.585  1.00  0.00    -0.001 C 
ATOM     70  C   UNL     1       3.467   3.566  -9.674  1.00  0.00     0.001 C 
BRANCH  70  71
ATOM     71  C   UNL     1       2.477   3.272 -10.712  1.00  0.00    -0.055 C 
ATOM     72  C   UNL     1       2.229   4.228 -11.632  1.00  0.00    -0.018 C 
ATOM     73  C   UNL     1       1.810   1.922 -10.684  1.00  0.00     0.044 C 
BRANCH  72  74
ATOM     74  C   UNL     1       1.268   4.203 -12.812  1.00  0.00     0.038 C 
ATOM     75  C   UNL     1       1.908   3.331 -13.899  1.00  0.00     0.015 C 
BRANCH  74  76
ATOM     76  C   UNL     1       0.968   5.669 -13.244  1.00  0.00     0.128 C 
BRANCH  76  77
ATOM     77  O   UNL     1      -0.369   5.763 -13.765  1.00  0.00    -0.381 OA
ATOM     78  C   UNL     1      -1.124   4.567 -13.619  1.00  0.00     0.195 C 
ENDBRANCH  76  77
BRANCH  76  79
ATOM     79  C   UNL     1       1.258   6.721 -12.145  1.00  0.00     0.068 C 
BRANCH  79  80
ATOM     80  C   UNL     1       2.090   7.924 -12.519  1.00  0.00    -0.045 A 
ATOM     81  C   UNL     1       1.511   9.194 -12.638  1.00  0.00     0.004 A 
ATOM     82  C   UNL     1       3.461   7.780 -12.783  1.00  0.00     0.004 A 
ATOM     83  C   UNL     1       2.286  10.299 -12.998  1.00  0.00     0.000 A 
ATOM     84  C   UNL     1       4.234   8.886 -13.145  1.00  0.00     0.000 A 
ATOM     85  C   UNL     1       3.647  10.145 -13.251  1.00  0.00     0.000 A 
ENDBRANCH  79  80
ENDBRANCH  76  79
ENDBRANCH  74  76
ENDBRANCH  72  74
ENDBRANCH  70  71
ENDBRANCH   1  69
TORSDOF 17
ENDMDL
