MODEL 1
REMARK VINA RESULT:    -5.526      0.000      0.000
REMARK INTER + INTRA:         -11.911
REMARK INTER:                  -9.887
REMARK INTRA:                  -2.025
REMARK UNBOUND:                -2.025
REMARK SMILES CC[C@H](C)[C@H]1NC(=O)c2coc(n2)[C@H](C(C)C)NC(=O)[C@H]([C@@H](C)O)NC(=O)[C@H](C)NC(=O)c2csc1n2
REMARK SMILES IDX 11 1 13 2 12 3 9 4 10 5 7 6 6 7 8 8 5 10 36 11 35 12 34 13
REMARK SMILES IDX 37 14 33 15 31 16 32 17 30 18 28 20 29 21 3 23 4 24 2 25
REMARK SMILES IDX 1 26 14 27 18 28 19 29 20 30 21 32 25 33 26 34 27 35 22 38
REMARK SMILES IDX 23 39 24 40 15 42 16 43 17 44
REMARK H PARENT 6 9 30 19 18 31 25 36 24 41
REMARK Flexibility Score:   94.900
ROOT
ATOM      1  O   UNL     1      -7.005   0.052  -6.959  1.00  0.00    -0.446 OA
ATOM      2  N   UNL     1      -5.729  -0.945  -5.392  1.00  0.00    -0.207 NA
ATOM      3  C   UNL     1      -6.947  -0.571  -5.741  1.00  0.00     0.217 A 
ATOM      4  C   UNL     1      -4.937  -0.567  -6.462  1.00  0.00     0.167 A 
ATOM      5  C   UNL     1      -5.720   0.040  -7.413  1.00  0.00     0.231 A 
ENDROOT
BRANCH   4   6
ATOM      6  C   UNL     1      -3.500  -0.776  -6.499  1.00  0.00     0.273 C 
ATOM      7  N   UNL     1      -3.165  -1.876  -7.247  1.00  0.00    -0.341 N 
ATOM      8  O   UNL     1      -2.696  -0.065  -5.909  1.00  0.00    -0.267 OA
ATOM      9  H   UNL     1      -3.945  -2.423  -7.601  1.00  0.00     0.164 HD
BRANCH   7  10
ATOM     10  C   UNL     1      -1.836  -2.456  -7.251  1.00  0.00     0.145 C 
BRANCH  10  11
ATOM     11  C   UNL     1      -1.979  -3.935  -6.922  1.00  0.00     0.116 A 
ATOM     12  S   UNL     1      -1.061  -5.098  -7.802  1.00  0.00    -0.124 S 
ATOM     13  C   UNL     1      -1.739  -6.344  -6.848  1.00  0.00     0.101 A 
ATOM     14  N   UNL     1      -2.761  -4.430  -5.977  1.00  0.00    -0.234 NA
ATOM     15  C   UNL     1      -2.615  -5.818  -5.918  1.00  0.00     0.139 A 
BRANCH  15  16
ATOM     16  C   UNL     1      -3.338  -6.627  -4.934  1.00  0.00     0.271 C 
ATOM     17  O   UNL     1      -3.177  -7.837  -4.821  1.00  0.00    -0.267 OA
ATOM     18  N   UNL     1      -4.207  -5.896  -4.152  1.00  0.00    -0.339 N 
ATOM     19  H   UNL     1      -4.332  -4.922  -4.417  1.00  0.00     0.164 HD
BRANCH  18  20
ATOM     20  C   UNL     1      -5.060  -6.543  -3.165  1.00  0.00     0.168 CG0
ATOM     21  C   UNL     1      -4.365  -6.640  -1.806  1.00  0.00     0.041 C 
ATOM     22  G   UNL     1      -6.395  -5.808  -2.959  1.00  0.00     0.000 G0
ENDBRANCH  18  20
ENDBRANCH  15  16
ENDBRANCH  10  11
BRANCH  10  23
ATOM     23  C   UNL     1      -1.096  -2.217  -8.593  1.00  0.00     0.015 C 
ATOM     24  C   UNL     1      -2.047  -2.018  -9.786  1.00  0.00     0.010 C 
BRANCH  23  25
ATOM     25  C   UNL     1      -0.120  -1.021  -8.533  1.00  0.00     0.002 C 
ATOM     26  C   UNL     1      -0.577   0.192  -9.333  1.00  0.00     0.004 C 
ENDBRANCH  23  25
ENDBRANCH  10  23
ENDBRANCH   7  10
ENDBRANCH   4   6
BRANCH   3  27
ATOM     27  C   UNL     1      -8.207  -0.714  -4.933  1.00  0.00     0.171 C 
BRANCH  27  28
ATOM     28  N   UNL     1      -7.898  -1.536  -3.767  1.00  0.00    -0.342 N 
ATOM     29  C   UNL     1      -7.923  -2.913  -3.796  1.00  0.00     0.245 C 
ATOM     30  O   UNL     1      -8.191  -3.552  -4.812  1.00  0.00    -0.273 OA
ATOM     31  H   UNL     1      -7.556  -1.080  -2.923  1.00  0.00     0.164 HD
BRANCH  29  32
ATOM     32  C   UNL     1      -7.443  -3.608  -2.505  1.00  0.00     0.200 C 
BRANCH  32  33
ATOM     33  N   UNL     1      -6.271  -4.430  -2.833  1.00  0.00    -0.340 N 
ATOM     34  C   UNL     1      -6.371  -5.799  -2.966  1.00  0.00     0.243 CG0
ATOM     35  O   UNL     1      -7.425  -6.397  -2.756  1.00  0.00    -0.273 OA
ATOM     36  H   UNL     1      -5.381  -3.968  -2.982  1.00  0.00     0.164 HD
ATOM     37  G   UNL     1      -5.045  -6.548  -3.174  1.00  0.00     0.000 G0
ENDBRANCH  32  33
BRANCH  32  38
ATOM     38  C   UNL     1      -7.165  -2.584  -1.381  1.00  0.00     0.143 C 
ATOM     39  C   UNL     1      -7.624  -3.036   0.001  1.00  0.00     0.041 C 
BRANCH  38  40
ATOM     40  O   UNL     1      -5.758  -2.278  -1.329  1.00  0.00    -0.391 OA
ATOM     41  H   UNL     1      -5.637  -1.437  -1.808  1.00  0.00     0.211 HD
ENDBRANCH  38  40
ENDBRANCH  32  38
ENDBRANCH  29  32
ENDBRANCH  27  28
BRANCH  27  42
ATOM     42  C   UNL     1      -8.949   0.584  -4.533  1.00  0.00     0.015 C 
ATOM     43  C   UNL     1      -9.421   1.461  -5.699  1.00  0.00     0.010 C 
ATOM     44  C   UNL     1     -10.111   0.307  -3.573  1.00  0.00     0.010 C 
ENDBRANCH  27  42
ENDBRANCH   3  27
TORSDOF 5
ENDMDL
MODEL 2
REMARK VINA RESULT:    -5.231      1.797      2.284
REMARK INTER + INTRA:         -11.383
REMARK INTER:                  -9.405
REMARK INTRA:                  -1.978
REMARK UNBOUND:                -2.025
REMARK SMILES CC[C@H](C)[C@H]1NC(=O)c2coc(n2)[C@H](C(C)C)NC(=O)[C@H]([C@@H](C)O)NC(=O)[C@H](C)NC(=O)c2csc1n2
REMARK SMILES IDX 11 1 13 2 12 3 9 4 10 5 7 6 6 7 8 8 5 10 36 11 35 12 34 13
REMARK SMILES IDX 37 14 33 15 31 16 32 17 30 18 28 20 29 21 3 23 4 24 2 25
REMARK SMILES IDX 1 26 14 27 18 28 19 29 20 30 21 32 25 33 26 34 27 35 22 38
REMARK SMILES IDX 23 39 24 40 15 42 16 43 17 44
REMARK H PARENT 6 9 30 19 18 31 25 36 24 41
REMARK Flexibility Score:   94.900
ROOT
ATOM      1  O   UNL     1      -7.155   1.202  -7.149  1.00  0.00    -0.446 OA
ATOM      2  N   UNL     1      -6.433  -0.337  -5.669  1.00  0.00    -0.207 NA
ATOM      3  C   UNL     1      -7.400   0.501  -5.999  1.00  0.00     0.217 A 
ATOM      4  C   UNL     1      -5.502  -0.198  -6.684  1.00  0.00     0.167 A 
ATOM      5  C   UNL     1      -5.948   0.741  -7.582  1.00  0.00     0.231 A 
ENDROOT
BRANCH   4   6
ATOM      6  C   UNL     1      -4.251  -0.934  -6.719  1.00  0.00     0.273 C 
ATOM      7  N   UNL     1      -4.356  -2.082  -7.464  1.00  0.00    -0.341 N 
ATOM      8  O   UNL     1      -3.238  -0.577  -6.131  1.00  0.00    -0.267 OA
ATOM      9  H   UNL     1      -5.285  -2.295  -7.816  1.00  0.00     0.164 HD
BRANCH   7  10
ATOM     10  C   UNL     1      -3.345  -3.120  -7.465  1.00  0.00     0.145 C 
BRANCH  10  11
ATOM     11  C   UNL     1      -3.904  -4.308  -6.695  1.00  0.00     0.116 A 
ATOM     12  S   UNL     1      -3.849  -5.882  -7.395  1.00  0.00    -0.124 S 
ATOM     13  C   UNL     1      -4.568  -6.526  -5.984  1.00  0.00     0.101 A 
ATOM     14  N   UNL     1      -4.437  -4.245  -5.486  1.00  0.00    -0.234 NA
ATOM     15  C   UNL     1      -4.807  -5.524  -5.063  1.00  0.00     0.139 A 
BRANCH  15  16
ATOM     16  C   UNL     1      -5.391  -5.759  -3.741  1.00  0.00     0.271 C 
ATOM     17  O   UNL     1      -5.581  -6.882  -3.288  1.00  0.00    -0.267 OA
ATOM     18  N   UNL     1      -5.701  -4.599  -3.062  1.00  0.00    -0.339 N 
ATOM     19  H   UNL     1      -5.599  -3.736  -3.589  1.00  0.00     0.164 HD
BRANCH  18  20
ATOM     20  C   UNL     1      -6.352  -4.638  -1.760  1.00  0.00     0.168 CG0
ATOM     21  C   UNL     1      -5.417  -4.143  -0.655  1.00  0.00     0.041 C 
ATOM     22  G   UNL     1      -7.631  -3.787  -1.709  1.00  0.00     0.000 G0
ENDBRANCH  18  20
ENDBRANCH  15  16
ENDBRANCH  10  11
BRANCH  10  23
ATOM     23  C   UNL     1      -2.898  -3.503  -8.901  1.00  0.00     0.015 C 
ATOM     24  C   UNL     1      -3.935  -3.141  -9.977  1.00  0.00     0.010 C 
BRANCH  23  25
ATOM     25  C   UNL     1      -1.540  -2.877  -9.292  1.00  0.00     0.002 C 
ATOM     26  C   UNL     1      -1.483  -2.372 -10.727  1.00  0.00     0.004 C 
ENDBRANCH  23  25
ENDBRANCH  10  23
ENDBRANCH   7  10
ENDBRANCH   4   6
BRANCH   3  27
ATOM     27  C   UNL     1      -8.661   0.779  -5.228  1.00  0.00     0.171 C 
BRANCH  27  28
ATOM     28  N   UNL     1      -8.499   0.220  -3.890  1.00  0.00    -0.342 N 
ATOM     29  C   UNL     1      -8.928  -1.044  -3.552  1.00  0.00     0.245 C 
ATOM     30  O   UNL     1      -9.466  -1.802  -4.357  1.00  0.00    -0.273 OA
ATOM     31  H   UNL     1      -7.960   0.744  -3.201  1.00  0.00     0.164 HD
BRANCH  29  32
ATOM     32  C   UNL     1      -8.554  -1.509  -2.128  1.00  0.00     0.200 C 
BRANCH  32  33
ATOM     33  N   UNL     1      -7.474  -2.498  -2.235  1.00  0.00    -0.340 N 
ATOM     34  C   UNL     1      -7.616  -3.770  -1.720  1.00  0.00     0.243 CG0
ATOM     35  O   UNL     1      -8.619  -4.111  -1.097  1.00  0.00    -0.273 OA
ATOM     36  H   UNL     1      -6.623  -2.236  -2.718  1.00  0.00     0.164 HD
ATOM     37  G   UNL     1      -6.361  -4.656  -1.780  1.00  0.00     0.000 G0
ENDBRANCH  32  33
BRANCH  32  38
ATOM     38  C   UNL     1      -8.186  -0.311  -1.221  1.00  0.00     0.143 C 
ATOM     39  C   UNL     1      -8.731  -0.416   0.199  1.00  0.00     0.041 C 
BRANCH  38  40
ATOM     40  O   UNL     1      -6.755  -0.159  -1.162  1.00  0.00    -0.391 OA
ATOM     41  H   UNL     1      -6.558   0.314  -0.332  1.00  0.00     0.211 HD
ENDBRANCH  38  40
ENDBRANCH  32  38
ENDBRANCH  29  32
ENDBRANCH  27  28
BRANCH  27  42
ATOM     42  C   UNL     1      -9.157   2.245  -5.176  1.00  0.00     0.015 C 
ATOM     43  C   UNL     1      -8.139   3.269  -4.662  1.00  0.00     0.010 C 
ATOM     44  C   UNL     1      -9.737   2.701  -6.518  1.00  0.00     0.010 C 
ENDBRANCH  27  42
ENDBRANCH   3  27
TORSDOF 5
ENDMDL
MODEL 3
REMARK VINA RESULT:    -5.141     12.169     17.410
REMARK INTER + INTRA:         -11.223
REMARK INTER:                  -8.826
REMARK INTRA:                  -2.396
REMARK UNBOUND:                -2.025
REMARK SMILES CC[C@H](C)[C@H]1NC(=O)c2coc(n2)[C@H](C(C)C)NC(=O)[C@H]([C@@H](C)O)NC(=O)[C@H](C)NC(=O)c2csc1n2
REMARK SMILES IDX 11 1 13 2 12 3 9 4 10 5 7 6 6 7 8 8 5 10 36 11 35 12 34 13
REMARK SMILES IDX 37 14 33 15 31 16 32 17 30 18 28 20 29 21 3 23 4 24 2 25
REMARK SMILES IDX 1 26 14 27 18 28 19 29 20 30 21 32 25 33 26 34 27 35 22 38
REMARK SMILES IDX 23 39 24 40 15 42 16 43 17 44
REMARK H PARENT 6 9 30 19 18 31 25 36 24 41
REMARK Flexibility Score:   94.900
ROOT
ATOM      1  O   UNL     1     -10.812  -3.603   7.599  1.00  0.00    -0.446 OA
ATOM      2  N   UNL     1     -13.024  -3.395   7.217  1.00  0.00    -0.207 NA
ATOM      3  C   UNL     1     -11.807  -3.272   6.718  1.00  0.00     0.217 A 
ATOM      4  C   UNL     1     -12.818  -3.863   8.503  1.00  0.00     0.167 A 
ATOM      5  C   UNL     1     -11.469  -3.989   8.729  1.00  0.00     0.231 A 
ENDROOT
BRANCH   4   6
ATOM      6  C   UNL     1     -13.901  -4.131   9.433  1.00  0.00     0.273 C 
ATOM      7  N   UNL     1     -15.097  -4.307   8.785  1.00  0.00    -0.341 N 
ATOM      8  O   UNL     1     -13.757  -4.167  10.649  1.00  0.00    -0.267 OA
ATOM      9  H   UNL     1     -15.081  -4.157   7.780  1.00  0.00     0.164 HD
BRANCH   7  10
ATOM     10  C   UNL     1     -16.373  -4.341   9.473  1.00  0.00     0.145 C 
BRANCH  10  11
ATOM     11  C   UNL     1     -17.233  -3.222   8.904  1.00  0.00     0.116 A 
ATOM     12  S   UNL     1     -18.930  -3.456   8.722  1.00  0.00    -0.124 S 
ATOM     13  C   UNL     1     -19.079  -1.861   8.128  1.00  0.00     0.101 A 
ATOM     14  N   UNL     1     -16.783  -2.034   8.535  1.00  0.00    -0.234 NA
ATOM     15  C   UNL     1     -17.847  -1.237   8.102  1.00  0.00     0.139 A 
BRANCH  15  16
ATOM     16  C   UNL     1     -17.645   0.147   7.669  1.00  0.00     0.271 C 
ATOM     17  O   UNL     1     -18.448   1.042   7.908  1.00  0.00    -0.267 OA
ATOM     18  N   UNL     1     -16.470   0.340   6.973  1.00  0.00    -0.339 N 
ATOM     19  H   UNL     1     -15.946  -0.500   6.744  1.00  0.00     0.164 HD
BRANCH  18  20
ATOM     20  C   UNL     1     -16.135   1.639   6.406  1.00  0.00     0.168 CG0
ATOM     21  C   UNL     1     -15.495   2.555   7.452  1.00  0.00     0.041 C 
ATOM     22  G   UNL     1     -15.166   1.536   5.216  1.00  0.00     0.000 G0
ENDBRANCH  18  20
ENDBRANCH  15  16
ENDBRANCH  10  11
BRANCH  10  23
ATOM     23  C   UNL     1     -17.060  -5.728   9.365  1.00  0.00     0.015 C 
ATOM     24  C   UNL     1     -16.637  -6.522   8.117  1.00  0.00     0.010 C 
BRANCH  23  25
ATOM     25  C   UNL     1     -16.829  -6.609  10.613  1.00  0.00     0.002 C 
ATOM     26  C   UNL     1     -17.371  -8.026  10.479  1.00  0.00     0.004 C 
ENDBRANCH  23  25
ENDBRANCH  10  23
ENDBRANCH   7  10
ENDBRANCH   4   6
BRANCH   3  27
ATOM     27  C   UNL     1     -11.434  -2.771   5.350  1.00  0.00     0.171 C 
BRANCH  27  28
ATOM     28  N   UNL     1     -11.766  -1.351   5.288  1.00  0.00    -0.342 N 
ATOM     29  C   UNL     1     -12.598  -0.820   4.328  1.00  0.00     0.245 C 
ATOM     30  O   UNL     1     -13.135  -1.506   3.460  1.00  0.00    -0.273 OA
ATOM     31  H   UNL     1     -11.451  -0.741   6.041  1.00  0.00     0.164 HD
BRANCH  29  32
ATOM     32  C   UNL     1     -12.934   0.676   4.502  1.00  0.00     0.200 C 
BRANCH  32  33
ATOM     33  N   UNL     1     -14.008   0.795   5.495  1.00  0.00    -0.340 N 
ATOM     34  C   UNL     1     -15.155   1.514   5.227  1.00  0.00     0.243 CG0
ATOM     35  O   UNL     1     -15.301   2.137   4.178  1.00  0.00    -0.273 OA
ATOM     36  H   UNL     1     -13.903   0.317   6.382  1.00  0.00     0.164 HD
ATOM     37  G   UNL     1     -16.133   1.670   6.403  1.00  0.00     0.000 G0
ENDBRANCH  32  33
BRANCH  32  38
ATOM     38  C   UNL     1     -11.678   1.499   4.871  1.00  0.00     0.143 C 
ATOM     39  C   UNL     1     -11.452   2.721   3.988  1.00  0.00     0.041 C 
BRANCH  38  40
ATOM     40  O   UNL     1     -11.754   1.924   6.246  1.00  0.00    -0.391 OA
ATOM     41  H   UNL     1     -12.218   1.216   6.732  1.00  0.00     0.211 HD
ENDBRANCH  38  40
ENDBRANCH  32  38
ENDBRANCH  29  32
ENDBRANCH  27  28
BRANCH  27  42
ATOM     42  C   UNL     1      -9.989  -3.039   4.861  1.00  0.00     0.015 C 
ATOM     43  C   UNL     1      -9.859  -3.493   3.402  1.00  0.00     0.010 C 
ATOM     44  C   UNL     1      -9.062  -1.850   5.133  1.00  0.00     0.010 C 
ENDBRANCH  27  42
ENDBRANCH   3  27
TORSDOF 5
ENDMDL
MODEL 4
REMARK VINA RESULT:    -5.096      1.530      2.048
REMARK INTER + INTRA:         -11.142
REMARK INTER:                  -9.062
REMARK INTRA:                  -2.081
REMARK UNBOUND:                -2.025
REMARK SMILES CC[C@H](C)[C@H]1NC(=O)c2coc(n2)[C@H](C(C)C)NC(=O)[C@H]([C@@H](C)O)NC(=O)[C@H](C)NC(=O)c2csc1n2
REMARK SMILES IDX 11 1 13 2 12 3 9 4 10 5 7 6 6 7 8 8 5 10 36 11 35 12 34 13
REMARK SMILES IDX 37 14 33 15 31 16 32 17 30 18 28 20 29 21 3 23 4 24 2 25
REMARK SMILES IDX 1 26 14 27 18 28 19 29 20 30 21 32 25 33 26 34 27 35 22 38
REMARK SMILES IDX 23 39 24 40 15 42 16 43 17 44
REMARK H PARENT 6 9 30 19 18 31 25 36 24 41
REMARK Flexibility Score:   94.900
ROOT
ATOM      1  O   UNL     1      -7.862   1.281  -6.260  1.00  0.00    -0.446 OA
ATOM      2  N   UNL     1      -6.476  -0.492  -6.122  1.00  0.00    -0.207 NA
ATOM      3  C   UNL     1      -7.645   0.018  -5.777  1.00  0.00     0.217 A 
ATOM      4  C   UNL     1      -5.896   0.490  -6.906  1.00  0.00     0.167 A 
ATOM      5  C   UNL     1      -6.746   1.566  -6.987  1.00  0.00     0.231 A 
ENDROOT
BRANCH   4   6
ATOM      6  C   UNL     1      -4.576   0.357  -7.498  1.00  0.00     0.273 C 
ATOM      7  N   UNL     1      -4.541  -0.631  -8.449  1.00  0.00    -0.341 N 
ATOM      8  O   UNL     1      -3.612   1.033  -7.161  1.00  0.00    -0.267 OA
ATOM      9  H   UNL     1      -5.396  -1.171  -8.555  1.00  0.00     0.164 HD
BRANCH   7  10
ATOM     10  C   UNL     1      -3.308  -1.141  -9.016  1.00  0.00     0.145 C 
BRANCH  10  11
ATOM     11  C   UNL     1      -2.895  -2.357  -8.199  1.00  0.00     0.116 A 
ATOM     12  S   UNL     1      -1.232  -2.607  -7.822  1.00  0.00    -0.124 S 
ATOM     13  C   UNL     1      -1.650  -4.015  -6.947  1.00  0.00     0.101 A 
ATOM     14  N   UNL     1      -3.726  -3.268  -7.721  1.00  0.00    -0.234 NA
ATOM     15  C   UNL     1      -3.016  -4.218  -6.983  1.00  0.00     0.139 A 
BRANCH  15  16
ATOM     16  C   UNL     1      -3.690  -5.327  -6.305  1.00  0.00     0.271 C 
ATOM     17  O   UNL     1      -4.021  -6.357  -6.882  1.00  0.00    -0.267 OA
ATOM     18  N   UNL     1      -3.912  -5.098  -4.963  1.00  0.00    -0.339 N 
ATOM     19  H   UNL     1      -3.693  -4.163  -4.629  1.00  0.00     0.164 HD
BRANCH  18  20
ATOM     20  C   UNL     1      -4.632  -6.063  -4.142  1.00  0.00     0.168 CG0
ATOM     21  C   UNL     1      -3.753  -6.593  -3.007  1.00  0.00     0.041 C 
ATOM     22  G   UNL     1      -5.906  -5.475  -3.514  1.00  0.00     0.000 G0
ENDBRANCH  18  20
ENDBRANCH  15  16
ENDBRANCH  10  11
BRANCH  10  23
ATOM     23  C   UNL     1      -3.448  -1.464 -10.527  1.00  0.00     0.015 C 
ATOM     24  C   UNL     1      -3.494  -2.971 -10.826  1.00  0.00     0.010 C 
BRANCH  23  25
ATOM     25  C   UNL     1      -4.683  -0.793 -11.171  1.00  0.00     0.002 C 
ATOM     26  C   UNL     1      -5.352  -1.635 -12.249  1.00  0.00     0.004 C 
ENDBRANCH  23  25
ENDBRANCH  10  23
ENDBRANCH   7  10
ENDBRANCH   4   6
BRANCH   3  27
ATOM     27  C   UNL     1      -8.686  -0.617  -4.896  1.00  0.00     0.171 C 
BRANCH  27  28
ATOM     28  N   UNL     1      -7.994  -1.421  -3.894  1.00  0.00    -0.342 N 
ATOM     29  C   UNL     1      -8.082  -2.794  -3.848  1.00  0.00     0.245 C 
ATOM     30  O   UNL     1      -8.740  -3.446  -4.657  1.00  0.00    -0.273 OA
ATOM     31  H   UNL     1      -7.340  -0.960  -3.262  1.00  0.00     0.164 HD
BRANCH  29  32
ATOM     32  C   UNL     1      -7.178  -3.478  -2.800  1.00  0.00     0.200 C 
BRANCH  32  33
ATOM     33  N   UNL     1      -6.066  -4.128  -3.505  1.00  0.00    -0.340 N 
ATOM     34  C   UNL     1      -5.914  -5.499  -3.493  1.00  0.00     0.243 CG0
ATOM     35  O   UNL     1      -6.660  -6.229  -2.844  1.00  0.00    -0.273 OA
ATOM     36  H   UNL     1      -5.417  -3.549  -4.024  1.00  0.00     0.164 HD
ATOM     37  G   UNL     1      -4.633  -6.033  -4.154  1.00  0.00     0.000 G0
ENDBRANCH  32  33
BRANCH  32  38
ATOM     38  C   UNL     1      -6.705  -2.476  -1.721  1.00  0.00     0.143 C 
ATOM     39  C   UNL     1      -7.621  -2.392  -0.506  1.00  0.00     0.041 C 
BRANCH  38  40
ATOM     40  O   UNL     1      -5.376  -2.817  -1.282  1.00  0.00    -0.391 OA
ATOM     41  H   UNL     1      -5.089  -3.576  -1.823  1.00  0.00     0.211 HD
ENDBRANCH  38  40
ENDBRANCH  32  38
ENDBRANCH  29  32
ENDBRANCH  27  28
BRANCH  27  42
ATOM     42  C   UNL     1      -9.737   0.318  -4.248  1.00  0.00     0.015 C 
ATOM     43  C   UNL     1     -11.171  -0.225  -4.213  1.00  0.00     0.010 C 
ATOM     44  C   UNL     1      -9.310   0.779  -2.851  1.00  0.00     0.010 C 
ENDBRANCH  27  42
ENDBRANCH   3  27
TORSDOF 5
ENDMDL
MODEL 5
REMARK VINA RESULT:    -4.871      6.547     12.186
REMARK INTER + INTRA:         -10.740
REMARK INTER:                  -8.316
REMARK INTRA:                  -2.424
REMARK UNBOUND:                -2.025
REMARK SMILES CC[C@H](C)[C@H]1NC(=O)c2coc(n2)[C@H](C(C)C)NC(=O)[C@H]([C@@H](C)O)NC(=O)[C@H](C)NC(=O)c2csc1n2
REMARK SMILES IDX 11 1 13 2 12 3 9 4 10 5 7 6 6 7 8 8 5 10 36 11 35 12 34 13
REMARK SMILES IDX 37 14 33 15 31 16 32 17 30 18 28 20 29 21 3 23 4 24 2 25
REMARK SMILES IDX 1 26 14 27 18 28 19 29 20 30 21 32 25 33 26 34 27 35 22 38
REMARK SMILES IDX 23 39 24 40 15 42 16 43 17 44
REMARK H PARENT 6 9 30 19 18 31 25 36 24 41
REMARK Flexibility Score:   94.900
ROOT
ATOM      1  O   UNL     1      -6.570  -9.036   2.918  1.00  0.00    -0.446 OA
ATOM      2  N   UNL     1      -7.329  -6.913   2.931  1.00  0.00    -0.207 NA
ATOM      3  C   UNL     1      -6.920  -7.929   2.192  1.00  0.00     0.217 A 
ATOM      4  C   UNL     1      -7.268  -7.391   4.228  1.00  0.00     0.167 A 
ATOM      5  C   UNL     1      -6.806  -8.685   4.213  1.00  0.00     0.231 A 
ENDROOT
BRANCH   4   6
ATOM      6  C   UNL     1      -7.621  -6.589   5.387  1.00  0.00     0.273 C 
ATOM      7  N   UNL     1      -8.962  -6.665   5.670  1.00  0.00    -0.341 N 
ATOM      8  O   UNL     1      -6.816  -5.911   6.012  1.00  0.00    -0.267 OA
ATOM      9  H   UNL     1      -9.523  -7.194   5.008  1.00  0.00     0.164 HD
BRANCH   7  10
ATOM     10  C   UNL     1      -9.623  -5.782   6.610  1.00  0.00     0.145 C 
BRANCH  10  11
ATOM     11  C   UNL     1     -10.056  -4.539   5.846  1.00  0.00     0.116 A 
ATOM     12  S   UNL     1      -9.779  -2.979   6.525  1.00  0.00    -0.124 S 
ATOM     13  C   UNL     1     -10.460  -2.260   5.132  1.00  0.00     0.101 A 
ATOM     14  N   UNL     1     -10.636  -4.543   4.657  1.00  0.00    -0.234 NA
ATOM     15  C   UNL     1     -10.856  -3.230   4.232  1.00  0.00     0.139 A 
BRANCH  15  16
ATOM     16  C   UNL     1     -11.453  -2.934   2.928  1.00  0.00     0.271 C 
ATOM     17  O   UNL     1     -12.664  -2.934   2.735  1.00  0.00    -0.267 OA
ATOM     18  N   UNL     1     -10.524  -2.655   1.947  1.00  0.00    -0.339 N 
ATOM     19  H   UNL     1      -9.550  -2.796   2.205  1.00  0.00     0.164 HD
BRANCH  18  20
ATOM     20  C   UNL     1     -10.931  -2.403   0.572  1.00  0.00     0.168 CG0
ATOM     21  C   UNL     1     -10.993  -0.903   0.276  1.00  0.00     0.041 C 
ATOM     22  G   UNL     1      -9.985  -3.046  -0.455  1.00  0.00     0.000 G0
ENDBRANCH  18  20
ENDBRANCH  15  16
ENDBRANCH  10  11
BRANCH  10  23
ATOM     23  C   UNL     1     -10.809  -6.476   7.331  1.00  0.00     0.015 C 
ATOM     24  C   UNL     1     -10.511  -7.930   7.733  1.00  0.00     0.010 C 
BRANCH  23  25
ATOM     25  C   UNL     1     -11.283  -5.703   8.583  1.00  0.00     0.002 C 
ATOM     26  C   UNL     1     -11.017  -6.429   9.894  1.00  0.00     0.004 C 
ENDBRANCH  23  25
ENDBRANCH  10  23
ENDBRANCH   7  10
ENDBRANCH   4   6
BRANCH   3  27
ATOM     27  C   UNL     1      -6.762  -7.956   0.696  1.00  0.00     0.171 C 
BRANCH  27  28
ATOM     28  N   UNL     1      -6.916  -6.591   0.205  1.00  0.00    -0.342 N 
ATOM     29  C   UNL     1      -8.066  -6.142  -0.405  1.00  0.00     0.245 C 
ATOM     30  O   UNL     1      -9.055  -6.855  -0.568  1.00  0.00    -0.273 OA
ATOM     31  H   UNL     1      -6.183  -5.912   0.408  1.00  0.00     0.164 HD
BRANCH  29  32
ATOM     32  C   UNL     1      -8.090  -4.635  -0.739  1.00  0.00     0.200 C 
BRANCH  32  33
ATOM     33  N   UNL     1      -9.126  -3.998   0.083  1.00  0.00    -0.340 N 
ATOM     34  C   UNL     1      -9.989  -3.063  -0.452  1.00  0.00     0.243 CG0
ATOM     35  O   UNL     1      -9.889  -2.677  -1.614  1.00  0.00    -0.273 OA
ATOM     36  H   UNL     1      -9.213  -4.273   1.054  1.00  0.00     0.164 HD
ATOM     37  G   UNL     1     -10.931  -2.376   0.550  1.00  0.00     0.000 G0
ENDBRANCH  32  33
BRANCH  32  38
ATOM     38  C   UNL     1      -6.695  -3.993  -0.556  1.00  0.00     0.143 C 
ATOM     39  C   UNL     1      -6.419  -2.826  -1.496  1.00  0.00     0.041 C 
BRANCH  38  40
ATOM     40  O   UNL     1      -6.533  -3.546   0.805  1.00  0.00    -0.391 OA
ATOM     41  H   UNL     1      -6.992  -2.687   0.873  1.00  0.00     0.211 HD
ENDBRANCH  38  40
ENDBRANCH  32  38
ENDBRANCH  29  32
ENDBRANCH  27  28
BRANCH  27  42
ATOM     42  C   UNL     1      -5.488  -8.626   0.126  1.00  0.00     0.015 C 
ATOM     43  C   UNL     1      -5.723  -9.882  -0.721  1.00  0.00     0.010 C 
ATOM     44  C   UNL     1      -4.609  -7.629  -0.637  1.00  0.00     0.010 C 
ENDBRANCH  27  42
ENDBRANCH   3  27
TORSDOF 5
ENDMDL
MODEL 6
REMARK VINA RESULT:    -4.716      5.449      8.051
REMARK INTER + INTRA:         -10.463
REMARK INTER:                  -8.457
REMARK INTRA:                  -2.005
REMARK UNBOUND:                -2.025
REMARK SMILES CC[C@H](C)[C@H]1NC(=O)c2coc(n2)[C@H](C(C)C)NC(=O)[C@H]([C@@H](C)O)NC(=O)[C@H](C)NC(=O)c2csc1n2
REMARK SMILES IDX 11 1 13 2 12 3 9 4 10 5 7 6 6 7 8 8 5 10 36 11 35 12 34 13
REMARK SMILES IDX 37 14 33 15 31 16 32 17 30 18 28 20 29 21 3 23 4 24 2 25
REMARK SMILES IDX 1 26 14 27 18 28 19 29 20 30 21 32 25 33 26 34 27 35 22 38
REMARK SMILES IDX 23 39 24 40 15 42 16 43 17 44
REMARK H PARENT 6 9 30 19 18 31 25 36 24 41
REMARK Flexibility Score:   94.900
ROOT
ATOM      1  O   UNL     1      -8.677  -3.284  -3.461  1.00  0.00    -0.446 OA
ATOM      2  N   UNL     1      -7.824  -3.044  -1.388  1.00  0.00    -0.207 NA
ATOM      3  C   UNL     1      -8.761  -2.668  -2.241  1.00  0.00     0.217 A 
ATOM      4  C   UNL     1      -7.092  -3.989  -2.084  1.00  0.00     0.167 A 
ATOM      5  C   UNL     1      -7.616  -4.132  -3.345  1.00  0.00     0.231 A 
ENDROOT
BRANCH   4   6
ATOM      6  C   UNL     1      -5.936  -4.668  -1.523  1.00  0.00     0.273 C 
ATOM      7  N   UNL     1      -6.294  -5.794  -0.826  1.00  0.00    -0.341 N 
ATOM      8  O   UNL     1      -4.787  -4.260  -1.643  1.00  0.00    -0.267 OA
ATOM      9  H   UNL     1      -7.293  -5.956  -0.734  1.00  0.00     0.164 HD
BRANCH   7  10
ATOM     10  C   UNL     1      -5.379  -6.517   0.035  1.00  0.00     0.145 C 
BRANCH  10  11
ATOM     11  C   UNL     1      -5.797  -6.253   1.475  1.00  0.00     0.116 A 
ATOM     12  S   UNL     1      -4.750  -6.711   2.765  1.00  0.00    -0.124 S 
ATOM     13  C   UNL     1      -5.869  -6.073   3.889  1.00  0.00     0.101 A 
ATOM     14  N   UNL     1      -6.926  -5.670   1.842  1.00  0.00    -0.234 NA
ATOM     15  C   UNL     1      -6.966  -5.548   3.233  1.00  0.00     0.139 A 
BRANCH  15  16
ATOM     16  C   UNL     1      -8.089  -4.902   3.917  1.00  0.00     0.271 C 
ATOM     17  O   UNL     1      -8.317  -5.057   5.112  1.00  0.00    -0.267 OA
ATOM     18  N   UNL     1      -8.855  -4.109   3.089  1.00  0.00    -0.339 N 
ATOM     19  H   UNL     1      -8.629  -4.152   2.099  1.00  0.00     0.164 HD
BRANCH  18  20
ATOM     20  C   UNL     1     -10.053  -3.442   3.580  1.00  0.00     0.168 CG0
ATOM     21  C   UNL     1      -9.795  -1.957   3.843  1.00  0.00     0.041 C 
ATOM     22  G   UNL     1     -11.235  -3.548   2.604  1.00  0.00     0.000 G0
ENDBRANCH  18  20
ENDBRANCH  15  16
ENDBRANCH  10  11
BRANCH  10  23
ATOM     23  C   UNL     1      -5.333  -8.031  -0.299  1.00  0.00     0.015 C 
ATOM     24  C   UNL     1      -6.457  -8.480  -1.248  1.00  0.00     0.010 C 
BRANCH  23  25
ATOM     25  C   UNL     1      -3.977  -8.471  -0.896  1.00  0.00     0.002 C 
ATOM     26  C   UNL     1      -3.606  -7.750  -2.185  1.00  0.00     0.004 C 
ENDBRANCH  23  25
ENDBRANCH  10  23
ENDBRANCH   7  10
ENDBRANCH   4   6
BRANCH   3  27
ATOM     27  C   UNL     1      -9.827  -1.631  -2.017  1.00  0.00     0.171 C 
BRANCH  27  28
ATOM     28  N   UNL     1     -10.509  -1.954  -0.769  1.00  0.00    -0.342 N 
ATOM     29  C   UNL     1     -11.880  -1.927  -0.637  1.00  0.00     0.245 C 
ATOM     30  O   UNL     1     -12.632  -1.644  -1.568  1.00  0.00    -0.273 OA
ATOM     31  H   UNL     1      -9.959  -2.308   0.013  1.00  0.00     0.164 HD
BRANCH  29  32
ATOM     32  C   UNL     1     -12.422  -2.423   0.720  1.00  0.00     0.200 C 
BRANCH  32  33
ATOM     33  N   UNL     1     -11.296  -2.522   1.658  1.00  0.00    -0.340 N 
ATOM     34  C   UNL     1     -11.222  -3.543   2.582  1.00  0.00     0.243 CG0
ATOM     35  O   UNL     1     -12.119  -4.375   2.704  1.00  0.00    -0.273 OA
ATOM     36  H   UNL     1     -10.556  -1.832   1.601  1.00  0.00     0.164 HD
ATOM     37  G   UNL     1     -10.065  -3.447   3.589  1.00  0.00     0.000 G0
ENDBRANCH  32  33
BRANCH  32  38
ATOM     38  C   UNL     1     -13.562  -1.516   1.239  1.00  0.00     0.143 C 
ATOM     39  C   UNL     1     -14.932  -1.844   0.657  1.00  0.00     0.041 C 
BRANCH  38  40
ATOM     40  O   UNL     1     -13.635  -1.590   2.676  1.00  0.00    -0.391 OA
ATOM     41  H   UNL     1     -14.401  -1.049   2.945  1.00  0.00     0.211 HD
ENDBRANCH  38  40
ENDBRANCH  32  38
ENDBRANCH  29  32
ENDBRANCH  27  28
BRANCH  27  42
ATOM     42  C   UNL     1      -9.397  -0.144  -2.064  1.00  0.00     0.015 C 
ATOM     43  C   UNL     1      -8.092   0.143  -2.815  1.00  0.00     0.010 C 
ATOM     44  C   UNL     1     -10.520   0.760  -2.583  1.00  0.00     0.010 C 
ENDBRANCH  27  42
ENDBRANCH   3  27
TORSDOF 5
ENDMDL
MODEL 7
REMARK VINA RESULT:    -4.706      8.854     13.047
REMARK INTER + INTRA:         -10.444
REMARK INTER:                  -8.175
REMARK INTRA:                  -2.268
REMARK UNBOUND:                -2.025
REMARK SMILES CC[C@H](C)[C@H]1NC(=O)c2coc(n2)[C@H](C(C)C)NC(=O)[C@H]([C@@H](C)O)NC(=O)[C@H](C)NC(=O)c2csc1n2
REMARK SMILES IDX 11 1 13 2 12 3 9 4 10 5 7 6 6 7 8 8 5 10 36 11 35 12 34 13
REMARK SMILES IDX 37 14 33 15 31 16 32 17 30 18 28 20 29 21 3 23 4 24 2 25
REMARK SMILES IDX 1 26 14 27 18 28 19 29 20 30 21 32 25 33 26 34 27 35 22 38
REMARK SMILES IDX 23 39 24 40 15 42 16 43 17 44
REMARK H PARENT 6 9 30 19 18 31 25 36 24 41
REMARK Flexibility Score:   94.900
ROOT
ATOM      1  O   UNL     1      -1.100   5.931 -14.770  1.00  0.00    -0.446 OA
ATOM      2  N   UNL     1      -1.775   6.991 -12.898  1.00  0.00    -0.207 NA
ATOM      3  C   UNL     1      -0.746   6.567 -13.610  1.00  0.00     0.217 A 
ATOM      4  C   UNL     1      -2.879   6.634 -13.653  1.00  0.00     0.167 A 
ATOM      5  C   UNL     1      -2.461   5.990 -14.791  1.00  0.00     0.231 A 
ENDROOT
BRANCH   4   6
ATOM      6  C   UNL     1      -4.245   6.899 -13.235  1.00  0.00     0.273 C 
ATOM      7  N   UNL     1      -4.295   7.791 -12.193  1.00  0.00    -0.341 N 
ATOM      8  O   UNL     1      -5.224   6.365 -13.741  1.00  0.00    -0.267 OA
ATOM      9  H   UNL     1      -3.397   8.080 -11.816  1.00  0.00     0.164 HD
BRANCH   7  10
ATOM     10  C   UNL     1      -5.498   8.043 -11.424  1.00  0.00     0.145 C 
BRANCH  10  11
ATOM     11  C   UNL     1      -5.491   7.092 -10.236  1.00  0.00     0.116 A 
ATOM     12  S   UNL     1      -6.980   6.468  -9.632  1.00  0.00    -0.124 S 
ATOM     13  C   UNL     1      -6.119   5.564  -8.465  1.00  0.00     0.101 A 
ATOM     14  N   UNL     1      -4.406   6.672  -9.607  1.00  0.00    -0.234 NA
ATOM     15  C   UNL     1      -4.760   5.777  -8.595  1.00  0.00     0.139 A 
BRANCH  15  16
ATOM     16  C   UNL     1      -3.752   5.123  -7.757  1.00  0.00     0.271 C 
ATOM     17  O   UNL     1      -3.867   5.013  -6.542  1.00  0.00    -0.267 OA
ATOM     18  N   UNL     1      -2.671   4.646  -8.468  1.00  0.00    -0.339 N 
ATOM     19  H   UNL     1      -2.641   4.897  -9.453  1.00  0.00     0.164 HD
BRANCH  18  20
ATOM     20  C   UNL     1      -1.539   4.026  -7.794  1.00  0.00     0.168 CG0
ATOM     21  C   UNL     1      -1.515   2.513  -8.022  1.00  0.00     0.041 C 
ATOM     22  G   UNL     1      -0.187   4.593  -8.259  1.00  0.00     0.000 G0
ENDBRANCH  18  20
ENDBRANCH  15  16
ENDBRANCH  10  11
BRANCH  10  23
ATOM     23  C   UNL     1      -5.617   9.528 -10.992  1.00  0.00     0.015 C 
ATOM     24  C   UNL     1      -5.794  10.494 -12.176  1.00  0.00     0.010 C 
BRANCH  23  25
ATOM     25  C   UNL     1      -6.763   9.768  -9.983  1.00  0.00     0.002 C 
ATOM     26  C   UNL     1      -8.117  10.016 -10.633  1.00  0.00     0.004 C 
ENDBRANCH  23  25
ENDBRANCH  10  23
ENDBRANCH   7  10
ENDBRANCH   4   6
BRANCH   3  27
ATOM     27  C   UNL     1       0.711   6.668 -13.248  1.00  0.00     0.171 C 
BRANCH  27  28
ATOM     28  N   UNL     1       1.007   5.609 -12.290  1.00  0.00    -0.342 N 
ATOM     29  C   UNL     1       1.369   5.861 -10.985  1.00  0.00     0.245 C 
ATOM     30  O   UNL     1       1.453   6.999 -10.526  1.00  0.00    -0.273 OA
ATOM     31  H   UNL     1       0.847   4.640 -12.565  1.00  0.00     0.164 HD
BRANCH  29  32
ATOM     32  C   UNL     1       1.516   4.613 -10.089  1.00  0.00     0.200 C 
BRANCH  32  33
ATOM     33  N   UNL     1       0.191   4.264  -9.564  1.00  0.00    -0.340 N 
ATOM     34  C   UNL     1      -0.174   4.583  -8.272  1.00  0.00     0.243 CG0
ATOM     35  O   UNL     1       0.609   5.114  -7.488  1.00  0.00    -0.273 OA
ATOM     36  H   UNL     1      -0.467   3.798 -10.178  1.00  0.00     0.164 HD
ATOM     37  G   UNL     1      -1.535   4.038  -7.810  1.00  0.00     0.000 G0
ENDBRANCH  32  33
BRANCH  32  38
ATOM     38  C   UNL     1       2.190   3.447 -10.850  1.00  0.00     0.143 C 
ATOM     39  C   UNL     1       3.039   2.538  -9.969  1.00  0.00     0.041 C 
BRANCH  38  40
ATOM     40  O   UNL     1       1.191   2.651 -11.517  1.00  0.00    -0.391 OA
ATOM     41  H   UNL     1       1.220   2.900 -12.460  1.00  0.00     0.211 HD
ENDBRANCH  38  40
ENDBRANCH  32  38
ENDBRANCH  29  32
ENDBRANCH  27  28
BRANCH  27  42
ATOM     42  C   UNL     1       1.735   6.689 -14.409  1.00  0.00     0.015 C 
ATOM     43  C   UNL     1       2.676   7.899 -14.439  1.00  0.00     0.010 C 
ATOM     44  C   UNL     1       2.540   5.388 -14.486  1.00  0.00     0.010 C 
ENDBRANCH  27  42
ENDBRANCH   3  27
TORSDOF 5
ENDMDL
MODEL 8
REMARK VINA RESULT:    -4.647      3.284      6.751
REMARK INTER + INTRA:         -10.340
REMARK INTER:                  -8.749
REMARK INTRA:                  -1.591
REMARK UNBOUND:                -2.025
REMARK SMILES CC[C@H](C)[C@H]1NC(=O)c2coc(n2)[C@H](C(C)C)NC(=O)[C@H]([C@@H](C)O)NC(=O)[C@H](C)NC(=O)c2csc1n2
REMARK SMILES IDX 11 1 13 2 12 3 9 4 10 5 7 6 6 7 8 8 5 10 36 11 35 12 34 13
REMARK SMILES IDX 37 14 33 15 31 16 32 17 30 18 28 20 29 21 3 23 4 24 2 25
REMARK SMILES IDX 1 26 14 27 18 28 19 29 20 30 21 32 25 33 26 34 27 35 22 38
REMARK SMILES IDX 23 39 24 40 15 42 16 43 17 44
REMARK H PARENT 6 9 30 19 18 31 25 36 24 41
REMARK Flexibility Score:   94.900
ROOT
ATOM      1  O   UNL     1      -6.851  -4.463   0.661  1.00  0.00    -0.446 OA
ATOM      2  N   UNL     1      -7.784  -3.807  -1.284  1.00  0.00    -0.207 NA
ATOM      3  C   UNL     1      -7.690  -3.593   0.017  1.00  0.00     0.217 A 
ATOM      4  C   UNL     1      -6.931  -4.872  -1.515  1.00  0.00     0.167 A 
ATOM      5  C   UNL     1      -6.365  -5.266  -0.327  1.00  0.00     0.231 A 
ENDROOT
BRANCH   4   6
ATOM      6  C   UNL     1      -6.731  -5.458  -2.829  1.00  0.00     0.273 C 
ATOM      7  N   UNL     1      -5.564  -5.027  -3.408  1.00  0.00    -0.341 N 
ATOM      8  O   UNL     1      -7.528  -6.224  -3.357  1.00  0.00    -0.267 OA
ATOM      9  H   UNL     1      -5.051  -4.320  -2.890  1.00  0.00     0.164 HD
BRANCH   7  10
ATOM     10  C   UNL     1      -5.241  -5.255  -4.802  1.00  0.00     0.145 C 
BRANCH  10  11
ATOM     11  C   UNL     1      -5.512  -3.960  -5.555  1.00  0.00     0.116 A 
ATOM     12  S   UNL     1      -5.208  -3.877  -7.250  1.00  0.00    -0.124 S 
ATOM     13  C   UNL     1      -5.769  -2.263  -7.264  1.00  0.00     0.101 A 
ATOM     14  N   UNL     1      -5.991  -2.853  -5.012  1.00  0.00    -0.234 NA
ATOM     15  C   UNL     1      -6.158  -1.876  -5.996  1.00  0.00     0.139 A 
BRANCH  15  16
ATOM     16  C   UNL     1      -6.711  -0.556  -5.684  1.00  0.00     0.271 C 
ATOM     17  O   UNL     1      -6.519   0.429  -6.388  1.00  0.00    -0.267 OA
ATOM     18  N   UNL     1      -7.465  -0.534  -4.529  1.00  0.00    -0.339 N 
ATOM     19  H   UNL     1      -7.456  -1.387  -3.977  1.00  0.00     0.164 HD
BRANCH  18  20
ATOM     20  C   UNL     1      -8.038   0.707  -4.026  1.00  0.00     0.168 CG0
ATOM     21  C   UNL     1      -9.565   0.689  -4.110  1.00  0.00     0.041 C 
ATOM     22  G   UNL     1      -7.651   0.991  -2.565  1.00  0.00     0.000 G0
ENDBRANCH  18  20
ENDBRANCH  15  16
ENDBRANCH  10  11
BRANCH  10  23
ATOM     23  C   UNL     1      -3.784  -5.755  -4.992  1.00  0.00     0.015 C 
ATOM     24  C   UNL     1      -3.029  -5.948  -3.666  1.00  0.00     0.010 C 
BRANCH  23  25
ATOM     25  C   UNL     1      -3.704  -7.069  -5.802  1.00  0.00     0.002 C 
ATOM     26  C   UNL     1      -3.272  -6.877  -7.249  1.00  0.00     0.004 C 
ENDBRANCH  23  25
ENDBRANCH  10  23
ENDBRANCH   7  10
ENDBRANCH   4   6
BRANCH   3  27
ATOM     27  C   UNL     1      -8.431  -2.561   0.822  1.00  0.00     0.171 C 
BRANCH  27  28
ATOM     28  N   UNL     1      -8.360  -1.296   0.099  1.00  0.00    -0.342 N 
ATOM     29  C   UNL     1      -8.803  -0.106   0.632  1.00  0.00     0.245 C 
ATOM     30  O   UNL     1      -9.277  -0.018   1.763  1.00  0.00    -0.273 OA
ATOM     31  H   UNL     1      -7.875  -1.270  -0.797  1.00  0.00     0.164 HD
BRANCH  29  32
ATOM     32  C   UNL     1      -8.527   1.145  -0.229  1.00  0.00     0.200 C 
BRANCH  32  33
ATOM     33  N   UNL     1      -8.682   0.776  -1.641  1.00  0.00    -0.340 N 
ATOM     34  C   UNL     1      -7.674   1.003  -2.555  1.00  0.00     0.243 CG0
ATOM     35  O   UNL     1      -6.632   1.578  -2.245  1.00  0.00    -0.273 OA
ATOM     36  H   UNL     1      -9.542   0.328  -1.934  1.00  0.00     0.164 HD
ATOM     37  G   UNL     1      -8.021   0.695  -4.021  1.00  0.00     0.000 G0
ENDBRANCH  32  33
BRANCH  32  38
ATOM     38  C   UNL     1      -9.430   2.329   0.188  1.00  0.00     0.143 C 
ATOM     39  C   UNL     1     -10.920   2.073  -0.008  1.00  0.00     0.041 C 
BRANCH  38  40
ATOM     40  O   UNL     1      -9.192   2.669   1.567  1.00  0.00    -0.391 OA
ATOM     41  H   UNL     1      -8.855   3.585   1.575  1.00  0.00     0.211 HD
ENDBRANCH  38  40
ENDBRANCH  32  38
ENDBRANCH  29  32
ENDBRANCH  27  28
BRANCH  27  42
ATOM     42  C   UNL     1      -9.883  -2.895   1.246  1.00  0.00     0.015 C 
ATOM     43  C   UNL     1     -10.687  -3.734   0.246  1.00  0.00     0.010 C 
ATOM     44  C   UNL     1      -9.941  -3.528   2.640  1.00  0.00     0.010 C 
ENDBRANCH  27  42
ENDBRANCH   3  27
TORSDOF 5
ENDMDL
MODEL 9
REMARK VINA RESULT:    -4.597      9.116     13.862
REMARK INTER + INTRA:         -10.250
REMARK INTER:                  -7.890
REMARK INTRA:                  -2.360
REMARK UNBOUND:                -2.025
REMARK SMILES CC[C@H](C)[C@H]1NC(=O)c2coc(n2)[C@H](C(C)C)NC(=O)[C@H]([C@@H](C)O)NC(=O)[C@H](C)NC(=O)c2csc1n2
REMARK SMILES IDX 11 1 13 2 12 3 9 4 10 5 7 6 6 7 8 8 5 10 36 11 35 12 34 13
REMARK SMILES IDX 37 14 33 15 31 16 32 17 30 18 28 20 29 21 3 23 4 24 2 25
REMARK SMILES IDX 1 26 14 27 18 28 19 29 20 30 21 32 25 33 26 34 27 35 22 38
REMARK SMILES IDX 23 39 24 40 15 42 16 43 17 44
REMARK H PARENT 6 9 30 19 18 31 25 36 24 41
REMARK Flexibility Score:   94.900
ROOT
ATOM      1  O   UNL     1     -11.580   3.031   5.751  1.00  0.00    -0.446 OA
ATOM      2  N   UNL     1     -12.963   2.449   4.069  1.00  0.00    -0.207 NA
ATOM      3  C   UNL     1     -11.796   2.972   4.400  1.00  0.00     0.217 A 
ATOM      4  C   UNL     1     -13.543   2.119   5.281  1.00  0.00     0.167 A 
ATOM      5  C   UNL     1     -12.696   2.475   6.302  1.00  0.00     0.231 A 
ENDROOT
BRANCH   4   6
ATOM      6  C   UNL     1     -14.862   1.519   5.393  1.00  0.00     0.273 C 
ATOM      7  N   UNL     1     -14.792   0.155   5.518  1.00  0.00    -0.341 N 
ATOM      8  O   UNL     1     -15.904   2.162   5.354  1.00  0.00    -0.267 OA
ATOM      9  H   UNL     1     -13.863  -0.248   5.442  1.00  0.00     0.164 HD
BRANCH   7  10
ATOM     10  C   UNL     1     -15.949  -0.711   5.400  1.00  0.00     0.145 C 
BRANCH  10  11
ATOM     11  C   UNL     1     -16.153  -1.006   3.921  1.00  0.00     0.116 A 
ATOM     12  S   UNL     1     -17.735  -1.351   3.329  1.00  0.00    -0.124 S 
ATOM     13  C   UNL     1     -17.103  -1.497   1.747  1.00  0.00     0.101 A 
ATOM     14  N   UNL     1     -15.195  -1.009   3.009  1.00  0.00    -0.234 NA
ATOM     15  C   UNL     1     -15.739  -1.275   1.750  1.00  0.00     0.139 A 
BRANCH  15  16
ATOM     16  C   UNL     1     -14.910  -1.302   0.543  1.00  0.00     0.271 C 
ATOM     17  O   UNL     1     -15.099  -2.091  -0.376  1.00  0.00    -0.267 OA
ATOM     18  N   UNL     1     -13.905  -0.358   0.544  1.00  0.00    -0.339 N 
ATOM     19  H   UNL     1     -13.783   0.161   1.410  1.00  0.00     0.164 HD
BRANCH  18  20
ATOM     20  C   UNL     1     -12.939  -0.282  -0.544  1.00  0.00     0.168 CG0
ATOM     21  C   UNL     1     -13.116   1.003  -1.356  1.00  0.00     0.041 C 
ATOM     22  G   UNL     1     -11.484  -0.331  -0.052  1.00  0.00     0.000 G0
ENDBRANCH  18  20
ENDBRANCH  15  16
ENDBRANCH  10  11
BRANCH  10  23
ATOM     23  C   UNL     1     -15.803  -2.003   6.246  1.00  0.00     0.015 C 
ATOM     24  C   UNL     1     -14.358  -2.526   6.315  1.00  0.00     0.010 C 
BRANCH  23  25
ATOM     25  C   UNL     1     -16.339  -1.839   7.686  1.00  0.00     0.002 C 
ATOM     26  C   UNL     1     -17.072  -0.527   7.927  1.00  0.00     0.004 C 
ENDBRANCH  23  25
ENDBRANCH  10  23
ENDBRANCH   7  10
ENDBRANCH   4   6
BRANCH   3  27
ATOM     27  C   UNL     1     -10.756   3.531   3.469  1.00  0.00     0.171 C 
BRANCH  27  28
ATOM     28  N   UNL     1     -10.634   2.619   2.337  1.00  0.00    -0.342 N 
ATOM     29  C   UNL     1      -9.458   1.977   2.018  1.00  0.00     0.245 C 
ATOM     30  O   UNL     1      -8.426   2.114   2.674  1.00  0.00    -0.273 OA
ATOM     31  H   UNL     1     -11.474   2.368   1.817  1.00  0.00     0.164 HD
BRANCH  29  32
ATOM     32  C   UNL     1      -9.556   0.954   0.867  1.00  0.00     0.200 C 
BRANCH  32  33
ATOM     33  N   UNL     1     -10.964   0.846   0.465  1.00  0.00    -0.340 N 
ATOM     34  C   UNL     1     -11.477  -0.333  -0.036  1.00  0.00     0.243 CG0
ATOM     35  O   UNL     1     -10.770  -1.320  -0.227  1.00  0.00    -0.273 OA
ATOM     36  H   UNL     1     -11.565   1.653   0.583  1.00  0.00     0.164 HD
ATOM     37  G   UNL     1     -12.926  -0.265  -0.544  1.00  0.00     0.000 G0
ENDBRANCH  32  33
BRANCH  32  38
ATOM     38  C   UNL     1      -8.621   1.330  -0.306  1.00  0.00     0.143 C 
ATOM     39  C   UNL     1      -8.825   2.745  -0.835  1.00  0.00     0.041 C 
BRANCH  38  40
ATOM     40  O   UNL     1      -7.245   1.174   0.091  1.00  0.00    -0.391 OA
ATOM     41  H   UNL     1      -6.701   1.483  -0.658  1.00  0.00     0.211 HD
ENDBRANCH  38  40
ENDBRANCH  32  38
ENDBRANCH  29  32
ENDBRANCH  27  28
BRANCH  27  42
ATOM     42  C   UNL     1     -10.930   4.997   3.002  1.00  0.00     0.015 C 
ATOM     43  C   UNL     1     -11.925   5.212   1.855  1.00  0.00     0.010 C 
ATOM     44  C   UNL     1     -11.256   5.935   4.170  1.00  0.00     0.010 C 
ENDBRANCH  27  42
ENDBRANCH   3  27
TORSDOF 5
ENDMDL
MODEL 10
REMARK VINA RESULT:    -4.586      4.712      8.360
REMARK INTER + INTRA:         -10.231
REMARK INTER:                  -8.213
REMARK INTRA:                  -2.018
REMARK UNBOUND:                -2.025
REMARK SMILES CC[C@H](C)[C@H]1NC(=O)c2coc(n2)[C@H](C(C)C)NC(=O)[C@H]([C@@H](C)O)NC(=O)[C@H](C)NC(=O)c2csc1n2
REMARK SMILES IDX 11 1 13 2 12 3 9 4 10 5 7 6 6 7 8 8 5 10 36 11 35 12 34 13
REMARK SMILES IDX 37 14 33 15 31 16 32 17 30 18 28 20 29 21 3 23 4 24 2 25
REMARK SMILES IDX 1 26 14 27 18 28 19 29 20 30 21 32 25 33 26 34 27 35 22 38
REMARK SMILES IDX 23 39 24 40 15 42 16 43 17 44
REMARK H PARENT 6 9 30 19 18 31 25 36 24 41
REMARK Flexibility Score:   94.900
ROOT
ATOM      1  O   UNL     1      -9.003  -3.960   3.774  1.00  0.00    -0.446 OA
ATOM      2  N   UNL     1      -8.863  -4.526   1.596  1.00  0.00    -0.207 NA
ATOM      3  C   UNL     1      -9.261  -3.621   2.472  1.00  0.00     0.217 A 
ATOM      4  C   UNL     1      -8.281  -5.514   2.371  1.00  0.00     0.167 A 
ATOM      5  C   UNL     1      -8.369  -5.163   3.696  1.00  0.00     0.231 A 
ENDROOT
BRANCH   4   6
ATOM      6  C   UNL     1      -7.712  -6.728   1.812  1.00  0.00     0.273 C 
ATOM      7  N   UNL     1      -6.340  -6.700   1.823  1.00  0.00    -0.341 N 
ATOM      8  O   UNL     1      -8.385  -7.649   1.365  1.00  0.00    -0.267 OA
ATOM      9  H   UNL     1      -5.920  -5.831   2.139  1.00  0.00     0.164 HD
BRANCH   7  10
ATOM     10  C   UNL     1      -5.522  -7.660   1.108  1.00  0.00     0.145 C 
BRANCH  10  11
ATOM     11  C   UNL     1      -5.246  -7.090  -0.276  1.00  0.00     0.116 A 
ATOM     12  S   UNL     1      -4.185  -7.924  -1.348  1.00  0.00    -0.124 S 
ATOM     13  C   UNL     1      -4.464  -6.732  -2.540  1.00  0.00     0.101 A 
ATOM     14  N   UNL     1      -5.776  -5.978  -0.757  1.00  0.00    -0.234 NA
ATOM     15  C   UNL     1      -5.342  -5.774  -2.069  1.00  0.00     0.139 A 
BRANCH  15  16
ATOM     16  C   UNL     1      -5.802  -4.633  -2.864  1.00  0.00     0.271 C 
ATOM     17  O   UNL     1      -5.671  -4.575  -4.082  1.00  0.00    -0.267 OA
ATOM     18  N   UNL     1      -6.395  -3.641  -2.112  1.00  0.00    -0.339 N 
ATOM     19  H   UNL     1      -6.343  -3.758  -1.103  1.00  0.00     0.164 HD
BRANCH  18  20
ATOM     20  C   UNL     1      -6.852  -2.401  -2.724  1.00  0.00     0.168 CG0
ATOM     21  C   UNL     1      -8.245  -2.564  -3.337  1.00  0.00     0.041 C 
ATOM     22  G   UNL     1      -6.912  -1.233  -1.727  1.00  0.00     0.000 G0
ENDBRANCH  18  20
ENDBRANCH  15  16
ENDBRANCH  10  11
BRANCH  10  23
ATOM     23  C   UNL     1      -4.219  -8.007   1.876  1.00  0.00     0.015 C 
ATOM     24  C   UNL     1      -4.098  -7.284   3.227  1.00  0.00     0.010 C 
BRANCH  23  25
ATOM     25  C   UNL     1      -4.050  -9.525   2.110  1.00  0.00     0.002 C 
ATOM     26  C   UNL     1      -2.881 -10.141   1.353  1.00  0.00     0.004 C 
ENDBRANCH  23  25
ENDBRANCH  10  23
ENDBRANCH   7  10
ENDBRANCH   4   6
BRANCH   3  27
ATOM     27  C   UNL     1      -9.987  -2.336   2.182  1.00  0.00     0.171 C 
BRANCH  27  28
ATOM     28  N   UNL     1      -9.338  -1.705   1.038  1.00  0.00    -0.342 N 
ATOM     29  C   UNL     1      -9.253  -0.339   0.887  1.00  0.00     0.245 C 
ATOM     30  O   UNL     1      -9.705   0.451   1.714  1.00  0.00    -0.273 OA
ATOM     31  H   UNL     1      -8.842  -2.293   0.370  1.00  0.00     0.164 HD
BRANCH  29  32
ATOM     32  C   UNL     1      -8.418   0.141  -0.319  1.00  0.00     0.200 C 
BRANCH  32  33
ATOM     33  N   UNL     1      -8.167  -1.012  -1.193  1.00  0.00    -0.340 N 
ATOM     34  C   UNL     1      -6.919  -1.239  -1.737  1.00  0.00     0.243 CG0
ATOM     35  O   UNL     1      -5.985  -0.459  -1.568  1.00  0.00    -0.273 OA
ATOM     36  H   UNL     1      -8.926  -1.657  -1.376  1.00  0.00     0.164 HD
ATOM     37  G   UNL     1      -6.831  -2.400  -2.740  1.00  0.00     0.000 G0
ENDBRANCH  32  33
BRANCH  32  38
ATOM     38  C   UNL     1      -9.107   1.315  -1.053  1.00  0.00     0.143 C 
ATOM     39  C   UNL     1      -8.161   2.443  -1.447  1.00  0.00     0.041 C 
BRANCH  38  40
ATOM     40  O   UNL     1      -9.777   0.832  -2.234  1.00  0.00    -0.391 OA
ATOM     41  H   UNL     1     -10.387   1.540  -2.517  1.00  0.00     0.211 HD
ENDBRANCH  38  40
ENDBRANCH  32  38
ENDBRANCH  29  32
ENDBRANCH  27  28
BRANCH  27  42
ATOM     42  C   UNL     1     -11.523  -2.411   1.995  1.00  0.00     0.015 C 
ATOM     43  C   UNL     1     -11.999  -3.056   0.689  1.00  0.00     0.010 C 
ATOM     44  C   UNL     1     -12.214  -3.068   3.195  1.00  0.00     0.010 C 
ENDBRANCH  27  42
ENDBRANCH   3  27
TORSDOF 5
ENDMDL
