MODEL 1
REMARK VINA RESULT:    -6.438      0.000      0.000
REMARK INTER + INTRA:         -22.210
REMARK INTER:                 -16.034
REMARK INTRA:                  -6.175
REMARK UNBOUND:                -6.175
REMARK SMILES CCCCCCC[C@H](N)[C@H](O)C(=O)N[C@H](C)C(=O)N(C)[C@H](CC(C)C)C(=O)N[C@@H](Cc1ccc(O)cc1)C(=O)N[C@@H](Cc1ccc(O)cc1)C(=O)O
REMARK SMILES IDX 18 1 17 2 15 3 16 4 14 5 12 6 13 7 10 9 11 10 8 12 9 13 7 16
REMARK SMILES IDX 6 17 5 18 4 19 3 20 2 21 1 22 19 23 20 24 21 25 22 26 23 27
REMARK SMILES IDX 24 28 25 29 26 30 27 31 28 32 29 34 30 35 31 36 32 37 37 38
REMARK SMILES IDX 33 39 36 40 34 41 35 42 38 44 39 45 40 46 41 48 42 49 43 50
REMARK SMILES IDX 44 51 49 52 45 53 48 54 46 55 47 56 50 58 51 59 52 60
REMARK H PARENT 14 8 11 11 9 14 9 15 28 33 35 43 40 47 47 57 52 61
ROOT
ATOM      1  O   UNL     1     -17.968   2.913 -11.047  1.00  0.00    -0.272 OA
ATOM      2  C   UNL     1     -18.045   2.118 -10.098  1.00  0.00     0.245 C 
ENDROOT
BRANCH   2   3
ATOM      3  C   UNL     1     -17.158   0.848 -10.123  1.00  0.00     0.168 C 
ATOM      4  C   UNL     1     -17.479  -0.013 -11.340  1.00  0.00     0.041 C 
BRANCH   3   5
ATOM      5  N   UNL     1     -15.731   1.096  -9.996  1.00  0.00    -0.342 N 
ATOM      6  C   UNL     1     -14.881   0.177  -9.418  1.00  0.00     0.251 C 
ATOM      7  O   UNL     1     -15.259  -0.885  -8.936  1.00  0.00    -0.272 OA
ATOM      8  H   UNL     1     -15.305   1.958 -10.328  1.00  0.00     0.164 HD
BRANCH   6   9
ATOM      9  C   UNL     1     -13.403   0.588  -9.521  1.00  0.00     0.219 C 
BRANCH   9  10
ATOM     10  O   UNL     1     -13.141   1.433 -10.648  1.00  0.00    -0.382 OA
ATOM     11  H   UNL     1     -12.330   1.046 -11.044  1.00  0.00     0.211 HD
ENDBRANCH   9  10
BRANCH   9  12
ATOM     12  C   UNL     1     -12.855   1.223  -8.217  1.00  0.00     0.089 C 
BRANCH  12  13
ATOM     13  N   UNL     1     -13.664   0.727  -7.080  1.00  0.00    -0.325 NA
ATOM     14  H   UNL     1     -13.262   1.072  -6.206  1.00  0.00     0.119 HD
ATOM     15  H   UNL     1     -13.577  -0.291  -7.031  1.00  0.00     0.119 HD
ENDBRANCH  12  13
BRANCH  12  16
ATOM     16  C   UNL     1     -11.350   1.002  -7.935  1.00  0.00     0.022 C 
BRANCH  16  17
ATOM     17  C   UNL     1     -10.362   2.142  -8.216  1.00  0.00     0.002 C 
BRANCH  17  18
ATOM     18  C   UNL     1      -9.289   2.344  -7.148  1.00  0.00     0.000 C 
BRANCH  18  19
ATOM     19  C   UNL     1      -9.356   3.707  -6.446  1.00  0.00    -0.000 C 
BRANCH  19  20
ATOM     20  C   UNL     1     -10.738   4.366  -6.435  1.00  0.00    -0.000 C 
BRANCH  20  21
ATOM     21  C   UNL     1     -10.676   5.891  -6.552  1.00  0.00    -0.003 C 
ATOM     22  C   UNL     1      -9.461   6.337  -7.351  1.00  0.00     0.004 C 
ENDBRANCH  20  21
ENDBRANCH  19  20
ENDBRANCH  18  19
ENDBRANCH  17  18
ENDBRANCH  16  17
ENDBRANCH  12  16
ENDBRANCH   9  12
ENDBRANCH   6   9
ENDBRANCH   3   5
ENDBRANCH   2   3
BRANCH   2  23
ATOM     23  N   UNL     1     -18.820   2.433  -8.988  1.00  0.00    -0.332 N 
ATOM     24  C   UNL     1     -20.263   2.256  -8.911  1.00  0.00     0.147 C 
BRANCH  23  25
ATOM     25  C   UNL     1     -18.174   2.868  -7.719  1.00  0.00     0.174 C 
BRANCH  25  26
ATOM     26  C   UNL     1     -18.934   2.389  -6.461  1.00  0.00     0.038 C 
BRANCH  26  27
ATOM     27  C   UNL     1     -18.592   0.979  -5.930  1.00  0.00    -0.015 C 
ATOM     28  C   UNL     1     -17.203   0.513  -6.365  1.00  0.00     0.007 C 
ATOM     29  C   UNL     1     -18.755   0.842  -4.419  1.00  0.00     0.007 C 
ENDBRANCH  26  27
ENDBRANCH  25  26
BRANCH  25  30
ATOM     30  C   UNL     1     -17.919   4.393  -7.749  1.00  0.00     0.243 C 
ATOM     31  O   UNL     1     -18.445   5.156  -6.940  1.00  0.00    -0.273 OA
ATOM     32  N   UNL     1     -17.075   4.835  -8.735  1.00  0.00    -0.342 N 
ATOM     33  H   UNL     1     -16.568   4.129  -9.276  1.00  0.00     0.164 HD
BRANCH  32  34
ATOM     34  C   UNL     1     -16.741   6.248  -8.931  1.00  0.00     0.175 C 
BRANCH  34  35
ATOM     35  C   UNL     1     -15.491   6.643  -8.129  1.00  0.00     0.070 C 
BRANCH  35  36
ATOM     36  C   UNL     1     -14.205   6.340  -8.863  1.00  0.00    -0.045 A 
ATOM     37  C   UNL     1     -13.730   5.022  -8.933  1.00  0.00     0.007 A 
ATOM     38  C   UNL     1     -13.460   7.366  -9.461  1.00  0.00     0.007 A 
ATOM     39  C   UNL     1     -12.536   4.735  -9.596  1.00  0.00     0.046 A 
ATOM     40  C   UNL     1     -12.265   7.079 -10.124  1.00  0.00     0.046 A 
ATOM     41  C   UNL     1     -11.814   5.765 -10.187  1.00  0.00     0.115 A 
BRANCH  41  42
ATOM     42  O   UNL     1     -10.652   5.443 -10.823  1.00  0.00    -0.508 OA
ATOM     43  H   UNL     1     -10.615   5.937 -11.659  1.00  0.00     0.293 HD
ENDBRANCH  41  42
ENDBRANCH  35  36
ENDBRANCH  34  35
BRANCH  34  44
ATOM     44  C   UNL     1     -16.554   6.490 -10.446  1.00  0.00     0.243 C 
ATOM     45  O   UNL     1     -16.949   7.488 -11.042  1.00  0.00    -0.273 OA
ATOM     46  N   UNL     1     -16.011   5.412 -11.111  1.00  0.00    -0.341 N 
ATOM     47  H   UNL     1     -15.808   4.562 -10.592  1.00  0.00     0.164 HD
BRANCH  46  48
ATOM     48  C   UNL     1     -15.802   5.381 -12.561  1.00  0.00     0.196 C 
BRANCH  48  49
ATOM     49  C   UNL     1     -14.438   5.978 -12.943  1.00  0.00     0.072 C 
BRANCH  49  50
ATOM     50  C   UNL     1     -14.553   7.371 -13.520  1.00  0.00    -0.045 A 
ATOM     51  C   UNL     1     -13.471   8.259 -13.426  1.00  0.00     0.007 A 
ATOM     52  C   UNL     1     -15.737   7.802 -14.132  1.00  0.00     0.007 A 
ATOM     53  C   UNL     1     -13.571   9.551 -13.942  1.00  0.00     0.046 A 
ATOM     54  C   UNL     1     -15.837   9.096 -14.648  1.00  0.00     0.046 A 
ATOM     55  C   UNL     1     -14.752   9.959 -14.549  1.00  0.00     0.115 A 
BRANCH  55  56
ATOM     56  O   UNL     1     -14.809  11.231 -15.039  1.00  0.00    -0.508 OA
ATOM     57  H   UNL     1     -15.716  11.403 -15.339  1.00  0.00     0.293 HD
ENDBRANCH  55  56
ENDBRANCH  49  50
ENDBRANCH  48  49
BRANCH  48  58
ATOM     58  C   UNL     1     -15.882   3.927 -13.046  1.00  0.00     0.326 C 
ATOM     59  O   UNL     1     -16.414   3.516 -14.065  1.00  0.00    -0.250 OA
BRANCH  58  60
ATOM     60  O   UNL     1     -15.266   3.046 -12.218  1.00  0.00    -0.480 OA
ATOM     61  H   UNL     1     -15.023   2.306 -12.817  1.00  0.00     0.296 HD
ENDBRANCH  58  60
ENDBRANCH  48  58
ENDBRANCH  46  48
ENDBRANCH  34  44
ENDBRANCH  32  34
ENDBRANCH  25  30
ENDBRANCH  23  25
ENDBRANCH   2  23
TORSDOF 28
ENDMDL
MODEL 2
REMARK VINA RESULT:    -6.359      1.742      3.335
REMARK INTER + INTRA:         -22.014
REMARK INTER:                 -15.759
REMARK INTRA:                  -6.254
REMARK UNBOUND:                -6.175
REMARK SMILES CCCCCCC[C@H](N)[C@H](O)C(=O)N[C@H](C)C(=O)N(C)[C@H](CC(C)C)C(=O)N[C@@H](Cc1ccc(O)cc1)C(=O)N[C@@H](Cc1ccc(O)cc1)C(=O)O
REMARK SMILES IDX 18 1 17 2 15 3 16 4 14 5 12 6 13 7 10 9 11 10 8 12 9 13 7 16
REMARK SMILES IDX 6 17 5 18 4 19 3 20 2 21 1 22 19 23 20 24 21 25 22 26 23 27
REMARK SMILES IDX 24 28 25 29 26 30 27 31 28 32 29 34 30 35 31 36 32 37 37 38
REMARK SMILES IDX 33 39 36 40 34 41 35 42 38 44 39 45 40 46 41 48 42 49 43 50
REMARK SMILES IDX 44 51 49 52 45 53 48 54 46 55 47 56 50 58 51 59 52 60
REMARK H PARENT 14 8 11 11 9 14 9 15 28 33 35 43 40 47 47 57 52 61
ROOT
ATOM      1  O   UNL     1     -18.920   2.264 -11.083  1.00  0.00    -0.272 OA
ATOM      2  C   UNL     1     -18.646   1.693 -10.017  1.00  0.00     0.245 C 
ENDROOT
BRANCH   2   3
ATOM      3  C   UNL     1     -17.431   0.733  -9.982  1.00  0.00     0.168 C 
ATOM      4  C   UNL     1     -17.222   0.074 -11.341  1.00  0.00     0.041 C 
BRANCH   3   5
ATOM      5  N   UNL     1     -16.203   1.320  -9.469  1.00  0.00    -0.342 N 
ATOM      6  C   UNL     1     -15.229   0.555  -8.862  1.00  0.00     0.251 C 
ATOM      7  O   UNL     1     -15.337  -0.652  -8.672  1.00  0.00    -0.272 OA
ATOM      8  H   UNL     1     -16.016   2.317  -9.537  1.00  0.00     0.164 HD
BRANCH   6   9
ATOM      9  C   UNL     1     -13.963   1.361  -8.528  1.00  0.00     0.219 C 
BRANCH   9  10
ATOM     10  O   UNL     1     -13.110   0.688  -7.594  1.00  0.00    -0.382 OA
ATOM     11  H   UNL     1     -12.841  -0.127  -8.072  1.00  0.00     0.211 HD
ENDBRANCH   9  10
BRANCH   9  12
ATOM     12  C   UNL     1     -13.168   1.794  -9.788  1.00  0.00     0.089 C 
BRANCH  12  13
ATOM     13  N   UNL     1     -13.716   1.071 -10.958  1.00  0.00    -0.325 NA
ATOM     14  H   UNL     1     -14.025   1.749 -11.657  1.00  0.00     0.119 HD
ATOM     15  H   UNL     1     -14.565   0.576 -10.674  1.00  0.00     0.119 HD
ENDBRANCH  12  13
BRANCH  12  16
ATOM     16  C   UNL     1     -13.126   3.314 -10.073  1.00  0.00     0.022 C 
BRANCH  16  17
ATOM     17  C   UNL     1     -13.562   4.293  -8.975  1.00  0.00     0.002 C 
BRANCH  17  18
ATOM     18  C   UNL     1     -12.429   4.835  -8.106  1.00  0.00     0.000 C 
BRANCH  18  19
ATOM     19  C   UNL     1     -11.921   6.218  -8.534  1.00  0.00    -0.000 C 
BRANCH  19  20
ATOM     20  C   UNL     1     -12.724   6.889  -9.652  1.00  0.00    -0.000 C 
BRANCH  20  21
ATOM     21  C   UNL     1     -13.169   8.311  -9.299  1.00  0.00    -0.003 C 
ATOM     22  C   UNL     1     -12.602   8.754  -7.960  1.00  0.00     0.004 C 
ENDBRANCH  20  21
ENDBRANCH  19  20
ENDBRANCH  18  19
ENDBRANCH  17  18
ENDBRANCH  16  17
ENDBRANCH  12  16
ENDBRANCH   9  12
ENDBRANCH   6   9
ENDBRANCH   3   5
ENDBRANCH   2   3
BRANCH   2  23
ATOM     23  N   UNL     1     -19.346   2.012  -8.858  1.00  0.00    -0.332 N 
ATOM     24  C   UNL     1     -20.714   1.601  -8.580  1.00  0.00     0.147 C 
BRANCH  23  25
ATOM     25  C   UNL     1     -18.662   2.713  -7.737  1.00  0.00     0.174 C 
BRANCH  25  26
ATOM     26  C   UNL     1     -19.194   2.290  -6.348  1.00  0.00     0.038 C 
BRANCH  26  27
ATOM     27  C   UNL     1     -18.309   1.328  -5.523  1.00  0.00    -0.015 C 
ATOM     28  C   UNL     1     -18.915   1.003  -4.158  1.00  0.00     0.007 C 
ATOM     29  C   UNL     1     -17.945   0.047  -6.268  1.00  0.00     0.007 C 
ENDBRANCH  26  27
ENDBRANCH  25  26
BRANCH  25  30
ATOM     30  C   UNL     1     -18.685   4.241  -7.972  1.00  0.00     0.243 C 
ATOM     31  O   UNL     1     -19.619   4.943  -7.590  1.00  0.00    -0.273 OA
ATOM     32  N   UNL     1     -17.602   4.755  -8.638  1.00  0.00    -0.342 N 
ATOM     33  H   UNL     1     -16.805   4.134  -8.797  1.00  0.00     0.164 HD
BRANCH  32  34
ATOM     34  C   UNL     1     -17.467   6.175  -8.972  1.00  0.00     0.175 C 
BRANCH  34  35
ATOM     35  C   UNL     1     -16.276   6.811  -8.238  1.00  0.00     0.070 C 
BRANCH  35  36
ATOM     36  C   UNL     1     -16.704   7.800  -7.176  1.00  0.00    -0.045 A 
ATOM     37  C   UNL     1     -16.176   9.099  -7.174  1.00  0.00     0.007 A 
ATOM     38  C   UNL     1     -17.610   7.430  -6.173  1.00  0.00     0.007 A 
ATOM     39  C   UNL     1     -16.554  10.014  -6.190  1.00  0.00     0.046 A 
ATOM     40  C   UNL     1     -17.988   8.345  -5.188  1.00  0.00     0.046 A 
ATOM     41  C   UNL     1     -17.457   9.630  -5.206  1.00  0.00     0.115 A 
BRANCH  41  42
ATOM     42  O   UNL     1     -17.798  10.553  -4.262  1.00  0.00    -0.508 OA
ATOM     43  H   UNL     1     -18.074  11.366  -4.717  1.00  0.00     0.293 HD
ENDBRANCH  41  42
ENDBRANCH  35  36
ENDBRANCH  34  35
BRANCH  34  44
ATOM     44  C   UNL     1     -17.329   6.295 -10.507  1.00  0.00     0.243 C 
ATOM     45  O   UNL     1     -18.138   6.866 -11.233  1.00  0.00    -0.273 OA
ATOM     46  N   UNL     1     -16.267   5.582 -11.020  1.00  0.00    -0.341 N 
ATOM     47  H   UNL     1     -15.693   5.028 -10.389  1.00  0.00     0.164 HD
BRANCH  46  48
ATOM     48  C   UNL     1     -15.975   5.489 -12.452  1.00  0.00     0.196 C 
BRANCH  48  49
ATOM     49  C   UNL     1     -14.609   6.111 -12.787  1.00  0.00     0.072 C 
BRANCH  49  50
ATOM     50  C   UNL     1     -14.732   7.450 -13.477  1.00  0.00    -0.045 A 
ATOM     51  C   UNL     1     -15.944   7.815 -14.082  1.00  0.00     0.007 A 
ATOM     52  C   UNL     1     -13.645   8.331 -13.541  1.00  0.00     0.007 A 
ATOM     53  C   UNL     1     -16.065   9.043 -14.733  1.00  0.00     0.046 A 
ATOM     54  C   UNL     1     -13.767   9.560 -14.193  1.00  0.00     0.046 A 
ATOM     55  C   UNL     1     -14.977   9.906 -14.784  1.00  0.00     0.115 A 
BRANCH  55  56
ATOM     56  O   UNL     1     -15.137  11.095 -15.431  1.00  0.00    -0.508 OA
ATOM     57  H   UNL     1     -16.000  11.465 -15.184  1.00  0.00     0.293 HD
ENDBRANCH  55  56
ENDBRANCH  49  50
ENDBRANCH  48  49
BRANCH  48  58
ATOM     58  C   UNL     1     -15.985   4.012 -12.869  1.00  0.00     0.326 C 
ATOM     59  O   UNL     1     -15.870   3.038 -12.142  1.00  0.00    -0.250 OA
BRANCH  58  60
ATOM     60  O   UNL     1     -16.156   3.827 -14.202  1.00  0.00    -0.480 OA
ATOM     61  H   UNL     1     -15.396   4.306 -14.596  1.00  0.00     0.296 HD
ENDBRANCH  58  60
ENDBRANCH  48  58
ENDBRANCH  46  48
ENDBRANCH  34  44
ENDBRANCH  32  34
ENDBRANCH  25  30
ENDBRANCH  23  25
ENDBRANCH   2  23
TORSDOF 28
ENDMDL
MODEL 3
REMARK VINA RESULT:    -6.266     14.849     19.115
REMARK INTER + INTRA:         -21.783
REMARK INTER:                 -16.304
REMARK INTRA:                  -5.479
REMARK UNBOUND:                -6.175
REMARK SMILES CCCCCCC[C@H](N)[C@H](O)C(=O)N[C@H](C)C(=O)N(C)[C@H](CC(C)C)C(=O)N[C@@H](Cc1ccc(O)cc1)C(=O)N[C@@H](Cc1ccc(O)cc1)C(=O)O
REMARK SMILES IDX 18 1 17 2 15 3 16 4 14 5 12 6 13 7 10 9 11 10 8 12 9 13 7 16
REMARK SMILES IDX 6 17 5 18 4 19 3 20 2 21 1 22 19 23 20 24 21 25 22 26 23 27
REMARK SMILES IDX 24 28 25 29 26 30 27 31 28 32 29 34 30 35 31 36 32 37 37 38
REMARK SMILES IDX 33 39 36 40 34 41 35 42 38 44 39 45 40 46 41 48 42 49 43 50
REMARK SMILES IDX 44 51 49 52 45 53 48 54 46 55 47 56 50 58 51 59 52 60
REMARK H PARENT 14 8 11 11 9 14 9 15 28 33 35 43 40 47 47 57 52 61
ROOT
ATOM      1  O   UNL     1      -5.609   1.971   2.540  1.00  0.00    -0.272 OA
ATOM      2  C   UNL     1      -5.565   3.187   2.782  1.00  0.00     0.245 C 
ENDROOT
BRANCH   2   3
ATOM      3  C   UNL     1      -5.238   4.161   1.623  1.00  0.00     0.168 C 
ATOM      4  C   UNL     1      -5.127   5.593   2.134  1.00  0.00     0.041 C 
BRANCH   3   5
ATOM      5  N   UNL     1      -4.090   3.784   0.813  1.00  0.00    -0.342 N 
ATOM      6  C   UNL     1      -4.208   3.506  -0.533  1.00  0.00     0.251 C 
ATOM      7  O   UNL     1      -5.277   3.513  -1.133  1.00  0.00    -0.272 OA
ATOM      8  H   UNL     1      -3.156   3.711   1.208  1.00  0.00     0.164 HD
BRANCH   6   9
ATOM      9  C   UNL     1      -2.849   3.272  -1.213  1.00  0.00     0.219 C 
BRANCH   9  10
ATOM     10  O   UNL     1      -1.889   4.286  -0.892  1.00  0.00    -0.382 OA
ATOM     11  H   UNL     1      -1.758   4.758  -1.744  1.00  0.00     0.211 HD
ENDBRANCH   9  10
BRANCH   9  12
ATOM     12  C   UNL     1      -2.269   1.860  -0.944  1.00  0.00     0.089 C 
BRANCH  12  13
ATOM     13  N   UNL     1      -3.334   1.023  -0.345  1.00  0.00    -0.325 NA
ATOM     14  H   UNL     1      -3.325   1.143   0.669  1.00  0.00     0.119 HD
ATOM     15  H   UNL     1      -3.107   0.038  -0.500  1.00  0.00     0.119 HD
ENDBRANCH  12  13
BRANCH  12  16
ATOM     16  C   UNL     1      -1.649   1.138  -2.164  1.00  0.00     0.022 C 
BRANCH  16  17
ATOM     17  C   UNL     1      -0.165   1.361  -2.489  1.00  0.00     0.002 C 
BRANCH  17  18
ATOM     18  C   UNL     1       0.102   2.247  -3.704  1.00  0.00     0.000 C 
BRANCH  18  19
ATOM     19  C   UNL     1       1.568   2.677  -3.853  1.00  0.00    -0.000 C 
BRANCH  19  20
ATOM     20  C   UNL     1       2.588   1.752  -3.183  1.00  0.00    -0.000 C 
BRANCH  20  21
ATOM     21  C   UNL     1       3.358   0.884  -4.182  1.00  0.00    -0.003 C 
ATOM     22  C   UNL     1       2.542  -0.325  -4.611  1.00  0.00     0.004 C 
ENDBRANCH  20  21
ENDBRANCH  19  20
ENDBRANCH  18  19
ENDBRANCH  17  18
ENDBRANCH  16  17
ENDBRANCH  12  16
ENDBRANCH   9  12
ENDBRANCH   6   9
ENDBRANCH   3   5
ENDBRANCH   2   3
BRANCH   2  23
ATOM     23  N   UNL     1      -5.923   3.659   4.040  1.00  0.00    -0.332 N 
ATOM     24  C   UNL     1      -7.053   4.539   4.300  1.00  0.00     0.147 C 
BRANCH  23  25
ATOM     25  C   UNL     1      -5.217   3.170   5.255  1.00  0.00     0.174 C 
BRANCH  25  26
ATOM     26  C   UNL     1      -5.581   3.972   6.527  1.00  0.00     0.038 C 
BRANCH  26  27
ATOM     27  C   UNL     1      -5.980   3.157   7.778  1.00  0.00    -0.015 C 
ATOM     28  C   UNL     1      -6.899   3.939   8.716  1.00  0.00     0.007 C 
ATOM     29  C   UNL     1      -6.584   1.794   7.448  1.00  0.00     0.007 C 
ENDBRANCH  26  27
ENDBRANCH  25  26
BRANCH  25  30
ATOM     30  C   UNL     1      -3.696   3.084   4.989  1.00  0.00     0.243 C 
ATOM     31  O   UNL     1      -3.090   2.015   5.022  1.00  0.00    -0.273 OA
ATOM     32  N   UNL     1      -3.073   4.276   4.720  1.00  0.00    -0.342 N 
ATOM     33  H   UNL     1      -3.665   5.097   4.571  1.00  0.00     0.164 HD
BRANCH  32  34
ATOM     34  C   UNL     1      -1.633   4.389   4.471  1.00  0.00     0.175 C 
BRANCH  34  35
ATOM     35  C   UNL     1      -0.817   3.909   5.681  1.00  0.00     0.070 C 
BRANCH  35  36
ATOM     36  C   UNL     1       0.495   4.647   5.830  1.00  0.00    -0.045 A 
ATOM     37  C   UNL     1       0.547   5.845   6.559  1.00  0.00     0.007 A 
ATOM     38  C   UNL     1       1.664   4.162   5.230  1.00  0.00     0.007 A 
ATOM     39  C   UNL     1       1.750   6.539   6.691  1.00  0.00     0.046 A 
ATOM     40  C   UNL     1       2.869   4.858   5.361  1.00  0.00     0.046 A 
ATOM     41  C   UNL     1       2.900   6.041   6.092  1.00  0.00     0.115 A 
BRANCH  41  42
ATOM     42  O   UNL     1       4.054   6.751   6.243  1.00  0.00    -0.508 OA
ATOM     43  H   UNL     1       4.343   6.672   7.167  1.00  0.00     0.293 HD
ENDBRANCH  41  42
ENDBRANCH  35  36
ENDBRANCH  34  35
BRANCH  34  44
ATOM     44  C   UNL     1      -1.304   3.581   3.195  1.00  0.00     0.243 C 
ATOM     45  O   UNL     1      -1.584   3.940   2.055  1.00  0.00    -0.273 OA
ATOM     46  N   UNL     1      -0.772   2.336   3.456  1.00  0.00    -0.341 N 
ATOM     47  H   UNL     1      -0.667   2.036   4.422  1.00  0.00     0.164 HD
BRANCH  46  48
ATOM     48  C   UNL     1      -0.443   1.365   2.410  1.00  0.00     0.196 C 
BRANCH  48  49
ATOM     49  C   UNL     1       1.069   1.090   2.357  1.00  0.00     0.072 C 
BRANCH  49  50
ATOM     50  C   UNL     1       1.823   2.137   1.569  1.00  0.00    -0.045 A 
ATOM     51  C   UNL     1       1.225   2.737   0.452  1.00  0.00     0.007 A 
ATOM     52  C   UNL     1       3.127   2.506   1.925  1.00  0.00     0.007 A 
ATOM     53  C   UNL     1       1.916   3.695  -0.290  1.00  0.00     0.046 A 
ATOM     54  C   UNL     1       3.820   3.464   1.181  1.00  0.00     0.046 A 
ATOM     55  C   UNL     1       3.207   4.052   0.080  1.00  0.00     0.115 A 
BRANCH  55  56
ATOM     56  O   UNL     1       3.849   4.990  -0.673  1.00  0.00    -0.508 OA
ATOM     57  H   UNL     1       4.190   5.678  -0.079  1.00  0.00     0.293 HD
ENDBRANCH  55  56
ENDBRANCH  49  50
ENDBRANCH  48  49
BRANCH  48  58
ATOM     58  C   UNL     1      -1.195   0.056   2.690  1.00  0.00     0.326 C 
ATOM     59  O   UNL     1      -1.476  -0.416   3.779  1.00  0.00    -0.250 OA
BRANCH  58  60
ATOM     60  O   UNL     1      -1.577  -0.600   1.565  1.00  0.00    -0.480 OA
ATOM     61  H   UNL     1      -1.795   0.128   0.942  1.00  0.00     0.296 HD
ENDBRANCH  58  60
ENDBRANCH  48  58
ENDBRANCH  46  48
ENDBRANCH  34  44
ENDBRANCH  32  34
ENDBRANCH  25  30
ENDBRANCH  23  25
ENDBRANCH   2  23
TORSDOF 28
ENDMDL
MODEL 4
REMARK VINA RESULT:    -6.034     11.782     15.556
REMARK INTER + INTRA:         -21.203
REMARK INTER:                 -15.066
REMARK INTRA:                  -6.137
REMARK UNBOUND:                -6.175
REMARK SMILES CCCCCCC[C@H](N)[C@H](O)C(=O)N[C@H](C)C(=O)N(C)[C@H](CC(C)C)C(=O)N[C@@H](Cc1ccc(O)cc1)C(=O)N[C@@H](Cc1ccc(O)cc1)C(=O)O
REMARK SMILES IDX 18 1 17 2 15 3 16 4 14 5 12 6 13 7 10 9 11 10 8 12 9 13 7 16
REMARK SMILES IDX 6 17 5 18 4 19 3 20 2 21 1 22 19 23 20 24 21 25 22 26 23 27
REMARK SMILES IDX 24 28 25 29 26 30 27 31 28 32 29 34 30 35 31 36 32 37 37 38
REMARK SMILES IDX 33 39 36 40 34 41 35 42 38 44 39 45 40 46 41 48 42 49 43 50
REMARK SMILES IDX 44 51 49 52 45 53 48 54 46 55 47 56 50 58 51 59 52 60
REMARK H PARENT 14 8 11 11 9 14 9 15 28 33 35 43 40 47 47 57 52 61
ROOT
ATOM      1  O   UNL     1      -7.049 -10.098  -4.938  1.00  0.00    -0.272 OA
ATOM      2  C   UNL     1      -6.968  -9.858  -3.724  1.00  0.00     0.245 C 
ENDROOT
BRANCH   2   3
ATOM      3  C   UNL     1      -5.725  -9.093  -3.202  1.00  0.00     0.168 C 
ATOM      4  C   UNL     1      -4.479  -9.969  -3.279  1.00  0.00     0.041 C 
BRANCH   3   5
ATOM      5  N   UNL     1      -5.510  -7.789  -3.810  1.00  0.00    -0.342 N 
ATOM      6  C   UNL     1      -5.704  -6.618  -3.109  1.00  0.00     0.251 C 
ATOM      7  O   UNL     1      -6.106  -6.582  -1.951  1.00  0.00    -0.272 OA
ATOM      8  H   UNL     1      -5.209  -7.692  -4.777  1.00  0.00     0.164 HD
BRANCH   6   9
ATOM      9  C   UNL     1      -5.280  -5.373  -3.903  1.00  0.00     0.219 C 
BRANCH   9  10
ATOM     10  O   UNL     1      -6.096  -4.230  -3.616  1.00  0.00    -0.382 OA
ATOM     11  H   UNL     1      -5.452  -3.562  -3.294  1.00  0.00     0.211 HD
ENDBRANCH   9  10
BRANCH   9  12
ATOM     12  C   UNL     1      -3.776  -5.030  -3.743  1.00  0.00     0.089 C 
BRANCH  12  13
ATOM     13  N   UNL     1      -3.211  -5.893  -2.680  1.00  0.00    -0.325 NA
ATOM     14  H   UNL     1      -3.744  -6.764  -2.636  1.00  0.00     0.119 HD
ATOM     15  H   UNL     1      -3.360  -5.443  -1.774  1.00  0.00     0.119 HD
ENDBRANCH  12  13
BRANCH  12  16
ATOM     16  C   UNL     1      -2.916  -5.134  -5.025  1.00  0.00     0.022 C 
BRANCH  16  17
ATOM     17  C   UNL     1      -3.601  -5.461  -6.359  1.00  0.00     0.002 C 
BRANCH  17  18
ATOM     18  C   UNL     1      -3.438  -6.905  -6.830  1.00  0.00     0.000 C 
BRANCH  18  19
ATOM     19  C   UNL     1      -2.905  -7.038  -8.263  1.00  0.00    -0.000 C 
BRANCH  19  20
ATOM     20  C   UNL     1      -2.208  -8.364  -8.577  1.00  0.00    -0.000 C 
BRANCH  20  21
ATOM     21  C   UNL     1      -1.932  -8.558 -10.071  1.00  0.00    -0.003 C 
ATOM     22  C   UNL     1      -3.220  -8.549 -10.878  1.00  0.00     0.004 C 
ENDBRANCH  20  21
ENDBRANCH  19  20
ENDBRANCH  18  19
ENDBRANCH  17  18
ENDBRANCH  16  17
ENDBRANCH  12  16
ENDBRANCH   9  12
ENDBRANCH   6   9
ENDBRANCH   3   5
ENDBRANCH   2   3
BRANCH   2  23
ATOM     23  N   UNL     1      -8.031 -10.163  -2.881  1.00  0.00    -0.332 N 
ATOM     24  C   UNL     1      -8.969 -11.255  -3.098  1.00  0.00     0.147 C 
BRANCH  23  25
ATOM     25  C   UNL     1      -8.200  -9.438  -1.592  1.00  0.00     0.174 C 
BRANCH  25  26
ATOM     26  C   UNL     1      -8.464 -10.386  -0.399  1.00  0.00     0.038 C 
BRANCH  26  27
ATOM     27  C   UNL     1      -7.242 -11.119   0.197  1.00  0.00    -0.015 C 
ATOM     28  C   UNL     1      -7.128 -10.931   1.710  1.00  0.00     0.007 C 
ATOM     29  C   UNL     1      -7.187 -12.601  -0.165  1.00  0.00     0.007 C 
ENDBRANCH  26  27
ENDBRANCH  25  26
BRANCH  25  30
ATOM     30  C   UNL     1      -9.257  -8.320  -1.745  1.00  0.00     0.243 C 
ATOM     31  O   UNL     1     -10.386  -8.424  -1.267  1.00  0.00    -0.273 OA
ATOM     32  N   UNL     1      -8.855  -7.216  -2.451  1.00  0.00    -0.342 N 
ATOM     33  H   UNL     1      -7.863  -7.143  -2.693  1.00  0.00     0.164 HD
BRANCH  32  34
ATOM     34  C   UNL     1      -9.731  -6.072  -2.718  1.00  0.00     0.175 C 
BRANCH  34  35
ATOM     35  C   UNL     1      -9.300  -4.837  -1.912  1.00  0.00     0.070 C 
BRANCH  35  36
ATOM     36  C   UNL     1      -9.838  -4.843  -0.499  1.00  0.00    -0.045 A 
ATOM     37  C   UNL     1      -9.079  -5.406   0.538  1.00  0.00     0.007 A 
ATOM     38  C   UNL     1     -11.101  -4.312  -0.209  1.00  0.00     0.007 A 
ATOM     39  C   UNL     1      -9.573  -5.429   1.843  1.00  0.00     0.046 A 
ATOM     40  C   UNL     1     -11.597  -4.336   1.097  1.00  0.00     0.046 A 
ATOM     41  C   UNL     1     -10.827  -4.893   2.112  1.00  0.00     0.115 A 
BRANCH  41  42
ATOM     42  O   UNL     1     -11.274  -4.938   3.399  1.00  0.00    -0.508 OA
ATOM     43  H   UNL     1     -12.246  -4.933   3.385  1.00  0.00     0.293 HD
ENDBRANCH  41  42
ENDBRANCH  35  36
ENDBRANCH  34  35
BRANCH  34  44
ATOM     44  C   UNL     1      -9.717  -5.803  -4.239  1.00  0.00     0.243 C 
ATOM     45  O   UNL     1     -10.439  -4.988  -4.807  1.00  0.00    -0.273 OA
ATOM     46  N   UNL     1      -8.899  -6.663  -4.941  1.00  0.00    -0.341 N 
ATOM     47  H   UNL     1      -8.409  -7.399  -4.439  1.00  0.00     0.164 HD
BRANCH  46  48
ATOM     48  C   UNL     1      -8.774  -6.646  -6.400  1.00  0.00     0.196 C 
BRANCH  48  49
ATOM     49  C   UNL     1      -7.299  -6.618  -6.836  1.00  0.00     0.072 C 
BRANCH  49  50
ATOM     50  C   UNL     1      -7.003  -5.505  -7.815  1.00  0.00    -0.045 A 
ATOM     51  C   UNL     1      -7.512  -4.218  -7.586  1.00  0.00     0.007 A 
ATOM     52  C   UNL     1      -6.241  -5.741  -8.966  1.00  0.00     0.007 A 
ATOM     53  C   UNL     1      -7.256  -3.186  -8.489  1.00  0.00     0.046 A 
ATOM     54  C   UNL     1      -5.986  -4.709  -9.872  1.00  0.00     0.046 A 
ATOM     55  C   UNL     1      -6.495  -3.439  -9.624  1.00  0.00     0.115 A 
BRANCH  55  56
ATOM     56  O   UNL     1      -6.270  -2.404 -10.483  1.00  0.00    -0.508 OA
ATOM     57  H   UNL     1      -6.402  -2.724 -11.389  1.00  0.00     0.293 HD
ENDBRANCH  55  56
ENDBRANCH  49  50
ENDBRANCH  48  49
BRANCH  48  58
ATOM     58  C   UNL     1      -9.457  -7.894  -6.975  1.00  0.00     0.326 C 
ATOM     59  O   UNL     1      -9.920  -8.837  -6.352  1.00  0.00    -0.250 OA
BRANCH  58  60
ATOM     60  O   UNL     1      -9.540  -7.891  -8.329  1.00  0.00    -0.480 OA
ATOM     61  H   UNL     1      -9.298  -8.811  -8.573  1.00  0.00     0.296 HD
ENDBRANCH  58  60
ENDBRANCH  48  58
ENDBRANCH  46  48
ENDBRANCH  34  44
ENDBRANCH  32  34
ENDBRANCH  25  30
ENDBRANCH  23  25
ENDBRANCH   2  23
TORSDOF 28
ENDMDL
MODEL 5
REMARK VINA RESULT:    -5.867     12.838     18.301
REMARK INTER + INTRA:         -20.789
REMARK INTER:                 -15.879
REMARK INTRA:                  -4.910
REMARK UNBOUND:                -6.175
REMARK SMILES CCCCCCC[C@H](N)[C@H](O)C(=O)N[C@H](C)C(=O)N(C)[C@H](CC(C)C)C(=O)N[C@@H](Cc1ccc(O)cc1)C(=O)N[C@@H](Cc1ccc(O)cc1)C(=O)O
REMARK SMILES IDX 18 1 17 2 15 3 16 4 14 5 12 6 13 7 10 9 11 10 8 12 9 13 7 16
REMARK SMILES IDX 6 17 5 18 4 19 3 20 2 21 1 22 19 23 20 24 21 25 22 26 23 27
REMARK SMILES IDX 24 28 25 29 26 30 27 31 28 32 29 34 30 35 31 36 32 37 37 38
REMARK SMILES IDX 33 39 36 40 34 41 35 42 38 44 39 45 40 46 41 48 42 49 43 50
REMARK SMILES IDX 44 51 49 52 45 53 48 54 46 55 47 56 50 58 51 59 52 60
REMARK H PARENT 14 8 11 11 9 14 9 15 28 33 35 43 40 47 47 57 52 61
ROOT
ATOM      1  O   UNL     1      -4.833   6.181   3.093  1.00  0.00    -0.272 OA
ATOM      2  C   UNL     1      -6.042   5.979   2.906  1.00  0.00     0.245 C 
ENDROOT
BRANCH   2   3
ATOM      3  C   UNL     1      -6.782   6.838   1.850  1.00  0.00     0.168 C 
ATOM      4  C   UNL     1      -7.013   6.043   0.570  1.00  0.00     0.041 C 
BRANCH   3   5
ATOM      5  N   UNL     1      -8.005   7.468   2.324  1.00  0.00    -0.342 N 
ATOM      6  C   UNL     1      -8.234   8.819   2.169  1.00  0.00     0.251 C 
ATOM      7  O   UNL     1      -7.422   9.590   1.667  1.00  0.00    -0.272 OA
ATOM      8  H   UNL     1      -8.737   6.937   2.788  1.00  0.00     0.164 HD
BRANCH   6   9
ATOM      9  C   UNL     1      -9.645   9.237   2.614  1.00  0.00     0.219 C 
BRANCH   9  10
ATOM     10  O   UNL     1      -9.671   9.766   3.945  1.00  0.00    -0.382 OA
ATOM     11  H   UNL     1     -10.023  10.675   3.826  1.00  0.00     0.211 HD
ENDBRANCH   9  10
BRANCH   9  12
ATOM     12  C   UNL     1     -10.332  10.211   1.621  1.00  0.00     0.089 C 
BRANCH  12  13
ATOM     13  N   UNL     1      -9.520  11.446   1.540  1.00  0.00    -0.325 NA
ATOM     14  H   UNL     1      -9.318  11.778   2.485  1.00  0.00     0.119 HD
ATOM     15  H   UNL     1     -10.084  12.185   1.113  1.00  0.00     0.119 HD
ENDBRANCH  12  13
BRANCH  12  16
ATOM     16  C   UNL     1     -10.598   9.655   0.201  1.00  0.00     0.022 C 
BRANCH  16  17
ATOM     17  C   UNL     1     -11.342   8.322   0.048  1.00  0.00     0.002 C 
BRANCH  17  18
ATOM     18  C   UNL     1     -10.470   7.143  -0.379  1.00  0.00     0.000 C 
BRANCH  18  19
ATOM     19  C   UNL     1     -10.780   5.836   0.363  1.00  0.00    -0.000 C 
BRANCH  19  20
ATOM     20  C   UNL     1     -11.362   6.008   1.769  1.00  0.00    -0.000 C 
BRANCH  20  21
ATOM     21  C   UNL     1     -12.563   5.097   2.037  1.00  0.00    -0.003 C 
ATOM     22  C   UNL     1     -13.058   5.239   3.468  1.00  0.00     0.004 C 
ENDBRANCH  20  21
ENDBRANCH  19  20
ENDBRANCH  18  19
ENDBRANCH  17  18
ENDBRANCH  16  17
ENDBRANCH  12  16
ENDBRANCH   9  12
ENDBRANCH   6   9
ENDBRANCH   3   5
ENDBRANCH   2   3
BRANCH   2  23
ATOM     23  N   UNL     1      -6.678   4.919   3.545  1.00  0.00    -0.332 N 
ATOM     24  C   UNL     1      -7.276   4.994   4.870  1.00  0.00     0.147 C 
BRANCH  23  25
ATOM     25  C   UNL     1      -6.900   3.634   2.828  1.00  0.00     0.174 C 
BRANCH  25  26
ATOM     26  C   UNL     1      -8.032   2.785   3.453  1.00  0.00     0.038 C 
BRANCH  26  27
ATOM     27  C   UNL     1      -9.448   2.959   2.858  1.00  0.00    -0.015 C 
ATOM     28  C   UNL     1      -9.465   2.811   1.337  1.00  0.00     0.007 C 
ATOM     29  C   UNL     1     -10.492   2.048   3.498  1.00  0.00     0.007 C 
ENDBRANCH  26  27
ENDBRANCH  25  26
BRANCH  25  30
ATOM     30  C   UNL     1      -5.564   2.872   2.675  1.00  0.00     0.243 C 
ATOM     31  O   UNL     1      -5.462   1.874   1.962  1.00  0.00    -0.273 OA
ATOM     32  N   UNL     1      -4.508   3.377   3.389  1.00  0.00    -0.342 N 
ATOM     33  H   UNL     1      -4.634   4.285   3.843  1.00  0.00     0.164 HD
BRANCH  32  34
ATOM     34  C   UNL     1      -3.174   2.769   3.386  1.00  0.00     0.175 C 
BRANCH  34  35
ATOM     35  C   UNL     1      -2.162   3.646   2.633  1.00  0.00     0.070 C 
BRANCH  35  36
ATOM     36  C   UNL     1      -1.581   2.957   1.419  1.00  0.00    -0.045 A 
ATOM     37  C   UNL     1      -0.652   3.628   0.608  1.00  0.00     0.007 A 
ATOM     38  C   UNL     1      -1.974   1.657   1.073  1.00  0.00     0.007 A 
ATOM     39  C   UNL     1      -0.121   3.005  -0.522  1.00  0.00     0.046 A 
ATOM     40  C   UNL     1      -1.443   1.034  -0.059  1.00  0.00     0.046 A 
ATOM     41  C   UNL     1      -0.519   1.714  -0.846  1.00  0.00     0.115 A 
BRANCH  41  42
ATOM     42  O   UNL     1       0.021   1.143  -1.960  1.00  0.00    -0.508 OA
ATOM     43  H   UNL     1       0.638   0.447  -1.677  1.00  0.00     0.293 HD
ENDBRANCH  41  42
ENDBRANCH  35  36
ENDBRANCH  34  35
BRANCH  34  44
ATOM     44  C   UNL     1      -2.753   2.532   4.854  1.00  0.00     0.243 C 
ATOM     45  O   UNL     1      -3.538   2.338   5.778  1.00  0.00    -0.273 OA
ATOM     46  N   UNL     1      -1.400   2.687   5.068  1.00  0.00    -0.341 N 
ATOM     47  H   UNL     1      -0.805   2.964   4.291  1.00  0.00     0.164 HD
BRANCH  46  48
ATOM     48  C   UNL     1      -0.776   2.579   6.388  1.00  0.00     0.196 C 
BRANCH  48  49
ATOM     49  C   UNL     1       0.592   1.880   6.306  1.00  0.00     0.072 C 
BRANCH  49  50
ATOM     50  C   UNL     1       1.203   1.959   4.925  1.00  0.00    -0.045 A 
ATOM     51  C   UNL     1       2.176   2.930   4.645  1.00  0.00     0.007 A 
ATOM     52  C   UNL     1       0.797   1.088   3.906  1.00  0.00     0.007 A 
ATOM     53  C   UNL     1       2.737   3.021   3.372  1.00  0.00     0.046 A 
ATOM     54  C   UNL     1       1.358   1.180   2.630  1.00  0.00     0.046 A 
ATOM     55  C   UNL     1       2.325   2.146   2.374  1.00  0.00     0.115 A 
BRANCH  55  56
ATOM     56  O   UNL     1       2.896   2.269   1.142  1.00  0.00    -0.508 OA
ATOM     57  H   UNL     1       3.663   2.859   1.219  1.00  0.00     0.293 HD
ENDBRANCH  55  56
ENDBRANCH  49  50
ENDBRANCH  48  49
BRANCH  48  58
ATOM     58  C   UNL     1      -0.600   3.986   6.975  1.00  0.00     0.326 C 
ATOM     59  O   UNL     1       0.090   4.891   6.533  1.00  0.00    -0.250 OA
BRANCH  58  60
ATOM     60  O   UNL     1      -1.325   4.197   8.102  1.00  0.00    -0.480 OA
ATOM     61  H   UNL     1      -0.853   3.665   8.778  1.00  0.00     0.296 HD
ENDBRANCH  58  60
ENDBRANCH  48  58
ENDBRANCH  46  48
ENDBRANCH  34  44
ENDBRANCH  32  34
ENDBRANCH  25  30
ENDBRANCH  23  25
ENDBRANCH   2  23
TORSDOF 28
ENDMDL
MODEL 6
REMARK VINA RESULT:    -5.849     14.187     18.980
REMARK INTER + INTRA:         -20.745
REMARK INTER:                 -16.254
REMARK INTRA:                  -4.491
REMARK UNBOUND:                -6.175
REMARK SMILES CCCCCCC[C@H](N)[C@H](O)C(=O)N[C@H](C)C(=O)N(C)[C@H](CC(C)C)C(=O)N[C@@H](Cc1ccc(O)cc1)C(=O)N[C@@H](Cc1ccc(O)cc1)C(=O)O
REMARK SMILES IDX 18 1 17 2 15 3 16 4 14 5 12 6 13 7 10 9 11 10 8 12 9 13 7 16
REMARK SMILES IDX 6 17 5 18 4 19 3 20 2 21 1 22 19 23 20 24 21 25 22 26 23 27
REMARK SMILES IDX 24 28 25 29 26 30 27 31 28 32 29 34 30 35 31 36 32 37 37 38
REMARK SMILES IDX 33 39 36 40 34 41 35 42 38 44 39 45 40 46 41 48 42 49 43 50
REMARK SMILES IDX 44 51 49 52 45 53 48 54 46 55 47 56 50 58 51 59 52 60
REMARK H PARENT 14 8 11 11 9 14 9 15 28 33 35 43 40 47 47 57 52 61
ROOT
ATOM      1  O   UNL     1      -4.453   1.986   3.261  1.00  0.00    -0.272 OA
ATOM      2  C   UNL     1      -4.585   3.165   2.901  1.00  0.00     0.245 C 
ENDROOT
BRANCH   2   3
ATOM      3  C   UNL     1      -4.235   4.290   3.908  1.00  0.00     0.168 C 
ATOM      4  C   UNL     1      -5.502   4.941   4.453  1.00  0.00     0.041 C 
BRANCH   3   5
ATOM      5  N   UNL     1      -3.327   3.895   4.973  1.00  0.00    -0.342 N 
ATOM      6  C   UNL     1      -2.018   4.327   5.010  1.00  0.00     0.251 C 
ATOM      7  O   UNL     1      -1.512   5.030   4.142  1.00  0.00    -0.272 OA
ATOM      8  H   UNL     1      -3.622   3.286   5.732  1.00  0.00     0.164 HD
BRANCH   6   9
ATOM      9  C   UNL     1      -1.289   3.904   6.296  1.00  0.00     0.219 C 
BRANCH   9  10
ATOM     10  O   UNL     1      -2.161   3.842   7.431  1.00  0.00    -0.382 OA
ATOM     11  H   UNL     1      -1.547   3.891   8.197  1.00  0.00     0.211 HD
ENDBRANCH   9  10
BRANCH   9  12
ATOM     12  C   UNL     1      -0.495   2.581   6.139  1.00  0.00     0.089 C 
BRANCH  12  13
ATOM     13  N   UNL     1      -1.373   1.584   5.485  1.00  0.00    -0.325 NA
ATOM     14  H   UNL     1      -0.799   0.938   4.939  1.00  0.00     0.119 HD
ATOM     15  H   UNL     1      -1.963   2.061   4.800  1.00  0.00     0.119 HD
ENDBRANCH  12  13
BRANCH  12  16
ATOM     16  C   UNL     1       0.850   2.683   5.381  1.00  0.00     0.022 C 
BRANCH  16  17
ATOM     17  C   UNL     1       1.941   3.621   5.917  1.00  0.00     0.002 C 
BRANCH  17  18
ATOM     18  C   UNL     1       2.027   4.975   5.217  1.00  0.00     0.000 C 
BRANCH  18  19
ATOM     19  C   UNL     1       3.293   5.774   5.556  1.00  0.00    -0.000 C 
BRANCH  19  20
ATOM     20  C   UNL     1       3.205   6.625   6.826  1.00  0.00    -0.000 C 
BRANCH  20  21
ATOM     21  C   UNL     1       4.573   6.925   7.443  1.00  0.00    -0.003 C 
ATOM     22  C   UNL     1       5.296   8.025   6.683  1.00  0.00     0.004 C 
ENDBRANCH  20  21
ENDBRANCH  19  20
ENDBRANCH  18  19
ENDBRANCH  17  18
ENDBRANCH  16  17
ENDBRANCH  12  16
ENDBRANCH   9  12
ENDBRANCH   6   9
ENDBRANCH   3   5
ENDBRANCH   2   3
BRANCH   2  23
ATOM     23  N   UNL     1      -4.920   3.458   1.584  1.00  0.00    -0.332 N 
ATOM     24  C   UNL     1      -5.907   2.729   0.802  1.00  0.00     0.147 C 
BRANCH  23  25
ATOM     25  C   UNL     1      -4.355   4.662   0.914  1.00  0.00     0.174 C 
BRANCH  25  26
ATOM     26  C   UNL     1      -5.142   5.072  -0.352  1.00  0.00     0.038 C 
BRANCH  26  27
ATOM     27  C   UNL     1      -6.152   6.232  -0.203  1.00  0.00    -0.015 C 
ATOM     28  C   UNL     1      -6.464   6.552   1.258  1.00  0.00     0.007 C 
ATOM     29  C   UNL     1      -5.738   7.497  -0.953  1.00  0.00     0.007 C 
ENDBRANCH  26  27
ENDBRANCH  25  26
BRANCH  25  30
ATOM     30  C   UNL     1      -2.840   4.472   0.670  1.00  0.00     0.243 C 
ATOM     31  O   UNL     1      -1.999   5.182   1.220  1.00  0.00    -0.273 OA
ATOM     32  N   UNL     1      -2.500   3.470  -0.201  1.00  0.00    -0.342 N 
ATOM     33  H   UNL     1      -3.243   2.835  -0.506  1.00  0.00     0.164 HD
BRANCH  32  34
ATOM     34  C   UNL     1      -1.116   3.165  -0.572  1.00  0.00     0.175 C 
BRANCH  34  35
ATOM     35  C   UNL     1      -0.692   1.779  -0.061  1.00  0.00     0.070 C 
BRANCH  35  36
ATOM     36  C   UNL     1       0.533   1.831   0.823  1.00  0.00    -0.045 A 
ATOM     37  C   UNL     1       0.692   0.896   1.857  1.00  0.00     0.007 A 
ATOM     38  C   UNL     1       1.509   2.819   0.641  1.00  0.00     0.007 A 
ATOM     39  C   UNL     1       1.813   0.944   2.687  1.00  0.00     0.046 A 
ATOM     40  C   UNL     1       2.631   2.869   1.473  1.00  0.00     0.046 A 
ATOM     41  C   UNL     1       2.773   1.929   2.488  1.00  0.00     0.115 A 
BRANCH  41  42
ATOM     42  O   UNL     1       3.851   1.943   3.323  1.00  0.00    -0.508 OA
ATOM     43  H   UNL     1       4.651   1.799   2.790  1.00  0.00     0.293 HD
ENDBRANCH  41  42
ENDBRANCH  35  36
ENDBRANCH  34  35
BRANCH  34  44
ATOM     44  C   UNL     1      -0.997   3.275  -2.109  1.00  0.00     0.243 C 
ATOM     45  O   UNL     1      -1.747   3.940  -2.817  1.00  0.00    -0.273 OA
ATOM     46  N   UNL     1      -0.036   2.444  -2.646  1.00  0.00    -0.341 N 
ATOM     47  H   UNL     1       0.482   1.824  -2.028  1.00  0.00     0.164 HD
BRANCH  46  48
ATOM     48  C   UNL     1       0.213   2.324  -4.084  1.00  0.00     0.196 C 
BRANCH  48  49
ATOM     49  C   UNL     1       1.714   2.168  -4.381  1.00  0.00     0.072 C 
BRANCH  49  50
ATOM     50  C   UNL     1       2.579   2.997  -3.458  1.00  0.00    -0.045 A 
ATOM     51  C   UNL     1       2.553   4.396  -3.545  1.00  0.00     0.007 A 
ATOM     52  C   UNL     1       3.428   2.387  -2.526  1.00  0.00     0.007 A 
ATOM     53  C   UNL     1       3.356   5.171  -2.708  1.00  0.00     0.046 A 
ATOM     54  C   UNL     1       4.234   3.163  -1.689  1.00  0.00     0.046 A 
ATOM     55  C   UNL     1       4.190   4.549  -1.786  1.00  0.00     0.115 A 
BRANCH  55  56
ATOM     56  O   UNL     1       4.960   5.342  -0.988  1.00  0.00    -0.508 OA
ATOM     57  H   UNL     1       4.924   6.249  -1.331  1.00  0.00     0.293 HD
ENDBRANCH  55  56
ENDBRANCH  49  50
ENDBRANCH  48  49
BRANCH  48  58
ATOM     58  C   UNL     1      -0.548   1.105  -4.623  1.00  0.00     0.326 C 
ATOM     59  O   UNL     1      -1.641   1.097  -5.165  1.00  0.00    -0.250 OA
BRANCH  58  60
ATOM     60  O   UNL     1       0.122  -0.064  -4.464  1.00  0.00    -0.480 OA
ATOM     61  H   UNL     1       0.648  -0.138  -5.289  1.00  0.00     0.296 HD
ENDBRANCH  58  60
ENDBRANCH  48  58
ENDBRANCH  46  48
ENDBRANCH  34  44
ENDBRANCH  32  34
ENDBRANCH  25  30
ENDBRANCH  23  25
ENDBRANCH   2  23
TORSDOF 28
ENDMDL
MODEL 7
REMARK VINA RESULT:    -5.842      1.245      2.089
REMARK INTER + INTRA:         -20.727
REMARK INTER:                 -16.237
REMARK INTRA:                  -4.490
REMARK UNBOUND:                -6.175
REMARK SMILES CCCCCCC[C@H](N)[C@H](O)C(=O)N[C@H](C)C(=O)N(C)[C@H](CC(C)C)C(=O)N[C@@H](Cc1ccc(O)cc1)C(=O)N[C@@H](Cc1ccc(O)cc1)C(=O)O
REMARK SMILES IDX 18 1 17 2 15 3 16 4 14 5 12 6 13 7 10 9 11 10 8 12 9 13 7 16
REMARK SMILES IDX 6 17 5 18 4 19 3 20 2 21 1 22 19 23 20 24 21 25 22 26 23 27
REMARK SMILES IDX 24 28 25 29 26 30 27 31 28 32 29 34 30 35 31 36 32 37 37 38
REMARK SMILES IDX 33 39 36 40 34 41 35 42 38 44 39 45 40 46 41 48 42 49 43 50
REMARK SMILES IDX 44 51 49 52 45 53 48 54 46 55 47 56 50 58 51 59 52 60
REMARK H PARENT 14 8 11 11 9 14 9 15 28 33 35 43 40 47 47 57 52 61
ROOT
ATOM      1  O   UNL     1     -18.094   2.638 -11.443  1.00  0.00    -0.272 OA
ATOM      2  C   UNL     1     -18.060   2.036 -10.359  1.00  0.00     0.245 C 
ENDROOT
BRANCH   2   3
ATOM      3  C   UNL     1     -17.069   0.857 -10.197  1.00  0.00     0.168 C 
ATOM      4  C   UNL     1     -17.237  -0.151 -11.329  1.00  0.00     0.041 C 
BRANCH   3   5
ATOM      5  N   UNL     1     -15.678   1.247 -10.021  1.00  0.00    -0.342 N 
ATOM      6  C   UNL     1     -14.776   0.444  -9.357  1.00  0.00     0.251 C 
ATOM      7  O   UNL     1     -15.077  -0.625  -8.835  1.00  0.00    -0.272 OA
ATOM      8  H   UNL     1     -15.319   2.128 -10.380  1.00  0.00     0.164 HD
BRANCH   6   9
ATOM      9  C   UNL     1     -13.339   0.988  -9.416  1.00  0.00     0.219 C 
BRANCH   9  10
ATOM     10  O   UNL     1     -13.152   1.940 -10.471  1.00  0.00    -0.382 OA
ATOM     11  H   UNL     1     -12.577   2.625 -10.065  1.00  0.00     0.211 HD
ENDBRANCH   9  10
BRANCH   9  12
ATOM     12  C   UNL     1     -12.850   1.565  -8.062  1.00  0.00     0.089 C 
BRANCH  12  13
ATOM     13  N   UNL     1     -13.293   0.656  -6.980  1.00  0.00    -0.325 NA
ATOM     14  H   UNL     1     -12.514   0.491  -6.340  1.00  0.00     0.119 HD
ATOM     15  H   UNL     1     -13.505  -0.260  -7.383  1.00  0.00     0.119 HD
ENDBRANCH  12  13
BRANCH  12  16
ATOM     16  C   UNL     1     -11.329   1.827  -7.947  1.00  0.00     0.022 C 
BRANCH  16  17
ATOM     17  C   UNL     1     -10.350   0.853  -8.616  1.00  0.00     0.002 C 
BRANCH  17  18
ATOM     18  C   UNL     1      -9.234   0.337  -7.710  1.00  0.00     0.000 C 
BRANCH  18  19
ATOM     19  C   UNL     1      -7.821   0.669  -8.209  1.00  0.00    -0.000 C 
BRANCH  19  20
ATOM     20  C   UNL     1      -7.195  -0.379  -9.133  1.00  0.00    -0.000 C 
BRANCH  20  21
ATOM     21  C   UNL     1      -6.724   0.204 -10.468  1.00  0.00    -0.003 C 
ATOM     22  C   UNL     1      -5.639   1.249 -10.265  1.00  0.00     0.004 C 
ENDBRANCH  20  21
ENDBRANCH  19  20
ENDBRANCH  18  19
ENDBRANCH  17  18
ENDBRANCH  16  17
ENDBRANCH  12  16
ENDBRANCH   9  12
ENDBRANCH   6   9
ENDBRANCH   3   5
ENDBRANCH   2   3
BRANCH   2  23
ATOM     23  N   UNL     1     -18.810   2.498  -9.283  1.00  0.00    -0.332 N 
ATOM     24  C   UNL     1     -20.259   2.403  -9.185  1.00  0.00     0.147 C 
BRANCH  23  25
ATOM     25  C   UNL     1     -18.133   3.023  -8.066  1.00  0.00     0.174 C 
BRANCH  25  26
ATOM     26  C   UNL     1     -18.787   2.531  -6.753  1.00  0.00     0.038 C 
BRANCH  26  27
ATOM     27  C   UNL     1     -17.993   1.502  -5.919  1.00  0.00    -0.015 C 
ATOM     28  C   UNL     1     -18.666   1.189  -4.582  1.00  0.00     0.007 C 
ATOM     29  C   UNL     1     -17.683   0.214  -6.678  1.00  0.00     0.007 C 
ENDBRANCH  26  27
ENDBRANCH  25  26
BRANCH  25  30
ATOM     30  C   UNL     1     -17.998   4.561  -8.154  1.00  0.00     0.243 C 
ATOM     31  O   UNL     1     -18.787   5.316  -7.589  1.00  0.00    -0.273 OA
ATOM     32  N   UNL     1     -16.947   5.021  -8.906  1.00  0.00    -0.342 N 
ATOM     33  H   UNL     1     -16.257   4.337  -9.224  1.00  0.00     0.164 HD
BRANCH  32  34
ATOM     34  C   UNL     1     -16.681   6.446  -9.122  1.00  0.00     0.175 C 
BRANCH  34  35
ATOM     35  C   UNL     1     -15.487   6.925  -8.282  1.00  0.00     0.070 C 
BRANCH  35  36
ATOM     36  C   UNL     1     -14.155   6.567  -8.901  1.00  0.00    -0.045 A 
ATOM     37  C   UNL     1     -13.442   7.527  -9.636  1.00  0.00     0.007 A 
ATOM     38  C   UNL     1     -13.625   5.276  -8.773  1.00  0.00     0.007 A 
ATOM     39  C   UNL     1     -12.219   7.202 -10.223  1.00  0.00     0.046 A 
ATOM     40  C   UNL     1     -12.401   4.950  -9.361  1.00  0.00     0.046 A 
ATOM     41  C   UNL     1     -11.708   5.918 -10.081  1.00  0.00     0.115 A 
BRANCH  41  42
ATOM     42  O   UNL     1     -10.511   5.641 -10.672  1.00  0.00    -0.508 OA
ATOM     43  H   UNL     1     -10.579   4.774 -11.107  1.00  0.00     0.293 HD
ENDBRANCH  41  42
ENDBRANCH  35  36
ENDBRANCH  34  35
BRANCH  34  44
ATOM     44  C   UNL     1     -16.447   6.665 -10.634  1.00  0.00     0.243 C 
ATOM     45  O   UNL     1     -16.819   7.655 -11.257  1.00  0.00    -0.273 OA
ATOM     46  N   UNL     1     -15.888   5.575 -11.266  1.00  0.00    -0.341 N 
ATOM     47  H   UNL     1     -15.704   4.732 -10.728  1.00  0.00     0.164 HD
BRANCH  46  48
ATOM     48  C   UNL     1     -15.636   5.521 -12.708  1.00  0.00     0.196 C 
BRANCH  48  49
ATOM     49  C   UNL     1     -14.298   6.189 -13.068  1.00  0.00     0.072 C 
BRANCH  49  50
ATOM     50  C   UNL     1     -14.478   7.561 -13.678  1.00  0.00    -0.045 A 
ATOM     51  C   UNL     1     -13.440   8.501 -13.603  1.00  0.00     0.007 A 
ATOM     52  C   UNL     1     -15.679   7.920 -14.304  1.00  0.00     0.007 A 
ATOM     53  C   UNL     1     -13.599   9.774 -14.151  1.00  0.00     0.046 A 
ATOM     54  C   UNL     1     -15.839   9.195 -14.851  1.00  0.00     0.046 A 
ATOM     55  C   UNL     1     -14.796  10.111 -14.770  1.00  0.00     0.115 A 
BRANCH  55  56
ATOM     56  O   UNL     1     -14.913  11.366 -15.291  1.00  0.00    -0.508 OA
ATOM     57  H   UNL     1     -15.446  11.902 -14.683  1.00  0.00     0.293 HD
ENDBRANCH  55  56
ENDBRANCH  49  50
ENDBRANCH  48  49
BRANCH  48  58
ATOM     58  C   UNL     1     -15.615   4.054 -13.157  1.00  0.00     0.326 C 
ATOM     59  O   UNL     1     -15.186   3.096 -12.535  1.00  0.00    -0.250 OA
BRANCH  58  60
ATOM     60  O   UNL     1     -16.160   3.856 -14.384  1.00  0.00    -0.480 OA
ATOM     61  H   UNL     1     -17.070   3.548 -14.181  1.00  0.00     0.296 HD
ENDBRANCH  58  60
ENDBRANCH  48  58
ENDBRANCH  46  48
ENDBRANCH  34  44
ENDBRANCH  32  34
ENDBRANCH  25  30
ENDBRANCH  23  25
ENDBRANCH   2  23
TORSDOF 28
ENDMDL
MODEL 8
REMARK VINA RESULT:    -5.826     13.692     17.869
REMARK INTER + INTRA:         -20.685
REMARK INTER:                 -15.970
REMARK INTRA:                  -4.716
REMARK UNBOUND:                -6.175
REMARK SMILES CCCCCCC[C@H](N)[C@H](O)C(=O)N[C@H](C)C(=O)N(C)[C@H](CC(C)C)C(=O)N[C@@H](Cc1ccc(O)cc1)C(=O)N[C@@H](Cc1ccc(O)cc1)C(=O)O
REMARK SMILES IDX 18 1 17 2 15 3 16 4 14 5 12 6 13 7 10 9 11 10 8 12 9 13 7 16
REMARK SMILES IDX 6 17 5 18 4 19 3 20 2 21 1 22 19 23 20 24 21 25 22 26 23 27
REMARK SMILES IDX 24 28 25 29 26 30 27 31 28 32 29 34 30 35 31 36 32 37 37 38
REMARK SMILES IDX 33 39 36 40 34 41 35 42 38 44 39 45 40 46 41 48 42 49 43 50
REMARK SMILES IDX 44 51 49 52 45 53 48 54 46 55 47 56 50 58 51 59 52 60
REMARK H PARENT 14 8 11 11 9 14 9 15 28 33 35 43 40 47 47 57 52 61
ROOT
ATOM      1  O   UNL     1      -4.019   1.858   4.093  1.00  0.00    -0.272 OA
ATOM      2  C   UNL     1      -4.371   3.017   3.829  1.00  0.00     0.245 C 
ENDROOT
BRANCH   2   3
ATOM      3  C   UNL     1      -3.962   4.154   4.799  1.00  0.00     0.168 C 
ATOM      4  C   UNL     1      -5.175   4.684   5.555  1.00  0.00     0.041 C 
BRANCH   3   5
ATOM      5  N   UNL     1      -2.864   3.827   5.695  1.00  0.00    -0.342 N 
ATOM      6  C   UNL     1      -1.551   4.085   5.363  1.00  0.00     0.251 C 
ATOM      7  O   UNL     1      -1.207   4.564   4.288  1.00  0.00    -0.272 OA
ATOM      8  H   UNL     1      -3.024   3.394   6.602  1.00  0.00     0.164 HD
BRANCH   6   9
ATOM      9  C   UNL     1      -0.578   3.790   6.515  1.00  0.00     0.219 C 
BRANCH   9  10
ATOM     10  O   UNL     1      -1.080   4.219   7.787  1.00  0.00    -0.382 OA
ATOM     11  H   UNL     1      -1.934   3.741   7.871  1.00  0.00     0.211 HD
ENDBRANCH   9  10
BRANCH   9  12
ATOM     12  C   UNL     1      -0.133   2.305   6.572  1.00  0.00     0.089 C 
BRANCH  12  13
ATOM     13  N   UNL     1      -1.141   1.488   5.858  1.00  0.00    -0.325 NA
ATOM     14  H   UNL     1      -1.391   0.684   6.436  1.00  0.00     0.119 HD
ATOM     15  H   UNL     1      -0.712   1.091   5.020  1.00  0.00     0.119 HD
ENDBRANCH  12  13
BRANCH  12  16
ATOM     16  C   UNL     1       1.282   2.000   6.025  1.00  0.00     0.022 C 
BRANCH  16  17
ATOM     17  C   UNL     1       2.050   3.103   5.283  1.00  0.00     0.002 C 
BRANCH  17  18
ATOM     18  C   UNL     1       1.918   3.070   3.762  1.00  0.00     0.000 C 
BRANCH  18  19
ATOM     19  C   UNL     1       3.230   2.764   3.027  1.00  0.00    -0.000 C 
BRANCH  19  20
ATOM     20  C   UNL     1       3.074   1.993   1.713  1.00  0.00    -0.000 C 
BRANCH  20  21
ATOM     21  C   UNL     1       2.663   2.886   0.540  1.00  0.00    -0.003 C 
ATOM     22  C   UNL     1       3.725   3.932   0.239  1.00  0.00     0.004 C 
ENDBRANCH  20  21
ENDBRANCH  19  20
ENDBRANCH  18  19
ENDBRANCH  17  18
ENDBRANCH  16  17
ENDBRANCH  12  16
ENDBRANCH   9  12
ENDBRANCH   6   9
ENDBRANCH   3   5
ENDBRANCH   2   3
BRANCH   2  23
ATOM     23  N   UNL     1      -5.012   3.294   2.626  1.00  0.00    -0.332 N 
ATOM     24  C   UNL     1      -6.079   2.486   2.054  1.00  0.00     0.147 C 
BRANCH  23  25
ATOM     25  C   UNL     1      -4.715   4.552   1.889  1.00  0.00     0.174 C 
BRANCH  25  26
ATOM     26  C   UNL     1      -5.884   5.012   0.986  1.00  0.00     0.038 C 
BRANCH  26  27
ATOM     27  C   UNL     1      -6.559   6.354   1.346  1.00  0.00    -0.015 C 
ATOM     28  C   UNL     1      -7.450   6.880   0.221  1.00  0.00     0.007 C 
ATOM     29  C   UNL     1      -7.328   6.313   2.664  1.00  0.00     0.007 C 
ENDBRANCH  26  27
ENDBRANCH  25  26
BRANCH  25  30
ATOM     30  C   UNL     1      -3.366   4.426   1.143  1.00  0.00     0.243 C 
ATOM     31  O   UNL     1      -2.414   5.164   1.392  1.00  0.00    -0.273 OA
ATOM     32  N   UNL     1      -3.307   3.446   0.186  1.00  0.00    -0.342 N 
ATOM     33  H   UNL     1      -4.086   2.785   0.136  1.00  0.00     0.164 HD
BRANCH  32  34
ATOM     34  C   UNL     1      -2.120   3.200  -0.638  1.00  0.00     0.175 C 
BRANCH  34  35
ATOM     35  C   UNL     1      -1.866   1.696  -0.817  1.00  0.00     0.070 C 
BRANCH  35  36
ATOM     36  C   UNL     1      -1.629   0.982   0.494  1.00  0.00    -0.045 A 
ATOM     37  C   UNL     1      -2.695   0.348   1.151  1.00  0.00     0.007 A 
ATOM     38  C   UNL     1      -0.357   0.961   1.082  1.00  0.00     0.007 A 
ATOM     39  C   UNL     1      -2.489  -0.301   2.369  1.00  0.00     0.046 A 
ATOM     40  C   UNL     1      -0.150   0.313   2.302  1.00  0.00     0.046 A 
ATOM     41  C   UNL     1      -1.219  -0.314   2.934  1.00  0.00     0.115 A 
BRANCH  41  42
ATOM     42  O   UNL     1      -1.061  -0.957   4.126  1.00  0.00    -0.508 OA
ATOM     43  H   UNL     1      -1.934  -1.258   4.428  1.00  0.00     0.293 HD
ENDBRANCH  41  42
ENDBRANCH  35  36
ENDBRANCH  34  35
BRANCH  34  44
ATOM     44  C   UNL     1      -2.321   3.918  -1.992  1.00  0.00     0.243 C 
ATOM     45  O   UNL     1      -3.375   4.429  -2.357  1.00  0.00    -0.273 OA
ATOM     46  N   UNL     1      -1.230   3.822  -2.830  1.00  0.00    -0.341 N 
ATOM     47  H   UNL     1      -0.420   3.286  -2.528  1.00  0.00     0.164 HD
BRANCH  46  48
ATOM     48  C   UNL     1      -1.209   4.365  -4.190  1.00  0.00     0.196 C 
BRANCH  48  49
ATOM     49  C   UNL     1       0.167   4.171  -4.849  1.00  0.00     0.072 C 
BRANCH  49  50
ATOM     50  C   UNL     1       1.046   5.396  -4.732  1.00  0.00    -0.045 A 
ATOM     51  C   UNL     1       0.596   6.629  -5.226  1.00  0.00     0.007 A 
ATOM     52  C   UNL     1       2.319   5.317  -4.153  1.00  0.00     0.007 A 
ATOM     53  C   UNL     1       1.403   7.763  -5.135  1.00  0.00     0.046 A 
ATOM     54  C   UNL     1       3.128   6.452  -4.063  1.00  0.00     0.046 A 
ATOM     55  C   UNL     1       2.662   7.667  -4.554  1.00  0.00     0.115 A 
BRANCH  55  56
ATOM     56  O   UNL     1       3.420   8.798  -4.486  1.00  0.00    -0.508 OA
ATOM     57  H   UNL     1       3.951   8.762  -3.674  1.00  0.00     0.293 HD
ENDBRANCH  55  56
ENDBRANCH  49  50
ENDBRANCH  48  49
BRANCH  48  58
ATOM     58  C   UNL     1      -2.284   3.657  -5.027  1.00  0.00     0.326 C 
ATOM     59  O   UNL     1      -2.296   2.489  -5.381  1.00  0.00    -0.250 OA
BRANCH  58  60
ATOM     60  O   UNL     1      -3.320   4.464  -5.371  1.00  0.00    -0.480 OA
ATOM     61  H   UNL     1      -4.084   4.062  -4.905  1.00  0.00     0.296 HD
ENDBRANCH  58  60
ENDBRANCH  48  58
ENDBRANCH  46  48
ENDBRANCH  34  44
ENDBRANCH  32  34
ENDBRANCH  25  30
ENDBRANCH  23  25
ENDBRANCH   2  23
TORSDOF 28
ENDMDL
MODEL 9
REMARK VINA RESULT:    -5.823     12.043     16.227
REMARK INTER + INTRA:         -20.680
REMARK INTER:                 -14.024
REMARK INTRA:                  -6.656
REMARK UNBOUND:                -6.175
REMARK SMILES CCCCCCC[C@H](N)[C@H](O)C(=O)N[C@H](C)C(=O)N(C)[C@H](CC(C)C)C(=O)N[C@@H](Cc1ccc(O)cc1)C(=O)N[C@@H](Cc1ccc(O)cc1)C(=O)O
REMARK SMILES IDX 18 1 17 2 15 3 16 4 14 5 12 6 13 7 10 9 11 10 8 12 9 13 7 16
REMARK SMILES IDX 6 17 5 18 4 19 3 20 2 21 1 22 19 23 20 24 21 25 22 26 23 27
REMARK SMILES IDX 24 28 25 29 26 30 27 31 28 32 29 34 30 35 31 36 32 37 37 38
REMARK SMILES IDX 33 39 36 40 34 41 35 42 38 44 39 45 40 46 41 48 42 49 43 50
REMARK SMILES IDX 44 51 49 52 45 53 48 54 46 55 47 56 50 58 51 59 52 60
REMARK H PARENT 14 8 11 11 9 14 9 15 28 33 35 43 40 47 47 57 52 61
ROOT
ATOM      1  O   UNL     1      -6.694 -10.395  -4.685  1.00  0.00    -0.272 OA
ATOM      2  C   UNL     1      -6.661 -10.544  -3.455  1.00  0.00     0.245 C 
ENDROOT
BRANCH   2   3
ATOM      3  C   UNL     1      -5.413 -10.050  -2.682  1.00  0.00     0.168 C 
ATOM      4  C   UNL     1      -4.556 -11.226  -2.229  1.00  0.00     0.041 C 
BRANCH   3   5
ATOM      5  N   UNL     1      -4.626  -9.040  -3.373  1.00  0.00    -0.342 N 
ATOM      6  C   UNL     1      -4.958  -7.703  -3.330  1.00  0.00     0.251 C 
ATOM      7  O   UNL     1      -5.949  -7.270  -2.751  1.00  0.00    -0.272 OA
ATOM      8  H   UNL     1      -3.801  -9.283  -3.916  1.00  0.00     0.164 HD
BRANCH   6   9
ATOM      9  C   UNL     1      -3.909  -6.808  -4.010  1.00  0.00     0.219 C 
BRANCH   9  10
ATOM     10  O   UNL     1      -3.110  -6.080  -3.070  1.00  0.00    -0.382 OA
ATOM     11  H   UNL     1      -3.761  -5.508  -2.608  1.00  0.00     0.211 HD
ENDBRANCH   9  10
BRANCH   9  12
ATOM     12  C   UNL     1      -3.013  -7.576  -5.016  1.00  0.00     0.089 C 
BRANCH  12  13
ATOM     13  N   UNL     1      -3.751  -7.709  -6.293  1.00  0.00    -0.325 NA
ATOM     14  H   UNL     1      -3.188  -7.316  -7.049  1.00  0.00     0.119 HD
ATOM     15  H   UNL     1      -4.589  -7.125  -6.253  1.00  0.00     0.119 HD
ENDBRANCH  12  13
BRANCH  12  16
ATOM     16  C   UNL     1      -1.611  -6.974  -5.273  1.00  0.00     0.022 C 
BRANCH  16  17
ATOM     17  C   UNL     1      -1.419  -6.003  -6.446  1.00  0.00     0.002 C 
BRANCH  17  18
ATOM     18  C   UNL     1      -1.375  -4.526  -6.060  1.00  0.00     0.000 C 
BRANCH  18  19
ATOM     19  C   UNL     1      -2.451  -3.670  -6.741  1.00  0.00    -0.000 C 
BRANCH  19  20
ATOM     20  C   UNL     1      -3.895  -4.102  -6.468  1.00  0.00    -0.000 C 
BRANCH  20  21
ATOM     21  C   UNL     1      -4.542  -3.333  -5.313  1.00  0.00    -0.003 C 
ATOM     22  C   UNL     1      -3.581  -2.318  -4.715  1.00  0.00     0.004 C 
ENDBRANCH  20  21
ENDBRANCH  19  20
ENDBRANCH  18  19
ENDBRANCH  17  18
ENDBRANCH  16  17
ENDBRANCH  12  16
ENDBRANCH   9  12
ENDBRANCH   6   9
ENDBRANCH   3   5
ENDBRANCH   2   3
BRANCH   2  23
ATOM     23  N   UNL     1      -7.777 -11.031  -2.783  1.00  0.00    -0.332 N 
ATOM     24  C   UNL     1      -8.655 -12.075  -3.289  1.00  0.00     0.147 C 
BRANCH  23  25
ATOM     25  C   UNL     1      -8.075 -10.580  -1.395  1.00  0.00     0.174 C 
BRANCH  25  26
ATOM     26  C   UNL     1      -8.459 -11.745  -0.453  1.00  0.00     0.038 C 
BRANCH  26  27
ATOM     27  C   UNL     1      -8.085 -11.592   1.038  1.00  0.00    -0.015 C 
ATOM     28  C   UNL     1      -6.885 -10.668   1.248  1.00  0.00     0.007 C 
ATOM     29  C   UNL     1      -9.256 -11.159   1.917  1.00  0.00     0.007 C 
ENDBRANCH  26  27
ENDBRANCH  25  26
BRANCH  25  30
ATOM     30  C   UNL     1      -9.110  -9.432  -1.419  1.00  0.00     0.243 C 
ATOM     31  O   UNL     1     -10.312  -9.638  -1.258  1.00  0.00    -0.273 OA
ATOM     32  N   UNL     1      -8.600  -8.178  -1.637  1.00  0.00    -0.342 N 
ATOM     33  H   UNL     1      -7.583  -8.071  -1.620  1.00  0.00     0.164 HD
BRANCH  32  34
ATOM     34  C   UNL     1      -9.435  -6.977  -1.719  1.00  0.00     0.175 C 
BRANCH  34  35
ATOM     35  C   UNL     1      -8.935  -5.883  -0.763  1.00  0.00     0.070 C 
BRANCH  35  36
ATOM     36  C   UNL     1      -8.555  -6.423   0.597  1.00  0.00    -0.045 A 
ATOM     37  C   UNL     1      -9.533  -7.003   1.420  1.00  0.00     0.007 A 
ATOM     38  C   UNL     1      -7.237  -6.334   1.064  1.00  0.00     0.007 A 
ATOM     39  C   UNL     1      -9.194  -7.492   2.682  1.00  0.00     0.046 A 
ATOM     40  C   UNL     1      -6.898  -6.822   2.328  1.00  0.00     0.046 A 
ATOM     41  C   UNL     1      -7.881  -7.399   3.125  1.00  0.00     0.115 A 
BRANCH  41  42
ATOM     42  O   UNL     1      -7.592  -7.886   4.366  1.00  0.00    -0.508 OA
ATOM     43  H   UNL     1      -8.344  -7.693   4.951  1.00  0.00     0.293 HD
ENDBRANCH  41  42
ENDBRANCH  35  36
ENDBRANCH  34  35
BRANCH  34  44
ATOM     44  C   UNL     1      -9.444  -6.499  -3.188  1.00  0.00     0.243 C 
ATOM     45  O   UNL     1      -9.985  -5.469  -3.580  1.00  0.00    -0.273 OA
ATOM     46  N   UNL     1      -8.894  -7.410  -4.065  1.00  0.00    -0.341 N 
ATOM     47  H   UNL     1      -8.564  -8.303  -3.707  1.00  0.00     0.164 HD
BRANCH  46  48
ATOM     48  C   UNL     1      -8.852  -7.209  -5.515  1.00  0.00     0.196 C 
BRANCH  48  49
ATOM     49  C   UNL     1      -7.410  -7.012  -6.011  1.00  0.00     0.072 C 
BRANCH  49  50
ATOM     50  C   UNL     1      -7.269  -5.821  -6.932  1.00  0.00    -0.045 A 
ATOM     51  C   UNL     1      -7.778  -4.573  -6.543  1.00  0.00     0.007 A 
ATOM     52  C   UNL     1      -6.654  -5.946  -8.184  1.00  0.00     0.007 A 
ATOM     53  C   UNL     1      -7.666  -3.470  -7.389  1.00  0.00     0.046 A 
ATOM     54  C   UNL     1      -6.543  -4.842  -9.032  1.00  0.00     0.046 A 
ATOM     55  C   UNL     1      -7.049  -3.612  -8.626  1.00  0.00     0.115 A 
BRANCH  55  56
ATOM     56  O   UNL     1      -6.962  -2.510  -9.425  1.00  0.00    -0.508 OA
ATOM     57  H   UNL     1      -6.563  -1.790  -8.910  1.00  0.00     0.293 HD
ENDBRANCH  55  56
ENDBRANCH  49  50
ENDBRANCH  48  49
BRANCH  48  58
ATOM     58  C   UNL     1      -9.472  -8.431  -6.207  1.00  0.00     0.326 C 
ATOM     59  O   UNL     1     -10.605  -8.535  -6.648  1.00  0.00    -0.250 OA
BRANCH  58  60
ATOM     60  O   UNL     1      -8.616  -9.478  -6.326  1.00  0.00    -0.480 OA
ATOM     61  H   UNL     1      -8.045  -9.218  -7.081  1.00  0.00     0.296 HD
ENDBRANCH  58  60
ENDBRANCH  48  58
ENDBRANCH  46  48
ENDBRANCH  34  44
ENDBRANCH  32  34
ENDBRANCH  25  30
ENDBRANCH  23  25
ENDBRANCH   2  23
TORSDOF 28
ENDMDL
MODEL 10
REMARK VINA RESULT:    -5.820     12.077     16.574
REMARK INTER + INTRA:         -20.672
REMARK INTER:                 -13.629
REMARK INTRA:                  -7.043
REMARK UNBOUND:                -6.175
REMARK SMILES CCCCCCC[C@H](N)[C@H](O)C(=O)N[C@H](C)C(=O)N(C)[C@H](CC(C)C)C(=O)N[C@@H](Cc1ccc(O)cc1)C(=O)N[C@@H](Cc1ccc(O)cc1)C(=O)O
REMARK SMILES IDX 18 1 17 2 15 3 16 4 14 5 12 6 13 7 10 9 11 10 8 12 9 13 7 16
REMARK SMILES IDX 6 17 5 18 4 19 3 20 2 21 1 22 19 23 20 24 21 25 22 26 23 27
REMARK SMILES IDX 24 28 25 29 26 30 27 31 28 32 29 34 30 35 31 36 32 37 37 38
REMARK SMILES IDX 33 39 36 40 34 41 35 42 38 44 39 45 40 46 41 48 42 49 43 50
REMARK SMILES IDX 44 51 49 52 45 53 48 54 46 55 47 56 50 58 51 59 52 60
REMARK H PARENT 14 8 11 11 9 14 9 15 28 33 35 43 40 47 47 57 52 61
ROOT
ATOM      1  O   UNL     1      -3.956  -4.042  -3.721  1.00  0.00    -0.272 OA
ATOM      2  C   UNL     1      -3.351  -4.775  -4.517  1.00  0.00     0.245 C 
ENDROOT
BRANCH   2   3
ATOM      3  C   UNL     1      -2.734  -6.093  -3.988  1.00  0.00     0.168 C 
ATOM      4  C   UNL     1      -1.789  -5.820  -2.823  1.00  0.00     0.041 C 
BRANCH   3   5
ATOM      5  N   UNL     1      -3.698  -7.135  -3.671  1.00  0.00    -0.342 N 
ATOM      6  C   UNL     1      -4.068  -8.091  -4.595  1.00  0.00     0.251 C 
ATOM      7  O   UNL     1      -3.652  -8.113  -5.748  1.00  0.00    -0.272 OA
ATOM      8  H   UNL     1      -4.138  -7.199  -2.756  1.00  0.00     0.164 HD
BRANCH   6   9
ATOM      9  C   UNL     1      -4.985  -9.170  -3.998  1.00  0.00     0.219 C 
BRANCH   9  10
ATOM     10  O   UNL     1      -4.698  -9.441  -2.621  1.00  0.00    -0.382 OA
ATOM     11  H   UNL     1      -4.769  -8.559  -2.193  1.00  0.00     0.211 HD
ENDBRANCH   9  10
BRANCH   9  12
ATOM     12  C   UNL     1      -6.493  -8.865  -4.196  1.00  0.00     0.089 C 
BRANCH  12  13
ATOM     13  N   UNL     1      -6.621  -7.747  -5.158  1.00  0.00    -0.325 NA
ATOM     14  H   UNL     1      -5.715  -7.578  -5.599  1.00  0.00     0.119 HD
ATOM     15  H   UNL     1      -6.831  -6.889  -4.643  1.00  0.00     0.119 HD
ENDBRANCH  12  13
BRANCH  12  16
ATOM     16  C   UNL     1      -7.372 -10.057  -4.646  1.00  0.00     0.022 C 
BRANCH  16  17
ATOM     17  C   UNL     1      -8.787 -10.201  -4.068  1.00  0.00     0.002 C 
BRANCH  17  18
ATOM     18  C   UNL     1      -8.970 -11.361  -3.093  1.00  0.00     0.000 C 
BRANCH  18  19
ATOM     19  C   UNL     1      -9.699 -10.980  -1.798  1.00  0.00    -0.000 C 
BRANCH  19  20
ATOM     20  C   UNL     1      -8.912 -11.234  -0.509  1.00  0.00    -0.000 C 
BRANCH  20  21
ATOM     21  C   UNL     1      -7.398 -11.097  -0.695  1.00  0.00    -0.003 C 
ATOM     22  C   UNL     1      -6.681 -11.012   0.644  1.00  0.00     0.004 C 
ENDBRANCH  20  21
ENDBRANCH  19  20
ENDBRANCH  18  19
ENDBRANCH  17  18
ENDBRANCH  16  17
ENDBRANCH  12  16
ENDBRANCH   9  12
ENDBRANCH   6   9
ENDBRANCH   3   5
ENDBRANCH   2   3
BRANCH   2  23
ATOM     23  N   UNL     1      -3.341  -4.469  -5.874  1.00  0.00    -0.332 N 
ATOM     24  C   UNL     1      -2.211  -3.885  -6.581  1.00  0.00     0.147 C 
BRANCH  23  25
ATOM     25  C   UNL     1      -4.489  -4.855  -6.740  1.00  0.00     0.174 C 
BRANCH  25  26
ATOM     26  C   UNL     1      -4.105  -4.972  -8.233  1.00  0.00     0.038 C 
BRANCH  26  27
ATOM     27  C   UNL     1      -5.105  -5.701  -9.158  1.00  0.00    -0.015 C 
ATOM     28  C   UNL     1      -5.862  -4.739 -10.074  1.00  0.00     0.007 C 
ATOM     29  C   UNL     1      -4.471  -6.828  -9.970  1.00  0.00     0.007 C 
ENDBRANCH  26  27
ENDBRANCH  25  26
BRANCH  25  30
ATOM     30  C   UNL     1      -5.691  -3.917  -6.479  1.00  0.00     0.243 C 
ATOM     31  O   UNL     1      -5.798  -2.827  -7.039  1.00  0.00    -0.273 OA
ATOM     32  N   UNL     1      -6.618  -4.378  -5.580  1.00  0.00    -0.342 N 
ATOM     33  H   UNL     1      -6.533  -5.348  -5.266  1.00  0.00     0.164 HD
BRANCH  32  34
ATOM     34  C   UNL     1      -7.806  -3.613  -5.191  1.00  0.00     0.175 C 
BRANCH  34  35
ATOM     35  C   UNL     1      -8.963  -3.835  -6.177  1.00  0.00     0.070 C 
BRANCH  35  36
ATOM     36  C   UNL     1      -9.052  -5.265  -6.660  1.00  0.00    -0.045 A 
ATOM     37  C   UNL     1      -9.833  -6.196  -5.958  1.00  0.00     0.007 A 
ATOM     38  C   UNL     1      -8.344  -5.687  -7.793  1.00  0.00     0.007 A 
ATOM     39  C   UNL     1      -9.911  -7.521  -6.388  1.00  0.00     0.046 A 
ATOM     40  C   UNL     1      -8.420  -7.014  -8.224  1.00  0.00     0.046 A 
ATOM     41  C   UNL     1      -9.205  -7.919  -7.517  1.00  0.00     0.115 A 
BRANCH  41  42
ATOM     42  O   UNL     1      -9.306  -9.223  -7.902  1.00  0.00    -0.508 OA
ATOM     43  H   UNL     1     -10.212  -9.379  -8.215  1.00  0.00     0.293 HD
ENDBRANCH  41  42
ENDBRANCH  35  36
ENDBRANCH  34  35
BRANCH  34  44
ATOM     44  C   UNL     1      -8.188  -4.022  -3.751  1.00  0.00     0.243 C 
ATOM     45  O   UNL     1      -8.669  -3.260  -2.917  1.00  0.00    -0.273 OA
ATOM     46  N   UNL     1      -7.818  -5.311  -3.430  1.00  0.00    -0.341 N 
ATOM     47  H   UNL     1      -7.316  -5.866  -4.118  1.00  0.00     0.164 HD
BRANCH  46  48
ATOM     48  C   UNL     1      -8.014  -5.900  -2.103  1.00  0.00     0.196 C 
BRANCH  48  49
ATOM     49  C   UNL     1      -9.220  -6.854  -2.087  1.00  0.00     0.072 C 
BRANCH  49  50
ATOM     50  C   UNL     1     -10.052  -6.720  -0.832  1.00  0.00    -0.045 A 
ATOM     51  C   UNL     1     -10.400  -5.447  -0.357  1.00  0.00     0.007 A 
ATOM     52  C   UNL     1     -10.466  -7.851  -0.117  1.00  0.00     0.007 A 
ATOM     53  C   UNL     1     -11.156  -5.310   0.807  1.00  0.00     0.046 A 
ATOM     54  C   UNL     1     -11.222  -7.714   1.049  1.00  0.00     0.046 A 
ATOM     55  C   UNL     1     -11.561  -6.443   1.501  1.00  0.00     0.115 A 
BRANCH  55  56
ATOM     56  O   UNL     1     -12.297  -6.266   2.635  1.00  0.00    -0.508 OA
ATOM     57  H   UNL     1     -13.237  -6.309   2.400  1.00  0.00     0.293 HD
ENDBRANCH  55  56
ENDBRANCH  49  50
ENDBRANCH  48  49
BRANCH  48  58
ATOM     58  C   UNL     1      -6.745  -6.666  -1.704  1.00  0.00     0.326 C 
ATOM     59  O   UNL     1      -6.679  -7.785  -1.222  1.00  0.00    -0.250 OA
BRANCH  58  60
ATOM     60  O   UNL     1      -5.600  -5.981  -1.950  1.00  0.00    -0.480 OA
ATOM     61  H   UNL     1      -5.701  -5.699  -2.884  1.00  0.00     0.296 HD
ENDBRANCH  58  60
ENDBRANCH  48  58
ENDBRANCH  46  48
ENDBRANCH  34  44
ENDBRANCH  32  34
ENDBRANCH  25  30
ENDBRANCH  23  25
ENDBRANCH   2  23
TORSDOF 28
ENDMDL
MODEL 11
REMARK VINA RESULT:    -5.810      2.186      4.587
REMARK INTER + INTRA:         -20.645
REMARK INTER:                 -15.638
REMARK INTRA:                  -5.007
REMARK UNBOUND:                -6.175
REMARK SMILES CCCCCCC[C@H](N)[C@H](O)C(=O)N[C@H](C)C(=O)N(C)[C@H](CC(C)C)C(=O)N[C@@H](Cc1ccc(O)cc1)C(=O)N[C@@H](Cc1ccc(O)cc1)C(=O)O
REMARK SMILES IDX 18 1 17 2 15 3 16 4 14 5 12 6 13 7 10 9 11 10 8 12 9 13 7 16
REMARK SMILES IDX 6 17 5 18 4 19 3 20 2 21 1 22 19 23 20 24 21 25 22 26 23 27
REMARK SMILES IDX 24 28 25 29 26 30 27 31 28 32 29 34 30 35 31 36 32 37 37 38
REMARK SMILES IDX 33 39 36 40 34 41 35 42 38 44 39 45 40 46 41 48 42 49 43 50
REMARK SMILES IDX 44 51 49 52 45 53 48 54 46 55 47 56 50 58 51 59 52 60
REMARK H PARENT 14 8 11 11 9 14 9 15 28 33 35 43 40 47 47 57 52 61
ROOT
ATOM      1  O   UNL     1     -14.237   2.217 -10.882  1.00  0.00    -0.272 OA
ATOM      2  C   UNL     1     -14.232   1.380  -9.966  1.00  0.00     0.245 C 
ENDROOT
BRANCH   2   3
ATOM      3  C   UNL     1     -12.895   1.079  -9.245  1.00  0.00     0.168 C 
ATOM      4  C   UNL     1     -12.038   0.125 -10.071  1.00  0.00     0.041 C 
BRANCH   3   5
ATOM      5  N   UNL     1     -12.148   2.254  -8.826  1.00  0.00    -0.342 N 
ATOM      6  C   UNL     1     -12.412   2.899  -7.636  1.00  0.00     0.251 C 
ATOM      7  O   UNL     1     -13.309   2.563  -6.870  1.00  0.00    -0.272 OA
ATOM      8  H   UNL     1     -11.402   2.647  -9.396  1.00  0.00     0.164 HD
BRANCH   6   9
ATOM      9  C   UNL     1     -11.409   4.024  -7.334  1.00  0.00     0.219 C 
BRANCH   9  10
ATOM     10  O   UNL     1     -11.205   4.219  -5.930  1.00  0.00    -0.382 OA
ATOM     11  H   UNL     1     -11.918   4.846  -5.677  1.00  0.00     0.211 HD
ENDBRANCH   9  10
BRANCH   9  12
ATOM     12  C   UNL     1     -10.054   3.845  -8.068  1.00  0.00     0.089 C 
BRANCH  12  13
ATOM     13  N   UNL     1      -9.935   4.908  -9.093  1.00  0.00    -0.325 NA
ATOM     14  H   UNL     1      -8.960   5.210  -9.151  1.00  0.00     0.119 HD
ATOM     15  H   UNL     1     -10.451   5.732  -8.777  1.00  0.00     0.119 HD
ENDBRANCH  12  13
BRANCH  12  16
ATOM     16  C   UNL     1      -8.794   3.828  -7.171  1.00  0.00     0.022 C 
BRANCH  16  17
ATOM     17  C   UNL     1      -8.044   2.505  -6.961  1.00  0.00     0.002 C 
BRANCH  17  18
ATOM     18  C   UNL     1      -8.914   1.252  -7.038  1.00  0.00     0.000 C 
BRANCH  18  19
ATOM     19  C   UNL     1      -8.846   0.527  -8.389  1.00  0.00    -0.000 C 
BRANCH  19  20
ATOM     20  C   UNL     1      -7.434   0.314  -8.942  1.00  0.00    -0.000 C 
BRANCH  20  21
ATOM     21  C   UNL     1      -6.734  -0.909  -8.344  1.00  0.00    -0.003 C 
ATOM     22  C   UNL     1      -7.658  -2.117  -8.313  1.00  0.00     0.004 C 
ENDBRANCH  20  21
ENDBRANCH  19  20
ENDBRANCH  18  19
ENDBRANCH  17  18
ENDBRANCH  16  17
ENDBRANCH  12  16
ENDBRANCH   9  12
ENDBRANCH   6   9
ENDBRANCH   3   5
ENDBRANCH   2   3
BRANCH   2  23
ATOM     23  N   UNL     1     -15.429   0.825  -9.525  1.00  0.00    -0.332 N 
ATOM     24  C   UNL     1     -15.645  -0.595  -9.296  1.00  0.00     0.147 C 
BRANCH  23  25
ATOM     25  C   UNL     1     -16.562   1.704  -9.126  1.00  0.00     0.174 C 
BRANCH  25  26
ATOM     26  C   UNL     1     -17.668   0.947  -8.354  1.00  0.00     0.038 C 
BRANCH  26  27
ATOM     27  C   UNL     1     -18.888   1.774  -7.889  1.00  0.00    -0.015 C 
ATOM     28  C   UNL     1     -20.171   1.387  -8.625  1.00  0.00     0.007 C 
ATOM     29  C   UNL     1     -19.105   1.739  -6.378  1.00  0.00     0.007 C 
ENDBRANCH  26  27
ENDBRANCH  25  26
BRANCH  25  30
ATOM     30  C   UNL     1     -17.086   2.487 -10.353  1.00  0.00     0.243 C 
ATOM     31  O   UNL     1     -17.792   1.957 -11.209  1.00  0.00    -0.273 OA
ATOM     32  N   UNL     1     -16.706   3.803 -10.423  1.00  0.00    -0.342 N 
ATOM     33  H   UNL     1     -16.240   4.205  -9.605  1.00  0.00     0.164 HD
BRANCH  32  34
ATOM     34  C   UNL     1     -17.085   4.689 -11.526  1.00  0.00     0.175 C 
BRANCH  34  35
ATOM     35  C   UNL     1     -17.559   6.056 -11.008  1.00  0.00     0.070 C 
BRANCH  35  36
ATOM     36  C   UNL     1     -18.086   5.993  -9.592  1.00  0.00    -0.045 A 
ATOM     37  C   UNL     1     -17.308   6.482  -8.532  1.00  0.00     0.007 A 
ATOM     38  C   UNL     1     -19.339   5.432  -9.316  1.00  0.00     0.007 A 
ATOM     39  C   UNL     1     -17.780   6.416  -7.221  1.00  0.00     0.046 A 
ATOM     40  C   UNL     1     -19.812   5.364  -8.003  1.00  0.00     0.046 A 
ATOM     41  C   UNL     1     -19.027   5.859  -6.967  1.00  0.00     0.115 A 
BRANCH  41  42
ATOM     42  O   UNL     1     -19.450   5.811  -5.671  1.00  0.00    -0.508 OA
ATOM     43  H   UNL     1     -18.692   6.009  -5.096  1.00  0.00     0.293 HD
ENDBRANCH  41  42
ENDBRANCH  35  36
ENDBRANCH  34  35
BRANCH  34  44
ATOM     44  C   UNL     1     -15.871   4.820 -12.474  1.00  0.00     0.243 C 
ATOM     45  O   UNL     1     -15.789   4.282 -13.574  1.00  0.00    -0.273 OA
ATOM     46  N   UNL     1     -14.810   5.500 -11.916  1.00  0.00    -0.341 N 
ATOM     47  H   UNL     1     -14.883   5.827 -10.955  1.00  0.00     0.164 HD
BRANCH  46  48
ATOM     48  C   UNL     1     -13.528   5.692 -12.597  1.00  0.00     0.196 C 
BRANCH  48  49
ATOM     49  C   UNL     1     -13.398   7.119 -13.155  1.00  0.00     0.072 C 
BRANCH  49  50
ATOM     50  C   UNL     1     -14.703   7.881 -13.114  1.00  0.00    -0.045 A 
ATOM     51  C   UNL     1     -15.594   7.800 -14.195  1.00  0.00     0.007 A 
ATOM     52  C   UNL     1     -15.033   8.688 -12.018  1.00  0.00     0.007 A 
ATOM     53  C   UNL     1     -16.795   8.508 -14.174  1.00  0.00     0.046 A 
ATOM     54  C   UNL     1     -16.235   9.399 -11.998  1.00  0.00     0.046 A 
ATOM     55  C   UNL     1     -17.107   9.302 -13.077  1.00  0.00     0.115 A 
BRANCH  55  56
ATOM     56  O   UNL     1     -18.290   9.980 -13.096  1.00  0.00    -0.508 OA
ATOM     57  H   UNL     1     -18.673   9.900 -13.984  1.00  0.00     0.293 HD
ENDBRANCH  55  56
ENDBRANCH  49  50
ENDBRANCH  48  49
BRANCH  48  58
ATOM     58  C   UNL     1     -12.389   5.423 -11.603  1.00  0.00     0.326 C 
ATOM     59  O   UNL     1     -12.296   4.490 -10.821  1.00  0.00    -0.250 OA
BRANCH  58  60
ATOM     60  O   UNL     1     -11.399   6.348 -11.651  1.00  0.00    -0.480 OA
ATOM     61  H   UNL     1     -10.651   5.859 -12.058  1.00  0.00     0.296 HD
ENDBRANCH  58  60
ENDBRANCH  48  58
ENDBRANCH  46  48
ENDBRANCH  34  44
ENDBRANCH  32  34
ENDBRANCH  25  30
ENDBRANCH  23  25
ENDBRANCH   2  23
TORSDOF 28
ENDMDL
MODEL 12
REMARK VINA RESULT:    -5.803      2.182      6.603
REMARK INTER + INTRA:         -20.630
REMARK INTER:                 -16.277
REMARK INTRA:                  -4.353
REMARK UNBOUND:                -6.175
REMARK SMILES CCCCCCC[C@H](N)[C@H](O)C(=O)N[C@H](C)C(=O)N(C)[C@H](CC(C)C)C(=O)N[C@@H](Cc1ccc(O)cc1)C(=O)N[C@@H](Cc1ccc(O)cc1)C(=O)O
REMARK SMILES IDX 18 1 17 2 15 3 16 4 14 5 12 6 13 7 10 9 11 10 8 12 9 13 7 16
REMARK SMILES IDX 6 17 5 18 4 19 3 20 2 21 1 22 19 23 20 24 21 25 22 26 23 27
REMARK SMILES IDX 24 28 25 29 26 30 27 31 28 32 29 34 30 35 31 36 32 37 37 38
REMARK SMILES IDX 33 39 36 40 34 41 35 42 38 44 39 45 40 46 41 48 42 49 43 50
REMARK SMILES IDX 44 51 49 52 45 53 48 54 46 55 47 56 50 58 51 59 52 60
REMARK H PARENT 14 8 11 11 9 14 9 15 28 33 35 43 40 47 47 57 52 61
ROOT
ATOM      1  O   UNL     1     -15.096  -0.949  -8.989  1.00  0.00    -0.272 OA
ATOM      2  C   UNL     1     -14.959   0.272  -8.819  1.00  0.00     0.245 C 
ENDROOT
BRANCH   2   3
ATOM      3  C   UNL     1     -15.156   0.848  -7.394  1.00  0.00     0.168 C 
ATOM      4  C   UNL     1     -14.315   2.104  -7.197  1.00  0.00     0.041 C 
BRANCH   3   5
ATOM      5  N   UNL     1     -16.543   1.057  -7.006  1.00  0.00    -0.342 N 
ATOM      6  C   UNL     1     -17.249   0.111  -6.292  1.00  0.00     0.251 C 
ATOM      7  O   UNL     1     -16.787  -0.978  -5.971  1.00  0.00    -0.272 OA
ATOM      8  H   UNL     1     -17.044   1.908  -7.247  1.00  0.00     0.164 HD
BRANCH   6   9
ATOM      9  C   UNL     1     -18.643   0.604  -5.871  1.00  0.00     0.219 C 
BRANCH   9  10
ATOM     10  O   UNL     1     -18.927   0.344  -4.491  1.00  0.00    -0.382 OA
ATOM     11  H   UNL     1     -18.093   0.588  -4.034  1.00  0.00     0.211 HD
ENDBRANCH   9  10
BRANCH   9  12
ATOM     12  C   UNL     1     -18.890   2.097  -6.212  1.00  0.00     0.089 C 
BRANCH  12  13
ATOM     13  N   UNL     1     -20.350   2.343  -6.201  1.00  0.00    -0.325 NA
ATOM     14  H   UNL     1     -20.838   1.481  -6.451  1.00  0.00     0.119 HD
ATOM     15  H   UNL     1     -20.580   3.005  -6.947  1.00  0.00     0.119 HD
ENDBRANCH  12  13
BRANCH  12  16
ATOM     16  C   UNL     1     -18.170   3.127  -5.309  1.00  0.00     0.022 C 
BRANCH  16  17
ATOM     17  C   UNL     1     -18.810   4.505  -5.091  1.00  0.00     0.002 C 
BRANCH  17  18
ATOM     18  C   UNL     1     -18.161   5.647  -5.869  1.00  0.00     0.000 C 
BRANCH  18  19
ATOM     19  C   UNL     1     -17.500   5.211  -7.184  1.00  0.00    -0.000 C 
BRANCH  19  20
ATOM     20  C   UNL     1     -17.277   6.333  -8.202  1.00  0.00    -0.000 C 
BRANCH  20  21
ATOM     21  C   UNL     1     -16.963   7.682  -7.550  1.00  0.00    -0.003 C 
ATOM     22  C   UNL     1     -15.587   8.187  -7.956  1.00  0.00     0.004 C 
ENDBRANCH  20  21
ENDBRANCH  19  20
ENDBRANCH  18  19
ENDBRANCH  17  18
ENDBRANCH  16  17
ENDBRANCH  12  16
ENDBRANCH   9  12
ENDBRANCH   6   9
ENDBRANCH   3   5
ENDBRANCH   2   3
BRANCH   2  23
ATOM     23  N   UNL     1     -14.518   1.075  -9.865  1.00  0.00    -0.332 N 
ATOM     24  C   UNL     1     -13.217   0.955 -10.506  1.00  0.00     0.147 C 
BRANCH  23  25
ATOM     25  C   UNL     1     -15.438   2.061 -10.495  1.00  0.00     0.174 C 
BRANCH  25  26
ATOM     26  C   UNL     1     -16.465   1.404 -11.446  1.00  0.00     0.038 C 
BRANCH  26  27
ATOM     27  C   UNL     1     -17.954   1.744 -11.213  1.00  0.00    -0.015 C 
ATOM     28  C   UNL     1     -18.469   1.224  -9.871  1.00  0.00     0.007 C 
ATOM     29  C   UNL     1     -18.270   3.229 -11.370  1.00  0.00     0.007 C 
ENDBRANCH  26  27
ENDBRANCH  25  26
BRANCH  25  30
ATOM     30  C   UNL     1     -14.628   3.204 -11.149  1.00  0.00     0.243 C 
ATOM     31  O   UNL     1     -14.672   3.423 -12.358  1.00  0.00    -0.273 OA
ATOM     32  N   UNL     1     -13.856   3.948 -10.294  1.00  0.00    -0.342 N 
ATOM     33  H   UNL     1     -13.981   3.797  -9.290  1.00  0.00     0.164 HD
BRANCH  32  34
ATOM     34  C   UNL     1     -13.002   5.052 -10.740  1.00  0.00     0.175 C 
BRANCH  34  35
ATOM     35  C   UNL     1     -13.640   6.414 -10.428  1.00  0.00     0.070 C 
BRANCH  35  36
ATOM     36  C   UNL     1     -14.432   6.970 -11.590  1.00  0.00    -0.045 A 
ATOM     37  C   UNL     1     -13.769   7.612 -12.647  1.00  0.00     0.007 A 
ATOM     38  C   UNL     1     -15.829   6.874 -11.620  1.00  0.00     0.007 A 
ATOM     39  C   UNL     1     -14.492   8.140 -13.717  1.00  0.00     0.046 A 
ATOM     40  C   UNL     1     -16.554   7.403 -12.691  1.00  0.00     0.046 A 
ATOM     41  C   UNL     1     -15.877   8.031 -13.731  1.00  0.00     0.115 A 
BRANCH  41  42
ATOM     42  O   UNL     1     -16.546   8.563 -14.794  1.00  0.00    -0.508 OA
ATOM     43  H   UNL     1     -16.455   7.955 -15.546  1.00  0.00     0.293 HD
ENDBRANCH  41  42
ENDBRANCH  35  36
ENDBRANCH  34  35
BRANCH  34  44
ATOM     44  C   UNL     1     -11.621   4.893 -10.065  1.00  0.00     0.243 C 
ATOM     45  O   UNL     1     -10.587   5.418 -10.467  1.00  0.00    -0.273 OA
ATOM     46  N   UNL     1     -11.621   3.988  -9.024  1.00  0.00    -0.341 N 
ATOM     47  H   UNL     1     -12.479   3.489  -8.803  1.00  0.00     0.164 HD
BRANCH  46  48
ATOM     48  C   UNL     1     -10.416   3.621  -8.276  1.00  0.00     0.196 C 
BRANCH  48  49
ATOM     49  C   UNL     1     -10.404   4.268  -6.881  1.00  0.00     0.072 C 
BRANCH  49  50
ATOM     50  C   UNL     1      -9.912   5.698  -6.908  1.00  0.00    -0.045 A 
ATOM     51  C   UNL     1      -8.579   5.972  -7.246  1.00  0.00     0.007 A 
ATOM     52  C   UNL     1     -10.764   6.760  -6.578  1.00  0.00     0.007 A 
ATOM     53  C   UNL     1      -8.110   7.286  -7.261  1.00  0.00     0.046 A 
ATOM     54  C   UNL     1     -10.294   8.075  -6.591  1.00  0.00     0.046 A 
ATOM     55  C   UNL     1      -8.970   8.327  -6.934  1.00  0.00     0.115 A 
BRANCH  55  56
ATOM     56  O   UNL     1      -8.472   9.596  -6.959  1.00  0.00    -0.508 OA
ATOM     57  H   UNL     1      -8.154   9.817  -6.069  1.00  0.00     0.293 HD
ENDBRANCH  55  56
ENDBRANCH  49  50
ENDBRANCH  48  49
BRANCH  48  58
ATOM     58  C   UNL     1     -10.362   2.093  -8.135  1.00  0.00     0.326 C 
ATOM     59  O   UNL     1      -9.958   1.289  -8.959  1.00  0.00    -0.250 OA
BRANCH  58  60
ATOM     60  O   UNL     1     -10.814   1.644  -6.937  1.00  0.00    -0.480 OA
ATOM     61  H   UNL     1     -11.692   1.265  -7.155  1.00  0.00     0.296 HD
ENDBRANCH  58  60
ENDBRANCH  48  58
ENDBRANCH  46  48
ENDBRANCH  34  44
ENDBRANCH  32  34
ENDBRANCH  25  30
ENDBRANCH  23  25
ENDBRANCH   2  23
TORSDOF 28
ENDMDL
MODEL 13
REMARK VINA RESULT:    -5.737     12.855     17.873
REMARK INTER + INTRA:         -20.465
REMARK INTER:                 -16.821
REMARK INTRA:                  -3.644
REMARK UNBOUND:                -6.175
REMARK SMILES CCCCCCC[C@H](N)[C@H](O)C(=O)N[C@H](C)C(=O)N(C)[C@H](CC(C)C)C(=O)N[C@@H](Cc1ccc(O)cc1)C(=O)N[C@@H](Cc1ccc(O)cc1)C(=O)O
REMARK SMILES IDX 18 1 17 2 15 3 16 4 14 5 12 6 13 7 10 9 11 10 8 12 9 13 7 16
REMARK SMILES IDX 6 17 5 18 4 19 3 20 2 21 1 22 19 23 20 24 21 25 22 26 23 27
REMARK SMILES IDX 24 28 25 29 26 30 27 31 28 32 29 34 30 35 31 36 32 37 37 38
REMARK SMILES IDX 33 39 36 40 34 41 35 42 38 44 39 45 40 46 41 48 42 49 43 50
REMARK SMILES IDX 44 51 49 52 45 53 48 54 46 55 47 56 50 58 51 59 52 60
REMARK H PARENT 14 8 11 11 9 14 9 15 28 33 35 43 40 47 47 57 52 61
ROOT
ATOM      1  O   UNL     1      -0.392   0.708  -1.752  1.00  0.00    -0.272 OA
ATOM      2  C   UNL     1      -0.493   1.944  -1.739  1.00  0.00     0.245 C 
ENDROOT
BRANCH   2   3
ATOM      3  C   UNL     1       0.373   2.768  -2.724  1.00  0.00     0.168 C 
ATOM      4  C   UNL     1      -0.505   3.550  -3.694  1.00  0.00     0.041 C 
BRANCH   3   5
ATOM      5  N   UNL     1       1.374   3.616  -2.095  1.00  0.00    -0.342 N 
ATOM      6  C   UNL     1       2.612   3.825  -2.664  1.00  0.00     0.251 C 
ATOM      7  O   UNL     1       2.978   3.289  -3.705  1.00  0.00    -0.272 OA
ATOM      8  H   UNL     1       1.199   4.087  -1.211  1.00  0.00     0.164 HD
BRANCH   6   9
ATOM      9  C   UNL     1       3.449   4.865  -1.902  1.00  0.00     0.219 C 
BRANCH   9  10
ATOM     10  O   UNL     1       2.766   5.392  -0.758  1.00  0.00    -0.382 OA
ATOM     11  H   UNL     1       3.422   5.295  -0.032  1.00  0.00     0.211 HD
ENDBRANCH   9  10
BRANCH   9  12
ATOM     12  C   UNL     1       4.858   4.346  -1.511  1.00  0.00     0.089 C 
BRANCH  12  13
ATOM     13  N   UNL     1       5.510   5.363  -0.656  1.00  0.00    -0.325 NA
ATOM     14  H   UNL     1       6.469   5.071  -0.459  1.00  0.00     0.119 HD
ATOM     15  H   UNL     1       5.044   5.378   0.254  1.00  0.00     0.119 HD
ENDBRANCH  12  13
BRANCH  12  16
ATOM     16  C   UNL     1       4.903   2.962  -0.820  1.00  0.00     0.022 C 
BRANCH  16  17
ATOM     17  C   UNL     1       4.764   2.884   0.706  1.00  0.00     0.002 C 
BRANCH  17  18
ATOM     18  C   UNL     1       3.350   2.607   1.212  1.00  0.00     0.000 C 
BRANCH  18  19
ATOM     19  C   UNL     1       3.070   3.157   2.617  1.00  0.00    -0.000 C 
BRANCH  19  20
ATOM     20  C   UNL     1       2.599   2.119   3.639  1.00  0.00    -0.000 C 
BRANCH  20  21
ATOM     21  C   UNL     1       2.408   2.703   5.042  1.00  0.00    -0.003 C 
ATOM     22  C   UNL     1       2.592   4.212   5.044  1.00  0.00     0.004 C 
ENDBRANCH  20  21
ENDBRANCH  19  20
ENDBRANCH  18  19
ENDBRANCH  17  18
ENDBRANCH  16  17
ENDBRANCH  12  16
ENDBRANCH   9  12
ENDBRANCH   6   9
ENDBRANCH   3   5
ENDBRANCH   2   3
BRANCH   2  23
ATOM     23  N   UNL     1      -1.454   2.555  -0.941  1.00  0.00    -0.332 N 
ATOM     24  C   UNL     1      -2.890   2.458  -1.157  1.00  0.00     0.147 C 
BRANCH  23  25
ATOM     25  C   UNL     1      -1.055   3.270   0.302  1.00  0.00     0.174 C 
BRANCH  25  26
ATOM     26  C   UNL     1      -0.284   2.367   1.294  1.00  0.00     0.038 C 
BRANCH  26  27
ATOM     27  C   UNL     1      -1.092   1.257   2.003  1.00  0.00    -0.015 C 
ATOM     28  C   UNL     1      -0.756  -0.138   1.475  1.00  0.00     0.007 C 
ATOM     29  C   UNL     1      -0.976   1.298   3.524  1.00  0.00     0.007 C 
ENDBRANCH  26  27
ENDBRANCH  25  26
BRANCH  25  30
ATOM     30  C   UNL     1      -2.279   3.976   0.927  1.00  0.00     0.243 C 
ATOM     31  O   UNL     1      -2.481   5.180   0.779  1.00  0.00    -0.273 OA
ATOM     32  N   UNL     1      -3.117   3.174   1.659  1.00  0.00    -0.342 N 
ATOM     33  H   UNL     1      -2.961   2.164   1.618  1.00  0.00     0.164 HD
BRANCH  32  34
ATOM     34  C   UNL     1      -4.311   3.676   2.345  1.00  0.00     0.175 C 
BRANCH  34  35
ATOM     35  C   UNL     1      -3.967   4.843   3.283  1.00  0.00     0.070 C 
BRANCH  35  36
ATOM     36  C   UNL     1      -3.175   4.406   4.495  1.00  0.00    -0.045 A 
ATOM     37  C   UNL     1      -3.811   3.709   5.534  1.00  0.00     0.007 A 
ATOM     38  C   UNL     1      -1.812   4.707   4.610  1.00  0.00     0.007 A 
ATOM     39  C   UNL     1      -3.092   3.313   6.662  1.00  0.00     0.046 A 
ATOM     40  C   UNL     1      -1.092   4.313   5.740  1.00  0.00     0.046 A 
ATOM     41  C   UNL     1      -1.739   3.617   6.756  1.00  0.00     0.115 A 
BRANCH  41  42
ATOM     42  O   UNL     1      -1.074   3.215   7.877  1.00  0.00    -0.508 OA
ATOM     43  H   UNL     1      -1.730   2.942   8.539  1.00  0.00     0.293 HD
ENDBRANCH  41  42
ENDBRANCH  35  36
ENDBRANCH  34  35
BRANCH  34  44
ATOM     44  C   UNL     1      -5.344   4.084   1.271  1.00  0.00     0.243 C 
ATOM     45  O   UNL     1      -5.893   3.299   0.503  1.00  0.00    -0.273 OA
ATOM     46  N   UNL     1      -5.508   5.448   1.157  1.00  0.00    -0.341 N 
ATOM     47  H   UNL     1      -4.943   6.064   1.737  1.00  0.00     0.164 HD
BRANCH  46  48
ATOM     48  C   UNL     1      -6.383   6.074   0.163  1.00  0.00     0.196 C 
BRANCH  48  49
ATOM     49  C   UNL     1      -7.483   6.913   0.835  1.00  0.00     0.072 C 
BRANCH  49  50
ATOM     50  C   UNL     1      -8.856   6.298   0.687  1.00  0.00    -0.045 A 
ATOM     51  C   UNL     1      -9.944   7.098   0.311  1.00  0.00     0.007 A 
ATOM     52  C   UNL     1      -9.067   4.937   0.942  1.00  0.00     0.007 A 
ATOM     53  C   UNL     1     -11.218   6.544   0.184  1.00  0.00     0.046 A 
ATOM     54  C   UNL     1     -10.342   4.382   0.816  1.00  0.00     0.046 A 
ATOM     55  C   UNL     1     -11.408   5.191   0.437  1.00  0.00     0.115 A 
BRANCH  55  56
ATOM     56  O   UNL     1     -12.668   4.689   0.304  1.00  0.00    -0.508 OA
ATOM     57  H   UNL     1     -12.972   4.860  -0.601  1.00  0.00     0.293 HD
ENDBRANCH  55  56
ENDBRANCH  49  50
ENDBRANCH  48  49
BRANCH  48  58
ATOM     58  C   UNL     1      -5.537   6.972  -0.752  1.00  0.00     0.326 C 
ATOM     59  O   UNL     1      -5.826   8.080  -1.172  1.00  0.00    -0.250 OA
BRANCH  58  60
ATOM     60  O   UNL     1      -4.341   6.427  -1.088  1.00  0.00    -0.480 OA
ATOM     61  H   UNL     1      -4.388   5.524  -0.706  1.00  0.00     0.296 HD
ENDBRANCH  58  60
ENDBRANCH  48  58
ENDBRANCH  46  48
ENDBRANCH  34  44
ENDBRANCH  32  34
ENDBRANCH  25  30
ENDBRANCH  23  25
ENDBRANCH   2  23
TORSDOF 28
ENDMDL
MODEL 14
REMARK VINA RESULT:    -5.707     11.792     15.885
REMARK INTER + INTRA:         -20.389
REMARK INTER:                 -15.161
REMARK INTRA:                  -5.229
REMARK UNBOUND:                -6.175
REMARK SMILES CCCCCCC[C@H](N)[C@H](O)C(=O)N[C@H](C)C(=O)N(C)[C@H](CC(C)C)C(=O)N[C@@H](Cc1ccc(O)cc1)C(=O)N[C@@H](Cc1ccc(O)cc1)C(=O)O
REMARK SMILES IDX 18 1 17 2 15 3 16 4 14 5 12 6 13 7 10 9 11 10 8 12 9 13 7 16
REMARK SMILES IDX 6 17 5 18 4 19 3 20 2 21 1 22 19 23 20 24 21 25 22 26 23 27
REMARK SMILES IDX 24 28 25 29 26 30 27 31 28 32 29 34 30 35 31 36 32 37 37 38
REMARK SMILES IDX 33 39 36 40 34 41 35 42 38 44 39 45 40 46 41 48 42 49 43 50
REMARK SMILES IDX 44 51 49 52 45 53 48 54 46 55 47 56 50 58 51 59 52 60
REMARK H PARENT 14 8 11 11 9 14 9 15 28 33 35 43 40 47 47 57 52 61
ROOT
ATOM      1  O   UNL     1      -8.706 -11.274  -3.375  1.00  0.00    -0.272 OA
ATOM      2  C   UNL     1      -7.849 -10.438  -3.050  1.00  0.00     0.245 C 
ENDROOT
BRANCH   2   3
ATOM      3  C   UNL     1      -7.606  -9.226  -3.983  1.00  0.00     0.168 C 
ATOM      4  C   UNL     1      -8.928  -8.609  -4.426  1.00  0.00     0.041 C 
BRANCH   3   5
ATOM      5  N   UNL     1      -6.691  -8.224  -3.457  1.00  0.00    -0.342 N 
ATOM      6  C   UNL     1      -5.721  -7.640  -4.244  1.00  0.00     0.251 C 
ATOM      7  O   UNL     1      -5.528  -7.943  -5.417  1.00  0.00    -0.272 OA
ATOM      8  H   UNL     1      -6.731  -7.917  -2.488  1.00  0.00     0.164 HD
BRANCH   6   9
ATOM      9  C   UNL     1      -4.968  -6.512  -3.520  1.00  0.00     0.219 C 
BRANCH   9  10
ATOM     10  O   UNL     1      -5.305  -6.426  -2.130  1.00  0.00    -0.382 OA
ATOM     11  H   UNL     1      -6.285  -6.496  -2.126  1.00  0.00     0.211 HD
ENDBRANCH   9  10
BRANCH   9  12
ATOM     12  C   UNL     1      -3.430  -6.587  -3.710  1.00  0.00     0.089 C 
BRANCH  12  13
ATOM     13  N   UNL     1      -3.071  -7.977  -4.071  1.00  0.00    -0.325 NA
ATOM     14  H   UNL     1      -3.327  -8.148  -5.046  1.00  0.00     0.119 HD
ATOM     15  H   UNL     1      -3.649  -8.621  -3.526  1.00  0.00     0.119 HD
ENDBRANCH  12  13
BRANCH  12  16
ATOM     16  C   UNL     1      -2.825  -5.598  -4.735  1.00  0.00     0.022 C 
BRANCH  16  17
ATOM     17  C   UNL     1      -2.964  -5.897  -6.234  1.00  0.00     0.002 C 
BRANCH  17  18
ATOM     18  C   UNL     1      -3.946  -4.999  -6.982  1.00  0.00     0.000 C 
BRANCH  18  19
ATOM     19  C   UNL     1      -4.328  -5.516  -8.376  1.00  0.00    -0.000 C 
BRANCH  19  20
ATOM     20  C   UNL     1      -3.586  -6.777  -8.827  1.00  0.00    -0.000 C 
BRANCH  20  21
ATOM     21  C   UNL     1      -4.066  -7.302 -10.183  1.00  0.00    -0.003 C 
ATOM     22  C   UNL     1      -3.171  -8.422 -10.692  1.00  0.00     0.004 C 
ENDBRANCH  20  21
ENDBRANCH  19  20
ENDBRANCH  18  19
ENDBRANCH  17  18
ENDBRANCH  16  17
ENDBRANCH  12  16
ENDBRANCH   9  12
ENDBRANCH   6   9
ENDBRANCH   3   5
ENDBRANCH   2   3
BRANCH   2  23
ATOM     23  N   UNL     1      -7.216 -10.535  -1.816  1.00  0.00    -0.332 N 
ATOM     24  C   UNL     1      -5.777 -10.646  -1.631  1.00  0.00     0.147 C 
BRANCH  23  25
ATOM     25  C   UNL     1      -8.000 -10.398  -0.557  1.00  0.00     0.174 C 
BRANCH  25  26
ATOM     26  C   UNL     1      -8.505 -11.754  -0.012  1.00  0.00     0.038 C 
BRANCH  26  27
ATOM     27  C   UNL     1      -8.165 -12.088   1.458  1.00  0.00    -0.015 C 
ATOM     28  C   UNL     1      -6.661 -12.070   1.728  1.00  0.00     0.007 C 
ATOM     29  C   UNL     1      -8.902 -11.210   2.466  1.00  0.00     0.007 C 
ENDBRANCH  26  27
ENDBRANCH  25  26
BRANCH  25  30
ATOM     30  C   UNL     1      -9.118  -9.346  -0.739  1.00  0.00     0.243 C 
ATOM     31  O   UNL     1     -10.265  -9.663  -1.049  1.00  0.00    -0.273 OA
ATOM     32  N   UNL     1      -8.744  -8.042  -0.538  1.00  0.00    -0.342 N 
ATOM     33  H   UNL     1      -7.815  -7.871  -0.146  1.00  0.00     0.164 HD
BRANCH  32  34
ATOM     34  C   UNL     1      -9.663  -6.911  -0.693  1.00  0.00     0.175 C 
BRANCH  34  35
ATOM     35  C   UNL     1      -9.772  -6.097   0.605  1.00  0.00     0.070 C 
BRANCH  35  36
ATOM     36  C   UNL     1     -11.165  -5.560   0.845  1.00  0.00    -0.045 A 
ATOM     37  C   UNL     1     -11.444  -4.205   0.613  1.00  0.00     0.007 A 
ATOM     38  C   UNL     1     -12.185  -6.395   1.319  1.00  0.00     0.007 A 
ATOM     39  C   UNL     1     -12.723  -3.697   0.845  1.00  0.00     0.046 A 
ATOM     40  C   UNL     1     -13.466  -5.888   1.552  1.00  0.00     0.046 A 
ATOM     41  C   UNL     1     -13.723  -4.542   1.311  1.00  0.00     0.115 A 
BRANCH  41  42
ATOM     42  O   UNL     1     -14.958  -4.006   1.527  1.00  0.00    -0.508 OA
ATOM     43  H   UNL     1     -15.229  -4.220   2.435  1.00  0.00     0.293 HD
ENDBRANCH  41  42
ENDBRANCH  35  36
ENDBRANCH  34  35
BRANCH  34  44
ATOM     44  C   UNL     1      -9.167  -6.049  -1.876  1.00  0.00     0.243 C 
ATOM     45  O   UNL     1      -7.987  -5.906  -2.182  1.00  0.00    -0.273 OA
ATOM     46  N   UNL     1     -10.171  -5.334  -2.493  1.00  0.00    -0.341 N 
ATOM     47  H   UNL     1     -11.118  -5.395  -2.127  1.00  0.00     0.164 HD
BRANCH  46  48
ATOM     48  C   UNL     1      -9.934  -4.397  -3.593  1.00  0.00     0.196 C 
BRANCH  48  49
ATOM     49  C   UNL     1     -10.739  -4.786  -4.844  1.00  0.00     0.072 C 
BRANCH  49  50
ATOM     50  C   UNL     1      -9.888  -5.456  -5.899  1.00  0.00    -0.045 A 
ATOM     51  C   UNL     1      -8.505  -5.222  -5.934  1.00  0.00     0.007 A 
ATOM     52  C   UNL     1     -10.461  -6.295  -6.863  1.00  0.00     0.007 A 
ATOM     53  C   UNL     1      -7.712  -5.823  -6.911  1.00  0.00     0.046 A 
ATOM     54  C   UNL     1      -9.667  -6.897  -7.842  1.00  0.00     0.046 A 
ATOM     55  C   UNL     1      -8.297  -6.656  -7.856  1.00  0.00     0.115 A 
BRANCH  55  56
ATOM     56  O   UNL     1      -7.487  -7.223  -8.795  1.00  0.00    -0.508 OA
ATOM     57  H   UNL     1      -7.345  -6.578  -9.506  1.00  0.00     0.293 HD
ENDBRANCH  55  56
ENDBRANCH  49  50
ENDBRANCH  48  49
BRANCH  48  58
ATOM     58  C   UNL     1     -10.334  -2.985  -3.143  1.00  0.00     0.326 C 
ATOM     59  O   UNL     1      -9.939  -2.385  -2.156  1.00  0.00    -0.250 OA
BRANCH  58  60
ATOM     60  O   UNL     1     -11.216  -2.380  -3.977  1.00  0.00    -0.480 OA
ATOM     61  H   UNL     1     -11.630  -3.133  -4.453  1.00  0.00     0.296 HD
ENDBRANCH  58  60
ENDBRANCH  48  58
ENDBRANCH  46  48
ENDBRANCH  34  44
ENDBRANCH  32  34
ENDBRANCH  25  30
ENDBRANCH  23  25
ENDBRANCH   2  23
TORSDOF 28
ENDMDL
MODEL 15
REMARK VINA RESULT:    -5.705     13.678     18.695
REMARK INTER + INTRA:         -20.385
REMARK INTER:                 -16.463
REMARK INTRA:                  -3.922
REMARK UNBOUND:                -6.175
REMARK SMILES CCCCCCC[C@H](N)[C@H](O)C(=O)N[C@H](C)C(=O)N(C)[C@H](CC(C)C)C(=O)N[C@@H](Cc1ccc(O)cc1)C(=O)N[C@@H](Cc1ccc(O)cc1)C(=O)O
REMARK SMILES IDX 18 1 17 2 15 3 16 4 14 5 12 6 13 7 10 9 11 10 8 12 9 13 7 16
REMARK SMILES IDX 6 17 5 18 4 19 3 20 2 21 1 22 19 23 20 24 21 25 22 26 23 27
REMARK SMILES IDX 24 28 25 29 26 30 27 31 28 32 29 34 30 35 31 36 32 37 37 38
REMARK SMILES IDX 33 39 36 40 34 41 35 42 38 44 39 45 40 46 41 48 42 49 43 50
REMARK SMILES IDX 44 51 49 52 45 53 48 54 46 55 47 56 50 58 51 59 52 60
REMARK H PARENT 14 8 11 11 9 14 9 15 28 33 35 43 40 47 47 57 52 61
ROOT
ATOM      1  O   UNL     1      -8.437   1.749   5.434  1.00  0.00    -0.272 OA
ATOM      2  C   UNL     1      -7.777   2.565   4.774  1.00  0.00     0.245 C 
ENDROOT
BRANCH   2   3
ATOM      3  C   UNL     1      -8.507   3.784   4.157  1.00  0.00     0.168 C 
ATOM      4  C   UNL     1      -7.720   5.067   4.399  1.00  0.00     0.041 C 
BRANCH   3   5
ATOM      5  N   UNL     1      -8.878   3.630   2.759  1.00  0.00    -0.342 N 
ATOM      6  C   UNL     1     -10.192   3.683   2.344  1.00  0.00     0.251 C 
ATOM      7  O   UNL     1     -11.139   3.819   3.112  1.00  0.00    -0.272 OA
ATOM      8  H   UNL     1      -8.181   3.477   2.034  1.00  0.00     0.164 HD
BRANCH   6   9
ATOM      9  C   UNL     1     -10.334   3.641   0.814  1.00  0.00     0.219 C 
BRANCH   9  10
ATOM     10  O   UNL     1     -10.875   2.400   0.344  1.00  0.00    -0.382 OA
ATOM     11  H   UNL     1     -10.179   1.745   0.569  1.00  0.00     0.211 HD
ENDBRANCH   9  10
BRANCH   9  12
ATOM     12  C   UNL     1     -11.132   4.842   0.243  1.00  0.00     0.089 C 
BRANCH  12  13
ATOM     13  N   UNL     1     -12.576   4.585   0.453  1.00  0.00    -0.325 NA
ATOM     14  H   UNL     1     -12.720   4.236   1.402  1.00  0.00     0.119 HD
ATOM     15  H   UNL     1     -12.869   3.821  -0.160  1.00  0.00     0.119 HD
ENDBRANCH  12  13
BRANCH  12  16
ATOM     16  C   UNL     1     -10.753   6.235   0.801  1.00  0.00     0.022 C 
BRANCH  16  17
ATOM     17  C   UNL     1      -9.439   6.887   0.350  1.00  0.00     0.002 C 
BRANCH  17  18
ATOM     18  C   UNL     1      -8.373   7.006   1.437  1.00  0.00     0.000 C 
BRANCH  18  19
ATOM     19  C   UNL     1      -6.984   7.390   0.910  1.00  0.00    -0.000 C 
BRANCH  19  20
ATOM     20  C   UNL     1      -6.488   6.561  -0.279  1.00  0.00    -0.000 C 
BRANCH  20  21
ATOM     21  C   UNL     1      -5.849   5.235   0.140  1.00  0.00    -0.003 C 
ATOM     22  C   UNL     1      -5.035   5.390   1.415  1.00  0.00     0.004 C 
ENDBRANCH  20  21
ENDBRANCH  19  20
ENDBRANCH  18  19
ENDBRANCH  17  18
ENDBRANCH  16  17
ENDBRANCH  12  16
ENDBRANCH   9  12
ENDBRANCH   6   9
ENDBRANCH   3   5
ENDBRANCH   2   3
BRANCH   2  23
ATOM     23  N   UNL     1      -6.393   2.444   4.702  1.00  0.00    -0.332 N 
ATOM     24  C   UNL     1      -5.655   2.112   3.492  1.00  0.00     0.147 C 
BRANCH  23  25
ATOM     25  C   UNL     1      -5.547   2.784   5.879  1.00  0.00     0.174 C 
BRANCH  25  26
ATOM     26  C   UNL     1      -6.356   3.396   7.046  1.00  0.00     0.038 C 
BRANCH  26  27
ATOM     27  C   UNL     1      -6.398   2.594   8.365  1.00  0.00    -0.015 C 
ATOM     28  C   UNL     1      -7.663   2.871   9.178  1.00  0.00     0.007 C 
ATOM     29  C   UNL     1      -6.204   1.092   8.170  1.00  0.00     0.007 C 
ENDBRANCH  26  27
ENDBRANCH  25  26
BRANCH  25  30
ATOM     30  C   UNL     1      -4.343   3.648   5.437  1.00  0.00     0.243 C 
ATOM     31  O   UNL     1      -4.492   4.757   4.926  1.00  0.00    -0.273 OA
ATOM     32  N   UNL     1      -3.107   3.094   5.646  1.00  0.00    -0.342 N 
ATOM     33  H   UNL     1      -3.060   2.236   6.202  1.00  0.00     0.164 HD
BRANCH  32  34
ATOM     34  C   UNL     1      -1.856   3.756   5.265  1.00  0.00     0.175 C 
BRANCH  34  35
ATOM     35  C   UNL     1      -0.747   3.490   6.294  1.00  0.00     0.070 C 
BRANCH  35  36
ATOM     36  C   UNL     1       0.461   4.378   6.095  1.00  0.00    -0.045 A 
ATOM     37  C   UNL     1       1.583   3.893   5.407  1.00  0.00     0.007 A 
ATOM     38  C   UNL     1       0.488   5.681   6.610  1.00  0.00     0.007 A 
ATOM     39  C   UNL     1       2.707   4.701   5.230  1.00  0.00     0.046 A 
ATOM     40  C   UNL     1       1.613   6.489   6.435  1.00  0.00     0.046 A 
ATOM     41  C   UNL     1       2.713   5.992   5.745  1.00  0.00     0.115 A 
BRANCH  41  42
ATOM     42  O   UNL     1       3.832   6.747   5.553  1.00  0.00    -0.508 OA
ATOM     43  H   UNL     1       3.779   7.152   4.672  1.00  0.00     0.293 HD
ENDBRANCH  41  42
ENDBRANCH  35  36
ENDBRANCH  34  35
BRANCH  34  44
ATOM     44  C   UNL     1      -1.465   3.265   3.853  1.00  0.00     0.243 C 
ATOM     45  O   UNL     1      -1.630   3.912   2.823  1.00  0.00    -0.273 OA
ATOM     46  N   UNL     1      -1.024   1.959   3.830  1.00  0.00    -0.341 N 
ATOM     47  H   UNL     1      -1.015   1.424   4.695  1.00  0.00     0.164 HD
BRANCH  46  48
ATOM     48  C   UNL     1      -0.661   1.253   2.599  1.00  0.00     0.196 C 
BRANCH  48  49
ATOM     49  C   UNL     1       0.834   0.891   2.581  1.00  0.00     0.072 C 
BRANCH  49  50
ATOM     50  C   UNL     1       1.672   1.915   1.849  1.00  0.00    -0.045 A 
ATOM     51  C   UNL     1       1.124   2.624   0.770  1.00  0.00     0.007 A 
ATOM     52  C   UNL     1       3.001   2.156   2.219  1.00  0.00     0.007 A 
ATOM     53  C   UNL     1       1.891   3.562   0.078  1.00  0.00     0.046 A 
ATOM     54  C   UNL     1       3.770   3.095   1.526  1.00  0.00     0.046 A 
ATOM     55  C   UNL     1       3.207   3.790   0.461  1.00  0.00     0.115 A 
BRANCH  55  56
ATOM     56  O   UNL     1       3.924   4.714  -0.241  1.00  0.00    -0.508 OA
ATOM     57  H   UNL     1       4.023   5.507   0.309  1.00  0.00     0.293 HD
ENDBRANCH  55  56
ENDBRANCH  49  50
ENDBRANCH  48  49
BRANCH  48  58
ATOM     58  C   UNL     1      -1.501  -0.027   2.491  1.00  0.00     0.326 C 
ATOM     59  O   UNL     1      -2.539  -0.282   3.081  1.00  0.00    -0.250 OA
BRANCH  58  60
ATOM     60  O   UNL     1      -0.995  -0.935   1.619  1.00  0.00    -0.480 OA
ATOM     61  H   UNL     1      -0.221  -0.470   1.232  1.00  0.00     0.296 HD
ENDBRANCH  58  60
ENDBRANCH  48  58
ENDBRANCH  46  48
ENDBRANCH  34  44
ENDBRANCH  32  34
ENDBRANCH  25  30
ENDBRANCH  23  25
ENDBRANCH   2  23
TORSDOF 28
ENDMDL
MODEL 16
REMARK VINA RESULT:    -5.678     12.627     16.962
REMARK INTER + INTRA:         -20.318
REMARK INTER:                 -16.960
REMARK INTRA:                  -3.358
REMARK UNBOUND:                -6.175
REMARK SMILES CCCCCCC[C@H](N)[C@H](O)C(=O)N[C@H](C)C(=O)N(C)[C@H](CC(C)C)C(=O)N[C@@H](Cc1ccc(O)cc1)C(=O)N[C@@H](Cc1ccc(O)cc1)C(=O)O
REMARK SMILES IDX 18 1 17 2 15 3 16 4 14 5 12 6 13 7 10 9 11 10 8 12 9 13 7 16
REMARK SMILES IDX 6 17 5 18 4 19 3 20 2 21 1 22 19 23 20 24 21 25 22 26 23 27
REMARK SMILES IDX 24 28 25 29 26 30 27 31 28 32 29 34 30 35 31 36 32 37 37 38
REMARK SMILES IDX 33 39 36 40 34 41 35 42 38 44 39 45 40 46 41 48 42 49 43 50
REMARK SMILES IDX 44 51 49 52 45 53 48 54 46 55 47 56 50 58 51 59 52 60
REMARK H PARENT 14 8 11 11 9 14 9 15 28 33 35 43 40 47 47 57 52 61
ROOT
ATOM      1  O   UNL     1      -2.159   1.587   4.654  1.00  0.00    -0.272 OA
ATOM      2  C   UNL     1      -2.660   2.721   4.696  1.00  0.00     0.245 C 
ENDROOT
BRANCH   2   3
ATOM      3  C   UNL     1      -1.804   3.888   5.248  1.00  0.00     0.168 C 
ATOM      4  C   UNL     1      -1.824   3.901   6.773  1.00  0.00     0.041 C 
BRANCH   3   5
ATOM      5  N   UNL     1      -0.449   3.954   4.723  1.00  0.00    -0.342 N 
ATOM      6  C   UNL     1       0.589   3.252   5.297  1.00  0.00     0.251 C 
ATOM      7  O   UNL     1       0.464   2.561   6.303  1.00  0.00    -0.272 OA
ATOM      8  H   UNL     1      -0.216   4.522   3.912  1.00  0.00     0.164 HD
BRANCH   6   9
ATOM      9  C   UNL     1       1.895   3.358   4.493  1.00  0.00     0.219 C 
BRANCH   9  10
ATOM     10  O   UNL     1       3.050   3.490   5.330  1.00  0.00    -0.382 OA
ATOM     11  H   UNL     1       3.265   4.447   5.278  1.00  0.00     0.211 HD
ENDBRANCH   9  10
BRANCH   9  12
ATOM     12  C   UNL     1       2.081   2.201   3.477  1.00  0.00     0.089 C 
BRANCH  12  13
ATOM     13  N   UNL     1       0.904   1.306   3.568  1.00  0.00    -0.325 NA
ATOM     14  H   UNL     1       0.059   1.841   3.359  1.00  0.00     0.119 HD
ATOM     15  H   UNL     1       0.795   1.001   4.537  1.00  0.00     0.119 HD
ENDBRANCH  12  13
BRANCH  12  16
ATOM     16  C   UNL     1       2.317   2.622   2.006  1.00  0.00     0.022 C 
BRANCH  16  17
ATOM     17  C   UNL     1       3.755   2.731   1.482  1.00  0.00     0.002 C 
BRANCH  17  18
ATOM     18  C   UNL     1       3.876   3.026  -0.011  1.00  0.00     0.000 C 
BRANCH  18  19
ATOM     19  C   UNL     1       4.581   4.351  -0.331  1.00  0.00    -0.000 C 
BRANCH  19  20
ATOM     20  C   UNL     1       5.458   4.334  -1.586  1.00  0.00    -0.000 C 
BRANCH  20  21
ATOM     21  C   UNL     1       6.703   3.456  -1.437  1.00  0.00    -0.003 C 
ATOM     22  C   UNL     1       7.521   3.856  -0.219  1.00  0.00     0.004 C 
ENDBRANCH  20  21
ENDBRANCH  19  20
ENDBRANCH  18  19
ENDBRANCH  17  18
ENDBRANCH  16  17
ENDBRANCH  12  16
ENDBRANCH   9  12
ENDBRANCH   6   9
ENDBRANCH   3   5
ENDBRANCH   2   3
BRANCH   2  23
ATOM     23  N   UNL     1      -3.916   2.947   4.144  1.00  0.00    -0.332 N 
ATOM     24  C   UNL     1      -5.145   3.076   4.913  1.00  0.00     0.147 C 
BRANCH  23  25
ATOM     25  C   UNL     1      -4.060   3.207   2.686  1.00  0.00     0.174 C 
BRANCH  25  26
ATOM     26  C   UNL     1      -2.750   2.965   1.899  1.00  0.00     0.038 C 
BRANCH  26  27
ATOM     27  C   UNL     1      -2.740   1.785   0.902  1.00  0.00    -0.015 C 
ATOM     28  C   UNL     1      -1.350   1.172   0.735  1.00  0.00     0.007 C 
ATOM     29  C   UNL     1      -3.768   0.705   1.229  1.00  0.00     0.007 C 
ENDBRANCH  26  27
ENDBRANCH  25  26
BRANCH  25  30
ATOM     30  C   UNL     1      -4.675   4.606   2.452  1.00  0.00     0.243 C 
ATOM     31  O   UNL     1      -4.192   5.620   2.954  1.00  0.00    -0.273 OA
ATOM     32  N   UNL     1      -5.792   4.638   1.658  1.00  0.00    -0.342 N 
ATOM     33  H   UNL     1      -6.047   3.779   1.165  1.00  0.00     0.164 HD
BRANCH  32  34
ATOM     34  C   UNL     1      -6.522   5.871   1.351  1.00  0.00     0.175 C 
BRANCH  34  35
ATOM     35  C   UNL     1      -6.583   6.122  -0.164  1.00  0.00     0.070 C 
BRANCH  35  36
ATOM     36  C   UNL     1      -6.500   7.590  -0.517  1.00  0.00    -0.045 A 
ATOM     37  C   UNL     1      -5.507   8.045  -1.398  1.00  0.00     0.007 A 
ATOM     38  C   UNL     1      -7.390   8.516   0.044  1.00  0.00     0.007 A 
ATOM     39  C   UNL     1      -5.414   9.400  -1.719  1.00  0.00     0.046 A 
ATOM     40  C   UNL     1      -7.296   9.873  -0.276  1.00  0.00     0.046 A 
ATOM     41  C   UNL     1      -6.309  10.302  -1.157  1.00  0.00     0.115 A 
BRANCH  41  42
ATOM     42  O   UNL     1      -6.182  11.617  -1.494  1.00  0.00    -0.508 OA
ATOM     43  H   UNL     1      -5.289  11.755  -1.851  1.00  0.00     0.293 HD
ENDBRANCH  41  42
ENDBRANCH  35  36
ENDBRANCH  34  35
BRANCH  34  44
ATOM     44  C   UNL     1      -7.932   5.760   1.975  1.00  0.00     0.243 C 
ATOM     45  O   UNL     1      -8.182   5.946   3.162  1.00  0.00    -0.273 OA
ATOM     46  N   UNL     1      -8.887   5.298   1.094  1.00  0.00    -0.341 N 
ATOM     47  H   UNL     1      -8.607   5.046   0.149  1.00  0.00     0.164 HD
BRANCH  46  48
ATOM     48  C   UNL     1     -10.279   5.047   1.473  1.00  0.00     0.196 C 
BRANCH  48  49
ATOM     49  C   UNL     1     -11.256   5.690   0.474  1.00  0.00     0.072 C 
BRANCH  49  50
ATOM     50  C   UNL     1     -11.157   7.198   0.451  1.00  0.00    -0.045 A 
ATOM     51  C   UNL     1     -11.091   7.913   1.656  1.00  0.00     0.007 A 
ATOM     52  C   UNL     1     -11.150   7.901  -0.760  1.00  0.00     0.007 A 
ATOM     53  C   UNL     1     -11.013   9.305   1.647  1.00  0.00     0.046 A 
ATOM     54  C   UNL     1     -11.073   9.296  -0.769  1.00  0.00     0.046 A 
ATOM     55  C   UNL     1     -11.004   9.986   0.436  1.00  0.00     0.115 A 
BRANCH  55  56
ATOM     56  O   UNL     1     -10.928  11.347   0.471  1.00  0.00    -0.508 OA
ATOM     57  H   UNL     1     -10.490  11.650  -0.340  1.00  0.00     0.293 HD
ENDBRANCH  55  56
ENDBRANCH  49  50
ENDBRANCH  48  49
BRANCH  48  58
ATOM     58  C   UNL     1     -10.517   3.532   1.525  1.00  0.00     0.326 C 
ATOM     59  O   UNL     1     -10.774   2.857   2.508  1.00  0.00    -0.250 OA
BRANCH  58  60
ATOM     60  O   UNL     1     -10.434   2.929   0.312  1.00  0.00    -0.480 OA
ATOM     61  H   UNL     1     -11.366   2.693   0.112  1.00  0.00     0.296 HD
ENDBRANCH  58  60
ENDBRANCH  48  58
ENDBRANCH  46  48
ENDBRANCH  34  44
ENDBRANCH  32  34
ENDBRANCH  25  30
ENDBRANCH  23  25
ENDBRANCH   2  23
TORSDOF 28
ENDMDL
MODEL 17
REMARK VINA RESULT:    -5.666     13.857     18.933
REMARK INTER + INTRA:         -20.287
REMARK INTER:                 -15.790
REMARK INTRA:                  -4.497
REMARK UNBOUND:                -6.175
REMARK SMILES CCCCCCC[C@H](N)[C@H](O)C(=O)N[C@H](C)C(=O)N(C)[C@H](CC(C)C)C(=O)N[C@@H](Cc1ccc(O)cc1)C(=O)N[C@@H](Cc1ccc(O)cc1)C(=O)O
REMARK SMILES IDX 18 1 17 2 15 3 16 4 14 5 12 6 13 7 10 9 11 10 8 12 9 13 7 16
REMARK SMILES IDX 6 17 5 18 4 19 3 20 2 21 1 22 19 23 20 24 21 25 22 26 23 27
REMARK SMILES IDX 24 28 25 29 26 30 27 31 28 32 29 34 30 35 31 36 32 37 37 38
REMARK SMILES IDX 33 39 36 40 34 41 35 42 38 44 39 45 40 46 41 48 42 49 43 50
REMARK SMILES IDX 44 51 49 52 45 53 48 54 46 55 47 56 50 58 51 59 52 60
REMARK H PARENT 14 8 11 11 9 14 9 15 28 33 35 43 40 47 47 57 52 61
ROOT
ATOM      1  O   UNL     1      -8.439   1.371   4.887  1.00  0.00    -0.272 OA
ATOM      2  C   UNL     1      -7.633   2.107   4.298  1.00  0.00     0.245 C 
ENDROOT
BRANCH   2   3
ATOM      3  C   UNL     1      -8.179   3.324   3.511  1.00  0.00     0.168 C 
ATOM      4  C   UNL     1      -9.389   3.927   4.216  1.00  0.00     0.041 C 
BRANCH   3   5
ATOM      5  N   UNL     1      -7.186   4.334   3.180  1.00  0.00    -0.342 N 
ATOM      6  C   UNL     1      -6.602   4.400   1.932  1.00  0.00     0.251 C 
ATOM      7  O   UNL     1      -6.839   3.602   1.032  1.00  0.00    -0.272 OA
ATOM      8  H   UNL     1      -6.883   5.030   3.857  1.00  0.00     0.164 HD
BRANCH   6   9
ATOM      9  C   UNL     1      -5.693   5.628   1.766  1.00  0.00     0.219 C 
BRANCH   9  10
ATOM     10  O   UNL     1      -4.300   5.297   1.826  1.00  0.00    -0.382 OA
ATOM     11  H   UNL     1      -3.863   6.053   1.376  1.00  0.00     0.211 HD
ENDBRANCH   9  10
BRANCH   9  12
ATOM     12  C   UNL     1      -6.009   6.451   0.490  1.00  0.00     0.089 C 
BRANCH  12  13
ATOM     13  N   UNL     1      -5.472   5.721  -0.682  1.00  0.00    -0.325 NA
ATOM     14  H   UNL     1      -5.710   4.731  -0.598  1.00  0.00     0.119 HD
ATOM     15  H   UNL     1      -4.450   5.753  -0.652  1.00  0.00     0.119 HD
ENDBRANCH  12  13
BRANCH  12  16
ATOM     16  C   UNL     1      -7.498   6.802   0.260  1.00  0.00     0.022 C 
BRANCH  16  17
ATOM     17  C   UNL     1      -7.861   8.172  -0.329  1.00  0.00     0.002 C 
BRANCH  17  18
ATOM     18  C   UNL     1      -7.459   9.370   0.529  1.00  0.00     0.000 C 
BRANCH  18  19
ATOM     19  C   UNL     1      -8.023   9.332   1.956  1.00  0.00    -0.000 C 
BRANCH  19  20
ATOM     20  C   UNL     1      -9.326  10.110   2.161  1.00  0.00    -0.000 C 
BRANCH  20  21
ATOM     21  C   UNL     1      -9.575  11.159   1.074  1.00  0.00    -0.003 C 
ATOM     22  C   UNL     1      -9.871  12.523   1.677  1.00  0.00     0.004 C 
ENDBRANCH  20  21
ENDBRANCH  19  20
ENDBRANCH  18  19
ENDBRANCH  17  18
ENDBRANCH  16  17
ENDBRANCH  12  16
ENDBRANCH   9  12
ENDBRANCH   6   9
ENDBRANCH   3   5
ENDBRANCH   2   3
BRANCH   2  23
ATOM     23  N   UNL     1      -6.266   1.904   4.451  1.00  0.00    -0.332 N 
ATOM     24  C   UNL     1      -5.403   1.298   3.448  1.00  0.00     0.147 C 
BRANCH  23  25
ATOM     25  C   UNL     1      -5.558   2.433   5.649  1.00  0.00     0.174 C 
BRANCH  25  26
ATOM     26  C   UNL     1      -6.512   3.102   6.667  1.00  0.00     0.038 C 
BRANCH  26  27
ATOM     27  C   UNL     1      -6.063   3.113   8.145  1.00  0.00    -0.015 C 
ATOM     28  C   UNL     1      -7.100   3.756   9.065  1.00  0.00     0.007 C 
ATOM     29  C   UNL     1      -5.661   1.737   8.668  1.00  0.00     0.007 C 
ENDBRANCH  26  27
ENDBRANCH  25  26
BRANCH  25  30
ATOM     30  C   UNL     1      -4.380   3.336   5.216  1.00  0.00     0.243 C 
ATOM     31  O   UNL     1      -4.560   4.406   4.638  1.00  0.00    -0.273 OA
ATOM     32  N   UNL     1      -3.128   2.861   5.514  1.00  0.00    -0.342 N 
ATOM     33  H   UNL     1      -3.065   2.038   6.118  1.00  0.00     0.164 HD
BRANCH  32  34
ATOM     34  C   UNL     1      -1.896   3.569   5.155  1.00  0.00     0.175 C 
BRANCH  34  35
ATOM     35  C   UNL     1      -0.795   3.341   6.202  1.00  0.00     0.070 C 
BRANCH  35  36
ATOM     36  C   UNL     1       0.395   4.253   6.008  1.00  0.00    -0.045 A 
ATOM     37  C   UNL     1       1.556   3.768   5.386  1.00  0.00     0.007 A 
ATOM     38  C   UNL     1       0.367   5.578   6.461  1.00  0.00     0.007 A 
ATOM     39  C   UNL     1       2.664   4.597   5.214  1.00  0.00     0.046 A 
ATOM     40  C   UNL     1       1.477   6.409   6.291  1.00  0.00     0.046 A 
ATOM     41  C   UNL     1       2.616   5.910   5.667  1.00  0.00     0.115 A 
BRANCH  41  42
ATOM     42  O   UNL     1       3.722   6.687   5.483  1.00  0.00    -0.508 OA
ATOM     43  H   UNL     1       3.693   7.050   4.582  1.00  0.00     0.293 HD
ENDBRANCH  41  42
ENDBRANCH  35  36
ENDBRANCH  34  35
BRANCH  34  44
ATOM     44  C   UNL     1      -1.463   3.095   3.750  1.00  0.00     0.243 C 
ATOM     45  O   UNL     1      -1.671   3.718   2.712  1.00  0.00    -0.273 OA
ATOM     46  N   UNL     1      -0.927   1.825   3.740  1.00  0.00    -0.341 N 
ATOM     47  H   UNL     1      -0.882   1.301   4.611  1.00  0.00     0.164 HD
BRANCH  46  48
ATOM     48  C   UNL     1      -0.507   1.136   2.518  1.00  0.00     0.196 C 
BRANCH  48  49
ATOM     49  C   UNL     1       1.006   0.859   2.522  1.00  0.00     0.072 C 
BRANCH  49  50
ATOM     50  C   UNL     1       1.792   1.910   1.770  1.00  0.00    -0.045 A 
ATOM     51  C   UNL     1       1.222   2.546   0.658  1.00  0.00     0.007 A 
ATOM     52  C   UNL     1       3.096   2.247   2.155  1.00  0.00     0.007 A 
ATOM     53  C   UNL     1       1.942   3.508  -0.051  1.00  0.00     0.046 A 
ATOM     54  C   UNL     1       3.817   3.209   1.444  1.00  0.00     0.046 A 
ATOM     55  C   UNL     1       3.233   3.832   0.347  1.00  0.00     0.115 A 
BRANCH  55  56
ATOM     56  O   UNL     1       3.904   4.775  -0.374  1.00  0.00    -0.508 OA
ATOM     57  H   UNL     1       3.296   5.509  -0.558  1.00  0.00     0.293 HD
ENDBRANCH  55  56
ENDBRANCH  49  50
ENDBRANCH  48  49
BRANCH  48  58
ATOM     58  C   UNL     1      -1.273  -0.190   2.403  1.00  0.00     0.326 C 
ATOM     59  O   UNL     1      -2.235  -0.546   3.063  1.00  0.00    -0.250 OA
BRANCH  58  60
ATOM     60  O   UNL     1      -0.790  -1.011   1.437  1.00  0.00    -0.480 OA
ATOM     61  H   UNL     1      -1.516  -1.032   0.776  1.00  0.00     0.296 HD
ENDBRANCH  58  60
ENDBRANCH  48  58
ENDBRANCH  46  48
ENDBRANCH  34  44
ENDBRANCH  32  34
ENDBRANCH  25  30
ENDBRANCH  23  25
ENDBRANCH   2  23
TORSDOF 28
ENDMDL
MODEL 18
REMARK VINA RESULT:    -5.653      2.096      7.607
REMARK INTER + INTRA:         -20.256
REMARK INTER:                 -15.430
REMARK INTRA:                  -4.827
REMARK UNBOUND:                -6.175
REMARK SMILES CCCCCCC[C@H](N)[C@H](O)C(=O)N[C@H](C)C(=O)N(C)[C@H](CC(C)C)C(=O)N[C@@H](Cc1ccc(O)cc1)C(=O)N[C@@H](Cc1ccc(O)cc1)C(=O)O
REMARK SMILES IDX 18 1 17 2 15 3 16 4 14 5 12 6 13 7 10 9 11 10 8 12 9 13 7 16
REMARK SMILES IDX 6 17 5 18 4 19 3 20 2 21 1 22 19 23 20 24 21 25 22 26 23 27
REMARK SMILES IDX 24 28 25 29 26 30 27 31 28 32 29 34 30 35 31 36 32 37 37 38
REMARK SMILES IDX 33 39 36 40 34 41 35 42 38 44 39 45 40 46 41 48 42 49 43 50
REMARK SMILES IDX 44 51 49 52 45 53 48 54 46 55 47 56 50 58 51 59 52 60
REMARK H PARENT 14 8 11 11 9 14 9 15 28 33 35 43 40 47 47 57 52 61
ROOT
ATOM      1  O   UNL     1      -8.671   4.429  -9.526  1.00  0.00    -0.272 OA
ATOM      2  C   UNL     1      -9.454   4.233  -8.585  1.00  0.00     0.245 C 
ENDROOT
BRANCH   2   3
ATOM      3  C   UNL     1      -9.473   2.836  -7.916  1.00  0.00     0.168 C 
ATOM      4  C   UNL     1      -8.337   2.704  -6.907  1.00  0.00     0.041 C 
BRANCH   3   5
ATOM      5  N   UNL     1     -10.753   2.449  -7.345  1.00  0.00    -0.342 N 
ATOM      6  C   UNL     1     -11.789   1.984  -8.127  1.00  0.00     0.251 C 
ATOM      7  O   UNL     1     -11.728   1.901  -9.350  1.00  0.00    -0.272 OA
ATOM      8  H   UNL     1     -10.934   2.508  -6.345  1.00  0.00     0.164 HD
BRANCH   6   9
ATOM      9  C   UNL     1     -12.990   1.502  -7.299  1.00  0.00     0.219 C 
BRANCH   9  10
ATOM     10  O   UNL     1     -13.480   2.506  -6.401  1.00  0.00    -0.382 OA
ATOM     11  H   UNL     1     -13.332   2.113  -5.512  1.00  0.00     0.211 HD
ENDBRANCH   9  10
BRANCH   9  12
ATOM     12  C   UNL     1     -14.141   0.933  -8.169  1.00  0.00     0.089 C 
BRANCH  12  13
ATOM     13  N   UNL     1     -13.592  -0.145  -9.022  1.00  0.00    -0.325 NA
ATOM     14  H   UNL     1     -14.263  -0.915  -9.065  1.00  0.00     0.119 HD
ATOM     15  H   UNL     1     -12.764  -0.538  -8.568  1.00  0.00     0.119 HD
ENDBRANCH  12  13
BRANCH  12  16
ATOM     16  C   UNL     1     -15.383   0.421  -7.400  1.00  0.00     0.022 C 
BRANCH  16  17
ATOM     17  C   UNL     1     -16.782   0.814  -7.894  1.00  0.00     0.002 C 
BRANCH  17  18
ATOM     18  C   UNL     1     -17.910   0.572  -6.894  1.00  0.00     0.000 C 
BRANCH  18  19
ATOM     19  C   UNL     1     -18.021   1.648  -5.806  1.00  0.00    -0.000 C 
BRANCH  19  20
ATOM     20  C   UNL     1     -18.722   1.201  -4.520  1.00  0.00    -0.000 C 
BRANCH  20  21
ATOM     21  C   UNL     1     -18.316  -0.206  -4.073  1.00  0.00    -0.003 C 
ATOM     22  C   UNL     1     -19.099  -0.646  -2.846  1.00  0.00     0.004 C 
ENDBRANCH  20  21
ENDBRANCH  19  20
ENDBRANCH  18  19
ENDBRANCH  17  18
ENDBRANCH  16  17
ENDBRANCH  12  16
ENDBRANCH   9  12
ENDBRANCH   6   9
ENDBRANCH   3   5
ENDBRANCH   2   3
BRANCH   2  23
ATOM     23  N   UNL     1     -10.203   5.287  -8.073  1.00  0.00    -0.332 N 
ATOM     24  C   UNL     1     -10.818   5.298  -6.754  1.00  0.00     0.147 C 
BRANCH  23  25
ATOM     25  C   UNL     1     -10.318   6.564  -8.828  1.00  0.00     0.174 C 
BRANCH  25  26
ATOM     26  C   UNL     1      -9.763   7.778  -8.046  1.00  0.00     0.038 C 
BRANCH  26  27
ATOM     27  C   UNL     1      -8.244   7.795  -7.766  1.00  0.00    -0.015 C 
ATOM     28  C   UNL     1      -7.442   8.382  -8.927  1.00  0.00     0.007 C 
ATOM     29  C   UNL     1      -7.876   8.487  -6.455  1.00  0.00     0.007 C 
ENDBRANCH  26  27
ENDBRANCH  25  26
BRANCH  25  30
ATOM     30  C   UNL     1     -11.767   6.758  -9.330  1.00  0.00     0.243 C 
ATOM     31  O   UNL     1     -12.489   7.656  -8.900  1.00  0.00    -0.273 OA
ATOM     32  N   UNL     1     -12.192   5.862 -10.277  1.00  0.00    -0.342 N 
ATOM     33  H   UNL     1     -11.492   5.236 -10.685  1.00  0.00     0.164 HD
BRANCH  32  34
ATOM     34  C   UNL     1     -13.542   5.876 -10.846  1.00  0.00     0.175 C 
BRANCH  34  35
ATOM     35  C   UNL     1     -13.505   5.745 -12.377  1.00  0.00     0.070 C 
BRANCH  35  36
ATOM     36  C   UNL     1     -14.057   6.963 -13.082  1.00  0.00    -0.045 A 
ATOM     37  C   UNL     1     -15.368   6.951 -13.580  1.00  0.00     0.007 A 
ATOM     38  C   UNL     1     -13.267   8.105 -13.268  1.00  0.00     0.007 A 
ATOM     39  C   UNL     1     -15.882   8.065 -14.244  1.00  0.00     0.046 A 
ATOM     40  C   UNL     1     -13.780   9.221 -13.934  1.00  0.00     0.046 A 
ATOM     41  C   UNL     1     -15.085   9.191 -14.416  1.00  0.00     0.115 A 
BRANCH  41  42
ATOM     42  O   UNL     1     -15.624  10.257 -15.073  1.00  0.00    -0.508 OA
ATOM     43  H   UNL     1     -15.937   9.953 -15.941  1.00  0.00     0.293 HD
ENDBRANCH  41  42
ENDBRANCH  35  36
ENDBRANCH  34  35
BRANCH  34  44
ATOM     44  C   UNL     1     -14.351   4.736 -10.189  1.00  0.00     0.243 C 
ATOM     45  O   UNL     1     -14.168   4.324  -9.046  1.00  0.00    -0.273 OA
ATOM     46  N   UNL     1     -15.229   4.117 -11.053  1.00  0.00    -0.341 N 
ATOM     47  H   UNL     1     -15.261   4.418 -12.024  1.00  0.00     0.164 HD
BRANCH  46  48
ATOM     48  C   UNL     1     -16.055   2.967 -10.676  1.00  0.00     0.196 C 
BRANCH  48  49
ATOM     49  C   UNL     1     -17.504   3.134 -11.163  1.00  0.00     0.072 C 
BRANCH  49  50
ATOM     50  C   UNL     1     -18.490   3.257 -10.024  1.00  0.00    -0.045 A 
ATOM     51  C   UNL     1     -18.313   4.251  -9.050  1.00  0.00     0.007 A 
ATOM     52  C   UNL     1     -19.574   2.377  -9.911  1.00  0.00     0.007 A 
ATOM     53  C   UNL     1     -19.209   4.365  -7.987  1.00  0.00     0.046 A 
ATOM     54  C   UNL     1     -20.470   2.490  -8.846  1.00  0.00     0.046 A 
ATOM     55  C   UNL     1     -20.281   3.485  -7.893  1.00  0.00     0.115 A 
BRANCH  55  56
ATOM     56  O   UNL     1     -21.132   3.629  -6.838  1.00  0.00    -0.508 OA
ATOM     57  H   UNL     1     -21.890   4.163  -7.127  1.00  0.00     0.293 HD
ENDBRANCH  55  56
ENDBRANCH  49  50
ENDBRANCH  48  49
BRANCH  48  58
ATOM     58  C   UNL     1     -15.449   1.696 -11.288  1.00  0.00     0.326 C 
ATOM     59  O   UNL     1     -14.302   1.534 -11.672  1.00  0.00    -0.250 OA
BRANCH  58  60
ATOM     60  O   UNL     1     -16.328   0.666 -11.376  1.00  0.00    -0.480 OA
ATOM     61  H   UNL     1     -15.996   0.150 -12.143  1.00  0.00     0.296 HD
ENDBRANCH  58  60
ENDBRANCH  48  58
ENDBRANCH  46  48
ENDBRANCH  34  44
ENDBRANCH  32  34
ENDBRANCH  25  30
ENDBRANCH  23  25
ENDBRANCH   2  23
TORSDOF 28
ENDMDL
MODEL 19
REMARK VINA RESULT:    -5.645     10.928     15.179
REMARK INTER + INTRA:         -20.236
REMARK INTER:                 -15.662
REMARK INTRA:                  -4.573
REMARK UNBOUND:                -6.175
REMARK SMILES CCCCCCC[C@H](N)[C@H](O)C(=O)N[C@H](C)C(=O)N(C)[C@H](CC(C)C)C(=O)N[C@@H](Cc1ccc(O)cc1)C(=O)N[C@@H](Cc1ccc(O)cc1)C(=O)O
REMARK SMILES IDX 18 1 17 2 15 3 16 4 14 5 12 6 13 7 10 9 11 10 8 12 9 13 7 16
REMARK SMILES IDX 6 17 5 18 4 19 3 20 2 21 1 22 19 23 20 24 21 25 22 26 23 27
REMARK SMILES IDX 24 28 25 29 26 30 27 31 28 32 29 34 30 35 31 36 32 37 37 38
REMARK SMILES IDX 33 39 36 40 34 41 35 42 38 44 39 45 40 46 41 48 42 49 43 50
REMARK SMILES IDX 44 51 49 52 45 53 48 54 46 55 47 56 50 58 51 59 52 60
REMARK H PARENT 14 8 11 11 9 14 9 15 28 33 35 43 40 47 47 57 52 61
ROOT
ATOM      1  O   UNL     1      -4.547  -9.577  -3.331  1.00  0.00    -0.272 OA
ATOM      2  C   UNL     1      -5.719  -9.433  -2.952  1.00  0.00     0.245 C 
ENDROOT
BRANCH   2   3
ATOM      3  C   UNL     1      -6.435 -10.633  -2.283  1.00  0.00     0.168 C 
ATOM      4  C   UNL     1      -6.145 -11.926  -3.038  1.00  0.00     0.041 C 
BRANCH   3   5
ATOM      5  N   UNL     1      -6.190 -10.772  -0.856  1.00  0.00    -0.342 N 
ATOM      6  C   UNL     1      -7.193 -11.115   0.025  1.00  0.00     0.251 C 
ATOM      7  O   UNL     1      -8.360 -11.285  -0.312  1.00  0.00    -0.272 OA
ATOM      8  H   UNL     1      -5.268 -10.622  -0.453  1.00  0.00     0.164 HD
BRANCH   6   9
ATOM      9  C   UNL     1      -6.677 -11.344   1.455  1.00  0.00     0.219 C 
BRANCH   9  10
ATOM     10  O   UNL     1      -5.395 -11.982   1.483  1.00  0.00    -0.382 OA
ATOM     11  H   UNL     1      -5.190 -12.046   2.442  1.00  0.00     0.211 HD
ENDBRANCH   9  10
BRANCH   9  12
ATOM     12  C   UNL     1      -6.669 -10.052   2.313  1.00  0.00     0.089 C 
BRANCH  12  13
ATOM     13  N   UNL     1      -7.130  -8.927   1.469  1.00  0.00    -0.325 NA
ATOM     14  H   UNL     1      -7.410  -8.149   2.070  1.00  0.00     0.119 HD
ATOM     15  H   UNL     1      -7.984  -9.207   0.981  1.00  0.00     0.119 HD
ENDBRANCH  12  13
BRANCH  12  16
ATOM     16  C   UNL     1      -7.490 -10.105   3.624  1.00  0.00     0.022 C 
BRANCH  16  17
ATOM     17  C   UNL     1      -8.927  -9.567   3.627  1.00  0.00     0.002 C 
BRANCH  17  18
ATOM     18  C   UNL     1     -10.013 -10.629   3.462  1.00  0.00     0.000 C 
BRANCH  18  19
ATOM     19  C   UNL     1     -10.803 -10.516   2.151  1.00  0.00    -0.000 C 
BRANCH  19  20
ATOM     20  C   UNL     1     -10.755  -9.141   1.480  1.00  0.00    -0.000 C 
BRANCH  20  21
ATOM     21  C   UNL     1     -11.212  -9.170   0.019  1.00  0.00    -0.003 C 
ATOM     22  C   UNL     1     -10.394  -8.216  -0.837  1.00  0.00     0.004 C 
ENDBRANCH  20  21
ENDBRANCH  19  20
ENDBRANCH  18  19
ENDBRANCH  17  18
ENDBRANCH  16  17
ENDBRANCH  12  16
ENDBRANCH   9  12
ENDBRANCH   6   9
ENDBRANCH   3   5
ENDBRANCH   2   3
BRANCH   2  23
ATOM     23  N   UNL     1      -6.323  -8.182  -3.021  1.00  0.00    -0.332 N 
ATOM     24  C   UNL     1      -7.004  -7.532  -1.911  1.00  0.00     0.147 C 
BRANCH  23  25
ATOM     25  C   UNL     1      -6.192  -7.351  -4.249  1.00  0.00     0.174 C 
BRANCH  25  26
ATOM     26  C   UNL     1      -5.970  -5.852  -3.940  1.00  0.00     0.038 C 
BRANCH  26  27
ATOM     27  C   UNL     1      -4.757  -5.171  -4.612  1.00  0.00    -0.015 C 
ATOM     28  C   UNL     1      -4.484  -5.714  -6.014  1.00  0.00     0.007 C 
ATOM     29  C   UNL     1      -4.851  -3.647  -4.635  1.00  0.00     0.007 C 
ENDBRANCH  26  27
ENDBRANCH  25  26
BRANCH  25  30
ATOM     30  C   UNL     1      -7.378  -7.620  -5.203  1.00  0.00     0.243 C 
ATOM     31  O   UNL     1      -7.683  -8.758  -5.556  1.00  0.00    -0.273 OA
ATOM     32  N   UNL     1      -8.059  -6.510  -5.631  1.00  0.00    -0.342 N 
ATOM     33  H   UNL     1      -7.836  -5.616  -5.185  1.00  0.00     0.164 HD
BRANCH  32  34
ATOM     34  C   UNL     1      -9.191  -6.572  -6.559  1.00  0.00     0.175 C 
BRANCH  34  35
ATOM     35  C   UNL     1     -10.487  -6.082  -5.893  1.00  0.00     0.070 C 
BRANCH  35  36
ATOM     36  C   UNL     1     -10.232  -5.099  -4.772  1.00  0.00    -0.045 A 
ATOM     37  C   UNL     1     -10.181  -5.546  -3.444  1.00  0.00     0.007 A 
ATOM     38  C   UNL     1     -10.069  -3.733  -5.038  1.00  0.00     0.007 A 
ATOM     39  C   UNL     1      -9.960  -4.645  -2.402  1.00  0.00     0.046 A 
ATOM     40  C   UNL     1      -9.850  -2.829  -3.996  1.00  0.00     0.046 A 
ATOM     41  C   UNL     1      -9.796  -3.294  -2.686  1.00  0.00     0.115 A 
BRANCH  41  42
ATOM     42  O   UNL     1      -9.586  -2.446  -1.640  1.00  0.00    -0.508 OA
ATOM     43  H   UNL     1      -9.704  -2.945  -0.814  1.00  0.00     0.293 HD
ENDBRANCH  41  42
ENDBRANCH  35  36
ENDBRANCH  34  35
BRANCH  34  44
ATOM     44  C   UNL     1      -8.833  -5.736  -7.808  1.00  0.00     0.243 C 
ATOM     45  O   UNL     1      -9.425  -5.805  -8.882  1.00  0.00    -0.273 OA
ATOM     46  N   UNL     1      -7.688  -4.984  -7.656  1.00  0.00    -0.341 N 
ATOM     47  H   UNL     1      -7.166  -5.049  -6.785  1.00  0.00     0.164 HD
BRANCH  46  48
ATOM     48  C   UNL     1      -7.114  -4.164  -8.725  1.00  0.00     0.196 C 
BRANCH  48  49
ATOM     49  C   UNL     1      -6.367  -2.945  -8.157  1.00  0.00     0.072 C 
BRANCH  49  50
ATOM     50  C   UNL     1      -7.117  -1.650  -8.374  1.00  0.00    -0.045 A 
ATOM     51  C   UNL     1      -6.741  -0.791  -9.416  1.00  0.00     0.007 A 
ATOM     52  C   UNL     1      -8.175  -1.281  -7.533  1.00  0.00     0.007 A 
ATOM     53  C   UNL     1      -7.417   0.413  -9.618  1.00  0.00     0.046 A 
ATOM     54  C   UNL     1      -8.851  -0.075  -7.734  1.00  0.00     0.046 A 
ATOM     55  C   UNL     1      -8.466   0.761  -8.777  1.00  0.00     0.115 A 
BRANCH  55  56
ATOM     56  O   UNL     1      -9.100   1.947  -9.006  1.00  0.00    -0.508 OA
ATOM     57  H   UNL     1      -8.441   2.658  -8.964  1.00  0.00     0.293 HD
ENDBRANCH  55  56
ENDBRANCH  49  50
ENDBRANCH  48  49
BRANCH  48  58
ATOM     58  C   UNL     1      -6.145  -5.024  -9.548  1.00  0.00     0.326 C 
ATOM     59  O   UNL     1      -5.358  -4.642 -10.399  1.00  0.00    -0.250 OA
BRANCH  58  60
ATOM     60  O   UNL     1      -6.203  -6.345  -9.245  1.00  0.00    -0.480 OA
ATOM     61  H   UNL     1      -6.544  -6.351  -8.324  1.00  0.00     0.296 HD
ENDBRANCH  58  60
ENDBRANCH  48  58
ENDBRANCH  46  48
ENDBRANCH  34  44
ENDBRANCH  32  34
ENDBRANCH  25  30
ENDBRANCH  23  25
ENDBRANCH   2  23
TORSDOF 28
ENDMDL
MODEL 20
REMARK VINA RESULT:    -5.616      2.282      6.154
REMARK INTER + INTRA:         -20.163
REMARK INTER:                 -14.169
REMARK INTRA:                  -5.995
REMARK UNBOUND:                -6.175
REMARK SMILES CCCCCCC[C@H](N)[C@H](O)C(=O)N[C@H](C)C(=O)N(C)[C@H](CC(C)C)C(=O)N[C@@H](Cc1ccc(O)cc1)C(=O)N[C@@H](Cc1ccc(O)cc1)C(=O)O
REMARK SMILES IDX 18 1 17 2 15 3 16 4 14 5 12 6 13 7 10 9 11 10 8 12 9 13 7 16
REMARK SMILES IDX 6 17 5 18 4 19 3 20 2 21 1 22 19 23 20 24 21 25 22 26 23 27
REMARK SMILES IDX 24 28 25 29 26 30 27 31 28 32 29 34 30 35 31 36 32 37 37 38
REMARK SMILES IDX 33 39 36 40 34 41 35 42 38 44 39 45 40 46 41 48 42 49 43 50
REMARK SMILES IDX 44 51 49 52 45 53 48 54 46 55 47 56 50 58 51 59 52 60
REMARK H PARENT 14 8 11 11 9 14 9 15 28 33 35 43 40 47 47 57 52 61
ROOT
ATOM      1  O   UNL     1     -19.443   0.539  -7.811  1.00  0.00    -0.272 OA
ATOM      2  C   UNL     1     -18.527   1.074  -7.168  1.00  0.00     0.245 C 
ENDROOT
BRANCH   2   3
ATOM      3  C   UNL     1     -18.896   2.107  -6.074  1.00  0.00     0.168 C 
ATOM      4  C   UNL     1     -18.604   1.551  -4.685  1.00  0.00     0.041 C 
BRANCH   3   5
ATOM      5  N   UNL     1     -18.319   3.429  -6.262  1.00  0.00    -0.342 N 
ATOM      6  C   UNL     1     -18.952   4.401  -7.006  1.00  0.00     0.251 C 
ATOM      7  O   UNL     1     -20.013   4.219  -7.594  1.00  0.00    -0.272 OA
ATOM      8  H   UNL     1     -17.424   3.686  -5.851  1.00  0.00     0.164 HD
BRANCH   6   9
ATOM      9  C   UNL     1     -18.231   5.758  -6.949  1.00  0.00     0.219 C 
BRANCH   9  10
ATOM     10  O   UNL     1     -17.921   6.162  -5.610  1.00  0.00    -0.382 OA
ATOM     11  H   UNL     1     -18.282   7.075  -5.555  1.00  0.00     0.211 HD
ENDBRANCH   9  10
BRANCH   9  12
ATOM     12  C   UNL     1     -16.969   5.815  -7.848  1.00  0.00     0.089 C 
BRANCH  12  13
ATOM     13  N   UNL     1     -17.096   4.780  -8.900  1.00  0.00    -0.325 NA
ATOM     14  H   UNL     1     -16.669   3.912  -8.571  1.00  0.00     0.119 HD
ATOM     15  H   UNL     1     -16.540   5.061  -9.710  1.00  0.00     0.119 HD
ENDBRANCH  12  13
BRANCH  12  16
ATOM     16  C   UNL     1     -16.655   7.188  -8.489  1.00  0.00     0.022 C 
BRANCH  16  17
ATOM     17  C   UNL     1     -15.535   7.286  -9.535  1.00  0.00     0.002 C 
BRANCH  17  18
ATOM     18  C   UNL     1     -15.792   8.282 -10.663  1.00  0.00     0.000 C 
BRANCH  18  19
ATOM     19  C   UNL     1     -16.335   7.645 -11.948  1.00  0.00    -0.000 C 
BRANCH  19  20
ATOM     20  C   UNL     1     -16.095   6.138 -12.078  1.00  0.00    -0.000 C 
BRANCH  20  21
ATOM     21  C   UNL     1     -15.604   5.727 -13.469  1.00  0.00    -0.003 C 
ATOM     22  C   UNL     1     -14.532   4.651 -13.383  1.00  0.00     0.004 C 
ENDBRANCH  20  21
ENDBRANCH  19  20
ENDBRANCH  18  19
ENDBRANCH  17  18
ENDBRANCH  16  17
ENDBRANCH  12  16
ENDBRANCH   9  12
ENDBRANCH   6   9
ENDBRANCH   3   5
ENDBRANCH   2   3
BRANCH   2  23
ATOM     23  N   UNL     1     -17.213   0.658  -7.351  1.00  0.00    -0.332 N 
ATOM     24  C   UNL     1     -16.574  -0.411  -6.598  1.00  0.00     0.147 C 
BRANCH  23  25
ATOM     25  C   UNL     1     -16.393   1.221  -8.458  1.00  0.00     0.174 C 
BRANCH  25  26
ATOM     26  C   UNL     1     -16.068   0.181  -9.556  1.00  0.00     0.038 C 
BRANCH  26  27
ATOM     27  C   UNL     1     -16.332   0.601 -11.019  1.00  0.00    -0.015 C 
ATOM     28  C   UNL     1     -17.667   1.326 -11.187  1.00  0.00     0.007 C 
ATOM     29  C   UNL     1     -15.197   1.418 -11.631  1.00  0.00     0.007 C 
ENDBRANCH  26  27
ENDBRANCH  25  26
BRANCH  25  30
ATOM     30  C   UNL     1     -15.145   1.933  -7.888  1.00  0.00     0.243 C 
ATOM     31  O   UNL     1     -15.237   2.903  -7.137  1.00  0.00    -0.273 OA
ATOM     32  N   UNL     1     -13.937   1.416  -8.279  1.00  0.00    -0.342 N 
ATOM     33  H   UNL     1     -13.943   0.528  -8.786  1.00  0.00     0.164 HD
BRANCH  32  34
ATOM     34  C   UNL     1     -12.651   1.979  -7.859  1.00  0.00     0.175 C 
BRANCH  34  35
ATOM     35  C   UNL     1     -11.626   0.873  -7.564  1.00  0.00     0.070 C 
BRANCH  35  36
ATOM     36  C   UNL     1     -10.197   1.344  -7.711  1.00  0.00    -0.045 A 
ATOM     37  C   UNL     1      -9.419   0.900  -8.791  1.00  0.00     0.007 A 
ATOM     38  C   UNL     1      -9.624   2.207  -6.767  1.00  0.00     0.007 A 
ATOM     39  C   UNL     1      -8.096   1.319  -8.928  1.00  0.00     0.046 A 
ATOM     40  C   UNL     1      -8.298   2.626  -6.903  1.00  0.00     0.046 A 
ATOM     41  C   UNL     1      -7.546   2.178  -7.984  1.00  0.00     0.115 A 
BRANCH  41  42
ATOM     42  O   UNL     1      -6.248   2.561  -8.153  1.00  0.00    -0.508 OA
ATOM     43  H   UNL     1      -6.012   2.433  -9.087  1.00  0.00     0.293 HD
ENDBRANCH  41  42
ENDBRANCH  35  36
ENDBRANCH  34  35
BRANCH  34  44
ATOM     44  C   UNL     1     -12.162   2.937  -8.969  1.00  0.00     0.243 C 
ATOM     45  O   UNL     1     -12.058   2.631 -10.153  1.00  0.00    -0.273 OA
ATOM     46  N   UNL     1     -11.720   4.152  -8.489  1.00  0.00    -0.341 N 
ATOM     47  H   UNL     1     -11.717   4.316  -7.485  1.00  0.00     0.164 HD
BRANCH  46  48
ATOM     48  C   UNL     1     -11.150   5.196  -9.343  1.00  0.00     0.196 C 
BRANCH  48  49
ATOM     49  C   UNL     1     -11.781   6.567  -9.050  1.00  0.00     0.072 C 
BRANCH  49  50
ATOM     50  C   UNL     1     -11.990   7.391 -10.301  1.00  0.00    -0.045 A 
ATOM     51  C   UNL     1     -12.085   8.787 -10.210  1.00  0.00     0.007 A 
ATOM     52  C   UNL     1     -12.112   6.779 -11.555  1.00  0.00     0.007 A 
ATOM     53  C   UNL     1     -12.291   9.557 -11.356  1.00  0.00     0.046 A 
ATOM     54  C   UNL     1     -12.319   7.549 -12.702  1.00  0.00     0.046 A 
ATOM     55  C   UNL     1     -12.406   8.933 -12.592  1.00  0.00     0.115 A 
BRANCH  55  56
ATOM     56  O   UNL     1     -12.608   9.720 -13.686  1.00  0.00    -0.508 OA
ATOM     57  H   UNL     1     -11.744   9.953 -14.060  1.00  0.00     0.293 HD
ENDBRANCH  55  56
ENDBRANCH  49  50
ENDBRANCH  48  49
BRANCH  48  58
ATOM     58  C   UNL     1      -9.635   5.265  -9.103  1.00  0.00     0.326 C 
ATOM     59  O   UNL     1      -8.753   4.804  -9.809  1.00  0.00    -0.250 OA
BRANCH  58  60
ATOM     60  O   UNL     1      -9.296   5.936  -7.973  1.00  0.00    -0.480 OA
ATOM     61  H   UNL     1      -8.847   6.740  -8.314  1.00  0.00     0.296 HD
ENDBRANCH  58  60
ENDBRANCH  48  58
ENDBRANCH  46  48
ENDBRANCH  34  44
ENDBRANCH  32  34
ENDBRANCH  25  30
ENDBRANCH  23  25
ENDBRANCH   2  23
TORSDOF 28
ENDMDL
MODEL 21
REMARK VINA RESULT:    -5.615      9.655     15.084
REMARK INTER + INTRA:         -20.161
REMARK INTER:                 -14.455
REMARK INTRA:                  -5.706
REMARK UNBOUND:                -6.175
REMARK SMILES CCCCCCC[C@H](N)[C@H](O)C(=O)N[C@H](C)C(=O)N(C)[C@H](CC(C)C)C(=O)N[C@@H](Cc1ccc(O)cc1)C(=O)N[C@@H](Cc1ccc(O)cc1)C(=O)O
REMARK SMILES IDX 18 1 17 2 15 3 16 4 14 5 12 6 13 7 10 9 11 10 8 12 9 13 7 16
REMARK SMILES IDX 6 17 5 18 4 19 3 20 2 21 1 22 19 23 20 24 21 25 22 26 23 27
REMARK SMILES IDX 24 28 25 29 26 30 27 31 28 32 29 34 30 35 31 36 32 37 37 38
REMARK SMILES IDX 33 39 36 40 34 41 35 42 38 44 39 45 40 46 41 48 42 49 43 50
REMARK SMILES IDX 44 51 49 52 45 53 48 54 46 55 47 56 50 58 51 59 52 60
REMARK H PARENT 14 8 11 11 9 14 9 15 28 33 35 43 40 47 47 57 52 61
ROOT
ATOM      1  O   UNL     1      -0.962  -5.513  -6.880  1.00  0.00    -0.272 OA
ATOM      2  C   UNL     1      -2.165  -5.306  -6.666  1.00  0.00     0.245 C 
ENDROOT
BRANCH   2   3
ATOM      3  C   UNL     1      -3.162  -6.479  -6.840  1.00  0.00     0.168 C 
ATOM      4  C   UNL     1      -2.662  -7.462  -7.892  1.00  0.00     0.041 C 
BRANCH   3   5
ATOM      5  N   UNL     1      -3.538  -7.150  -5.605  1.00  0.00    -0.342 N 
ATOM      6  C   UNL     1      -4.841  -7.516  -5.343  1.00  0.00     0.251 C 
ATOM      7  O   UNL     1      -5.777  -7.271  -6.097  1.00  0.00    -0.272 OA
ATOM      8  H   UNL     1      -2.853  -7.375  -4.888  1.00  0.00     0.164 HD
BRANCH   6   9
ATOM      9  C   UNL     1      -4.980  -8.335  -4.050  1.00  0.00     0.219 C 
BRANCH   9  10
ATOM     10  O   UNL     1      -3.740  -8.917  -3.629  1.00  0.00    -0.382 OA
ATOM     11  H   UNL     1      -3.728  -9.789  -4.083  1.00  0.00     0.211 HD
ENDBRANCH   9  10
BRANCH   9  12
ATOM     12  C   UNL     1      -5.636  -7.540  -2.892  1.00  0.00     0.089 C 
BRANCH  12  13
ATOM     13  N   UNL     1      -5.651  -6.105  -3.260  1.00  0.00    -0.325 NA
ATOM     14  H   UNL     1      -5.304  -5.553  -2.474  1.00  0.00     0.119 HD
ATOM     15  H   UNL     1      -6.621  -5.807  -3.388  1.00  0.00     0.119 HD
ENDBRANCH  12  13
BRANCH  12  16
ATOM     16  C   UNL     1      -7.054  -7.997  -2.473  1.00  0.00     0.022 C 
BRANCH  16  17
ATOM     17  C   UNL     1      -7.554  -9.379  -2.914  1.00  0.00     0.002 C 
BRANCH  17  18
ATOM     18  C   UNL     1      -9.040  -9.448  -3.257  1.00  0.00     0.000 C 
BRANCH  18  19
ATOM     19  C   UNL     1      -9.796 -10.571  -2.536  1.00  0.00    -0.000 C 
BRANCH  19  20
ATOM     20  C   UNL     1     -10.104 -10.304  -1.060  1.00  0.00    -0.000 C 
BRANCH  20  21
ATOM     21  C   UNL     1     -10.848  -8.986  -0.831  1.00  0.00    -0.003 C 
ATOM     22  C   UNL     1     -10.072  -8.065   0.096  1.00  0.00     0.004 C 
ENDBRANCH  20  21
ENDBRANCH  19  20
ENDBRANCH  18  19
ENDBRANCH  17  18
ENDBRANCH  16  17
ENDBRANCH  12  16
ENDBRANCH   9  12
ENDBRANCH   6   9
ENDBRANCH   3   5
ENDBRANCH   2   3
BRANCH   2  23
ATOM     23  N   UNL     1      -2.580  -4.078  -6.162  1.00  0.00    -0.332 N 
ATOM     24  C   UNL     1      -2.809  -3.798  -4.752  1.00  0.00     0.147 C 
BRANCH  23  25
ATOM     25  C   UNL     1      -2.697  -2.897  -7.061  1.00  0.00     0.174 C 
BRANCH  25  26
ATOM     26  C   UNL     1      -1.691  -1.775  -6.716  1.00  0.00     0.038 C 
BRANCH  26  27
ATOM     27  C   UNL     1      -0.310  -1.836  -7.406  1.00  0.00    -0.015 C 
ATOM     28  C   UNL     1       0.783  -2.371  -6.481  1.00  0.00     0.007 C 
ATOM     29  C   UNL     1      -0.323  -2.606  -8.724  1.00  0.00     0.007 C 
ENDBRANCH  26  27
ENDBRANCH  25  26
BRANCH  25  30
ATOM     30  C   UNL     1      -4.166  -2.419  -7.122  1.00  0.00     0.243 C 
ATOM     31  O   UNL     1      -4.463  -1.226  -7.079  1.00  0.00    -0.273 OA
ATOM     32  N   UNL     1      -5.109  -3.409  -7.221  1.00  0.00    -0.342 N 
ATOM     33  H   UNL     1      -4.779  -4.362  -7.394  1.00  0.00     0.164 HD
BRANCH  32  34
ATOM     34  C   UNL     1      -6.550  -3.143  -7.263  1.00  0.00     0.175 C 
BRANCH  34  35
ATOM     35  C   UNL     1      -7.069  -3.103  -8.709  1.00  0.00     0.070 C 
BRANCH  35  36
ATOM     36  C   UNL     1      -7.079  -1.707  -9.289  1.00  0.00    -0.045 A 
ATOM     37  C   UNL     1      -6.323  -1.417 -10.434  1.00  0.00     0.007 A 
ATOM     38  C   UNL     1      -7.819  -0.683  -8.684  1.00  0.00     0.007 A 
ATOM     39  C   UNL     1      -6.315  -0.129 -10.969  1.00  0.00     0.046 A 
ATOM     40  C   UNL     1      -7.811   0.608  -9.218  1.00  0.00     0.046 A 
ATOM     41  C   UNL     1      -7.059   0.873 -10.357  1.00  0.00     0.115 A 
BRANCH  41  42
ATOM     42  O   UNL     1      -7.022   2.119 -10.909  1.00  0.00    -0.508 OA
ATOM     43  H   UNL     1      -7.483   2.088 -11.764  1.00  0.00     0.293 HD
ENDBRANCH  41  42
ENDBRANCH  35  36
ENDBRANCH  34  35
BRANCH  34  44
ATOM     44  C   UNL     1      -7.262  -4.227  -6.423  1.00  0.00     0.243 C 
ATOM     45  O   UNL     1      -7.017  -4.462  -5.243  1.00  0.00    -0.273 OA
ATOM     46  N   UNL     1      -8.123  -5.013  -7.159  1.00  0.00    -0.341 N 
ATOM     47  H   UNL     1      -8.204  -4.854  -8.160  1.00  0.00     0.164 HD
BRANCH  46  48
ATOM     48  C   UNL     1      -8.858  -6.147  -6.595  1.00  0.00     0.196 C 
BRANCH  48  49
ATOM     49  C   UNL     1     -10.287  -5.744  -6.194  1.00  0.00     0.072 C 
BRANCH  49  50
ATOM     50  C   UNL     1     -10.374  -5.253  -4.766  1.00  0.00    -0.045 A 
ATOM     51  C   UNL     1     -11.166  -4.138  -4.457  1.00  0.00     0.007 A 
ATOM     52  C   UNL     1      -9.655  -5.884  -3.743  1.00  0.00     0.007 A 
ATOM     53  C   UNL     1     -11.243  -3.668  -3.146  1.00  0.00     0.046 A 
ATOM     54  C   UNL     1      -9.731  -5.413  -2.430  1.00  0.00     0.046 A 
ATOM     55  C   UNL     1     -10.526  -4.309  -2.143  1.00  0.00     0.115 A 
BRANCH  55  56
ATOM     56  O   UNL     1     -10.627  -3.817  -0.875  1.00  0.00    -0.508 OA
ATOM     57  H   UNL     1     -10.422  -4.533  -0.252  1.00  0.00     0.293 HD
ENDBRANCH  55  56
ENDBRANCH  49  50
ENDBRANCH  48  49
BRANCH  48  58
ATOM     58  C   UNL     1      -8.915  -7.273  -7.637  1.00  0.00     0.326 C 
ATOM     59  O   UNL     1      -9.800  -8.100  -7.784  1.00  0.00    -0.250 OA
BRANCH  58  60
ATOM     60  O   UNL     1      -7.843  -7.296  -8.469  1.00  0.00    -0.480 OA
ATOM     61  H   UNL     1      -8.061  -8.015  -9.100  1.00  0.00     0.296 HD
ENDBRANCH  58  60
ENDBRANCH  48  58
ENDBRANCH  46  48
ENDBRANCH  34  44
ENDBRANCH  32  34
ENDBRANCH  25  30
ENDBRANCH  23  25
ENDBRANCH   2  23
TORSDOF 28
ENDMDL
MODEL 22
REMARK VINA RESULT:    -5.615     13.724     18.301
REMARK INTER + INTRA:         -20.160
REMARK INTER:                 -15.982
REMARK INTRA:                  -4.178
REMARK UNBOUND:                -6.175
REMARK SMILES CCCCCCC[C@H](N)[C@H](O)C(=O)N[C@H](C)C(=O)N(C)[C@H](CC(C)C)C(=O)N[C@@H](Cc1ccc(O)cc1)C(=O)N[C@@H](Cc1ccc(O)cc1)C(=O)O
REMARK SMILES IDX 18 1 17 2 15 3 16 4 14 5 12 6 13 7 10 9 11 10 8 12 9 13 7 16
REMARK SMILES IDX 6 17 5 18 4 19 3 20 2 21 1 22 19 23 20 24 21 25 22 26 23 27
REMARK SMILES IDX 24 28 25 29 26 30 27 31 28 32 29 34 30 35 31 36 32 37 37 38
REMARK SMILES IDX 33 39 36 40 34 41 35 42 38 44 39 45 40 46 41 48 42 49 43 50
REMARK SMILES IDX 44 51 49 52 45 53 48 54 46 55 47 56 50 58 51 59 52 60
REMARK H PARENT 14 8 11 11 9 14 9 15 28 33 35 43 40 47 47 57 52 61
ROOT
ATOM      1  O   UNL     1       2.244   3.315   5.136  1.00  0.00    -0.272 OA
ATOM      2  C   UNL     1       1.787   2.877   4.070  1.00  0.00     0.245 C 
ENDROOT
BRANCH   2   3
ATOM      3  C   UNL     1       2.712   2.837   2.828  1.00  0.00     0.168 C 
ATOM      4  C   UNL     1       3.810   1.794   3.003  1.00  0.00     0.041 C 
BRANCH   3   5
ATOM      5  N   UNL     1       2.021   2.689   1.556  1.00  0.00    -0.342 N 
ATOM      6  C   UNL     1       2.377   3.424   0.445  1.00  0.00     0.251 C 
ATOM      7  O   UNL     1       3.260   4.275   0.451  1.00  0.00    -0.272 OA
ATOM      8  H   UNL     1       1.249   2.038   1.439  1.00  0.00     0.164 HD
BRANCH   6   9
ATOM      9  C   UNL     1       1.609   3.001  -0.818  1.00  0.00     0.219 C 
BRANCH   9  10
ATOM     10  O   UNL     1       0.335   3.645  -0.931  1.00  0.00    -0.382 OA
ATOM     11  H   UNL     1       0.564   4.595  -1.034  1.00  0.00     0.211 HD
ENDBRANCH   9  10
BRANCH   9  12
ATOM     12  C   UNL     1       2.434   3.178  -2.120  1.00  0.00     0.089 C 
BRANCH  12  13
ATOM     13  N   UNL     1       2.684   4.624  -2.321  1.00  0.00    -0.325 NA
ATOM     14  H   UNL     1       3.572   4.745  -2.812  1.00  0.00     0.119 HD
ATOM     15  H   UNL     1       2.821   5.066  -1.409  1.00  0.00     0.119 HD
ENDBRANCH  12  13
BRANCH  12  16
ATOM     16  C   UNL     1       3.765   2.393  -2.191  1.00  0.00     0.022 C 
BRANCH  16  17
ATOM     17  C   UNL     1       4.189   1.760  -3.524  1.00  0.00     0.002 C 
BRANCH  17  18
ATOM     18  C   UNL     1       5.694   1.741  -3.779  1.00  0.00     0.000 C 
BRANCH  18  19
ATOM     19  C   UNL     1       6.437   2.963  -3.224  1.00  0.00    -0.000 C 
BRANCH  19  20
ATOM     20  C   UNL     1       7.522   2.650  -2.189  1.00  0.00    -0.000 C 
BRANCH  20  21
ATOM     21  C   UNL     1       7.801   3.818  -1.240  1.00  0.00    -0.003 C 
ATOM     22  C   UNL     1       6.511   4.470  -0.768  1.00  0.00     0.004 C 
ENDBRANCH  20  21
ENDBRANCH  19  20
ENDBRANCH  18  19
ENDBRANCH  17  18
ENDBRANCH  16  17
ENDBRANCH  12  16
ENDBRANCH   9  12
ENDBRANCH   6   9
ENDBRANCH   3   5
ENDBRANCH   2   3
BRANCH   2  23
ATOM     23  N   UNL     1       0.512   2.322   4.036  1.00  0.00    -0.332 N 
ATOM     24  C   UNL     1       0.233   0.902   3.877  1.00  0.00     0.147 C 
BRANCH  23  25
ATOM     25  C   UNL     1      -0.683   3.170   4.296  1.00  0.00     0.174 C 
BRANCH  25  26
ATOM     26  C   UNL     1      -1.647   2.550   5.334  1.00  0.00     0.038 C 
BRANCH  26  27
ATOM     27  C   UNL     1      -1.870   3.340   6.643  1.00  0.00    -0.015 C 
ATOM     28  C   UNL     1      -2.145   2.428   7.838  1.00  0.00     0.007 C 
ATOM     29  C   UNL     1      -0.741   4.317   6.962  1.00  0.00     0.007 C 
ENDBRANCH  26  27
ENDBRANCH  25  26
BRANCH  25  30
ATOM     30  C   UNL     1      -1.367   3.550   2.962  1.00  0.00     0.243 C 
ATOM     31  O   UNL     1      -0.752   3.559   1.897  1.00  0.00    -0.273 OA
ATOM     32  N   UNL     1      -2.695   3.879   3.049  1.00  0.00    -0.342 N 
ATOM     33  H   UNL     1      -3.167   3.711   3.941  1.00  0.00     0.164 HD
BRANCH  32  34
ATOM     34  C   UNL     1      -3.496   4.290   1.893  1.00  0.00     0.175 C 
BRANCH  34  35
ATOM     35  C   UNL     1      -4.187   3.086   1.235  1.00  0.00     0.070 C 
BRANCH  35  36
ATOM     36  C   UNL     1      -3.616   2.755  -0.125  1.00  0.00    -0.045 A 
ATOM     37  C   UNL     1      -2.758   1.656  -0.278  1.00  0.00     0.007 A 
ATOM     38  C   UNL     1      -3.913   3.549  -1.241  1.00  0.00     0.007 A 
ATOM     39  C   UNL     1      -2.216   1.351  -1.527  1.00  0.00     0.046 A 
ATOM     40  C   UNL     1      -3.369   3.245  -2.492  1.00  0.00     0.046 A 
ATOM     41  C   UNL     1      -2.525   2.147  -2.623  1.00  0.00     0.115 A 
BRANCH  41  42
ATOM     42  O   UNL     1      -1.972   1.817  -3.825  1.00  0.00    -0.508 OA
ATOM     43  H   UNL     1      -1.195   2.383  -3.968  1.00  0.00     0.293 HD
ENDBRANCH  41  42
ENDBRANCH  35  36
ENDBRANCH  34  35
BRANCH  34  44
ATOM     44  C   UNL     1      -4.515   5.350   2.369  1.00  0.00     0.243 C 
ATOM     45  O   UNL     1      -4.409   5.996   3.408  1.00  0.00    -0.273 OA
ATOM     46  N   UNL     1      -5.642   5.422   1.579  1.00  0.00    -0.341 N 
ATOM     47  H   UNL     1      -5.736   4.783   0.793  1.00  0.00     0.164 HD
BRANCH  46  48
ATOM     48  C   UNL     1      -6.775   6.304   1.869  1.00  0.00     0.196 C 
BRANCH  48  49
ATOM     49  C   UNL     1      -7.549   6.661   0.589  1.00  0.00     0.072 C 
BRANCH  49  50
ATOM     50  C   UNL     1      -7.023   7.912  -0.079  1.00  0.00    -0.045 A 
ATOM     51  C   UNL     1      -7.563   9.162   0.254  1.00  0.00     0.007 A 
ATOM     52  C   UNL     1      -6.013   7.841  -1.047  1.00  0.00     0.007 A 
ATOM     53  C   UNL     1      -7.095  10.321  -0.365  1.00  0.00     0.046 A 
ATOM     54  C   UNL     1      -5.545   9.002  -1.668  1.00  0.00     0.046 A 
ATOM     55  C   UNL     1      -6.090  10.233  -1.321  1.00  0.00     0.115 A 
BRANCH  55  56
ATOM     56  O   UNL     1      -5.662  11.389  -1.904  1.00  0.00    -0.508 OA
ATOM     57  H   UNL     1      -4.699  11.446  -1.799  1.00  0.00     0.293 HD
ENDBRANCH  55  56
ENDBRANCH  49  50
ENDBRANCH  48  49
BRANCH  48  58
ATOM     58  C   UNL     1      -7.714   5.602   2.859  1.00  0.00     0.326 C 
ATOM     59  O   UNL     1      -8.328   6.110   3.783  1.00  0.00    -0.250 OA
BRANCH  58  60
ATOM     60  O   UNL     1      -7.850   4.272   2.626  1.00  0.00    -0.480 OA
ATOM     61  H   UNL     1      -6.959   3.914   2.832  1.00  0.00     0.296 HD
ENDBRANCH  58  60
ENDBRANCH  48  58
ENDBRANCH  46  48
ENDBRANCH  34  44
ENDBRANCH  32  34
ENDBRANCH  25  30
ENDBRANCH  23  25
ENDBRANCH   2  23
TORSDOF 28
ENDMDL
MODEL 23
REMARK VINA RESULT:    -5.612     12.623     17.659
REMARK INTER + INTRA:         -20.153
REMARK INTER:                 -15.511
REMARK INTRA:                  -4.642
REMARK UNBOUND:                -6.175
REMARK SMILES CCCCCCC[C@H](N)[C@H](O)C(=O)N[C@H](C)C(=O)N(C)[C@H](CC(C)C)C(=O)N[C@@H](Cc1ccc(O)cc1)C(=O)N[C@@H](Cc1ccc(O)cc1)C(=O)O
REMARK SMILES IDX 18 1 17 2 15 3 16 4 14 5 12 6 13 7 10 9 11 10 8 12 9 13 7 16
REMARK SMILES IDX 6 17 5 18 4 19 3 20 2 21 1 22 19 23 20 24 21 25 22 26 23 27
REMARK SMILES IDX 24 28 25 29 26 30 27 31 28 32 29 34 30 35 31 36 32 37 37 38
REMARK SMILES IDX 33 39 36 40 34 41 35 42 38 44 39 45 40 46 41 48 42 49 43 50
REMARK SMILES IDX 44 51 49 52 45 53 48 54 46 55 47 56 50 58 51 59 52 60
REMARK H PARENT 14 8 11 11 9 14 9 15 28 33 35 43 40 47 47 57 52 61
ROOT
ATOM      1  O   UNL     1      -6.878 -10.045  -3.795  1.00  0.00    -0.272 OA
ATOM      2  C   UNL     1      -7.924  -9.826  -3.166  1.00  0.00     0.245 C 
ENDROOT
BRANCH   2   3
ATOM      3  C   UNL     1      -8.927  -8.790  -3.733  1.00  0.00     0.168 C 
ATOM      4  C   UNL     1      -9.408  -7.845  -2.638  1.00  0.00     0.041 C 
BRANCH   3   5
ATOM      5  N   UNL     1      -8.461  -8.067  -4.906  1.00  0.00    -0.342 N 
ATOM      6  C   UNL     1      -9.076  -8.197  -6.134  1.00  0.00     0.251 C 
ATOM      7  O   UNL     1     -10.022  -8.950  -6.340  1.00  0.00    -0.272 OA
ATOM      8  H   UNL     1      -7.662  -7.439  -4.866  1.00  0.00     0.164 HD
BRANCH   6   9
ATOM      9  C   UNL     1      -8.506  -7.235  -7.189  1.00  0.00     0.219 C 
BRANCH   9  10
ATOM     10  O   UNL     1      -8.341  -7.855  -8.470  1.00  0.00    -0.382 OA
ATOM     11  H   UNL     1      -8.420  -7.107  -9.101  1.00  0.00     0.211 HD
ENDBRANCH   9  10
BRANCH   9  12
ATOM     12  C   UNL     1      -9.317  -5.919  -7.315  1.00  0.00     0.089 C 
BRANCH  12  13
ATOM     13  N   UNL     1     -10.657  -6.138  -6.725  1.00  0.00    -0.325 NA
ATOM     14  H   UNL     1     -10.992  -5.262  -6.318  1.00  0.00     0.119 HD
ATOM     15  H   UNL     1     -10.570  -6.782  -5.935  1.00  0.00     0.119 HD
ENDBRANCH  12  13
BRANCH  12  16
ATOM     16  C   UNL     1      -8.664  -4.659  -6.698  1.00  0.00     0.022 C 
BRANCH  16  17
ATOM     17  C   UNL     1      -8.534  -4.555  -5.172  1.00  0.00     0.002 C 
BRANCH  17  18
ATOM     18  C   UNL     1      -9.419  -3.495  -4.521  1.00  0.00     0.000 C 
BRANCH  18  19
ATOM     19  C   UNL     1     -10.529  -4.068  -3.630  1.00  0.00    -0.000 C 
BRANCH  19  20
ATOM     20  C   UNL     1     -11.952  -3.879  -4.163  1.00  0.00    -0.000 C 
BRANCH  20  21
ATOM     21  C   UNL     1     -12.718  -2.765  -3.444  1.00  0.00    -0.003 C 
ATOM     22  C   UNL     1     -12.571  -2.877  -1.934  1.00  0.00     0.004 C 
ENDBRANCH  20  21
ENDBRANCH  19  20
ENDBRANCH  18  19
ENDBRANCH  17  18
ENDBRANCH  16  17
ENDBRANCH  12  16
ENDBRANCH   9  12
ENDBRANCH   6   9
ENDBRANCH   3   5
ENDBRANCH   2   3
BRANCH   2  23
ATOM     23  N   UNL     1      -8.234 -10.587  -2.044  1.00  0.00    -0.332 N 
ATOM     24  C   UNL     1      -9.404 -11.444  -1.926  1.00  0.00     0.147 C 
BRANCH  23  25
ATOM     25  C   UNL     1      -7.280 -10.668  -0.904  1.00  0.00     0.174 C 
BRANCH  25  26
ATOM     26  C   UNL     1      -7.169 -12.093  -0.311  1.00  0.00     0.038 C 
BRANCH  26  27
ATOM     27  C   UNL     1      -5.752 -12.594   0.045  1.00  0.00    -0.015 C 
ATOM     28  C   UNL     1      -4.657 -11.821  -0.690  1.00  0.00     0.007 C 
ATOM     29  C   UNL     1      -5.477 -12.619   1.547  1.00  0.00     0.007 C 
ENDBRANCH  26  27
ENDBRANCH  25  26
BRANCH  25  30
ATOM     30  C   UNL     1      -7.613  -9.583   0.146  1.00  0.00     0.243 C 
ATOM     31  O   UNL     1      -7.434  -8.386  -0.078  1.00  0.00    -0.273 OA
ATOM     32  N   UNL     1      -8.111 -10.042   1.337  1.00  0.00    -0.342 N 
ATOM     33  H   UNL     1      -8.363 -11.032   1.395  1.00  0.00     0.164 HD
BRANCH  32  34
ATOM     34  C   UNL     1      -8.456  -9.161   2.456  1.00  0.00     0.175 C 
BRANCH  34  35
ATOM     35  C   UNL     1      -7.230  -8.374   2.946  1.00  0.00     0.070 C 
BRANCH  35  36
ATOM     36  C   UNL     1      -6.149  -9.268   3.509  1.00  0.00    -0.045 A 
ATOM     37  C   UNL     1      -4.824  -9.132   3.067  1.00  0.00     0.007 A 
ATOM     38  C   UNL     1      -6.452 -10.254   4.457  1.00  0.00     0.007 A 
ATOM     39  C   UNL     1      -3.822  -9.962   3.571  1.00  0.00     0.046 A 
ATOM     40  C   UNL     1      -5.450 -11.086   4.962  1.00  0.00     0.046 A 
ATOM     41  C   UNL     1      -4.142 -10.931   4.514  1.00  0.00     0.115 A 
BRANCH  41  42
ATOM     42  O   UNL     1      -3.134 -11.723   4.979  1.00  0.00    -0.508 OA
ATOM     43  H   UNL     1      -2.993 -11.516   5.917  1.00  0.00     0.293 HD
ENDBRANCH  41  42
ENDBRANCH  35  36
ENDBRANCH  34  35
BRANCH  34  44
ATOM     44  C   UNL     1      -9.595  -8.225   1.994  1.00  0.00     0.243 C 
ATOM     45  O   UNL     1     -10.745  -8.591   1.766  1.00  0.00    -0.273 OA
ATOM     46  N   UNL     1      -9.176  -6.938   1.729  1.00  0.00    -0.341 N 
ATOM     47  H   UNL     1      -8.188  -6.712   1.821  1.00  0.00     0.164 HD
BRANCH  46  48
ATOM     48  C   UNL     1     -10.062  -5.892   1.215  1.00  0.00     0.196 C 
BRANCH  48  49
ATOM     49  C   UNL     1     -10.508  -4.936   2.334  1.00  0.00     0.072 C 
BRANCH  49  50
ATOM     50  C   UNL     1     -11.906  -4.402   2.120  1.00  0.00    -0.045 A 
ATOM     51  C   UNL     1     -12.364  -3.316   2.881  1.00  0.00     0.007 A 
ATOM     52  C   UNL     1     -12.766  -4.988   1.183  1.00  0.00     0.007 A 
ATOM     53  C   UNL     1     -13.656  -2.823   2.702  1.00  0.00     0.046 A 
ATOM     54  C   UNL     1     -14.061  -4.495   1.004  1.00  0.00     0.046 A 
ATOM     55  C   UNL     1     -14.494  -3.415   1.765  1.00  0.00     0.115 A 
BRANCH  55  56
ATOM     56  O   UNL     1     -15.750  -2.904   1.622  1.00  0.00    -0.508 OA
ATOM     57  H   UNL     1     -15.724  -1.960   1.842  1.00  0.00     0.293 HD
ENDBRANCH  55  56
ENDBRANCH  49  50
ENDBRANCH  48  49
BRANCH  48  58
ATOM     58  C   UNL     1      -9.321  -5.101   0.128  1.00  0.00     0.326 C 
ATOM     59  O   UNL     1      -9.707  -4.096  -0.448  1.00  0.00    -0.250 OA
BRANCH  58  60
ATOM     60  O   UNL     1      -8.103  -5.612  -0.179  1.00  0.00    -0.480 OA
ATOM     61  H   UNL     1      -7.502  -4.842  -0.080  1.00  0.00     0.296 HD
ENDBRANCH  58  60
ENDBRANCH  48  58
ENDBRANCH  46  48
ENDBRANCH  34  44
ENDBRANCH  32  34
ENDBRANCH  25  30
ENDBRANCH  23  25
ENDBRANCH   2  23
TORSDOF 28
ENDMDL
MODEL 24
REMARK VINA RESULT:    -5.608     13.140     17.817
REMARK INTER + INTRA:         -20.143
REMARK INTER:                 -13.719
REMARK INTRA:                  -6.424
REMARK UNBOUND:                -6.175
REMARK SMILES CCCCCCC[C@H](N)[C@H](O)C(=O)N[C@H](C)C(=O)N(C)[C@H](CC(C)C)C(=O)N[C@@H](Cc1ccc(O)cc1)C(=O)N[C@@H](Cc1ccc(O)cc1)C(=O)O
REMARK SMILES IDX 18 1 17 2 15 3 16 4 14 5 12 6 13 7 10 9 11 10 8 12 9 13 7 16
REMARK SMILES IDX 6 17 5 18 4 19 3 20 2 21 1 22 19 23 20 24 21 25 22 26 23 27
REMARK SMILES IDX 24 28 25 29 26 30 27 31 28 32 29 34 30 35 31 36 32 37 37 38
REMARK SMILES IDX 33 39 36 40 34 41 35 42 38 44 39 45 40 46 41 48 42 49 43 50
REMARK SMILES IDX 44 51 49 52 45 53 48 54 46 55 47 56 50 58 51 59 52 60
REMARK H PARENT 14 8 11 11 9 14 9 15 28 33 35 43 40 47 47 57 52 61
ROOT
ATOM      1  O   UNL     1      -1.981   0.971   3.725  1.00  0.00    -0.272 OA
ATOM      2  C   UNL     1      -1.278   1.849   3.203  1.00  0.00     0.245 C 
ENDROOT
BRANCH   2   3
ATOM      3  C   UNL     1      -0.696   1.591   1.791  1.00  0.00     0.168 C 
ATOM      4  C   UNL     1      -0.773   0.109   1.437  1.00  0.00     0.041 C 
BRANCH   3   5
ATOM      5  N   UNL     1      -1.250   2.428   0.739  1.00  0.00    -0.342 N 
ATOM      6  C   UNL     1      -0.614   2.590  -0.474  1.00  0.00     0.251 C 
ATOM      7  O   UNL     1       0.470   2.083  -0.742  1.00  0.00    -0.272 OA
ATOM      8  H   UNL     1      -2.128   2.928   0.858  1.00  0.00     0.164 HD
BRANCH   6   9
ATOM      9  C   UNL     1      -1.449   3.400  -1.480  1.00  0.00     0.219 C 
BRANCH   9  10
ATOM     10  O   UNL     1      -0.673   3.871  -2.589  1.00  0.00    -0.382 OA
ATOM     11  H   UNL     1       0.254   3.713  -2.305  1.00  0.00     0.211 HD
ENDBRANCH   9  10
BRANCH   9  12
ATOM     12  C   UNL     1      -2.711   2.644  -1.972  1.00  0.00     0.089 C 
BRANCH  12  13
ATOM     13  N   UNL     1      -2.593   1.224  -1.567  1.00  0.00    -0.325 NA
ATOM     14  H   UNL     1      -2.685   0.631  -2.394  1.00  0.00     0.119 HD
ATOM     15  H   UNL     1      -3.390   0.982  -0.974  1.00  0.00     0.119 HD
ENDBRANCH  12  13
BRANCH  12  16
ATOM     16  C   UNL     1      -4.070   3.218  -1.505  1.00  0.00     0.022 C 
BRANCH  16  17
ATOM     17  C   UNL     1      -4.192   4.725  -1.237  1.00  0.00     0.002 C 
BRANCH  17  18
ATOM     18  C   UNL     1      -4.087   5.128   0.232  1.00  0.00     0.000 C 
BRANCH  18  19
ATOM     19  C   UNL     1      -5.241   6.014   0.721  1.00  0.00    -0.000 C 
BRANCH  19  20
ATOM     20  C   UNL     1      -6.291   6.357  -0.340  1.00  0.00    -0.000 C 
BRANCH  20  21
ATOM     21  C   UNL     1      -6.346   7.851  -0.668  1.00  0.00    -0.003 C 
ATOM     22  C   UNL     1      -5.349   8.218  -1.756  1.00  0.00     0.004 C 
ENDBRANCH  20  21
ENDBRANCH  19  20
ENDBRANCH  18  19
ENDBRANCH  17  18
ENDBRANCH  16  17
ENDBRANCH  12  16
ENDBRANCH   9  12
ENDBRANCH   6   9
ENDBRANCH   3   5
ENDBRANCH   2   3
BRANCH   2  23
ATOM     23  N   UNL     1      -1.126   3.082   3.829  1.00  0.00    -0.332 N 
ATOM     24  C   UNL     1      -1.378   4.367   3.194  1.00  0.00     0.147 C 
BRANCH  23  25
ATOM     25  C   UNL     1      -0.805   3.153   5.281  1.00  0.00     0.174 C 
BRANCH  25  26
ATOM     26  C   UNL     1       0.463   2.351   5.657  1.00  0.00     0.038 C 
BRANCH  26  27
ATOM     27  C   UNL     1       1.826   2.997   5.317  1.00  0.00    -0.015 C 
ATOM     28  C   UNL     1       2.394   2.498   3.989  1.00  0.00     0.007 C 
ATOM     29  C   UNL     1       1.800   4.523   5.352  1.00  0.00     0.007 C 
ENDBRANCH  26  27
ENDBRANCH  25  26
BRANCH  25  30
ATOM     30  C   UNL     1      -2.048   2.778   6.119  1.00  0.00     0.243 C 
ATOM     31  O   UNL     1      -1.951   2.279   7.239  1.00  0.00    -0.273 OA
ATOM     32  N   UNL     1      -3.260   3.032   5.530  1.00  0.00    -0.342 N 
ATOM     33  H   UNL     1      -3.260   3.575   4.663  1.00  0.00     0.164 HD
BRANCH  32  34
ATOM     34  C   UNL     1      -4.543   2.717   6.165  1.00  0.00     0.175 C 
BRANCH  34  35
ATOM     35  C   UNL     1      -5.205   3.977   6.743  1.00  0.00     0.070 C 
BRANCH  35  36
ATOM     36  C   UNL     1      -6.248   4.565   5.820  1.00  0.00    -0.045 A 
ATOM     37  C   UNL     1      -5.856   5.219   4.643  1.00  0.00     0.007 A 
ATOM     38  C   UNL     1      -7.612   4.486   6.135  1.00  0.00     0.007 A 
ATOM     39  C   UNL     1      -6.811   5.777   3.792  1.00  0.00     0.046 A 
ATOM     40  C   UNL     1      -8.568   5.045   5.284  1.00  0.00     0.046 A 
ATOM     41  C   UNL     1      -8.159   5.685   4.119  1.00  0.00     0.115 A 
BRANCH  41  42
ATOM     42  O   UNL     1      -9.059   6.245   3.262  1.00  0.00    -0.508 OA
ATOM     43  H   UNL     1      -9.098   5.698   2.460  1.00  0.00     0.293 HD
ENDBRANCH  41  42
ENDBRANCH  35  36
ENDBRANCH  34  35
BRANCH  34  44
ATOM     44  C   UNL     1      -5.439   2.023   5.115  1.00  0.00     0.243 C 
ATOM     45  O   UNL     1      -6.421   1.337   5.386  1.00  0.00    -0.273 OA
ATOM     46  N   UNL     1      -4.962   2.135   3.826  1.00  0.00    -0.341 N 
ATOM     47  H   UNL     1      -4.080   2.616   3.666  1.00  0.00     0.164 HD
BRANCH  46  48
ATOM     48  C   UNL     1      -5.605   1.503   2.672  1.00  0.00     0.196 C 
BRANCH  48  49
ATOM     49  C   UNL     1      -6.124   2.554   1.676  1.00  0.00     0.072 C 
BRANCH  49  50
ATOM     50  C   UNL     1      -7.610   2.796   1.808  1.00  0.00    -0.045 A 
ATOM     51  C   UNL     1      -8.277   3.584   0.858  1.00  0.00     0.007 A 
ATOM     52  C   UNL     1      -8.335   2.263   2.881  1.00  0.00     0.007 A 
ATOM     53  C   UNL     1      -9.646   3.825   0.977  1.00  0.00     0.046 A 
ATOM     54  C   UNL     1      -9.705   2.505   3.001  1.00  0.00     0.046 A 
ATOM     55  C   UNL     1     -10.350   3.284   2.046  1.00  0.00     0.115 A 
BRANCH  55  56
ATOM     56  O   UNL     1     -11.685   3.546   2.127  1.00  0.00    -0.508 OA
ATOM     57  H   UNL     1     -11.929   3.605   3.064  1.00  0.00     0.293 HD
ENDBRANCH  55  56
ENDBRANCH  49  50
ENDBRANCH  48  49
BRANCH  48  58
ATOM     58  C   UNL     1      -4.588   0.589   1.973  1.00  0.00     0.326 C 
ATOM     59  O   UNL     1      -4.059   0.766   0.888  1.00  0.00    -0.250 OA
BRANCH  58  60
ATOM     60  O   UNL     1      -4.270  -0.516   2.692  1.00  0.00    -0.480 OA
ATOM     61  H   UNL     1      -4.691  -1.244   2.186  1.00  0.00     0.296 HD
ENDBRANCH  58  60
ENDBRANCH  48  58
ENDBRANCH  46  48
ENDBRANCH  34  44
ENDBRANCH  32  34
ENDBRANCH  25  30
ENDBRANCH  23  25
ENDBRANCH   2  23
TORSDOF 28
ENDMDL
MODEL 25
REMARK VINA RESULT:    -5.604     13.236     17.569
REMARK INTER + INTRA:         -20.134
REMARK INTER:                 -15.400
REMARK INTRA:                  -4.734
REMARK UNBOUND:                -6.175
REMARK SMILES CCCCCCC[C@H](N)[C@H](O)C(=O)N[C@H](C)C(=O)N(C)[C@H](CC(C)C)C(=O)N[C@@H](Cc1ccc(O)cc1)C(=O)N[C@@H](Cc1ccc(O)cc1)C(=O)O
REMARK SMILES IDX 18 1 17 2 15 3 16 4 14 5 12 6 13 7 10 9 11 10 8 12 9 13 7 16
REMARK SMILES IDX 6 17 5 18 4 19 3 20 2 21 1 22 19 23 20 24 21 25 22 26 23 27
REMARK SMILES IDX 24 28 25 29 26 30 27 31 28 32 29 34 30 35 31 36 32 37 37 38
REMARK SMILES IDX 33 39 36 40 34 41 35 42 38 44 39 45 40 46 41 48 42 49 43 50
REMARK SMILES IDX 44 51 49 52 45 53 48 54 46 55 47 56 50 58 51 59 52 60
REMARK H PARENT 14 8 11 11 9 14 9 15 28 33 35 43 40 47 47 57 52 61
ROOT
ATOM      1  O   UNL     1      -3.612   5.576   3.816  1.00  0.00    -0.272 OA
ATOM      2  C   UNL     1      -3.556   4.434   4.296  1.00  0.00     0.245 C 
ENDROOT
BRANCH   2   3
ATOM      3  C   UNL     1      -2.404   4.098   5.276  1.00  0.00     0.168 C 
ATOM      4  C   UNL     1      -2.948   3.487   6.562  1.00  0.00     0.041 C 
BRANCH   3   5
ATOM      5  N   UNL     1      -1.332   3.296   4.706  1.00  0.00    -0.342 N 
ATOM      6  C   UNL     1      -0.004   3.587   4.936  1.00  0.00     0.251 C 
ATOM      7  O   UNL     1       0.373   4.552   5.593  1.00  0.00    -0.272 OA
ATOM      8  H   UNL     1      -1.521   2.490   4.116  1.00  0.00     0.164 HD
BRANCH   6   9
ATOM      9  C   UNL     1       0.946   2.527   4.357  1.00  0.00     0.219 C 
BRANCH   9  10
ATOM     10  O   UNL     1       0.375   1.820   3.249  1.00  0.00    -0.382 OA
ATOM     11  H   UNL     1       1.155   1.424   2.801  1.00  0.00     0.211 HD
ENDBRANCH   9  10
BRANCH   9  12
ATOM     12  C   UNL     1       2.341   3.096   3.987  1.00  0.00     0.089 C 
BRANCH  12  13
ATOM     13  N   UNL     1       3.000   3.561   5.229  1.00  0.00    -0.325 NA
ATOM     14  H   UNL     1       2.323   3.545   5.995  1.00  0.00     0.119 HD
ATOM     15  H   UNL     1       3.255   4.545   5.120  1.00  0.00     0.119 HD
ENDBRANCH  12  13
BRANCH  12  16
ATOM     16  C   UNL     1       3.280   2.139   3.213  1.00  0.00     0.022 C 
BRANCH  16  17
ATOM     17  C   UNL     1       3.772   2.544   1.817  1.00  0.00     0.002 C 
BRANCH  17  18
ATOM     18  C   UNL     1       2.675   2.969   0.844  1.00  0.00     0.000 C 
BRANCH  18  19
ATOM     19  C   UNL     1       3.186   3.755  -0.370  1.00  0.00    -0.000 C 
BRANCH  19  20
ATOM     20  C   UNL     1       4.004   2.939  -1.375  1.00  0.00    -0.000 C 
BRANCH  20  21
ATOM     21  C   UNL     1       5.417   3.487  -1.584  1.00  0.00    -0.003 C 
ATOM     22  C   UNL     1       5.652   4.744  -0.760  1.00  0.00     0.004 C 
ENDBRANCH  20  21
ENDBRANCH  19  20
ENDBRANCH  18  19
ENDBRANCH  17  18
ENDBRANCH  16  17
ENDBRANCH  12  16
ENDBRANCH   9  12
ENDBRANCH   6   9
ENDBRANCH   3   5
ENDBRANCH   2   3
BRANCH   2  23
ATOM     23  N   UNL     1      -4.579   3.525   4.049  1.00  0.00    -0.332 N 
ATOM     24  C   UNL     1      -4.380   2.104   3.807  1.00  0.00     0.147 C 
BRANCH  23  25
ATOM     25  C   UNL     1      -6.002   3.951   4.146  1.00  0.00     0.174 C 
BRANCH  25  26
ATOM     26  C   UNL     1      -6.823   3.087   5.131  1.00  0.00     0.038 C 
BRANCH  26  27
ATOM     27  C   UNL     1      -7.546   3.828   6.278  1.00  0.00    -0.015 C 
ATOM     28  C   UNL     1      -6.598   4.701   7.098  1.00  0.00     0.007 C 
ATOM     29  C   UNL     1      -8.754   4.637   5.811  1.00  0.00     0.007 C 
ENDBRANCH  26  27
ENDBRANCH  25  26
BRANCH  25  30
ATOM     30  C   UNL     1      -6.626   4.048   2.735  1.00  0.00     0.243 C 
ATOM     31  O   UNL     1      -7.775   3.674   2.505  1.00  0.00    -0.273 OA
ATOM     32  N   UNL     1      -5.814   4.571   1.762  1.00  0.00    -0.342 N 
ATOM     33  H   UNL     1      -4.928   4.989   2.058  1.00  0.00     0.164 HD
BRANCH  32  34
ATOM     34  C   UNL     1      -6.227   4.713   0.363  1.00  0.00     0.175 C 
BRANCH  34  35
ATOM     35  C   UNL     1      -6.292   6.190  -0.053  1.00  0.00     0.070 C 
BRANCH  35  36
ATOM     36  C   UNL     1      -7.473   6.917   0.550  1.00  0.00    -0.045 A 
ATOM     37  C   UNL     1      -7.269   8.082   1.305  1.00  0.00     0.007 A 
ATOM     38  C   UNL     1      -8.777   6.429   0.388  1.00  0.00     0.007 A 
ATOM     39  C   UNL     1      -8.351   8.751   1.878  1.00  0.00     0.046 A 
ATOM     40  C   UNL     1      -9.860   7.098   0.962  1.00  0.00     0.046 A 
ATOM     41  C   UNL     1      -9.637   8.255   1.701  1.00  0.00     0.115 A 
BRANCH  41  42
ATOM     42  O   UNL     1     -10.667   8.937   2.280  1.00  0.00    -0.508 OA
ATOM     43  H   UNL     1     -10.605   9.868   2.010  1.00  0.00     0.293 HD
ENDBRANCH  41  42
ENDBRANCH  35  36
ENDBRANCH  34  35
BRANCH  34  44
ATOM     44  C   UNL     1      -5.239   3.910  -0.512  1.00  0.00     0.243 C 
ATOM     45  O   UNL     1      -5.479   3.522  -1.652  1.00  0.00    -0.273 OA
ATOM     46  N   UNL     1      -4.088   3.545   0.153  1.00  0.00    -0.341 N 
ATOM     47  H   UNL     1      -3.986   3.790   1.135  1.00  0.00     0.164 HD
BRANCH  46  48
ATOM     48  C   UNL     1      -3.035   2.723  -0.448  1.00  0.00     0.196 C 
BRANCH  48  49
ATOM     49  C   UNL     1      -1.736   3.525  -0.633  1.00  0.00     0.072 C 
BRANCH  49  50
ATOM     50  C   UNL     1      -0.954   3.091  -1.853  1.00  0.00    -0.045 A 
ATOM     51  C   UNL     1      -1.295   3.594  -3.117  1.00  0.00     0.007 A 
ATOM     52  C   UNL     1       0.100   2.175  -1.745  1.00  0.00     0.007 A 
ATOM     53  C   UNL     1      -0.590   3.191  -4.251  1.00  0.00     0.046 A 
ATOM     54  C   UNL     1       0.806   1.771  -2.881  1.00  0.00     0.046 A 
ATOM     55  C   UNL     1       0.455   2.284  -4.125  1.00  0.00     0.115 A 
BRANCH  55  56
ATOM     56  O   UNL     1       1.118   1.915  -5.257  1.00  0.00    -0.508 OA
ATOM     57  H   UNL     1       2.053   2.154  -5.157  1.00  0.00     0.293 HD
ENDBRANCH  55  56
ENDBRANCH  49  50
ENDBRANCH  48  49
BRANCH  48  58
ATOM     58  C   UNL     1      -2.768   1.512   0.457  1.00  0.00     0.326 C 
ATOM     59  O   UNL     1      -1.848   1.367   1.245  1.00  0.00    -0.250 OA
BRANCH  58  60
ATOM     60  O   UNL     1      -3.697   0.531   0.336  1.00  0.00    -0.480 OA
ATOM     61  H   UNL     1      -3.476  -0.082   1.070  1.00  0.00     0.296 HD
ENDBRANCH  58  60
ENDBRANCH  48  58
ENDBRANCH  46  48
ENDBRANCH  34  44
ENDBRANCH  32  34
ENDBRANCH  25  30
ENDBRANCH  23  25
ENDBRANCH   2  23
TORSDOF 28
ENDMDL
MODEL 26
REMARK VINA RESULT:    -5.572     13.283     19.159
REMARK INTER + INTRA:         -20.054
REMARK INTER:                 -14.331
REMARK INTRA:                  -5.723
REMARK UNBOUND:                -6.175
REMARK SMILES CCCCCCC[C@H](N)[C@H](O)C(=O)N[C@H](C)C(=O)N(C)[C@H](CC(C)C)C(=O)N[C@@H](Cc1ccc(O)cc1)C(=O)N[C@@H](Cc1ccc(O)cc1)C(=O)O
REMARK SMILES IDX 18 1 17 2 15 3 16 4 14 5 12 6 13 7 10 9 11 10 8 12 9 13 7 16
REMARK SMILES IDX 6 17 5 18 4 19 3 20 2 21 1 22 19 23 20 24 21 25 22 26 23 27
REMARK SMILES IDX 24 28 25 29 26 30 27 31 28 32 29 34 30 35 31 36 32 37 37 38
REMARK SMILES IDX 33 39 36 40 34 41 35 42 38 44 39 45 40 46 41 48 42 49 43 50
REMARK SMILES IDX 44 51 49 52 45 53 48 54 46 55 47 56 50 58 51 59 52 60
REMARK H PARENT 14 8 11 11 9 14 9 15 28 33 35 43 40 47 47 57 52 61
ROOT
ATOM      1  O   UNL     1       3.044   7.015  -3.606  1.00  0.00    -0.272 OA
ATOM      2  C   UNL     1       2.711   5.981  -4.203  1.00  0.00     0.245 C 
ENDROOT
BRANCH   2   3
ATOM      3  C   UNL     1       3.672   4.766  -4.175  1.00  0.00     0.168 C 
ATOM      4  C   UNL     1       4.865   4.998  -5.096  1.00  0.00     0.041 C 
BRANCH   3   5
ATOM      5  N   UNL     1       4.088   4.347  -2.845  1.00  0.00    -0.342 N 
ATOM      6  C   UNL     1       3.569   3.221  -2.242  1.00  0.00     0.251 C 
ATOM      7  O   UNL     1       2.700   2.520  -2.751  1.00  0.00    -0.272 OA
ATOM      8  H   UNL     1       4.777   4.869  -2.309  1.00  0.00     0.164 HD
BRANCH   6   9
ATOM      9  C   UNL     1       4.255   2.893  -0.906  1.00  0.00     0.219 C 
BRANCH   9  10
ATOM     10  O   UNL     1       5.643   3.247  -0.896  1.00  0.00    -0.382 OA
ATOM     11  H   UNL     1       5.858   3.313   0.060  1.00  0.00     0.211 HD
ENDBRANCH   9  10
BRANCH   9  12
ATOM     12  C   UNL     1       3.523   3.498   0.320  1.00  0.00     0.089 C 
BRANCH  12  13
ATOM     13  N   UNL     1       2.318   4.212  -0.161  1.00  0.00    -0.325 NA
ATOM     14  H   UNL     1       2.122   3.929  -1.123  1.00  0.00     0.119 HD
ATOM     15  H   UNL     1       2.524   5.212  -0.213  1.00  0.00     0.119 HD
ENDBRANCH  12  13
BRANCH  12  16
ATOM     16  C   UNL     1       3.140   2.503   1.441  1.00  0.00     0.022 C 
BRANCH  16  17
ATOM     17  C   UNL     1       1.938   2.819   2.342  1.00  0.00     0.002 C 
BRANCH  17  18
ATOM     18  C   UNL     1       1.832   1.959   3.600  1.00  0.00     0.000 C 
BRANCH  18  19
ATOM     19  C   UNL     1       2.066   2.731   4.905  1.00  0.00    -0.000 C 
BRANCH  19  20
ATOM     20  C   UNL     1       2.880   4.021   4.761  1.00  0.00    -0.000 C 
BRANCH  20  21
ATOM     21  C   UNL     1       2.452   5.113   5.745  1.00  0.00    -0.003 C 
ATOM     22  C   UNL     1       3.413   6.291   5.718  1.00  0.00     0.004 C 
ENDBRANCH  20  21
ENDBRANCH  19  20
ENDBRANCH  18  19
ENDBRANCH  17  18
ENDBRANCH  16  17
ENDBRANCH  12  16
ENDBRANCH   9  12
ENDBRANCH   6   9
ENDBRANCH   3   5
ENDBRANCH   2   3
BRANCH   2  23
ATOM     23  N   UNL     1       1.447   5.885  -4.776  1.00  0.00    -0.332 N 
ATOM     24  C   UNL     1       0.649   7.021  -5.211  1.00  0.00     0.147 C 
BRANCH  23  25
ATOM     25  C   UNL     1       0.871   4.552  -5.104  1.00  0.00     0.174 C 
BRANCH  25  26
ATOM     26  C   UNL     1       0.692   4.331  -6.625  1.00  0.00     0.038 C 
BRANCH  26  27
ATOM     27  C   UNL     1       1.218   3.000  -7.205  1.00  0.00    -0.015 C 
ATOM     28  C   UNL     1       1.842   2.102  -6.137  1.00  0.00     0.007 C 
ATOM     29  C   UNL     1       0.172   2.231  -8.008  1.00  0.00     0.007 C 
ENDBRANCH  26  27
ENDBRANCH  25  26
BRANCH  25  30
ATOM     30  C   UNL     1      -0.419   4.314  -4.286  1.00  0.00     0.243 C 
ATOM     31  O   UNL     1      -1.411   5.030  -4.412  1.00  0.00    -0.273 OA
ATOM     32  N   UNL     1      -0.380   3.260  -3.409  1.00  0.00    -0.342 N 
ATOM     33  H   UNL     1       0.424   2.628  -3.464  1.00  0.00     0.164 HD
BRANCH  32  34
ATOM     34  C   UNL     1      -1.499   2.903  -2.534  1.00  0.00     0.175 C 
BRANCH  34  35
ATOM     35  C   UNL     1      -2.253   1.673  -3.063  1.00  0.00     0.070 C 
BRANCH  35  36
ATOM     36  C   UNL     1      -3.010   1.957  -4.341  1.00  0.00    -0.045 A 
ATOM     37  C   UNL     1      -4.154   2.769  -4.313  1.00  0.00     0.007 A 
ATOM     38  C   UNL     1      -2.599   1.400  -5.559  1.00  0.00     0.007 A 
ATOM     39  C   UNL     1      -4.867   3.025  -5.484  1.00  0.00     0.046 A 
ATOM     40  C   UNL     1      -3.314   1.655  -6.732  1.00  0.00     0.046 A 
ATOM     41  C   UNL     1      -4.441   2.467  -6.684  1.00  0.00     0.115 A 
BRANCH  41  42
ATOM     42  O   UNL     1      -5.168   2.740  -7.805  1.00  0.00    -0.508 OA
ATOM     43  H   UNL     1      -5.422   3.678  -7.783  1.00  0.00     0.293 HD
ENDBRANCH  41  42
ENDBRANCH  35  36
ENDBRANCH  34  35
BRANCH  34  44
ATOM     44  C   UNL     1      -0.939   2.669  -1.112  1.00  0.00     0.243 C 
ATOM     45  O   UNL     1       0.229   2.381  -0.865  1.00  0.00    -0.273 OA
ATOM     46  N   UNL     1      -1.908   2.683  -0.132  1.00  0.00    -0.341 N 
ATOM     47  H   UNL     1      -2.881   2.810  -0.400  1.00  0.00     0.164 HD
BRANCH  46  48
ATOM     48  C   UNL     1      -1.628   2.419   1.282  1.00  0.00     0.196 C 
BRANCH  48  49
ATOM     49  C   UNL     1      -2.669   3.090   2.194  1.00  0.00     0.072 C 
BRANCH  49  50
ATOM     50  C   UNL     1      -2.138   3.357   3.584  1.00  0.00    -0.045 A 
ATOM     51  C   UNL     1      -1.511   4.578   3.870  1.00  0.00     0.007 A 
ATOM     52  C   UNL     1      -2.242   2.391   4.593  1.00  0.00     0.007 A 
ATOM     53  C   UNL     1      -1.005   4.831   5.146  1.00  0.00     0.046 A 
ATOM     54  C   UNL     1      -1.735   2.643   5.870  1.00  0.00     0.046 A 
ATOM     55  C   UNL     1      -1.121   3.862   6.135  1.00  0.00     0.115 A 
BRANCH  55  56
ATOM     56  O   UNL     1      -0.612   4.147   7.368  1.00  0.00    -0.508 OA
ATOM     57  H   UNL     1      -0.930   3.475   7.993  1.00  0.00     0.293 HD
ENDBRANCH  55  56
ENDBRANCH  49  50
ENDBRANCH  48  49
BRANCH  48  58
ATOM     58  C   UNL     1      -1.640   0.902   1.518  1.00  0.00     0.326 C 
ATOM     59  O   UNL     1      -2.603   0.203   1.786  1.00  0.00    -0.250 OA
BRANCH  58  60
ATOM     60  O   UNL     1      -0.419   0.325   1.387  1.00  0.00    -0.480 OA
ATOM     61  H   UNL     1       0.016   0.869   0.695  1.00  0.00     0.296 HD
ENDBRANCH  58  60
ENDBRANCH  48  58
ENDBRANCH  46  48
ENDBRANCH  34  44
ENDBRANCH  32  34
ENDBRANCH  25  30
ENDBRANCH  23  25
ENDBRANCH   2  23
TORSDOF 28
ENDMDL
MODEL 27
REMARK VINA RESULT:    -5.571      1.759      3.017
REMARK INTER + INTRA:         -20.052
REMARK INTER:                 -15.381
REMARK INTRA:                  -4.670
REMARK UNBOUND:                -6.175
REMARK SMILES CCCCCCC[C@H](N)[C@H](O)C(=O)N[C@H](C)C(=O)N(C)[C@H](CC(C)C)C(=O)N[C@@H](Cc1ccc(O)cc1)C(=O)N[C@@H](Cc1ccc(O)cc1)C(=O)O
REMARK SMILES IDX 18 1 17 2 15 3 16 4 14 5 12 6 13 7 10 9 11 10 8 12 9 13 7 16
REMARK SMILES IDX 6 17 5 18 4 19 3 20 2 21 1 22 19 23 20 24 21 25 22 26 23 27
REMARK SMILES IDX 24 28 25 29 26 30 27 31 28 32 29 34 30 35 31 36 32 37 37 38
REMARK SMILES IDX 33 39 36 40 34 41 35 42 38 44 39 45 40 46 41 48 42 49 43 50
REMARK SMILES IDX 44 51 49 52 45 53 48 54 46 55 47 56 50 58 51 59 52 60
REMARK H PARENT 14 8 11 11 9 14 9 15 28 33 35 43 40 47 47 57 52 61
ROOT
ATOM      1  O   UNL     1     -18.537   1.504  -9.567  1.00  0.00    -0.272 OA
ATOM      2  C   UNL     1     -17.472   1.111  -9.068  1.00  0.00     0.245 C 
ENDROOT
BRANCH   2   3
ATOM      3  C   UNL     1     -16.319   0.695 -10.014  1.00  0.00     0.168 C 
ATOM      4  C   UNL     1     -16.768   0.746 -11.470  1.00  0.00     0.041 C 
BRANCH   3   5
ATOM      5  N   UNL     1     -15.070   1.410  -9.807  1.00  0.00    -0.342 N 
ATOM      6  C   UNL     1     -13.949   0.787  -9.301  1.00  0.00     0.251 C 
ATOM      7  O   UNL     1     -13.928  -0.389  -8.953  1.00  0.00    -0.272 OA
ATOM      8  H   UNL     1     -14.975   2.399 -10.026  1.00  0.00     0.164 HD
BRANCH   6   9
ATOM      9  C   UNL     1     -12.710   1.698  -9.302  1.00  0.00     0.219 C 
BRANCH   9  10
ATOM     10  O   UNL     1     -12.954   2.960  -9.934  1.00  0.00    -0.382 OA
ATOM     11  H   UNL     1     -12.734   2.793 -10.877  1.00  0.00     0.211 HD
ENDBRANCH   9  10
BRANCH   9  12
ATOM     12  C   UNL     1     -12.100   1.897  -7.891  1.00  0.00     0.089 C 
BRANCH  12  13
ATOM     13  N   UNL     1     -13.201   1.898  -6.901  1.00  0.00    -0.325 NA
ATOM     14  H   UNL     1     -13.094   2.703  -6.280  1.00  0.00     0.119 HD
ATOM     15  H   UNL     1     -13.103   1.079  -6.295  1.00  0.00     0.119 HD
ENDBRANCH  12  13
BRANCH  12  16
ATOM     16  C   UNL     1     -11.011   0.879  -7.473  1.00  0.00     0.022 C 
BRANCH  16  17
ATOM     17  C   UNL     1      -9.587   1.381  -7.195  1.00  0.00     0.002 C 
BRANCH  17  18
ATOM     18  C   UNL     1      -9.063   2.416  -8.187  1.00  0.00     0.000 C 
BRANCH  18  19
ATOM     19  C   UNL     1      -9.029   3.848  -7.636  1.00  0.00    -0.000 C 
BRANCH  19  20
ATOM     20  C   UNL     1      -9.884   4.860  -8.404  1.00  0.00    -0.000 C 
BRANCH  20  21
ATOM     21  C   UNL     1     -11.053   5.405  -7.580  1.00  0.00    -0.003 C 
ATOM     22  C   UNL     1     -11.001   4.904  -6.145  1.00  0.00     0.004 C 
ENDBRANCH  20  21
ENDBRANCH  19  20
ENDBRANCH  18  19
ENDBRANCH  17  18
ENDBRANCH  16  17
ENDBRANCH  12  16
ENDBRANCH   9  12
ENDBRANCH   6   9
ENDBRANCH   3   5
ENDBRANCH   2   3
BRANCH   2  23
ATOM     23  N   UNL     1     -17.289   1.165  -7.690  1.00  0.00    -0.332 N 
ATOM     24  C   UNL     1     -16.768   0.072  -6.883  1.00  0.00     0.147 C 
BRANCH  23  25
ATOM     25  C   UNL     1     -17.505   2.441  -6.953  1.00  0.00     0.174 C 
BRANCH  25  26
ATOM     26  C   UNL     1     -18.969   2.627  -6.489  1.00  0.00     0.038 C 
BRANCH  26  27
ATOM     27  C   UNL     1     -19.208   2.786  -4.971  1.00  0.00    -0.015 C 
ATOM     28  C   UNL     1     -18.956   1.491  -4.201  1.00  0.00     0.007 C 
ATOM     29  C   UNL     1     -18.424   3.941  -4.351  1.00  0.00     0.007 C 
ENDBRANCH  26  27
ENDBRANCH  25  26
BRANCH  25  30
ATOM     30  C   UNL     1     -16.957   3.630  -7.775  1.00  0.00     0.243 C 
ATOM     31  O   UNL     1     -15.753   3.788  -7.965  1.00  0.00    -0.273 OA
ATOM     32  N   UNL     1     -17.900   4.494  -8.269  1.00  0.00    -0.342 N 
ATOM     33  H   UNL     1     -18.883   4.219  -8.190  1.00  0.00     0.164 HD
BRANCH  32  34
ATOM     34  C   UNL     1     -17.563   5.690  -9.046  1.00  0.00     0.175 C 
BRANCH  34  35
ATOM     35  C   UNL     1     -16.354   6.423  -8.446  1.00  0.00     0.070 C 
BRANCH  35  36
ATOM     36  C   UNL     1     -16.746   7.427  -7.386  1.00  0.00    -0.045 A 
ATOM     37  C   UNL     1     -16.221   8.728  -7.423  1.00  0.00     0.007 A 
ATOM     38  C   UNL     1     -17.614   7.072  -6.345  1.00  0.00     0.007 A 
ATOM     39  C   UNL     1     -16.567   9.657  -6.441  1.00  0.00     0.046 A 
ATOM     40  C   UNL     1     -17.959   8.001  -5.361  1.00  0.00     0.046 A 
ATOM     41  C   UNL     1     -17.433   9.287  -5.419  1.00  0.00     0.115 A 
BRANCH  41  42
ATOM     42  O   UNL     1     -17.742  10.224  -4.478  1.00  0.00    -0.508 OA
ATOM     43  H   UNL     1     -17.934  11.061  -4.933  1.00  0.00     0.293 HD
ENDBRANCH  41  42
ENDBRANCH  35  36
ENDBRANCH  34  35
BRANCH  34  44
ATOM     44  C   UNL     1     -17.308   5.255 -10.507  1.00  0.00     0.243 C 
ATOM     45  O   UNL     1     -17.930   4.368 -11.085  1.00  0.00    -0.273 OA
ATOM     46  N   UNL     1     -16.215   5.870 -11.080  1.00  0.00    -0.341 N 
ATOM     47  H   UNL     1     -15.661   6.513 -10.520  1.00  0.00     0.164 HD
BRANCH  46  48
ATOM     48  C   UNL     1     -15.738   5.569 -12.431  1.00  0.00     0.196 C 
BRANCH  48  49
ATOM     49  C   UNL     1     -14.427   6.312 -12.741  1.00  0.00     0.072 C 
BRANCH  49  50
ATOM     50  C   UNL     1     -14.655   7.608 -13.484  1.00  0.00    -0.045 A 
ATOM     51  C   UNL     1     -13.633   8.567 -13.545  1.00  0.00     0.007 A 
ATOM     52  C   UNL     1     -15.883   7.880 -14.100  1.00  0.00     0.007 A 
ATOM     53  C   UNL     1     -13.836   9.773 -14.217  1.00  0.00     0.046 A 
ATOM     54  C   UNL     1     -16.086   9.087 -14.772  1.00  0.00     0.046 A 
ATOM     55  C   UNL     1     -15.060  10.024 -14.826  1.00  0.00     0.115 A 
BRANCH  55  56
ATOM     56  O   UNL     1     -15.218  11.215 -15.471  1.00  0.00    -0.508 OA
ATOM     57  H   UNL     1     -15.843  11.086 -16.202  1.00  0.00     0.293 HD
ENDBRANCH  55  56
ENDBRANCH  49  50
ENDBRANCH  48  49
BRANCH  48  58
ATOM     58  C   UNL     1     -15.514   4.056 -12.556  1.00  0.00     0.326 C 
ATOM     59  O   UNL     1     -14.663   3.386 -11.995  1.00  0.00    -0.250 OA
BRANCH  58  60
ATOM     60  O   UNL     1     -16.397   3.444 -13.386  1.00  0.00    -0.480 OA
ATOM     61  H   UNL     1     -16.961   4.184 -13.700  1.00  0.00     0.296 HD
ENDBRANCH  58  60
ENDBRANCH  48  58
ENDBRANCH  46  48
ENDBRANCH  34  44
ENDBRANCH  32  34
ENDBRANCH  25  30
ENDBRANCH  23  25
ENDBRANCH   2  23
TORSDOF 28
ENDMDL
MODEL 28
REMARK VINA RESULT:    -5.540     13.151     16.748
REMARK INTER + INTRA:         -19.974
REMARK INTER:                 -16.178
REMARK INTRA:                  -3.796
REMARK UNBOUND:                -6.175
REMARK SMILES CCCCCCC[C@H](N)[C@H](O)C(=O)N[C@H](C)C(=O)N(C)[C@H](CC(C)C)C(=O)N[C@@H](Cc1ccc(O)cc1)C(=O)N[C@@H](Cc1ccc(O)cc1)C(=O)O
REMARK SMILES IDX 18 1 17 2 15 3 16 4 14 5 12 6 13 7 10 9 11 10 8 12 9 13 7 16
REMARK SMILES IDX 6 17 5 18 4 19 3 20 2 21 1 22 19 23 20 24 21 25 22 26 23 27
REMARK SMILES IDX 24 28 25 29 26 30 27 31 28 32 29 34 30 35 31 36 32 37 37 38
REMARK SMILES IDX 33 39 36 40 34 41 35 42 38 44 39 45 40 46 41 48 42 49 43 50
REMARK SMILES IDX 44 51 49 52 45 53 48 54 46 55 47 56 50 58 51 59 52 60
REMARK H PARENT 14 8 11 11 9 14 9 15 28 33 35 43 40 47 47 57 52 61
ROOT
ATOM      1  O   UNL     1      -6.294   1.273   6.137  1.00  0.00    -0.272 OA
ATOM      2  C   UNL     1      -5.932   2.362   5.668  1.00  0.00     0.245 C 
ENDROOT
BRANCH   2   3
ATOM      3  C   UNL     1      -5.241   3.381   6.609  1.00  0.00     0.168 C 
ATOM      4  C   UNL     1      -6.006   3.509   7.922  1.00  0.00     0.041 C 
BRANCH   3   5
ATOM      5  N   UNL     1      -3.823   3.146   6.829  1.00  0.00    -0.342 N 
ATOM      6  C   UNL     1      -2.861   3.651   5.979  1.00  0.00     0.251 C 
ATOM      7  O   UNL     1      -3.123   4.292   4.966  1.00  0.00    -0.272 OA
ATOM      8  H   UNL     1      -3.485   2.598   7.617  1.00  0.00     0.164 HD
BRANCH   6   9
ATOM      9  C   UNL     1      -1.431   3.400   6.483  1.00  0.00     0.219 C 
BRANCH   9  10
ATOM     10  O   UNL     1      -1.313   3.544   7.904  1.00  0.00    -0.382 OA
ATOM     11  H   UNL     1      -1.407   4.511   8.047  1.00  0.00     0.211 HD
ENDBRANCH   9  10
BRANCH   9  12
ATOM     12  C   UNL     1      -0.852   2.038   6.018  1.00  0.00     0.089 C 
BRANCH  12  13
ATOM     13  N   UNL     1      -1.659   1.553   4.876  1.00  0.00    -0.325 NA
ATOM     14  H   UNL     1      -2.651   1.621   5.113  1.00  0.00     0.119 HD
ATOM     15  H   UNL     1      -1.484   0.553   4.747  1.00  0.00     0.119 HD
ENDBRANCH  12  13
BRANCH  12  16
ATOM     16  C   UNL     1       0.651   2.032   5.647  1.00  0.00     0.022 C 
BRANCH  16  17
ATOM     17  C   UNL     1       1.160   3.007   4.577  1.00  0.00     0.002 C 
BRANCH  17  18
ATOM     18  C   UNL     1       2.679   3.142   4.498  1.00  0.00     0.000 C 
BRANCH  18  19
ATOM     19  C   UNL     1       3.324   2.304   3.386  1.00  0.00    -0.000 C 
BRANCH  19  20
ATOM     20  C   UNL     1       2.360   1.812   2.302  1.00  0.00    -0.000 C 
BRANCH  20  21
ATOM     21  C   UNL     1       2.365   2.694   1.050  1.00  0.00    -0.003 C 
ATOM     22  C   UNL     1       3.781   3.073   0.645  1.00  0.00     0.004 C 
ENDBRANCH  20  21
ENDBRANCH  19  20
ENDBRANCH  18  19
ENDBRANCH  17  18
ENDBRANCH  16  17
ENDBRANCH  12  16
ENDBRANCH   9  12
ENDBRANCH   6   9
ENDBRANCH   3   5
ENDBRANCH   2   3
BRANCH   2  23
ATOM     23  N   UNL     1      -6.038   2.602   4.302  1.00  0.00    -0.332 N 
ATOM     24  C   UNL     1      -5.232   1.945   3.284  1.00  0.00     0.147 C 
BRANCH  23  25
ATOM     25  C   UNL     1      -7.113   3.487   3.776  1.00  0.00     0.174 C 
BRANCH  25  26
ATOM     26  C   UNL     1      -7.979   2.804   2.692  1.00  0.00     0.038 C 
BRANCH  26  27
ATOM     27  C   UNL     1      -9.458   3.243   2.598  1.00  0.00    -0.015 C 
ATOM     28  C   UNL     1      -9.873   3.593   1.170  1.00  0.00     0.007 C 
ATOM     29  C   UNL     1     -10.430   2.238   3.210  1.00  0.00     0.007 C 
ENDBRANCH  26  27
ENDBRANCH  25  26
BRANCH  25  30
ATOM     30  C   UNL     1      -6.516   4.842   3.332  1.00  0.00     0.243 C 
ATOM     31  O   UNL     1      -5.988   5.614   4.132  1.00  0.00    -0.273 OA
ATOM     32  N   UNL     1      -6.619   5.126   1.994  1.00  0.00    -0.342 N 
ATOM     33  H   UNL     1      -6.941   4.378   1.375  1.00  0.00     0.164 HD
BRANCH  32  34
ATOM     34  C   UNL     1      -6.134   6.374   1.400  1.00  0.00     0.175 C 
BRANCH  34  35
ATOM     35  C   UNL     1      -5.469   6.123   0.037  1.00  0.00     0.070 C 
BRANCH  35  36
ATOM     36  C   UNL     1      -4.340   5.121   0.114  1.00  0.00    -0.045 A 
ATOM     37  C   UNL     1      -3.275   5.330   1.004  1.00  0.00     0.007 A 
ATOM     38  C   UNL     1      -4.325   3.989  -0.712  1.00  0.00     0.007 A 
ATOM     39  C   UNL     1      -2.221   4.418   1.072  1.00  0.00     0.046 A 
ATOM     40  C   UNL     1      -3.270   3.076  -0.645  1.00  0.00     0.046 A 
ATOM     41  C   UNL     1      -2.227   3.299   0.248  1.00  0.00     0.115 A 
BRANCH  41  42
ATOM     42  O   UNL     1      -1.178   2.434   0.343  1.00  0.00    -0.508 OA
ATOM     43  H   UNL     1      -1.349   1.827   1.082  1.00  0.00     0.293 HD
ENDBRANCH  41  42
ENDBRANCH  35  36
ENDBRANCH  34  35
BRANCH  34  44
ATOM     44  C   UNL     1      -7.329   7.348   1.288  1.00  0.00     0.243 C 
ATOM     45  O   UNL     1      -8.354   7.118   0.652  1.00  0.00    -0.273 OA
ATOM     46  N   UNL     1      -7.092   8.576   1.868  1.00  0.00    -0.341 N 
ATOM     47  H   UNL     1      -6.181   8.759   2.282  1.00  0.00     0.164 HD
BRANCH  46  48
ATOM     48  C   UNL     1      -8.050   9.683   1.830  1.00  0.00     0.196 C 
BRANCH  48  49
ATOM     49  C   UNL     1      -8.266  10.188   0.394  1.00  0.00     0.072 C 
BRANCH  49  50
ATOM     50  C   UNL     1      -7.059  10.913  -0.156  1.00  0.00    -0.045 A 
ATOM     51  C   UNL     1      -6.254  10.296  -1.124  1.00  0.00     0.007 A 
ATOM     52  C   UNL     1      -6.715  12.191   0.302  1.00  0.00     0.007 A 
ATOM     53  C   UNL     1      -5.130  10.949  -1.629  1.00  0.00     0.046 A 
ATOM     54  C   UNL     1      -5.589  12.845  -0.202  1.00  0.00     0.046 A 
ATOM     55  C   UNL     1      -4.806  12.218  -1.166  1.00  0.00     0.115 A 
BRANCH  55  56
ATOM     56  O   UNL     1      -3.698  12.822  -1.683  1.00  0.00    -0.508 OA
ATOM     57  H   UNL     1      -2.983  12.168  -1.721  1.00  0.00     0.293 HD
ENDBRANCH  55  56
ENDBRANCH  49  50
ENDBRANCH  48  49
BRANCH  48  58
ATOM     58  C   UNL     1      -9.387   9.207   2.415  1.00  0.00     0.326 C 
ATOM     59  O   UNL     1      -9.632   8.945   3.582  1.00  0.00    -0.250 OA
BRANCH  58  60
ATOM     60  O   UNL     1     -10.373   9.096   1.491  1.00  0.00    -0.480 OA
ATOM     61  H   UNL     1      -9.883   8.935   0.655  1.00  0.00     0.296 HD
ENDBRANCH  58  60
ENDBRANCH  48  58
ENDBRANCH  46  48
ENDBRANCH  34  44
ENDBRANCH  32  34
ENDBRANCH  25  30
ENDBRANCH  23  25
ENDBRANCH   2  23
TORSDOF 28
ENDMDL
MODEL 29
REMARK VINA RESULT:    -5.538      1.519      2.204
REMARK INTER + INTRA:         -19.968
REMARK INTER:                 -15.135
REMARK INTRA:                  -4.833
REMARK UNBOUND:                -6.175
REMARK SMILES CCCCCCC[C@H](N)[C@H](O)C(=O)N[C@H](C)C(=O)N(C)[C@H](CC(C)C)C(=O)N[C@@H](Cc1ccc(O)cc1)C(=O)N[C@@H](Cc1ccc(O)cc1)C(=O)O
REMARK SMILES IDX 18 1 17 2 15 3 16 4 14 5 12 6 13 7 10 9 11 10 8 12 9 13 7 16
REMARK SMILES IDX 6 17 5 18 4 19 3 20 2 21 1 22 19 23 20 24 21 25 22 26 23 27
REMARK SMILES IDX 24 28 25 29 26 30 27 31 28 32 29 34 30 35 31 36 32 37 37 38
REMARK SMILES IDX 33 39 36 40 34 41 35 42 38 44 39 45 40 46 41 48 42 49 43 50
REMARK SMILES IDX 44 51 49 52 45 53 48 54 46 55 47 56 50 58 51 59 52 60
REMARK H PARENT 14 8 11 11 9 14 9 15 28 33 35 43 40 47 47 57 52 61
ROOT
ATOM      1  O   UNL     1     -17.673   1.579  -9.533  1.00  0.00    -0.272 OA
ATOM      2  C   UNL     1     -17.150   0.847  -8.679  1.00  0.00     0.245 C 
ENDROOT
BRANCH   2   3
ATOM      3  C   UNL     1     -16.069  -0.166  -9.134  1.00  0.00     0.168 C 
ATOM      4  C   UNL     1     -16.068  -0.312 -10.652  1.00  0.00     0.041 C 
BRANCH   3   5
ATOM      5  N   UNL     1     -14.735   0.090  -8.613  1.00  0.00    -0.342 N 
ATOM      6  C   UNL     1     -13.958   1.128  -9.081  1.00  0.00     0.251 C 
ATOM      7  O   UNL     1     -14.305   1.878  -9.987  1.00  0.00    -0.272 OA
ATOM      8  H   UNL     1     -14.325  -0.488  -7.884  1.00  0.00     0.164 HD
BRANCH   6   9
ATOM      9  C   UNL     1     -12.650   1.295  -8.290  1.00  0.00     0.219 C 
BRANCH   9  10
ATOM     10  O   UNL     1     -12.802   0.982  -6.900  1.00  0.00    -0.382 OA
ATOM     11  H   UNL     1     -13.477   0.269  -6.896  1.00  0.00     0.211 HD
ENDBRANCH   9  10
BRANCH   9  12
ATOM     12  C   UNL     1     -11.462   0.509  -8.905  1.00  0.00     0.089 C 
BRANCH  12  13
ATOM     13  N   UNL     1     -11.709   0.350 -10.356  1.00  0.00    -0.325 NA
ATOM     14  H   UNL     1     -12.429   1.012 -10.650  1.00  0.00     0.119 HD
ATOM     15  H   UNL     1     -12.112  -0.575 -10.524  1.00  0.00     0.119 HD
ENDBRANCH  12  13
BRANCH  12  16
ATOM     16  C   UNL     1     -10.056   1.111  -8.667  1.00  0.00     0.022 C 
BRANCH  16  17
ATOM     17  C   UNL     1      -9.481   1.127  -7.245  1.00  0.00     0.002 C 
BRANCH  17  18
ATOM     18  C   UNL     1      -9.047   2.501  -6.740  1.00  0.00     0.000 C 
BRANCH  18  19
ATOM     19  C   UNL     1      -9.826   3.669  -7.359  1.00  0.00    -0.000 C 
BRANCH  19  20
ATOM     20  C   UNL     1     -10.931   4.255  -6.476  1.00  0.00    -0.000 C 
BRANCH  20  21
ATOM     21  C   UNL     1     -10.806   5.769  -6.286  1.00  0.00    -0.003 C 
ATOM     22  C   UNL     1      -9.607   6.326  -7.039  1.00  0.00     0.004 C 
ENDBRANCH  20  21
ENDBRANCH  19  20
ENDBRANCH  18  19
ENDBRANCH  17  18
ENDBRANCH  16  17
ENDBRANCH  12  16
ENDBRANCH   9  12
ENDBRANCH   6   9
ENDBRANCH   3   5
ENDBRANCH   2   3
BRANCH   2  23
ATOM     23  N   UNL     1     -17.447   1.026  -7.333  1.00  0.00    -0.332 N 
ATOM     24  C   UNL     1     -17.534  -0.050  -6.356  1.00  0.00     0.147 C 
BRANCH  23  25
ATOM     25  C   UNL     1     -17.574   2.397  -6.767  1.00  0.00     0.174 C 
BRANCH  25  26
ATOM     26  C   UNL     1     -18.958   3.034  -7.037  1.00  0.00     0.038 C 
BRANCH  26  27
ATOM     27  C   UNL     1     -19.571   3.883  -5.901  1.00  0.00    -0.015 C 
ATOM     28  C   UNL     1     -19.229   3.338  -4.515  1.00  0.00     0.007 C 
ATOM     29  C   UNL     1     -19.223   5.367  -5.996  1.00  0.00     0.007 C 
ENDBRANCH  26  27
ENDBRANCH  25  26
BRANCH  25  30
ATOM     30  C   UNL     1     -16.386   3.274  -7.226  1.00  0.00     0.243 C 
ATOM     31  O   UNL     1     -15.246   3.100  -6.798  1.00  0.00    -0.273 OA
ATOM     32  N   UNL     1     -16.690   4.256  -8.133  1.00  0.00    -0.342 N 
ATOM     33  H   UNL     1     -17.626   4.247  -8.547  1.00  0.00     0.164 HD
BRANCH  32  34
ATOM     34  C   UNL     1     -15.696   5.198  -8.658  1.00  0.00     0.175 C 
BRANCH  34  35
ATOM     35  C   UNL     1     -14.281   4.603  -8.607  1.00  0.00     0.070 C 
BRANCH  35  36
ATOM     36  C   UNL     1     -13.223   5.567  -9.093  1.00  0.00    -0.045 A 
ATOM     37  C   UNL     1     -13.290   6.922  -8.733  1.00  0.00     0.007 A 
ATOM     38  C   UNL     1     -12.180   5.133  -9.922  1.00  0.00     0.007 A 
ATOM     39  C   UNL     1     -12.326   7.822  -9.188  1.00  0.00     0.046 A 
ATOM     40  C   UNL     1     -11.216   6.034 -10.379  1.00  0.00     0.046 A 
ATOM     41  C   UNL     1     -11.297   7.372 -10.006  1.00  0.00     0.115 A 
BRANCH  41  42
ATOM     42  O   UNL     1     -10.378   8.284 -10.431  1.00  0.00    -0.508 OA
ATOM     43  H   UNL     1     -10.621   8.567 -11.329  1.00  0.00     0.293 HD
ENDBRANCH  41  42
ENDBRANCH  35  36
ENDBRANCH  34  35
BRANCH  34  44
ATOM     44  C   UNL     1     -16.111   5.578 -10.097  1.00  0.00     0.243 C 
ATOM     45  O   UNL     1     -16.987   6.393 -10.374  1.00  0.00    -0.273 OA
ATOM     46  N   UNL     1     -15.492   4.818 -11.066  1.00  0.00    -0.341 N 
ATOM     47  H   UNL     1     -14.859   4.074 -10.781  1.00  0.00     0.164 HD
BRANCH  46  48
ATOM     48  C   UNL     1     -15.775   4.949 -12.497  1.00  0.00     0.196 C 
BRANCH  48  49
ATOM     49  C   UNL     1     -14.527   5.397 -13.276  1.00  0.00     0.072 C 
BRANCH  49  50
ATOM     50  C   UNL     1     -14.425   6.901 -13.396  1.00  0.00    -0.045 A 
ATOM     51  C   UNL     1     -15.528   7.642 -13.844  1.00  0.00     0.007 A 
ATOM     52  C   UNL     1     -13.234   7.570 -13.088  1.00  0.00     0.007 A 
ATOM     53  C   UNL     1     -15.442   9.029 -13.972  1.00  0.00     0.046 A 
ATOM     54  C   UNL     1     -13.147   8.958 -13.217  1.00  0.00     0.046 A 
ATOM     55  C   UNL     1     -14.253   9.676 -13.657  1.00  0.00     0.115 A 
BRANCH  55  56
ATOM     56  O   UNL     1     -14.210  11.032 -13.798  1.00  0.00    -0.508 OA
ATOM     57  H   UNL     1     -14.719  11.431 -13.075  1.00  0.00     0.293 HD
ENDBRANCH  55  56
ENDBRANCH  49  50
ENDBRANCH  48  49
BRANCH  48  58
ATOM     58  C   UNL     1     -16.260   3.597 -13.036  1.00  0.00     0.326 C 
ATOM     59  O   UNL     1     -16.612   2.625 -12.387  1.00  0.00    -0.250 OA
BRANCH  58  60
ATOM     60  O   UNL     1     -16.295   3.535 -14.391  1.00  0.00    -0.480 OA
ATOM     61  H   UNL     1     -16.214   2.575 -14.576  1.00  0.00     0.296 HD
ENDBRANCH  58  60
ENDBRANCH  48  58
ENDBRANCH  46  48
ENDBRANCH  34  44
ENDBRANCH  32  34
ENDBRANCH  25  30
ENDBRANCH  23  25
ENDBRANCH   2  23
TORSDOF 28
ENDMDL
MODEL 30
REMARK VINA RESULT:    -5.533     12.912     18.340
REMARK INTER + INTRA:         -19.956
REMARK INTER:                 -14.391
REMARK INTRA:                  -5.565
REMARK UNBOUND:                -6.175
REMARK SMILES CCCCCCC[C@H](N)[C@H](O)C(=O)N[C@H](C)C(=O)N(C)[C@H](CC(C)C)C(=O)N[C@@H](Cc1ccc(O)cc1)C(=O)N[C@@H](Cc1ccc(O)cc1)C(=O)O
REMARK SMILES IDX 18 1 17 2 15 3 16 4 14 5 12 6 13 7 10 9 11 10 8 12 9 13 7 16
REMARK SMILES IDX 6 17 5 18 4 19 3 20 2 21 1 22 19 23 20 24 21 25 22 26 23 27
REMARK SMILES IDX 24 28 25 29 26 30 27 31 28 32 29 34 30 35 31 36 32 37 37 38
REMARK SMILES IDX 33 39 36 40 34 41 35 42 38 44 39 45 40 46 41 48 42 49 43 50
REMARK SMILES IDX 44 51 49 52 45 53 48 54 46 55 47 56 50 58 51 59 52 60
REMARK H PARENT 14 8 11 11 9 14 9 15 28 33 35 43 40 47 47 57 52 61
ROOT
ATOM      1  O   UNL     1      -8.202 -10.685  -5.270  1.00  0.00    -0.272 OA
ATOM      2  C   UNL     1      -8.362  -9.666  -4.581  1.00  0.00     0.245 C 
ENDROOT
BRANCH   2   3
ATOM      3  C   UNL     1      -8.457  -8.295  -5.296  1.00  0.00     0.168 C 
ATOM      4  C   UNL     1      -9.665  -8.252  -6.225  1.00  0.00     0.041 C 
BRANCH   3   5
ATOM      5  N   UNL     1      -8.411  -7.141  -4.412  1.00  0.00    -0.342 N 
ATOM      6  C   UNL     1      -8.028  -5.895  -4.860  1.00  0.00     0.251 C 
ATOM      7  O   UNL     1      -7.660  -5.673  -6.009  1.00  0.00    -0.272 OA
ATOM      8  H   UNL     1      -8.661  -7.209  -3.428  1.00  0.00     0.164 HD
BRANCH   6   9
ATOM      9  C   UNL     1      -8.192  -4.802  -3.792  1.00  0.00     0.219 C 
BRANCH   9  10
ATOM     10  O   UNL     1      -6.956  -4.152  -3.472  1.00  0.00    -0.382 OA
ATOM     11  H   UNL     1      -6.561  -4.732  -2.785  1.00  0.00     0.211 HD
ENDBRANCH   9  10
BRANCH   9  12
ATOM     12  C   UNL     1      -9.285  -3.761  -4.149  1.00  0.00     0.089 C 
BRANCH  12  13
ATOM     13  N   UNL     1      -8.854  -3.027  -5.361  1.00  0.00    -0.325 NA
ATOM     14  H   UNL     1      -9.533  -2.292  -5.568  1.00  0.00     0.119 HD
ATOM     15  H   UNL     1      -8.894  -3.661  -6.163  1.00  0.00     0.119 HD
ENDBRANCH  12  13
BRANCH  12  16
ATOM     16  C   UNL     1     -10.715  -4.320  -4.347  1.00  0.00     0.022 C 
BRANCH  16  17
ATOM     17  C   UNL     1     -11.912  -3.503  -3.842  1.00  0.00     0.002 C 
BRANCH  17  18
ATOM     18  C   UNL     1     -11.692  -2.794  -2.508  1.00  0.00     0.000 C 
BRANCH  18  19
ATOM     19  C   UNL     1     -11.364  -3.738  -1.344  1.00  0.00    -0.000 C 
BRANCH  19  20
ATOM     20  C   UNL     1     -11.367  -3.088   0.042  1.00  0.00    -0.000 C 
BRANCH  20  21
ATOM     21  C   UNL     1     -12.605  -2.224   0.296  1.00  0.00    -0.003 C 
ATOM     22  C   UNL     1     -12.348  -1.193   1.384  1.00  0.00     0.004 C 
ENDBRANCH  20  21
ENDBRANCH  19  20
ENDBRANCH  18  19
ENDBRANCH  17  18
ENDBRANCH  16  17
ENDBRANCH  12  16
ENDBRANCH   9  12
ENDBRANCH   6   9
ENDBRANCH   3   5
ENDBRANCH   2   3
BRANCH   2  23
ATOM     23  N   UNL     1      -8.573  -9.780  -3.211  1.00  0.00    -0.332 N 
ATOM     24  C   UNL     1      -9.879  -9.933  -2.587  1.00  0.00     0.147 C 
BRANCH  23  25
ATOM     25  C   UNL     1      -7.417  -9.881  -2.279  1.00  0.00     0.174 C 
BRANCH  25  26
ATOM     26  C   UNL     1      -7.610 -10.969  -1.196  1.00  0.00     0.038 C 
BRANCH  26  27
ATOM     27  C   UNL     1      -6.912 -12.327  -1.436  1.00  0.00    -0.015 C 
ATOM     28  C   UNL     1      -6.106 -12.348  -2.734  1.00  0.00     0.007 C 
ATOM     29  C   UNL     1      -6.051 -12.783  -0.261  1.00  0.00     0.007 C 
ENDBRANCH  26  27
ENDBRANCH  25  26
BRANCH  25  30
ATOM     30  C   UNL     1      -7.073  -8.487  -1.705  1.00  0.00     0.243 C 
ATOM     31  O   UNL     1      -6.438  -7.656  -2.353  1.00  0.00    -0.273 OA
ATOM     32  N   UNL     1      -7.514  -8.245  -0.429  1.00  0.00    -0.342 N 
ATOM     33  H   UNL     1      -8.153  -8.927  -0.012  1.00  0.00     0.164 HD
BRANCH  32  34
ATOM     34  C   UNL     1      -7.257  -6.991   0.284  1.00  0.00     0.175 C 
BRANCH  34  35
ATOM     35  C   UNL     1      -8.448  -6.028   0.167  1.00  0.00     0.070 C 
BRANCH  35  36
ATOM     36  C   UNL     1      -9.695  -6.556   0.838  1.00  0.00    -0.045 A 
ATOM     37  C   UNL     1     -10.394  -7.634   0.272  1.00  0.00     0.007 A 
ATOM     38  C   UNL     1     -10.184  -5.969   2.013  1.00  0.00     0.007 A 
ATOM     39  C   UNL     1     -11.554  -8.120   0.876  1.00  0.00     0.046 A 
ATOM     40  C   UNL     1     -11.346  -6.454   2.618  1.00  0.00     0.046 A 
ATOM     41  C   UNL     1     -12.020  -7.527   2.044  1.00  0.00     0.115 A 
BRANCH  41  42
ATOM     42  O   UNL     1     -13.159  -8.030   2.600  1.00  0.00    -0.508 OA
ATOM     43  H   UNL     1     -13.412  -8.828   2.108  1.00  0.00     0.293 HD
ENDBRANCH  41  42
ENDBRANCH  35  36
ENDBRANCH  34  35
BRANCH  34  44
ATOM     44  C   UNL     1      -6.934  -7.335   1.755  1.00  0.00     0.243 C 
ATOM     45  O   UNL     1      -6.732  -6.502   2.634  1.00  0.00    -0.273 OA
ATOM     46  N   UNL     1      -6.760  -8.685   1.978  1.00  0.00    -0.341 N 
ATOM     47  H   UNL     1      -6.823  -9.327   1.192  1.00  0.00     0.164 HD
BRANCH  46  48
ATOM     48  C   UNL     1      -6.382  -9.245   3.277  1.00  0.00     0.196 C 
BRANCH  48  49
ATOM     49  C   UNL     1      -7.290 -10.424   3.665  1.00  0.00     0.072 C 
BRANCH  49  50
ATOM     50  C   UNL     1      -8.639  -9.974   4.181  1.00  0.00    -0.045 A 
ATOM     51  C   UNL     1      -9.789 -10.712   3.866  1.00  0.00     0.007 A 
ATOM     52  C   UNL     1      -8.764  -8.814   4.955  1.00  0.00     0.007 A 
ATOM     53  C   UNL     1     -11.040 -10.300   4.325  1.00  0.00     0.046 A 
ATOM     54  C   UNL     1     -10.017  -8.401   5.414  1.00  0.00     0.046 A 
ATOM     55  C   UNL     1     -11.145  -9.149   5.095  1.00  0.00     0.115 A 
BRANCH  55  56
ATOM     56  O   UNL     1     -12.386  -8.779   5.522  1.00  0.00    -0.508 OA
ATOM     57  H   UNL     1     -12.578  -9.251   6.348  1.00  0.00     0.293 HD
ENDBRANCH  55  56
ENDBRANCH  49  50
ENDBRANCH  48  49
BRANCH  48  58
ATOM     58  C   UNL     1      -4.923  -9.719   3.212  1.00  0.00     0.326 C 
ATOM     59  O   UNL     1      -4.059  -9.570   4.060  1.00  0.00    -0.250 OA
BRANCH  58  60
ATOM     60  O   UNL     1      -4.621 -10.383   2.068  1.00  0.00    -0.480 OA
ATOM     61  H   UNL     1      -3.796 -10.863   2.296  1.00  0.00     0.296 HD
ENDBRANCH  58  60
ENDBRANCH  48  58
ENDBRANCH  46  48
ENDBRANCH  34  44
ENDBRANCH  32  34
ENDBRANCH  25  30
ENDBRANCH  23  25
ENDBRANCH   2  23
TORSDOF 28
ENDMDL
MODEL 31
REMARK VINA RESULT:    -5.531     11.235     15.823
REMARK INTER + INTRA:         -19.952
REMARK INTER:                 -15.007
REMARK INTRA:                  -4.945
REMARK UNBOUND:                -6.175
REMARK SMILES CCCCCCC[C@H](N)[C@H](O)C(=O)N[C@H](C)C(=O)N(C)[C@H](CC(C)C)C(=O)N[C@@H](Cc1ccc(O)cc1)C(=O)N[C@@H](Cc1ccc(O)cc1)C(=O)O
REMARK SMILES IDX 18 1 17 2 15 3 16 4 14 5 12 6 13 7 10 9 11 10 8 12 9 13 7 16
REMARK SMILES IDX 6 17 5 18 4 19 3 20 2 21 1 22 19 23 20 24 21 25 22 26 23 27
REMARK SMILES IDX 24 28 25 29 26 30 27 31 28 32 29 34 30 35 31 36 32 37 37 38
REMARK SMILES IDX 33 39 36 40 34 41 35 42 38 44 39 45 40 46 41 48 42 49 43 50
REMARK SMILES IDX 44 51 49 52 45 53 48 54 46 55 47 56 50 58 51 59 52 60
REMARK H PARENT 14 8 11 11 9 14 9 15 28 33 35 43 40 47 47 57 52 61
ROOT
ATOM      1  O   UNL     1      -9.242 -10.833  -3.103  1.00  0.00    -0.272 OA
ATOM      2  C   UNL     1      -8.228 -10.160  -2.868  1.00  0.00     0.245 C 
ENDROOT
BRANCH   2   3
ATOM      3  C   UNL     1      -7.776  -9.111  -3.915  1.00  0.00     0.168 C 
ATOM      4  C   UNL     1      -8.977  -8.530  -4.653  1.00  0.00     0.041 C 
BRANCH   3   5
ATOM      5  N   UNL     1      -6.901  -8.070  -3.398  1.00  0.00    -0.342 N 
ATOM      6  C   UNL     1      -5.827  -7.596  -4.122  1.00  0.00     0.251 C 
ATOM      7  O   UNL     1      -5.505  -8.036  -5.221  1.00  0.00    -0.272 OA
ATOM      8  H   UNL     1      -7.047  -7.652  -2.482  1.00  0.00     0.164 HD
BRANCH   6   9
ATOM      9  C   UNL     1      -5.133  -6.404  -3.444  1.00  0.00     0.219 C 
BRANCH   9  10
ATOM     10  O   UNL     1      -5.454  -6.296  -2.052  1.00  0.00    -0.382 OA
ATOM     11  H   UNL     1      -4.619  -6.552  -1.602  1.00  0.00     0.211 HD
ENDBRANCH   9  10
BRANCH   9  12
ATOM     12  C   UNL     1      -3.597  -6.391  -3.658  1.00  0.00     0.089 C 
BRANCH  12  13
ATOM     13  N   UNL     1      -3.170  -7.752  -4.058  1.00  0.00    -0.325 NA
ATOM     14  H   UNL     1      -2.650  -7.696  -4.936  1.00  0.00     0.119 HD
ATOM     15  H   UNL     1      -3.999  -8.309  -4.274  1.00  0.00     0.119 HD
ENDBRANCH  12  13
BRANCH  12  16
ATOM     16  C   UNL     1      -3.061  -5.348  -4.667  1.00  0.00     0.022 C 
BRANCH  16  17
ATOM     17  C   UNL     1      -3.864  -5.063  -5.944  1.00  0.00     0.002 C 
BRANCH  17  18
ATOM     18  C   UNL     1      -4.495  -3.674  -6.012  1.00  0.00     0.000 C 
BRANCH  18  19
ATOM     19  C   UNL     1      -5.126  -3.340  -7.371  1.00  0.00    -0.000 C 
BRANCH  19  20
ATOM     20  C   UNL     1      -5.337  -1.848  -7.640  1.00  0.00    -0.000 C 
BRANCH  20  21
ATOM     21  C   UNL     1      -6.396  -1.577  -8.713  1.00  0.00    -0.003 C 
ATOM     22  C   UNL     1      -7.666  -2.372  -8.453  1.00  0.00     0.004 C 
ENDBRANCH  20  21
ENDBRANCH  19  20
ENDBRANCH  18  19
ENDBRANCH  17  18
ENDBRANCH  16  17
ENDBRANCH  12  16
ENDBRANCH   9  12
ENDBRANCH   6   9
ENDBRANCH   3   5
ENDBRANCH   2   3
BRANCH   2  23
ATOM     23  N   UNL     1      -7.592 -10.267  -1.636  1.00  0.00    -0.332 N 
ATOM     24  C   UNL     1      -6.175 -10.550  -1.460  1.00  0.00     0.147 C 
BRANCH  23  25
ATOM     25  C   UNL     1      -8.331  -9.961  -0.380  1.00  0.00     0.174 C 
BRANCH  25  26
ATOM     26  C   UNL     1      -8.913 -11.223   0.299  1.00  0.00     0.038 C 
BRANCH  26  27
ATOM     27  C   UNL     1      -8.311 -11.623   1.665  1.00  0.00    -0.015 C 
ATOM     28  C   UNL     1      -7.425 -12.865   1.572  1.00  0.00     0.007 C 
ATOM     29  C   UNL     1      -7.569 -10.483   2.359  1.00  0.00     0.007 C 
ENDBRANCH  26  27
ENDBRANCH  25  26
BRANCH  25  30
ATOM     30  C   UNL     1      -9.379  -8.853  -0.636  1.00  0.00     0.243 C 
ATOM     31  O   UNL     1     -10.538  -9.116  -0.953  1.00  0.00    -0.273 OA
ATOM     32  N   UNL     1      -8.928  -7.566  -0.493  1.00  0.00    -0.342 N 
ATOM     33  H   UNL     1      -7.997  -7.432  -0.092  1.00  0.00     0.164 HD
BRANCH  32  34
ATOM     34  C   UNL     1      -9.773  -6.391  -0.723  1.00  0.00     0.175 C 
BRANCH  34  35
ATOM     35  C   UNL     1      -9.654  -5.383   0.431  1.00  0.00     0.070 C 
BRANCH  35  36
ATOM     36  C   UNL     1      -9.161  -6.017   1.712  1.00  0.00    -0.045 A 
ATOM     37  C   UNL     1      -7.811  -5.901   2.079  1.00  0.00     0.007 A 
ATOM     38  C   UNL     1     -10.031  -6.742   2.536  1.00  0.00     0.007 A 
ATOM     39  C   UNL     1      -7.345  -6.494   3.252  1.00  0.00     0.046 A 
ATOM     40  C   UNL     1      -9.564  -7.337   3.711  1.00  0.00     0.046 A 
ATOM     41  C   UNL     1      -8.224  -7.206   4.059  1.00  0.00     0.115 A 
BRANCH  41  42
ATOM     42  O   UNL     1      -7.727  -7.773   5.195  1.00  0.00    -0.508 OA
ATOM     43  H   UNL     1      -8.468  -7.938   5.802  1.00  0.00     0.293 HD
ENDBRANCH  41  42
ENDBRANCH  35  36
ENDBRANCH  34  35
BRANCH  34  44
ATOM     44  C   UNL     1      -9.370  -5.768  -2.078  1.00  0.00     0.243 C 
ATOM     45  O   UNL     1      -8.227  -5.765  -2.527  1.00  0.00    -0.273 OA
ATOM     46  N   UNL     1     -10.397  -5.088  -2.697  1.00  0.00    -0.341 N 
ATOM     47  H   UNL     1     -11.297  -5.019  -2.228  1.00  0.00     0.164 HD
BRANCH  46  48
ATOM     48  C   UNL     1     -10.237  -4.359  -3.957  1.00  0.00     0.196 C 
BRANCH  48  49
ATOM     49  C   UNL     1     -10.896  -5.111  -5.126  1.00  0.00     0.072 C 
BRANCH  49  50
ATOM     50  C   UNL     1      -9.889  -5.607  -6.139  1.00  0.00    -0.045 A 
ATOM     51  C   UNL     1     -10.317  -6.378  -7.230  1.00  0.00     0.007 A 
ATOM     52  C   UNL     1      -8.524  -5.328  -5.995  1.00  0.00     0.007 A 
ATOM     53  C   UNL     1      -9.396  -6.853  -8.163  1.00  0.00     0.046 A 
ATOM     54  C   UNL     1      -7.602  -5.804  -6.930  1.00  0.00     0.046 A 
ATOM     55  C   UNL     1      -8.046  -6.563  -8.007  1.00  0.00     0.115 A 
BRANCH  55  56
ATOM     56  O   UNL     1      -7.178  -7.047  -8.940  1.00  0.00    -0.508 OA
ATOM     57  H   UNL     1      -6.378  -6.498  -8.928  1.00  0.00     0.293 HD
ENDBRANCH  55  56
ENDBRANCH  49  50
ENDBRANCH  48  49
BRANCH  48  58
ATOM     58  C   UNL     1     -10.874  -2.969  -3.814  1.00  0.00     0.326 C 
ATOM     59  O   UNL     1     -10.347  -1.956  -3.384  1.00  0.00    -0.250 OA
BRANCH  58  60
ATOM     60  O   UNL     1     -12.161  -2.917  -4.242  1.00  0.00    -0.480 OA
ATOM     61  H   UNL     1     -12.115  -3.302  -5.144  1.00  0.00     0.296 HD
ENDBRANCH  58  60
ENDBRANCH  48  58
ENDBRANCH  46  48
ENDBRANCH  34  44
ENDBRANCH  32  34
ENDBRANCH  25  30
ENDBRANCH  23  25
ENDBRANCH   2  23
TORSDOF 28
ENDMDL
MODEL 32
REMARK VINA RESULT:    -5.530     13.118     17.279
REMARK INTER + INTRA:         -19.948
REMARK INTER:                 -15.947
REMARK INTRA:                  -4.002
REMARK UNBOUND:                -6.175
REMARK SMILES CCCCCCC[C@H](N)[C@H](O)C(=O)N[C@H](C)C(=O)N(C)[C@H](CC(C)C)C(=O)N[C@@H](Cc1ccc(O)cc1)C(=O)N[C@@H](Cc1ccc(O)cc1)C(=O)O
REMARK SMILES IDX 18 1 17 2 15 3 16 4 14 5 12 6 13 7 10 9 11 10 8 12 9 13 7 16
REMARK SMILES IDX 6 17 5 18 4 19 3 20 2 21 1 22 19 23 20 24 21 25 22 26 23 27
REMARK SMILES IDX 24 28 25 29 26 30 27 31 28 32 29 34 30 35 31 36 32 37 37 38
REMARK SMILES IDX 33 39 36 40 34 41 35 42 38 44 39 45 40 46 41 48 42 49 43 50
REMARK SMILES IDX 44 51 49 52 45 53 48 54 46 55 47 56 50 58 51 59 52 60
REMARK H PARENT 14 8 11 11 9 14 9 15 28 33 35 43 40 47 47 57 52 61
ROOT
ATOM      1  O   UNL     1      -4.483   6.150   3.790  1.00  0.00    -0.272 OA
ATOM      2  C   UNL     1      -4.217   5.066   3.250  1.00  0.00     0.245 C 
ENDROOT
BRANCH   2   3
ATOM      3  C   UNL     1      -3.781   3.880   4.146  1.00  0.00     0.168 C 
ATOM      4  C   UNL     1      -4.016   2.551   3.437  1.00  0.00     0.041 C 
BRANCH   3   5
ATOM      5  N   UNL     1      -2.430   3.980   4.677  1.00  0.00    -0.342 N 
ATOM      6  C   UNL     1      -2.171   3.902   6.029  1.00  0.00     0.251 C 
ATOM      7  O   UNL     1      -3.048   3.787   6.879  1.00  0.00    -0.272 OA
ATOM      8  H   UNL     1      -1.624   4.112   4.070  1.00  0.00     0.164 HD
BRANCH   6   9
ATOM      9  C   UNL     1      -0.668   3.888   6.347  1.00  0.00     0.219 C 
BRANCH   9  10
ATOM     10  O   UNL     1      -0.334   4.704   7.476  1.00  0.00    -0.382 OA
ATOM     11  H   UNL     1       0.631   4.856   7.375  1.00  0.00     0.211 HD
ENDBRANCH   9  10
BRANCH   9  12
ATOM     12  C   UNL     1      -0.093   2.457   6.513  1.00  0.00     0.089 C 
BRANCH  12  13
ATOM     13  N   UNL     1      -1.072   1.494   5.958  1.00  0.00    -0.325 NA
ATOM     14  H   UNL     1      -0.659   0.559   5.956  1.00  0.00     0.119 HD
ATOM     15  H   UNL     1      -1.233   1.716   4.973  1.00  0.00     0.119 HD
ENDBRANCH  12  13
BRANCH  12  16
ATOM     16  C   UNL     1       1.304   2.211   5.895  1.00  0.00     0.022 C 
BRANCH  16  17
ATOM     17  C   UNL     1       1.582   2.689   4.463  1.00  0.00     0.002 C 
BRANCH  17  18
ATOM     18  C   UNL     1       2.691   3.731   4.336  1.00  0.00     0.000 C 
BRANCH  18  19
ATOM     19  C   UNL     1       2.993   4.484   5.638  1.00  0.00    -0.000 C 
BRANCH  19  20
ATOM     20  C   UNL     1       2.540   5.947   5.664  1.00  0.00    -0.000 C 
BRANCH  20  21
ATOM     21  C   UNL     1       2.779   6.625   7.015  1.00  0.00    -0.003 C 
ATOM     22  C   UNL     1       4.257   6.896   7.246  1.00  0.00     0.004 C 
ENDBRANCH  20  21
ENDBRANCH  19  20
ENDBRANCH  18  19
ENDBRANCH  17  18
ENDBRANCH  16  17
ENDBRANCH  12  16
ENDBRANCH   9  12
ENDBRANCH   6   9
ENDBRANCH   3   5
ENDBRANCH   2   3
BRANCH   2  23
ATOM     23  N   UNL     1      -4.429   4.898   1.886  1.00  0.00    -0.332 N 
ATOM     24  C   UNL     1      -3.416   4.446   0.943  1.00  0.00     0.147 C 
BRANCH  23  25
ATOM     25  C   UNL     1      -5.793   5.057   1.312  1.00  0.00     0.174 C 
BRANCH  25  26
ATOM     26  C   UNL     1      -6.200   6.538   1.128  1.00  0.00     0.038 C 
BRANCH  26  27
ATOM     27  C   UNL     1      -6.492   7.009  -0.314  1.00  0.00    -0.015 C 
ATOM     28  C   UNL     1      -7.345   8.277  -0.353  1.00  0.00     0.007 C 
ATOM     29  C   UNL     1      -5.235   7.181  -1.163  1.00  0.00     0.007 C 
ENDBRANCH  26  27
ENDBRANCH  25  26
BRANCH  25  30
ATOM     30  C   UNL     1      -6.813   4.229   2.128  1.00  0.00     0.243 C 
ATOM     31  O   UNL     1      -7.017   3.038   1.896  1.00  0.00    -0.273 OA
ATOM     32  N   UNL     1      -7.475   4.910   3.117  1.00  0.00    -0.342 N 
ATOM     33  H   UNL     1      -7.150   5.854   3.341  1.00  0.00     0.164 HD
BRANCH  32  34
ATOM     34  C   UNL     1      -8.494   4.294   3.970  1.00  0.00     0.175 C 
BRANCH  34  35
ATOM     35  C   UNL     1      -8.342   4.740   5.433  1.00  0.00     0.070 C 
BRANCH  35  36
ATOM     36  C   UNL     1      -7.465   3.810   6.240  1.00  0.00    -0.045 A 
ATOM     37  C   UNL     1      -7.109   2.555   5.721  1.00  0.00     0.007 A 
ATOM     38  C   UNL     1      -7.016   4.172   7.516  1.00  0.00     0.007 A 
ATOM     39  C   UNL     1      -6.312   1.684   6.464  1.00  0.00     0.046 A 
ATOM     40  C   UNL     1      -6.219   3.300   8.261  1.00  0.00     0.046 A 
ATOM     41  C   UNL     1      -5.872   2.063   7.727  1.00  0.00     0.115 A 
BRANCH  41  42
ATOM     42  O   UNL     1      -5.098   1.182   8.421  1.00  0.00    -0.508 OA
ATOM     43  H   UNL     1      -4.770   1.628   9.220  1.00  0.00     0.293 HD
ENDBRANCH  41  42
ENDBRANCH  35  36
ENDBRANCH  34  35
BRANCH  34  44
ATOM     44  C   UNL     1      -9.882   4.658   3.397  1.00  0.00     0.243 C 
ATOM     45  O   UNL     1     -10.908   4.744   4.065  1.00  0.00    -0.273 OA
ATOM     46  N   UNL     1      -9.899   4.755   2.021  1.00  0.00    -0.341 N 
ATOM     47  H   UNL     1      -9.047   4.560   1.502  1.00  0.00     0.164 HD
BRANCH  46  48
ATOM     48  C   UNL     1     -11.114   5.024   1.248  1.00  0.00     0.196 C 
BRANCH  48  49
ATOM     49  C   UNL     1     -10.814   5.902   0.021  1.00  0.00     0.072 C 
BRANCH  49  50
ATOM     50  C   UNL     1     -10.923   7.379   0.323  1.00  0.00    -0.045 A 
ATOM     51  C   UNL     1     -10.831   7.831   1.648  1.00  0.00     0.007 A 
ATOM     52  C   UNL     1     -11.136   8.310  -0.701  1.00  0.00     0.007 A 
ATOM     53  C   UNL     1     -10.944   9.190   1.940  1.00  0.00     0.046 A 
ATOM     54  C   UNL     1     -11.250   9.671  -0.409  1.00  0.00     0.046 A 
ATOM     55  C   UNL     1     -11.151  10.100   0.910  1.00  0.00     0.115 A 
BRANCH  55  56
ATOM     56  O   UNL     1     -11.258  11.419   1.238  1.00  0.00    -0.508 OA
ATOM     57  H   UNL     1     -11.151  11.505   2.198  1.00  0.00     0.293 HD
ENDBRANCH  55  56
ENDBRANCH  49  50
ENDBRANCH  48  49
BRANCH  48  58
ATOM     58  C   UNL     1     -11.719   3.689   0.790  1.00  0.00     0.326 C 
ATOM     59  O   UNL     1     -12.891   3.354   0.838  1.00  0.00    -0.250 OA
BRANCH  58  60
ATOM     60  O   UNL     1     -10.806   2.831   0.270  1.00  0.00    -0.480 OA
ATOM     61  H   UNL     1     -10.008   2.990   0.819  1.00  0.00     0.296 HD
ENDBRANCH  58  60
ENDBRANCH  48  58
ENDBRANCH  46  48
ENDBRANCH  34  44
ENDBRANCH  32  34
ENDBRANCH  25  30
ENDBRANCH  23  25
ENDBRANCH   2  23
TORSDOF 28
ENDMDL
MODEL 33
REMARK VINA RESULT:    -5.521      2.309      8.163
REMARK INTER + INTRA:         -19.927
REMARK INTER:                 -14.375
REMARK INTRA:                  -5.552
REMARK UNBOUND:                -6.175
REMARK SMILES CCCCCCC[C@H](N)[C@H](O)C(=O)N[C@H](C)C(=O)N(C)[C@H](CC(C)C)C(=O)N[C@@H](Cc1ccc(O)cc1)C(=O)N[C@@H](Cc1ccc(O)cc1)C(=O)O
REMARK SMILES IDX 18 1 17 2 15 3 16 4 14 5 12 6 13 7 10 9 11 10 8 12 9 13 7 16
REMARK SMILES IDX 6 17 5 18 4 19 3 20 2 21 1 22 19 23 20 24 21 25 22 26 23 27
REMARK SMILES IDX 24 28 25 29 26 30 27 31 28 32 29 34 30 35 31 36 32 37 37 38
REMARK SMILES IDX 33 39 36 40 34 41 35 42 38 44 39 45 40 46 41 48 42 49 43 50
REMARK SMILES IDX 44 51 49 52 45 53 48 54 46 55 47 56 50 58 51 59 52 60
REMARK H PARENT 14 8 11 11 9 14 9 15 28 33 35 43 40 47 47 57 52 61
ROOT
ATOM      1  O   UNL     1     -14.385   3.574 -11.056  1.00  0.00    -0.272 OA
ATOM      2  C   UNL     1     -14.608   4.599 -11.717  1.00  0.00     0.245 C 
ENDROOT
BRANCH   2   3
ATOM      3  C   UNL     1     -15.973   4.733 -12.438  1.00  0.00     0.168 C 
ATOM      4  C   UNL     1     -15.995   3.900 -13.715  1.00  0.00     0.041 C 
BRANCH   3   5
ATOM      5  N   UNL     1     -17.134   4.473 -11.601  1.00  0.00    -0.342 N 
ATOM      6  C   UNL     1     -17.834   5.492 -10.991  1.00  0.00     0.251 C 
ATOM      7  O   UNL     1     -17.514   6.674 -11.069  1.00  0.00    -0.272 OA
ATOM      8  H   UNL     1     -17.474   3.529 -11.434  1.00  0.00     0.164 HD
BRANCH   6   9
ATOM      9  C   UNL     1     -19.102   4.998 -10.277  1.00  0.00     0.219 C 
BRANCH   9  10
ATOM     10  O   UNL     1     -19.801   3.994 -11.023  1.00  0.00    -0.382 OA
ATOM     11  H   UNL     1     -19.202   3.216 -10.982  1.00  0.00     0.211 HD
ENDBRANCH   9  10
BRANCH   9  12
ATOM     12  C   UNL     1     -18.837   4.520  -8.825  1.00  0.00     0.089 C 
BRANCH  12  13
ATOM     13  N   UNL     1     -17.490   4.982  -8.420  1.00  0.00    -0.325 NA
ATOM     14  H   UNL     1     -17.004   4.222  -7.940  1.00  0.00     0.119 HD
ATOM     15  H   UNL     1     -17.590   5.720  -7.719  1.00  0.00     0.119 HD
ENDBRANCH  12  13
BRANCH  12  16
ATOM     16  C   UNL     1     -19.885   4.946  -7.769  1.00  0.00     0.022 C 
BRANCH  16  17
ATOM     17  C   UNL     1     -20.655   6.259  -7.967  1.00  0.00     0.002 C 
BRANCH  17  18
ATOM     18  C   UNL     1     -19.917   7.514  -7.507  1.00  0.00     0.000 C 
BRANCH  18  19
ATOM     19  C   UNL     1     -19.390   7.436  -6.068  1.00  0.00    -0.000 C 
BRANCH  19  20
ATOM     20  C   UNL     1     -17.867   7.519  -5.928  1.00  0.00    -0.000 C 
BRANCH  20  21
ATOM     21  C   UNL     1     -17.349   8.958  -5.862  1.00  0.00    -0.003 C 
ATOM     22  C   UNL     1     -16.167   9.165  -6.796  1.00  0.00     0.004 C 
ENDBRANCH  20  21
ENDBRANCH  19  20
ENDBRANCH  18  19
ENDBRANCH  17  18
ENDBRANCH  16  17
ENDBRANCH  12  16
ENDBRANCH   9  12
ENDBRANCH   6   9
ENDBRANCH   3   5
ENDBRANCH   2   3
BRANCH   2  23
ATOM     23  N   UNL     1     -13.696   5.649 -11.701  1.00  0.00    -0.332 N 
ATOM     24  C   UNL     1     -13.292   6.409 -12.875  1.00  0.00     0.147 C 
BRANCH  23  25
ATOM     25  C   UNL     1     -13.157   6.156 -10.410  1.00  0.00     0.174 C 
BRANCH  25  26
ATOM     26  C   UNL     1     -12.644   7.612 -10.501  1.00  0.00     0.038 C 
BRANCH  26  27
ATOM     27  C   UNL     1     -11.838   8.148  -9.297  1.00  0.00    -0.015 C 
ATOM     28  C   UNL     1     -11.003   9.378  -9.654  1.00  0.00     0.007 C 
ATOM     29  C   UNL     1     -12.696   8.420  -8.064  1.00  0.00     0.007 C 
ENDBRANCH  26  27
ENDBRANCH  25  26
BRANCH  25  30
ATOM     30  C   UNL     1     -12.114   5.165  -9.843  1.00  0.00     0.243 C 
ATOM     31  O   UNL     1     -11.021   4.994 -10.380  1.00  0.00    -0.273 OA
ATOM     32  N   UNL     1     -12.493   4.488  -8.712  1.00  0.00    -0.342 N 
ATOM     33  H   UNL     1     -13.354   4.787  -8.247  1.00  0.00     0.164 HD
BRANCH  32  34
ATOM     34  C   UNL     1     -11.645   3.492  -8.052  1.00  0.00     0.175 C 
BRANCH  34  35
ATOM     35  C   UNL     1     -11.025   4.050  -6.762  1.00  0.00     0.070 C 
BRANCH  35  36
ATOM     36  C   UNL     1      -9.699   4.737  -7.000  1.00  0.00    -0.045 A 
ATOM     37  C   UNL     1      -9.637   6.137  -7.073  1.00  0.00     0.007 A 
ATOM     38  C   UNL     1      -8.525   3.992  -7.173  1.00  0.00     0.007 A 
ATOM     39  C   UNL     1      -8.420   6.778  -7.306  1.00  0.00     0.046 A 
ATOM     40  C   UNL     1      -7.307   4.634  -7.407  1.00  0.00     0.046 A 
ATOM     41  C   UNL     1      -7.265   6.023  -7.470  1.00  0.00     0.115 A 
BRANCH  41  42
ATOM     42  O   UNL     1      -6.098   6.689  -7.699  1.00  0.00    -0.508 OA
ATOM     43  H   UNL     1      -6.124   7.049  -8.601  1.00  0.00     0.293 HD
ENDBRANCH  41  42
ENDBRANCH  35  36
ENDBRANCH  34  35
BRANCH  34  44
ATOM     44  C   UNL     1     -12.504   2.235  -7.783  1.00  0.00     0.243 C 
ATOM     45  O   UNL     1     -12.087   1.212  -7.248  1.00  0.00    -0.273 OA
ATOM     46  N   UNL     1     -13.771   2.311  -8.322  1.00  0.00    -0.341 N 
ATOM     47  H   UNL     1     -14.031   3.135  -8.859  1.00  0.00     0.164 HD
BRANCH  46  48
ATOM     48  C   UNL     1     -14.742   1.217  -8.255  1.00  0.00     0.196 C 
BRANCH  48  49
ATOM     49  C   UNL     1     -16.182   1.750  -8.182  1.00  0.00     0.072 C 
BRANCH  49  50
ATOM     50  C   UNL     1     -16.953   1.187  -7.009  1.00  0.00    -0.045 A 
ATOM     51  C   UNL     1     -17.853   2.003  -6.308  1.00  0.00     0.007 A 
ATOM     52  C   UNL     1     -16.767  -0.138  -6.594  1.00  0.00     0.007 A 
ATOM     53  C   UNL     1     -18.560   1.498  -5.216  1.00  0.00     0.046 A 
ATOM     54  C   UNL     1     -17.474  -0.643  -5.500  1.00  0.00     0.046 A 
ATOM     55  C   UNL     1     -18.366   0.180  -4.821  1.00  0.00     0.115 A 
BRANCH  55  56
ATOM     56  O   UNL     1     -19.074  -0.274  -3.748  1.00  0.00    -0.508 OA
ATOM     57  H   UNL     1     -18.474  -0.333  -2.988  1.00  0.00     0.293 HD
ENDBRANCH  55  56
ENDBRANCH  49  50
ENDBRANCH  48  49
BRANCH  48  58
ATOM     58  C   UNL     1     -14.583   0.331  -9.498  1.00  0.00     0.326 C 
ATOM     59  O   UNL     1     -13.861  -0.645  -9.622  1.00  0.00    -0.250 OA
BRANCH  58  60
ATOM     60  O   UNL     1     -15.364   0.714 -10.539  1.00  0.00    -0.480 OA
ATOM     61  H   UNL     1     -14.795   1.348 -11.027  1.00  0.00     0.296 HD
ENDBRANCH  58  60
ENDBRANCH  48  58
ENDBRANCH  46  48
ENDBRANCH  34  44
ENDBRANCH  32  34
ENDBRANCH  25  30
ENDBRANCH  23  25
ENDBRANCH   2  23
TORSDOF 28
ENDMDL
MODEL 34
REMARK VINA RESULT:    -5.487     15.643     20.816
REMARK INTER + INTRA:         -19.842
REMARK INTER:                 -16.372
REMARK INTRA:                  -3.469
REMARK UNBOUND:                -6.175
REMARK SMILES CCCCCCC[C@H](N)[C@H](O)C(=O)N[C@H](C)C(=O)N(C)[C@H](CC(C)C)C(=O)N[C@@H](Cc1ccc(O)cc1)C(=O)N[C@@H](Cc1ccc(O)cc1)C(=O)O
REMARK SMILES IDX 18 1 17 2 15 3 16 4 14 5 12 6 13 7 10 9 11 10 8 12 9 13 7 16
REMARK SMILES IDX 6 17 5 18 4 19 3 20 2 21 1 22 19 23 20 24 21 25 22 26 23 27
REMARK SMILES IDX 24 28 25 29 26 30 27 31 28 32 29 34 30 35 31 36 32 37 37 38
REMARK SMILES IDX 33 39 36 40 34 41 35 42 38 44 39 45 40 46 41 48 42 49 43 50
REMARK SMILES IDX 44 51 49 52 45 53 48 54 46 55 47 56 50 58 51 59 52 60
REMARK H PARENT 14 8 11 11 9 14 9 15 28 33 35 43 40 47 47 57 52 61
ROOT
ATOM      1  O   UNL     1      -6.097   2.383   2.884  1.00  0.00    -0.272 OA
ATOM      2  C   UNL     1      -5.546   3.389   3.355  1.00  0.00     0.245 C 
ENDROOT
BRANCH   2   3
ATOM      3  C   UNL     1      -6.320   4.241   4.392  1.00  0.00     0.168 C 
ATOM      4  C   UNL     1      -7.610   4.786   3.790  1.00  0.00     0.041 C 
BRANCH   3   5
ATOM      5  N   UNL     1      -6.552   3.585   5.669  1.00  0.00    -0.342 N 
ATOM      6  C   UNL     1      -5.662   3.694   6.716  1.00  0.00     0.251 C 
ATOM      7  O   UNL     1      -4.602   4.307   6.642  1.00  0.00    -0.272 OA
ATOM      8  H   UNL     1      -7.381   3.020   5.839  1.00  0.00     0.164 HD
BRANCH   6   9
ATOM      9  C   UNL     1      -6.180   3.041   8.008  1.00  0.00     0.219 C 
BRANCH   9  10
ATOM     10  O   UNL     1      -5.162   2.314   8.706  1.00  0.00    -0.382 OA
ATOM     11  H   UNL     1      -4.740   2.995   9.275  1.00  0.00     0.211 HD
ENDBRANCH   9  10
BRANCH   9  12
ATOM     12  C   UNL     1      -6.889   4.043   8.956  1.00  0.00     0.089 C 
BRANCH  12  13
ATOM     13  N   UNL     1      -6.856   5.384   8.327  1.00  0.00    -0.325 NA
ATOM     14  H   UNL     1      -6.018   5.880   8.637  1.00  0.00     0.119 HD
ATOM     15  H   UNL     1      -7.640   5.936   8.683  1.00  0.00     0.119 HD
ENDBRANCH  12  13
BRANCH  12  16
ATOM     16  C   UNL     1      -8.337   3.683   9.363  1.00  0.00     0.022 C 
BRANCH  16  17
ATOM     17  C   UNL     1      -8.809   3.986  10.792  1.00  0.00     0.002 C 
BRANCH  17  18
ATOM     18  C   UNL     1     -10.324   3.995  10.983  1.00  0.00     0.000 C 
BRANCH  18  19
ATOM     19  C   UNL     1     -10.985   5.343  10.667  1.00  0.00    -0.000 C 
BRANCH  19  20
ATOM     20  C   UNL     1     -10.037   6.545  10.656  1.00  0.00    -0.000 C 
BRANCH  20  21
ATOM     21  C   UNL     1     -10.587   7.735   9.864  1.00  0.00    -0.003 C 
ATOM     22  C   UNL     1     -12.090   7.620   9.663  1.00  0.00     0.004 C 
ENDBRANCH  20  21
ENDBRANCH  19  20
ENDBRANCH  18  19
ENDBRANCH  17  18
ENDBRANCH  16  17
ENDBRANCH  12  16
ENDBRANCH   9  12
ENDBRANCH   6   9
ENDBRANCH   3   5
ENDBRANCH   2   3
BRANCH   2  23
ATOM     23  N   UNL     1      -4.218   3.665   3.044  1.00  0.00    -0.332 N 
ATOM     24  C   UNL     1      -3.404   4.668   3.715  1.00  0.00     0.147 C 
BRANCH  23  25
ATOM     25  C   UNL     1      -3.490   2.828   2.052  1.00  0.00     0.174 C 
BRANCH  25  26
ATOM     26  C   UNL     1      -4.362   2.441   0.835  1.00  0.00     0.038 C 
BRANCH  26  27
ATOM     27  C   UNL     1      -4.405   3.441  -0.342  1.00  0.00    -0.015 C 
ATOM     28  C   UNL     1      -5.644   4.335  -0.305  1.00  0.00     0.007 C 
ATOM     29  C   UNL     1      -3.138   4.284  -0.469  1.00  0.00     0.007 C 
ENDBRANCH  26  27
ENDBRANCH  25  26
BRANCH  25  30
ATOM     30  C   UNL     1      -2.833   1.619   2.756  1.00  0.00     0.243 C 
ATOM     31  O   UNL     1      -3.468   0.600   3.024  1.00  0.00    -0.273 OA
ATOM     32  N   UNL     1      -1.505   1.761   3.065  1.00  0.00    -0.342 N 
ATOM     33  H   UNL     1      -1.015   2.575   2.684  1.00  0.00     0.164 HD
BRANCH  32  34
ATOM     34  C   UNL     1      -0.727   0.729   3.756  1.00  0.00     0.175 C 
BRANCH  34  35
ATOM     35  C   UNL     1       0.368   0.151   2.847  1.00  0.00     0.070 C 
BRANCH  35  36
ATOM     36  C   UNL     1       1.174   1.223   2.149  1.00  0.00    -0.045 A 
ATOM     37  C   UNL     1       2.407   1.631   2.680  1.00  0.00     0.007 A 
ATOM     38  C   UNL     1       0.698   1.836   0.983  1.00  0.00     0.007 A 
ATOM     39  C   UNL     1       3.152   2.629   2.051  1.00  0.00     0.046 A 
ATOM     40  C   UNL     1       1.443   2.836   0.352  1.00  0.00     0.046 A 
ATOM     41  C   UNL     1       2.665   3.223   0.893  1.00  0.00     0.115 A 
BRANCH  41  42
ATOM     42  O   UNL     1       3.422   4.196   0.310  1.00  0.00    -0.508 OA
ATOM     43  H   UNL     1       3.128   4.300  -0.610  1.00  0.00     0.293 HD
ENDBRANCH  41  42
ENDBRANCH  35  36
ENDBRANCH  34  35
BRANCH  34  44
ATOM     44  C   UNL     1      -0.140   1.354   5.042  1.00  0.00     0.243 C 
ATOM     45  O   UNL     1       0.794   0.876   5.681  1.00  0.00    -0.273 OA
ATOM     46  N   UNL     1      -0.849   2.446   5.495  1.00  0.00    -0.341 N 
ATOM     47  H   UNL     1      -1.686   2.734   4.994  1.00  0.00     0.164 HD
BRANCH  46  48
ATOM     48  C   UNL     1      -0.523   3.163   6.730  1.00  0.00     0.196 C 
BRANCH  48  49
ATOM     49  C   UNL     1      -0.626   4.685   6.538  1.00  0.00     0.072 C 
BRANCH  49  50
ATOM     50  C   UNL     1       0.724   5.366   6.548  1.00  0.00    -0.045 A 
ATOM     51  C   UNL     1       0.984   6.388   7.472  1.00  0.00     0.007 A 
ATOM     52  C   UNL     1       1.719   5.006   5.631  1.00  0.00     0.007 A 
ATOM     53  C   UNL     1       2.221   7.032   7.482  1.00  0.00     0.046 A 
ATOM     54  C   UNL     1       2.958   5.652   5.640  1.00  0.00     0.046 A 
ATOM     55  C   UNL     1       3.198   6.660   6.567  1.00  0.00     0.115 A 
BRANCH  55  56
ATOM     56  O   UNL     1       4.393   7.316   6.609  1.00  0.00    -0.508 OA
ATOM     57  H   UNL     1       5.100   6.658   6.701  1.00  0.00     0.293 HD
ENDBRANCH  55  56
ENDBRANCH  49  50
ENDBRANCH  48  49
BRANCH  48  58
ATOM     58  C   UNL     1      -1.489   2.716   7.836  1.00  0.00     0.326 C 
ATOM     59  O   UNL     1      -1.447   1.681   8.480  1.00  0.00    -0.250 OA
BRANCH  58  60
ATOM     60  O   UNL     1      -2.471   3.617   8.093  1.00  0.00    -0.480 OA
ATOM     61  H   UNL     1      -2.684   3.978   7.205  1.00  0.00     0.296 HD
ENDBRANCH  58  60
ENDBRANCH  48  58
ENDBRANCH  46  48
ENDBRANCH  34  44
ENDBRANCH  32  34
ENDBRANCH  25  30
ENDBRANCH  23  25
ENDBRANCH   2  23
TORSDOF 28
ENDMDL
MODEL 35
REMARK VINA RESULT:    -5.487     12.952     17.813
REMARK INTER + INTRA:         -19.841
REMARK INTER:                 -14.678
REMARK INTRA:                  -5.163
REMARK UNBOUND:                -6.175
REMARK SMILES CCCCCCC[C@H](N)[C@H](O)C(=O)N[C@H](C)C(=O)N(C)[C@H](CC(C)C)C(=O)N[C@@H](Cc1ccc(O)cc1)C(=O)N[C@@H](Cc1ccc(O)cc1)C(=O)O
REMARK SMILES IDX 18 1 17 2 15 3 16 4 14 5 12 6 13 7 10 9 11 10 8 12 9 13 7 16
REMARK SMILES IDX 6 17 5 18 4 19 3 20 2 21 1 22 19 23 20 24 21 25 22 26 23 27
REMARK SMILES IDX 24 28 25 29 26 30 27 31 28 32 29 34 30 35 31 36 32 37 37 38
REMARK SMILES IDX 33 39 36 40 34 41 35 42 38 44 39 45 40 46 41 48 42 49 43 50
REMARK SMILES IDX 44 51 49 52 45 53 48 54 46 55 47 56 50 58 51 59 52 60
REMARK H PARENT 14 8 11 11 9 14 9 15 28 33 35 43 40 47 47 57 52 61
ROOT
ATOM      1  O   UNL     1      -5.253 -12.057  -0.860  1.00  0.00    -0.272 OA
ATOM      2  C   UNL     1      -6.296 -11.423  -0.644  1.00  0.00     0.245 C 
ENDROOT
BRANCH   2   3
ATOM      3  C   UNL     1      -6.941 -10.636  -1.812  1.00  0.00     0.168 C 
ATOM      4  C   UNL     1      -8.417 -10.369  -1.536  1.00  0.00     0.041 C 
BRANCH   3   5
ATOM      5  N   UNL     1      -6.234  -9.424  -2.195  1.00  0.00    -0.342 N 
ATOM      6  C   UNL     1      -5.411  -9.380  -3.301  1.00  0.00     0.251 C 
ATOM      7  O   UNL     1      -5.181 -10.353  -4.012  1.00  0.00    -0.272 OA
ATOM      8  H   UNL     1      -6.319  -8.562  -1.662  1.00  0.00     0.164 HD
BRANCH   6   9
ATOM      9  C   UNL     1      -4.885  -7.966  -3.595  1.00  0.00     0.219 C 
BRANCH   9  10
ATOM     10  O   UNL     1      -4.393  -7.827  -4.933  1.00  0.00    -0.382 OA
ATOM     11  H   UNL     1      -3.864  -8.643  -5.071  1.00  0.00     0.211 HD
ENDBRANCH   9  10
BRANCH   9  12
ATOM     12  C   UNL     1      -5.914  -6.853  -3.268  1.00  0.00     0.089 C 
BRANCH  12  13
ATOM     13  N   UNL     1      -5.547  -6.244  -1.969  1.00  0.00    -0.325 NA
ATOM     14  H   UNL     1      -6.152  -5.440  -1.791  1.00  0.00     0.119 HD
ATOM     15  H   UNL     1      -4.603  -5.857  -2.040  1.00  0.00     0.119 HD
ENDBRANCH  12  13
BRANCH  12  16
ATOM     16  C   UNL     1      -6.086  -5.752  -4.341  1.00  0.00     0.022 C 
BRANCH  16  17
ATOM     17  C   UNL     1      -7.018  -6.010  -5.533  1.00  0.00     0.002 C 
BRANCH  17  18
ATOM     18  C   UNL     1      -6.503  -5.499  -6.877  1.00  0.00     0.000 C 
BRANCH  18  19
ATOM     19  C   UNL     1      -7.599  -5.302  -7.932  1.00  0.00    -0.000 C 
BRANCH  19  20
ATOM     20  C   UNL     1      -8.431  -6.549  -8.246  1.00  0.00    -0.000 C 
BRANCH  20  21
ATOM     21  C   UNL     1      -9.905  -6.400  -7.858  1.00  0.00    -0.003 C 
ATOM     22  C   UNL     1     -10.360  -7.541  -6.962  1.00  0.00     0.004 C 
ENDBRANCH  20  21
ENDBRANCH  19  20
ENDBRANCH  18  19
ENDBRANCH  17  18
ENDBRANCH  16  17
ENDBRANCH  12  16
ENDBRANCH   9  12
ENDBRANCH   6   9
ENDBRANCH   3   5
ENDBRANCH   2   3
BRANCH   2  23
ATOM     23  N   UNL     1      -6.929 -11.526   0.591  1.00  0.00    -0.332 N 
ATOM     24  C   UNL     1      -7.886 -12.563   0.944  1.00  0.00     0.147 C 
BRANCH  23  25
ATOM     25  C   UNL     1      -6.552 -10.615   1.706  1.00  0.00     0.174 C 
BRANCH  25  26
ATOM     26  C   UNL     1      -6.505 -11.329   3.077  1.00  0.00     0.038 C 
BRANCH  26  27
ATOM     27  C   UNL     1      -5.892 -10.541   4.256  1.00  0.00    -0.015 C 
ATOM     28  C   UNL     1      -6.459 -10.975   5.607  1.00  0.00     0.007 C 
ATOM     29  C   UNL     1      -4.366 -10.573   4.280  1.00  0.00     0.007 C 
ENDBRANCH  26  27
ENDBRANCH  25  26
BRANCH  25  30
ATOM     30  C   UNL     1      -7.449  -9.356   1.691  1.00  0.00     0.243 C 
ATOM     31  O   UNL     1      -8.559  -9.342   2.223  1.00  0.00    -0.273 OA
ATOM     32  N   UNL     1      -6.929  -8.264   1.044  1.00  0.00    -0.342 N 
ATOM     33  H   UNL     1      -5.949  -8.308   0.753  1.00  0.00     0.164 HD
BRANCH  32  34
ATOM     34  C   UNL     1      -7.649  -6.995   0.908  1.00  0.00     0.175 C 
BRANCH  34  35
ATOM     35  C   UNL     1      -9.051  -7.209   0.316  1.00  0.00     0.070 C 
BRANCH  35  36
ATOM     36  C   UNL     1      -9.326  -6.317  -0.874  1.00  0.00    -0.045 A 
ATOM     37  C   UNL     1      -9.474  -4.933  -0.695  1.00  0.00     0.007 A 
ATOM     38  C   UNL     1      -9.459  -6.856  -2.160  1.00  0.00     0.007 A 
ATOM     39  C   UNL     1      -9.741  -4.104  -1.784  1.00  0.00     0.046 A 
ATOM     40  C   UNL     1      -9.728  -6.026  -3.252  1.00  0.00     0.046 A 
ATOM     41  C   UNL     1      -9.865  -4.656  -3.053  1.00  0.00     0.115 A 
BRANCH  41  42
ATOM     42  O   UNL     1     -10.130  -3.812  -4.091  1.00  0.00    -0.508 OA
ATOM     43  H   UNL     1      -9.807  -4.224  -4.909  1.00  0.00     0.293 HD
ENDBRANCH  41  42
ENDBRANCH  35  36
ENDBRANCH  34  35
BRANCH  34  44
ATOM     44  C   UNL     1      -7.706  -6.325   2.299  1.00  0.00     0.243 C 
ATOM     45  O   UNL     1      -6.725  -5.907   2.908  1.00  0.00    -0.273 OA
ATOM     46  N   UNL     1      -8.960  -6.350   2.870  1.00  0.00    -0.341 N 
ATOM     47  H   UNL     1      -9.719  -6.813   2.375  1.00  0.00     0.164 HD
BRANCH  46  48
ATOM     48  C   UNL     1      -9.246  -5.836   4.211  1.00  0.00     0.196 C 
BRANCH  48  49
ATOM     49  C   UNL     1     -10.735  -5.488   4.372  1.00  0.00     0.072 C 
BRANCH  49  50
ATOM     50  C   UNL     1     -11.336  -4.906   3.112  1.00  0.00    -0.045 A 
ATOM     51  C   UNL     1     -11.052  -3.581   2.750  1.00  0.00     0.007 A 
ATOM     52  C   UNL     1     -12.194  -5.665   2.306  1.00  0.00     0.007 A 
ATOM     53  C   UNL     1     -11.611  -3.030   1.597  1.00  0.00     0.046 A 
ATOM     54  C   UNL     1     -12.755  -5.112   1.152  1.00  0.00     0.046 A 
ATOM     55  C   UNL     1     -12.457  -3.798   0.807  1.00  0.00     0.115 A 
BRANCH  55  56
ATOM     56  O   UNL     1     -12.984  -3.221  -0.310  1.00  0.00    -0.508 OA
ATOM     57  H   UNL     1     -13.555  -3.871  -0.750  1.00  0.00     0.293 HD
ENDBRANCH  55  56
ENDBRANCH  49  50
ENDBRANCH  48  49
BRANCH  48  58
ATOM     58  C   UNL     1      -8.851  -6.898   5.247  1.00  0.00     0.326 C 
ATOM     59  O   UNL     1      -8.342  -6.710   6.341  1.00  0.00    -0.250 OA
BRANCH  58  60
ATOM     60  O   UNL     1      -9.133  -8.166   4.857  1.00  0.00    -0.480 OA
ATOM     61  H   UNL     1      -9.961  -8.065   4.340  1.00  0.00     0.296 HD
ENDBRANCH  58  60
ENDBRANCH  48  58
ENDBRANCH  46  48
ENDBRANCH  34  44
ENDBRANCH  32  34
ENDBRANCH  25  30
ENDBRANCH  23  25
ENDBRANCH   2  23
TORSDOF 28
ENDMDL
MODEL 36
REMARK VINA RESULT:    -5.476      1.944      2.881
REMARK INTER + INTRA:         -19.813
REMARK INTER:                 -13.562
REMARK INTRA:                  -6.251
REMARK UNBOUND:                -6.175
REMARK SMILES CCCCCCC[C@H](N)[C@H](O)C(=O)N[C@H](C)C(=O)N(C)[C@H](CC(C)C)C(=O)N[C@@H](Cc1ccc(O)cc1)C(=O)N[C@@H](Cc1ccc(O)cc1)C(=O)O
REMARK SMILES IDX 18 1 17 2 15 3 16 4 14 5 12 6 13 7 10 9 11 10 8 12 9 13 7 16
REMARK SMILES IDX 6 17 5 18 4 19 3 20 2 21 1 22 19 23 20 24 21 25 22 26 23 27
REMARK SMILES IDX 24 28 25 29 26 30 27 31 28 32 29 34 30 35 31 36 32 37 37 38
REMARK SMILES IDX 33 39 36 40 34 41 35 42 38 44 39 45 40 46 41 48 42 49 43 50
REMARK SMILES IDX 44 51 49 52 45 53 48 54 46 55 47 56 50 58 51 59 52 60
REMARK H PARENT 14 8 11 11 9 14 9 15 28 33 35 43 40 47 47 57 52 61
ROOT
ATOM      1  O   UNL     1     -17.844   2.054  -9.430  1.00  0.00    -0.272 OA
ATOM      2  C   UNL     1     -17.103   1.390  -8.689  1.00  0.00     0.245 C 
ENDROOT
BRANCH   2   3
ATOM      3  C   UNL     1     -16.058   0.449  -9.338  1.00  0.00     0.168 C 
ATOM      4  C   UNL     1     -16.649  -0.266 -10.548  1.00  0.00     0.041 C 
BRANCH   3   5
ATOM      5  N   UNL     1     -14.782   1.075  -9.649  1.00  0.00    -0.342 N 
ATOM      6  C   UNL     1     -13.700   0.984  -8.798  1.00  0.00     0.251 C 
ATOM      7  O   UNL     1     -13.739   0.415  -7.713  1.00  0.00    -0.272 OA
ATOM      8  H   UNL     1     -14.639   1.605 -10.505  1.00  0.00     0.164 HD
BRANCH   6   9
ATOM      9  C   UNL     1     -12.422   1.596  -9.395  1.00  0.00     0.219 C 
BRANCH   9  10
ATOM     10  O   UNL     1     -12.691   2.467 -10.501  1.00  0.00    -0.382 OA
ATOM     11  H   UNL     1     -13.172   3.219 -10.091  1.00  0.00     0.211 HD
ENDBRANCH   9  10
BRANCH   9  12
ATOM     12  C   UNL     1     -11.537   2.306  -8.337  1.00  0.00     0.089 C 
BRANCH  12  13
ATOM     13  N   UNL     1     -10.117   2.097  -8.701  1.00  0.00    -0.325 NA
ATOM     14  H   UNL     1      -9.765   1.267  -8.218  1.00  0.00     0.119 HD
ATOM     15  H   UNL     1      -9.563   2.874  -8.333  1.00  0.00     0.119 HD
ENDBRANCH  12  13
BRANCH  12  16
ATOM     16  C   UNL     1     -11.814   3.814  -8.123  1.00  0.00     0.022 C 
BRANCH  16  17
ATOM     17  C   UNL     1     -10.790   4.840  -8.625  1.00  0.00     0.002 C 
BRANCH  17  18
ATOM     18  C   UNL     1     -11.370   5.964  -9.482  1.00  0.00     0.000 C 
BRANCH  18  19
ATOM     19  C   UNL     1     -11.031   7.373  -8.977  1.00  0.00    -0.000 C 
BRANCH  19  20
ATOM     20  C   UNL     1     -11.561   7.708  -7.580  1.00  0.00    -0.000 C 
BRANCH  20  21
ATOM     21  C   UNL     1     -10.450   7.855  -6.537  1.00  0.00    -0.003 C 
ATOM     22  C   UNL     1      -9.075   7.850  -7.187  1.00  0.00     0.004 C 
ENDBRANCH  20  21
ENDBRANCH  19  20
ENDBRANCH  18  19
ENDBRANCH  17  18
ENDBRANCH  16  17
ENDBRANCH  12  16
ENDBRANCH   9  12
ENDBRANCH   6   9
ENDBRANCH   3   5
ENDBRANCH   2   3
BRANCH   2  23
ATOM     23  N   UNL     1     -17.137   1.588  -7.313  1.00  0.00    -0.332 N 
ATOM     24  C   UNL     1     -17.276   0.525  -6.329  1.00  0.00     0.147 C 
BRANCH  23  25
ATOM     25  C   UNL     1     -16.897   2.942  -6.743  1.00  0.00     0.174 C 
BRANCH  25  26
ATOM     26  C   UNL     1     -18.138   3.522  -6.025  1.00  0.00     0.038 C 
BRANCH  26  27
ATOM     27  C   UNL     1     -19.510   2.917  -6.398  1.00  0.00    -0.015 C 
ATOM     28  C   UNL     1     -20.416   2.728  -5.182  1.00  0.00     0.007 C 
ATOM     29  C   UNL     1     -20.237   3.691  -7.495  1.00  0.00     0.007 C 
ENDBRANCH  26  27
ENDBRANCH  25  26
BRANCH  25  30
ATOM     30  C   UNL     1     -16.311   3.879  -7.825  1.00  0.00     0.243 C 
ATOM     31  O   UNL     1     -15.213   3.671  -8.339  1.00  0.00    -0.273 OA
ATOM     32  N   UNL     1     -17.092   4.953  -8.165  1.00  0.00    -0.342 N 
ATOM     33  H   UNL     1     -18.047   4.979  -7.800  1.00  0.00     0.164 HD
BRANCH  32  34
ATOM     34  C   UNL     1     -16.685   5.959  -9.150  1.00  0.00     0.175 C 
BRANCH  34  35
ATOM     35  C   UNL     1     -15.212   6.357  -8.969  1.00  0.00     0.070 C 
BRANCH  35  36
ATOM     36  C   UNL     1     -15.021   7.851  -8.841  1.00  0.00    -0.045 A 
ATOM     37  C   UNL     1     -14.433   8.575  -9.889  1.00  0.00     0.007 A 
ATOM     38  C   UNL     1     -15.404   8.528  -7.676  1.00  0.00     0.007 A 
ATOM     39  C   UNL     1     -14.240   9.952  -9.776  1.00  0.00     0.046 A 
ATOM     40  C   UNL     1     -15.210   9.907  -7.561  1.00  0.00     0.046 A 
ATOM     41  C   UNL     1     -14.630  10.607  -8.613  1.00  0.00     0.115 A 
BRANCH  41  42
ATOM     42  O   UNL     1     -14.421  11.952  -8.541  1.00  0.00    -0.508 OA
ATOM     43  H   UNL     1     -13.937  12.142  -7.721  1.00  0.00     0.293 HD
ENDBRANCH  41  42
ENDBRANCH  35  36
ENDBRANCH  34  35
BRANCH  34  44
ATOM     44  C   UNL     1     -16.959   5.387 -10.559  1.00  0.00     0.243 C 
ATOM     45  O   UNL     1     -18.077   5.137 -11.001  1.00  0.00    -0.273 OA
ATOM     46  N   UNL     1     -15.813   5.052 -11.248  1.00  0.00    -0.341 N 
ATOM     47  H   UNL     1     -14.911   5.169 -10.793  1.00  0.00     0.164 HD
BRANCH  46  48
ATOM     48  C   UNL     1     -15.822   4.430 -12.574  1.00  0.00     0.196 C 
BRANCH  48  49
ATOM     49  C   UNL     1     -14.535   4.752 -13.352  1.00  0.00     0.072 C 
BRANCH  49  50
ATOM     50  C   UNL     1     -14.223   6.231 -13.375  1.00  0.00    -0.045 A 
ATOM     51  C   UNL     1     -12.961   6.686 -12.968  1.00  0.00     0.007 A 
ATOM     52  C   UNL     1     -15.186   7.164 -13.780  1.00  0.00     0.007 A 
ATOM     53  C   UNL     1     -12.666   8.049 -12.973  1.00  0.00     0.046 A 
ATOM     54  C   UNL     1     -14.892   8.530 -13.783  1.00  0.00     0.046 A 
ATOM     55  C   UNL     1     -13.633   8.961 -13.380  1.00  0.00     0.115 A 
BRANCH  55  56
ATOM     56  O   UNL     1     -13.305  10.284 -13.368  1.00  0.00    -0.508 OA
ATOM     57  H   UNL     1     -12.408  10.374 -13.009  1.00  0.00     0.293 HD
ENDBRANCH  55  56
ENDBRANCH  49  50
ENDBRANCH  48  49
BRANCH  48  58
ATOM     58  C   UNL     1     -15.959   2.910 -12.412  1.00  0.00     0.326 C 
ATOM     59  O   UNL     1     -15.059   2.094 -12.305  1.00  0.00    -0.250 OA
BRANCH  58  60
ATOM     60  O   UNL     1     -17.247   2.484 -12.377  1.00  0.00    -0.480 OA
ATOM     61  H   UNL     1     -17.732   3.260 -12.022  1.00  0.00     0.296 HD
ENDBRANCH  58  60
ENDBRANCH  48  58
ENDBRANCH  46  48
ENDBRANCH  34  44
ENDBRANCH  32  34
ENDBRANCH  25  30
ENDBRANCH  23  25
ENDBRANCH   2  23
TORSDOF 28
ENDMDL
MODEL 37
REMARK VINA RESULT:    -5.472      2.191      4.381
REMARK INTER + INTRA:         -19.804
REMARK INTER:                 -15.068
REMARK INTRA:                  -4.736
REMARK UNBOUND:                -6.175
REMARK SMILES CCCCCCC[C@H](N)[C@H](O)C(=O)N[C@H](C)C(=O)N(C)[C@H](CC(C)C)C(=O)N[C@@H](Cc1ccc(O)cc1)C(=O)N[C@@H](Cc1ccc(O)cc1)C(=O)O
REMARK SMILES IDX 18 1 17 2 15 3 16 4 14 5 12 6 13 7 10 9 11 10 8 12 9 13 7 16
REMARK SMILES IDX 6 17 5 18 4 19 3 20 2 21 1 22 19 23 20 24 21 25 22 26 23 27
REMARK SMILES IDX 24 28 25 29 26 30 27 31 28 32 29 34 30 35 31 36 32 37 37 38
REMARK SMILES IDX 33 39 36 40 34 41 35 42 38 44 39 45 40 46 41 48 42 49 43 50
REMARK SMILES IDX 44 51 49 52 45 53 48 54 46 55 47 56 50 58 51 59 52 60
REMARK H PARENT 14 8 11 11 9 14 9 15 28 33 35 43 40 47 47 57 52 61
ROOT
ATOM      1  O   UNL     1     -15.167  -0.367  -8.199  1.00  0.00    -0.272 OA
ATOM      2  C   UNL     1     -15.480   0.728  -8.688  1.00  0.00     0.245 C 
ENDROOT
BRANCH   2   3
ATOM      3  C   UNL     1     -14.636   1.973  -8.319  1.00  0.00     0.168 C 
ATOM      4  C   UNL     1     -15.289   2.754  -7.184  1.00  0.00     0.041 C 
BRANCH   3   5
ATOM      5  N   UNL     1     -13.232   1.702  -8.053  1.00  0.00    -0.342 N 
ATOM      6  C   UNL     1     -12.260   1.884  -9.014  1.00  0.00     0.251 C 
ATOM      7  O   UNL     1     -12.502   2.242 -10.162  1.00  0.00    -0.272 OA
ATOM      8  H   UNL     1     -12.913   1.368  -7.146  1.00  0.00     0.164 HD
BRANCH   6   9
ATOM      9  C   UNL     1     -10.838   1.675  -8.468  1.00  0.00     0.219 C 
BRANCH   9  10
ATOM     10  O   UNL     1     -10.028   0.870  -9.333  1.00  0.00    -0.382 OA
ATOM     11  H   UNL     1     -10.631   0.143  -9.605  1.00  0.00     0.211 HD
ENDBRANCH   9  10
BRANCH   9  12
ATOM     12  C   UNL     1     -10.118   3.003  -8.118  1.00  0.00     0.089 C 
BRANCH  12  13
ATOM     13  N   UNL     1     -11.103   4.105  -8.205  1.00  0.00    -0.325 NA
ATOM     14  H   UNL     1     -11.174   4.566  -7.296  1.00  0.00     0.119 HD
ATOM     15  H   UNL     1     -12.030   3.708  -8.376  1.00  0.00     0.119 HD
ENDBRANCH  12  13
BRANCH  12  16
ATOM     16  C   UNL     1      -9.396   3.042  -6.750  1.00  0.00     0.022 C 
BRANCH  16  17
ATOM     17  C   UNL     1      -7.869   3.188  -6.715  1.00  0.00     0.002 C 
BRANCH  17  18
ATOM     18  C   UNL     1      -7.101   2.113  -7.481  1.00  0.00     0.000 C 
BRANCH  18  19
ATOM     19  C   UNL     1      -5.578   2.295  -7.455  1.00  0.00    -0.000 C 
BRANCH  19  20
ATOM     20  C   UNL     1      -5.049   3.194  -6.334  1.00  0.00    -0.000 C 
BRANCH  20  21
ATOM     21  C   UNL     1      -3.554   3.002  -6.066  1.00  0.00    -0.003 C 
ATOM     22  C   UNL     1      -3.286   1.698  -5.331  1.00  0.00     0.004 C 
ENDBRANCH  20  21
ENDBRANCH  19  20
ENDBRANCH  18  19
ENDBRANCH  17  18
ENDBRANCH  16  17
ENDBRANCH  12  16
ENDBRANCH   9  12
ENDBRANCH   6   9
ENDBRANCH   3   5
ENDBRANCH   2   3
BRANCH   2  23
ATOM     23  N   UNL     1     -16.491   0.801  -9.641  1.00  0.00    -0.332 N 
ATOM     24  C   UNL     1     -16.563  -0.029 -10.834  1.00  0.00     0.147 C 
BRANCH  23  25
ATOM     25  C   UNL     1     -17.671   1.681  -9.418  1.00  0.00     0.174 C 
BRANCH  25  26
ATOM     26  C   UNL     1     -18.960   0.890  -9.093  1.00  0.00     0.038 C 
BRANCH  26  27
ATOM     27  C   UNL     1     -19.801   1.384  -7.894  1.00  0.00    -0.015 C 
ATOM     28  C   UNL     1     -18.965   2.156  -6.873  1.00  0.00     0.007 C 
ATOM     29  C   UNL     1     -21.028   2.194  -8.306  1.00  0.00     0.007 C 
ENDBRANCH  26  27
ENDBRANCH  25  26
BRANCH  25  30
ATOM     30  C   UNL     1     -17.828   2.669 -10.597  1.00  0.00     0.243 C 
ATOM     31  O   UNL     1     -18.699   2.524 -11.454  1.00  0.00    -0.273 OA
ATOM     32  N   UNL     1     -16.932   3.706 -10.626  1.00  0.00    -0.342 N 
ATOM     33  H   UNL     1     -16.334   3.838  -9.806  1.00  0.00     0.164 HD
BRANCH  32  34
ATOM     34  C   UNL     1     -16.915   4.721 -11.683  1.00  0.00     0.175 C 
BRANCH  34  35
ATOM     35  C   UNL     1     -17.281   6.108 -11.132  1.00  0.00     0.070 C 
BRANCH  35  36
ATOM     36  C   UNL     1     -17.903   6.045  -9.755  1.00  0.00    -0.045 A 
ATOM     37  C   UNL     1     -17.095   6.160  -8.614  1.00  0.00     0.007 A 
ATOM     38  C   UNL     1     -19.282   5.849  -9.597  1.00  0.00     0.007 A 
ATOM     39  C   UNL     1     -17.658   6.089  -7.339  1.00  0.00     0.046 A 
ATOM     40  C   UNL     1     -19.846   5.777  -8.322  1.00  0.00     0.046 A 
ATOM     41  C   UNL     1     -19.028   5.899  -7.203  1.00  0.00     0.115 A 
BRANCH  41  42
ATOM     42  O   UNL     1     -19.538   5.832  -5.940  1.00  0.00    -0.508 OA
ATOM     43  H   UNL     1     -19.258   6.627  -5.456  1.00  0.00     0.293 HD
ENDBRANCH  41  42
ENDBRANCH  35  36
ENDBRANCH  34  35
BRANCH  34  44
ATOM     44  C   UNL     1     -15.513   4.710 -12.333  1.00  0.00     0.243 C 
ATOM     45  O   UNL     1     -15.130   3.870 -13.142  1.00  0.00    -0.273 OA
ATOM     46  N   UNL     1     -14.664   5.669 -11.823  1.00  0.00    -0.341 N 
ATOM     47  H   UNL     1     -14.991   6.268 -11.069  1.00  0.00     0.164 HD
BRANCH  46  48
ATOM     48  C   UNL     1     -13.265   5.808 -12.235  1.00  0.00     0.196 C 
BRANCH  48  49
ATOM     49  C   UNL     1     -13.042   7.107 -13.028  1.00  0.00     0.072 C 
BRANCH  49  50
ATOM     50  C   UNL     1     -14.292   7.950 -13.127  1.00  0.00    -0.045 A 
ATOM     51  C   UNL     1     -15.152   7.799 -14.225  1.00  0.00     0.007 A 
ATOM     52  C   UNL     1     -14.600   8.902 -12.146  1.00  0.00     0.007 A 
ATOM     53  C   UNL     1     -16.302   8.581 -14.334  1.00  0.00     0.046 A 
ATOM     54  C   UNL     1     -15.750   9.686 -12.256  1.00  0.00     0.046 A 
ATOM     55  C   UNL     1     -16.593   9.518 -13.349  1.00  0.00     0.115 A 
BRANCH  55  56
ATOM     56  O   UNL     1     -17.725  10.263 -13.494  1.00  0.00    -0.508 OA
ATOM     57  H   UNL     1     -17.702  10.985 -12.845  1.00  0.00     0.293 HD
ENDBRANCH  55  56
ENDBRANCH  49  50
ENDBRANCH  48  49
BRANCH  48  58
ATOM     58  C   UNL     1     -12.374   5.808 -10.986  1.00  0.00     0.326 C 
ATOM     59  O   UNL     1     -12.692   6.124  -9.851  1.00  0.00    -0.250 OA
BRANCH  58  60
ATOM     60  O   UNL     1     -11.105   5.390 -11.225  1.00  0.00    -0.480 OA
ATOM     61  H   UNL     1     -10.583   6.221 -11.191  1.00  0.00     0.296 HD
ENDBRANCH  58  60
ENDBRANCH  48  58
ENDBRANCH  46  48
ENDBRANCH  34  44
ENDBRANCH  32  34
ENDBRANCH  25  30
ENDBRANCH  23  25
ENDBRANCH   2  23
TORSDOF 28
ENDMDL
MODEL 38
REMARK VINA RESULT:    -5.456      2.122      4.776
REMARK INTER + INTRA:         -19.764
REMARK INTER:                 -12.799
REMARK INTRA:                  -6.965
REMARK UNBOUND:                -6.175
REMARK SMILES CCCCCCC[C@H](N)[C@H](O)C(=O)N[C@H](C)C(=O)N(C)[C@H](CC(C)C)C(=O)N[C@@H](Cc1ccc(O)cc1)C(=O)N[C@@H](Cc1ccc(O)cc1)C(=O)O
REMARK SMILES IDX 18 1 17 2 15 3 16 4 14 5 12 6 13 7 10 9 11 10 8 12 9 13 7 16
REMARK SMILES IDX 6 17 5 18 4 19 3 20 2 21 1 22 19 23 20 24 21 25 22 26 23 27
REMARK SMILES IDX 24 28 25 29 26 30 27 31 28 32 29 34 30 35 31 36 32 37 37 38
REMARK SMILES IDX 33 39 36 40 34 41 35 42 38 44 39 45 40 46 41 48 42 49 43 50
REMARK SMILES IDX 44 51 49 52 45 53 48 54 46 55 47 56 50 58 51 59 52 60
REMARK H PARENT 14 8 11 11 9 14 9 15 28 33 35 43 40 47 47 57 52 61
ROOT
ATOM      1  O   UNL     1     -14.213   1.658 -11.960  1.00  0.00    -0.272 OA
ATOM      2  C   UNL     1     -14.480   1.285 -10.808  1.00  0.00     0.245 C 
ENDROOT
BRANCH   2   3
ATOM      3  C   UNL     1     -13.343   1.252  -9.758  1.00  0.00     0.168 C 
ATOM      4  C   UNL     1     -12.385   0.098 -10.031  1.00  0.00     0.041 C 
BRANCH   3   5
ATOM      5  N   UNL     1     -12.636   2.512  -9.582  1.00  0.00    -0.342 N 
ATOM      6  C   UNL     1     -12.827   3.305  -8.471  1.00  0.00     0.251 C 
ATOM      7  O   UNL     1     -13.624   3.037  -7.578  1.00  0.00    -0.272 OA
ATOM      8  H   UNL     1     -11.975   2.856 -10.274  1.00  0.00     0.164 HD
BRANCH   6   9
ATOM      9  C   UNL     1     -11.875   4.511  -8.430  1.00  0.00     0.219 C 
BRANCH   9  10
ATOM     10  O   UNL     1     -10.576   4.207  -8.953  1.00  0.00    -0.382 OA
ATOM     11  H   UNL     1     -10.751   3.994  -9.896  1.00  0.00     0.211 HD
ENDBRANCH   9  10
BRANCH   9  12
ATOM     12  C   UNL     1     -12.462   5.774  -9.113  1.00  0.00     0.089 C 
BRANCH  12  13
ATOM     13  N   UNL     1     -13.738   5.402  -9.765  1.00  0.00    -0.325 NA
ATOM     14  H   UNL     1     -13.542   5.012 -10.690  1.00  0.00     0.119 HD
ATOM     15  H   UNL     1     -14.279   6.251  -9.943  1.00  0.00     0.119 HD
ENDBRANCH  12  13
BRANCH  12  16
ATOM     16  C   UNL     1     -12.672   7.004  -8.197  1.00  0.00     0.022 C 
BRANCH  16  17
ATOM     17  C   UNL     1     -12.819   8.392  -8.834  1.00  0.00     0.002 C 
BRANCH  17  18
ATOM     18  C   UNL     1     -14.237   8.753  -9.274  1.00  0.00     0.000 C 
BRANCH  18  19
ATOM     19  C   UNL     1     -14.851   9.927  -8.501  1.00  0.00    -0.000 C 
BRANCH  19  20
ATOM     20  C   UNL     1     -15.318   9.597  -7.080  1.00  0.00    -0.000 C 
BRANCH  20  21
ATOM     21  C   UNL     1     -14.829  10.606  -6.038  1.00  0.00    -0.003 C 
ATOM     22  C   UNL     1     -13.317  10.560  -5.888  1.00  0.00     0.004 C 
ENDBRANCH  20  21
ENDBRANCH  19  20
ENDBRANCH  18  19
ENDBRANCH  17  18
ENDBRANCH  16  17
ENDBRANCH  12  16
ENDBRANCH   9  12
ENDBRANCH   6   9
ENDBRANCH   3   5
ENDBRANCH   2   3
BRANCH   2  23
ATOM     23  N   UNL     1     -15.798   1.023 -10.450  1.00  0.00    -0.332 N 
ATOM     24  C   UNL     1     -16.499  -0.222 -10.730  1.00  0.00     0.147 C 
BRANCH  23  25
ATOM     25  C   UNL     1     -16.557   1.994  -9.615  1.00  0.00     0.174 C 
BRANCH  25  26
ATOM     26  C   UNL     1     -17.561   1.310  -8.658  1.00  0.00     0.038 C 
BRANCH  26  27
ATOM     27  C   UNL     1     -17.191   1.284  -7.158  1.00  0.00    -0.015 C 
ATOM     28  C   UNL     1     -17.272   2.666  -6.511  1.00  0.00     0.007 C 
ATOM     29  C   UNL     1     -17.995   0.266  -6.352  1.00  0.00     0.007 C 
ENDBRANCH  26  27
ENDBRANCH  25  26
BRANCH  25  30
ATOM     30  C   UNL     1     -17.194   3.082 -10.510  1.00  0.00     0.243 C 
ATOM     31  O   UNL     1     -18.263   2.902 -11.091  1.00  0.00    -0.273 OA
ATOM     32  N   UNL     1     -16.486   4.252 -10.617  1.00  0.00    -0.342 N 
ATOM     33  H   UNL     1     -15.683   4.378  -9.996  1.00  0.00     0.164 HD
BRANCH  32  34
ATOM     34  C   UNL     1     -16.924   5.381 -11.443  1.00  0.00     0.175 C 
BRANCH  34  35
ATOM     35  C   UNL     1     -17.062   6.663 -10.608  1.00  0.00     0.070 C 
BRANCH  35  36
ATOM     36  C   UNL     1     -17.743   6.425  -9.278  1.00  0.00    -0.045 A 
ATOM     37  C   UNL     1     -17.028   6.598  -8.083  1.00  0.00     0.007 A 
ATOM     38  C   UNL     1     -19.079   6.008  -9.219  1.00  0.00     0.007 A 
ATOM     39  C   UNL     1     -17.643   6.367  -6.853  1.00  0.00     0.046 A 
ATOM     40  C   UNL     1     -19.695   5.775  -7.987  1.00  0.00     0.046 A 
ATOM     41  C   UNL     1     -18.971   5.959  -6.814  1.00  0.00     0.115 A 
BRANCH  41  42
ATOM     42  O   UNL     1     -19.534   5.741  -5.591  1.00  0.00    -0.508 OA
ATOM     43  H   UNL     1     -19.899   6.582  -5.270  1.00  0.00     0.293 HD
ENDBRANCH  41  42
ENDBRANCH  35  36
ENDBRANCH  34  35
BRANCH  34  44
ATOM     44  C   UNL     1     -15.911   5.550 -12.597  1.00  0.00     0.243 C 
ATOM     45  O   UNL     1     -15.737   4.730 -13.494  1.00  0.00    -0.273 OA
ATOM     46  N   UNL     1     -15.109   6.664 -12.464  1.00  0.00    -0.341 N 
ATOM     47  H   UNL     1     -15.212   7.252 -11.641  1.00  0.00     0.164 HD
BRANCH  46  48
ATOM     48  C   UNL     1     -14.031   6.997 -13.398  1.00  0.00     0.196 C 
BRANCH  48  49
ATOM     49  C   UNL     1     -14.189   8.423 -13.951  1.00  0.00     0.072 C 
BRANCH  49  50
ATOM     50  C   UNL     1     -15.524   9.039 -13.598  1.00  0.00    -0.045 A 
ATOM     51  C   UNL     1     -15.626   9.906 -12.501  1.00  0.00     0.007 A 
ATOM     52  C   UNL     1     -16.674   8.741 -14.341  1.00  0.00     0.007 A 
ATOM     53  C   UNL     1     -16.856  10.469 -12.158  1.00  0.00     0.046 A 
ATOM     54  C   UNL     1     -17.905   9.304 -13.998  1.00  0.00     0.046 A 
ATOM     55  C   UNL     1     -17.985  10.165 -12.909  1.00  0.00     0.115 A 
BRANCH  55  56
ATOM     56  O   UNL     1     -19.167  10.735 -12.540  1.00  0.00    -0.508 OA
ATOM     57  H   UNL     1     -19.879  10.095 -12.702  1.00  0.00     0.293 HD
ENDBRANCH  55  56
ENDBRANCH  49  50
ENDBRANCH  48  49
BRANCH  48  58
ATOM     58  C   UNL     1     -12.684   6.872 -12.672  1.00  0.00     0.326 C 
ATOM     59  O   UNL     1     -12.010   7.776 -12.205  1.00  0.00    -0.250 OA
BRANCH  58  60
ATOM     60  O   UNL     1     -12.250   5.592 -12.553  1.00  0.00    -0.480 OA
ATOM     61  H   UNL     1     -13.072   5.064 -12.651  1.00  0.00     0.296 HD
ENDBRANCH  58  60
ENDBRANCH  48  58
ENDBRANCH  46  48
ENDBRANCH  34  44
ENDBRANCH  32  34
ENDBRANCH  25  30
ENDBRANCH  23  25
ENDBRANCH   2  23
TORSDOF 28
ENDMDL
MODEL 39
REMARK VINA RESULT:    -5.442      2.464      4.687
REMARK INTER + INTRA:         -19.730
REMARK INTER:                 -14.762
REMARK INTRA:                  -4.968
REMARK UNBOUND:                -6.175
REMARK SMILES CCCCCCC[C@H](N)[C@H](O)C(=O)N[C@H](C)C(=O)N(C)[C@H](CC(C)C)C(=O)N[C@@H](Cc1ccc(O)cc1)C(=O)N[C@@H](Cc1ccc(O)cc1)C(=O)O
REMARK SMILES IDX 18 1 17 2 15 3 16 4 14 5 12 6 13 7 10 9 11 10 8 12 9 13 7 16
REMARK SMILES IDX 6 17 5 18 4 19 3 20 2 21 1 22 19 23 20 24 21 25 22 26 23 27
REMARK SMILES IDX 24 28 25 29 26 30 27 31 28 32 29 34 30 35 31 36 32 37 37 38
REMARK SMILES IDX 33 39 36 40 34 41 35 42 38 44 39 45 40 46 41 48 42 49 43 50
REMARK SMILES IDX 44 51 49 52 45 53 48 54 46 55 47 56 50 58 51 59 52 60
REMARK H PARENT 14 8 11 11 9 14 9 15 28 33 35 43 40 47 47 57 52 61
ROOT
ATOM      1  O   UNL     1     -17.077   0.108 -11.205  1.00  0.00    -0.272 OA
ATOM      2  C   UNL     1     -16.421   0.533 -10.243  1.00  0.00     0.245 C 
ENDROOT
BRANCH   2   3
ATOM      3  C   UNL     1     -14.900   0.763 -10.427  1.00  0.00     0.168 C 
ATOM      4  C   UNL     1     -14.634   1.734 -11.572  1.00  0.00     0.041 C 
BRANCH   3   5
ATOM      5  N   UNL     1     -14.188   1.144  -9.217  1.00  0.00    -0.342 N 
ATOM      6  C   UNL     1     -12.937   0.645  -8.921  1.00  0.00     0.251 C 
ATOM      7  O   UNL     1     -12.353  -0.176  -9.620  1.00  0.00    -0.272 OA
ATOM      8  H   UNL     1     -14.587   1.792  -8.542  1.00  0.00     0.164 HD
BRANCH   6   9
ATOM      9  C   UNL     1     -12.320   1.293  -7.671  1.00  0.00     0.219 C 
BRANCH   9  10
ATOM     10  O   UNL     1     -11.740   0.332  -6.780  1.00  0.00    -0.382 OA
ATOM     11  H   UNL     1     -10.810   0.637  -6.686  1.00  0.00     0.211 HD
ENDBRANCH   9  10
BRANCH   9  12
ATOM     12  C   UNL     1     -11.305   2.417  -8.005  1.00  0.00     0.089 C 
BRANCH  12  13
ATOM     13  N   UNL     1     -11.644   2.972  -9.336  1.00  0.00    -0.325 NA
ATOM     14  H   UNL     1     -12.658   2.954  -9.459  1.00  0.00     0.119 HD
ATOM     15  H   UNL     1     -11.276   2.347 -10.058  1.00  0.00     0.119 HD
ENDBRANCH  12  13
BRANCH  12  16
ATOM     16  C   UNL     1     -11.192   3.559  -6.967  1.00  0.00     0.022 C 
BRANCH  16  17
ATOM     17  C   UNL     1     -10.182   4.689  -7.207  1.00  0.00     0.002 C 
BRANCH  17  18
ATOM     18  C   UNL     1      -8.716   4.278  -7.096  1.00  0.00     0.000 C 
BRANCH  18  19
ATOM     19  C   UNL     1      -7.802   4.930  -8.142  1.00  0.00    -0.000 C 
BRANCH  19  20
ATOM     20  C   UNL     1      -7.987   6.440  -8.315  1.00  0.00    -0.000 C 
BRANCH  20  21
ATOM     21  C   UNL     1      -7.402   7.252  -7.156  1.00  0.00    -0.003 C 
ATOM     22  C   UNL     1      -5.895   7.068  -7.055  1.00  0.00     0.004 C 
ENDBRANCH  20  21
ENDBRANCH  19  20
ENDBRANCH  18  19
ENDBRANCH  17  18
ENDBRANCH  16  17
ENDBRANCH  12  16
ENDBRANCH   9  12
ENDBRANCH   6   9
ENDBRANCH   3   5
ENDBRANCH   2   3
BRANCH   2  23
ATOM     23  N   UNL     1     -17.068   0.907  -9.070  1.00  0.00    -0.332 N 
ATOM     24  C   UNL     1     -16.754   0.382  -7.749  1.00  0.00     0.147 C 
BRANCH  23  25
ATOM     25  C   UNL     1     -18.074   2.004  -9.085  1.00  0.00     0.174 C 
BRANCH  25  26
ATOM     26  C   UNL     1     -19.526   1.488  -9.222  1.00  0.00     0.038 C 
BRANCH  26  27
ATOM     27  C   UNL     1     -20.543   1.969  -8.163  1.00  0.00    -0.015 C 
ATOM     28  C   UNL     1     -19.907   2.166  -6.788  1.00  0.00     0.007 C 
ATOM     29  C   UNL     1     -21.311   3.220  -8.583  1.00  0.00     0.007 C 
ENDBRANCH  26  27
ENDBRANCH  25  26
BRANCH  25  30
ATOM     30  C   UNL     1     -17.690   3.065 -10.142  1.00  0.00     0.243 C 
ATOM     31  O   UNL     1     -18.208   3.089 -11.257  1.00  0.00    -0.273 OA
ATOM     32  N   UNL     1     -16.733   3.968  -9.755  1.00  0.00    -0.342 N 
ATOM     33  H   UNL     1     -16.456   3.971  -8.770  1.00  0.00     0.164 HD
BRANCH  32  34
ATOM     34  C   UNL     1     -16.227   5.025 -10.634  1.00  0.00     0.175 C 
BRANCH  34  35
ATOM     35  C   UNL     1     -17.011   6.333 -10.445  1.00  0.00     0.070 C 
BRANCH  35  36
ATOM     36  C   UNL     1     -17.553   6.492  -9.042  1.00  0.00    -0.045 A 
ATOM     37  C   UNL     1     -16.731   7.003  -8.026  1.00  0.00     0.007 A 
ATOM     38  C   UNL     1     -18.865   6.112  -8.731  1.00  0.00     0.007 A 
ATOM     39  C   UNL     1     -17.218   7.140  -6.725  1.00  0.00     0.046 A 
ATOM     40  C   UNL     1     -19.353   6.248  -7.429  1.00  0.00     0.046 A 
ATOM     41  C   UNL     1     -18.525   6.763  -6.438  1.00  0.00     0.115 A 
BRANCH  41  42
ATOM     42  O   UNL     1     -18.961   6.910  -5.154  1.00  0.00    -0.508 OA
ATOM     43  H   UNL     1     -18.414   6.348  -4.581  1.00  0.00     0.293 HD
ENDBRANCH  41  42
ENDBRANCH  35  36
ENDBRANCH  34  35
BRANCH  34  44
ATOM     44  C   UNL     1     -14.720   5.208 -10.345  1.00  0.00     0.243 C 
ATOM     45  O   UNL     1     -14.024   4.390  -9.750  1.00  0.00    -0.273 OA
ATOM     46  N   UNL     1     -14.239   6.449 -10.703  1.00  0.00    -0.341 N 
ATOM     47  H   UNL     1     -14.883   7.137 -11.086  1.00  0.00     0.164 HD
BRANCH  46  48
ATOM     48  C   UNL     1     -12.859   6.878 -10.464  1.00  0.00     0.196 C 
BRANCH  48  49
ATOM     49  C   UNL     1     -12.421   6.578  -9.021  1.00  0.00     0.072 C 
BRANCH  49  50
ATOM     50  C   UNL     1     -12.364   7.820  -8.160  1.00  0.00    -0.045 A 
ATOM     51  C   UNL     1     -11.196   8.122  -7.445  1.00  0.00     0.007 A 
ATOM     52  C   UNL     1     -13.471   8.670  -8.047  1.00  0.00     0.007 A 
ATOM     53  C   UNL     1     -11.136   9.257  -6.637  1.00  0.00     0.046 A 
ATOM     54  C   UNL     1     -13.412   9.807  -7.237  1.00  0.00     0.046 A 
ATOM     55  C   UNL     1     -12.243  10.091  -6.540  1.00  0.00     0.115 A 
BRANCH  55  56
ATOM     56  O   UNL     1     -12.144  11.190  -5.738  1.00  0.00    -0.508 OA
ATOM     57  H   UNL     1     -12.272  10.910  -4.818  1.00  0.00     0.293 HD
ENDBRANCH  55  56
ENDBRANCH  49  50
ENDBRANCH  48  49
BRANCH  48  58
ATOM     58  C   UNL     1     -11.932   6.148 -11.446  1.00  0.00     0.326 C 
ATOM     59  O   UNL     1     -11.967   6.189 -12.665  1.00  0.00    -0.250 OA
BRANCH  58  60
ATOM     60  O   UNL     1     -10.979   5.399 -10.836  1.00  0.00    -0.480 OA
ATOM     61  H   UNL     1     -11.439   4.551 -10.656  1.00  0.00     0.296 HD
ENDBRANCH  58  60
ENDBRANCH  48  58
ENDBRANCH  46  48
ENDBRANCH  34  44
ENDBRANCH  32  34
ENDBRANCH  25  30
ENDBRANCH  23  25
ENDBRANCH   2  23
TORSDOF 28
ENDMDL
MODEL 40
REMARK VINA RESULT:    -5.361      2.376      8.000
REMARK INTER + INTRA:         -19.528
REMARK INTER:                 -14.311
REMARK INTRA:                  -5.217
REMARK UNBOUND:                -6.175
REMARK SMILES CCCCCCC[C@H](N)[C@H](O)C(=O)N[C@H](C)C(=O)N(C)[C@H](CC(C)C)C(=O)N[C@@H](Cc1ccc(O)cc1)C(=O)N[C@@H](Cc1ccc(O)cc1)C(=O)O
REMARK SMILES IDX 18 1 17 2 15 3 16 4 14 5 12 6 13 7 10 9 11 10 8 12 9 13 7 16
REMARK SMILES IDX 6 17 5 18 4 19 3 20 2 21 1 22 19 23 20 24 21 25 22 26 23 27
REMARK SMILES IDX 24 28 25 29 26 30 27 31 28 32 29 34 30 35 31 36 32 37 37 38
REMARK SMILES IDX 33 39 36 40 34 41 35 42 38 44 39 45 40 46 41 48 42 49 43 50
REMARK SMILES IDX 44 51 49 52 45 53 48 54 46 55 47 56 50 58 51 59 52 60
REMARK H PARENT 14 8 11 11 9 14 9 15 28 33 35 43 40 47 47 57 52 61
ROOT
ATOM      1  O   UNL     1     -14.471   5.620  -9.669  1.00  0.00    -0.272 OA
ATOM      2  C   UNL     1     -14.615   6.847  -9.572  1.00  0.00     0.245 C 
ENDROOT
BRANCH   2   3
ATOM      3  C   UNL     1     -16.017   7.403  -9.218  1.00  0.00     0.168 C 
ATOM      4  C   UNL     1     -16.973   7.253 -10.396  1.00  0.00     0.041 C 
BRANCH   3   5
ATOM      5  N   UNL     1     -16.588   6.881  -7.986  1.00  0.00    -0.342 N 
ATOM      6  C   UNL     1     -17.251   7.692  -7.090  1.00  0.00     0.251 C 
ATOM      7  O   UNL     1     -17.374   8.903  -7.237  1.00  0.00    -0.272 OA
ATOM      8  H   UNL     1     -16.519   5.896  -7.738  1.00  0.00     0.164 HD
BRANCH   6   9
ATOM      9  C   UNL     1     -17.892   6.903  -5.937  1.00  0.00     0.219 C 
BRANCH   9  10
ATOM     10  O   UNL     1     -18.127   7.712  -4.778  1.00  0.00    -0.382 OA
ATOM     11  H   UNL     1     -17.223   7.945  -4.471  1.00  0.00     0.211 HD
ENDBRANCH   9  10
BRANCH   9  12
ATOM     12  C   UNL     1     -19.184   6.153  -6.355  1.00  0.00     0.089 C 
BRANCH  12  13
ATOM     13  N   UNL     1     -19.621   6.674  -7.671  1.00  0.00    -0.325 NA
ATOM     14  H   UNL     1     -19.300   7.639  -7.774  1.00  0.00     0.119 HD
ATOM     15  H   UNL     1     -20.642   6.730  -7.682  1.00  0.00     0.119 HD
ENDBRANCH  12  13
BRANCH  12  16
ATOM     16  C   UNL     1     -19.087   4.609  -6.400  1.00  0.00     0.022 C 
BRANCH  16  17
ATOM     17  C   UNL     1     -19.419   3.878  -7.708  1.00  0.00     0.002 C 
BRANCH  17  18
ATOM     18  C   UNL     1     -20.144   2.545  -7.535  1.00  0.00     0.000 C 
BRANCH  18  19
ATOM     19  C   UNL     1     -19.260   1.316  -7.788  1.00  0.00    -0.000 C 
BRANCH  19  20
ATOM     20  C   UNL     1     -18.657   0.680  -6.532  1.00  0.00    -0.000 C 
BRANCH  20  21
ATOM     21  C   UNL     1     -17.247   1.189  -6.220  1.00  0.00    -0.003 C 
ATOM     22  C   UNL     1     -16.498   1.561  -7.490  1.00  0.00     0.004 C 
ENDBRANCH  20  21
ENDBRANCH  19  20
ENDBRANCH  18  19
ENDBRANCH  17  18
ENDBRANCH  16  17
ENDBRANCH  12  16
ENDBRANCH   9  12
ENDBRANCH   6   9
ENDBRANCH   3   5
ENDBRANCH   2   3
BRANCH   2  23
ATOM     23  N   UNL     1     -13.509   7.687  -9.659  1.00  0.00    -0.332 N 
ATOM     24  C   UNL     1     -13.187   8.731  -8.698  1.00  0.00     0.147 C 
BRANCH  23  25
ATOM     25  C   UNL     1     -12.483   7.470 -10.716  1.00  0.00     0.174 C 
BRANCH  25  26
ATOM     26  C   UNL     1     -13.043   7.660 -12.146  1.00  0.00     0.038 C 
BRANCH  26  27
ATOM     27  C   UNL     1     -13.359   9.106 -12.588  1.00  0.00    -0.015 C 
ATOM     28  C   UNL     1     -12.231  10.080 -12.249  1.00  0.00     0.007 C 
ATOM     29  C   UNL     1     -13.743   9.220 -14.061  1.00  0.00     0.007 C 
ENDBRANCH  26  27
ENDBRANCH  25  26
BRANCH  25  30
ATOM     30  C   UNL     1     -11.775   6.113 -10.501  1.00  0.00     0.243 C 
ATOM     31  O   UNL     1     -11.395   5.421 -11.444  1.00  0.00    -0.273 OA
ATOM     32  N   UNL     1     -11.607   5.732  -9.194  1.00  0.00    -0.342 N 
ATOM     33  H   UNL     1     -11.820   6.422  -8.469  1.00  0.00     0.164 HD
BRANCH  32  34
ATOM     34  C   UNL     1     -10.982   4.467  -8.802  1.00  0.00     0.175 C 
BRANCH  34  35
ATOM     35  C   UNL     1     -10.094   4.643  -7.561  1.00  0.00     0.070 C 
BRANCH  35  36
ATOM     36  C   UNL     1      -8.866   3.762  -7.590  1.00  0.00    -0.045 A 
ATOM     37  C   UNL     1      -7.650   4.235  -7.072  1.00  0.00     0.007 A 
ATOM     38  C   UNL     1      -8.914   2.479  -8.150  1.00  0.00     0.007 A 
ATOM     39  C   UNL     1      -6.508   3.434  -7.107  1.00  0.00     0.046 A 
ATOM     40  C   UNL     1      -7.771   1.677  -8.187  1.00  0.00     0.046 A 
ATOM     41  C   UNL     1      -6.577   2.162  -7.663  1.00  0.00     0.115 A 
BRANCH  41  42
ATOM     42  O   UNL     1      -5.438   1.413  -7.681  1.00  0.00    -0.508 OA
ATOM     43  H   UNL     1      -5.576   0.635  -7.116  1.00  0.00     0.293 HD
ENDBRANCH  41  42
ENDBRANCH  35  36
ENDBRANCH  34  35
BRANCH  34  44
ATOM     44  C   UNL     1     -12.104   3.431  -8.568  1.00  0.00     0.243 C 
ATOM     45  O   UNL     1     -12.444   3.014  -7.464  1.00  0.00    -0.273 OA
ATOM     46  N   UNL     1     -12.617   2.904  -9.734  1.00  0.00    -0.341 N 
ATOM     47  H   UNL     1     -12.221   3.195 -10.624  1.00  0.00     0.164 HD
BRANCH  46  48
ATOM     48  C   UNL     1     -13.641   1.857  -9.763  1.00  0.00     0.196 C 
BRANCH  48  49
ATOM     49  C   UNL     1     -14.270   1.727 -11.161  1.00  0.00     0.072 C 
BRANCH  49  50
ATOM     50  C   UNL     1     -15.755   2.008 -11.159  1.00  0.00    -0.045 A 
ATOM     51  C   UNL     1     -16.667   0.944 -11.097  1.00  0.00     0.007 A 
ATOM     52  C   UNL     1     -16.241   3.319 -11.240  1.00  0.00     0.007 A 
ATOM     53  C   UNL     1     -18.040   1.190 -11.109  1.00  0.00     0.046 A 
ATOM     54  C   UNL     1     -17.616   3.565 -11.252  1.00  0.00     0.046 A 
ATOM     55  C   UNL     1     -18.504   2.497 -11.185  1.00  0.00     0.115 A 
BRANCH  55  56
ATOM     56  O   UNL     1     -19.854   2.695 -11.196  1.00  0.00    -0.508 OA
ATOM     57  H   UNL     1     -20.027   3.631 -11.009  1.00  0.00     0.293 HD
ENDBRANCH  55  56
ENDBRANCH  49  50
ENDBRANCH  48  49
BRANCH  48  58
ATOM     58  C   UNL     1     -13.002   0.521  -9.360  1.00  0.00     0.326 C 
ATOM     59  O   UNL     1     -12.365  -0.238 -10.072  1.00  0.00    -0.250 OA
BRANCH  58  60
ATOM     60  O   UNL     1     -13.184   0.206  -8.053  1.00  0.00    -0.480 OA
ATOM     61  H   UNL     1     -13.977   0.728  -7.803  1.00  0.00     0.296 HD
ENDBRANCH  58  60
ENDBRANCH  48  58
ENDBRANCH  46  48
ENDBRANCH  34  44
ENDBRANCH  32  34
ENDBRANCH  25  30
ENDBRANCH  23  25
ENDBRANCH   2  23
TORSDOF 28
ENDMDL
MODEL 41
REMARK VINA RESULT:    -5.339      2.543      5.062
REMARK INTER + INTRA:         -19.474
REMARK INTER:                 -14.385
REMARK INTRA:                  -5.089
REMARK UNBOUND:                -6.175
REMARK SMILES CCCCCCC[C@H](N)[C@H](O)C(=O)N[C@H](C)C(=O)N(C)[C@H](CC(C)C)C(=O)N[C@@H](Cc1ccc(O)cc1)C(=O)N[C@@H](Cc1ccc(O)cc1)C(=O)O
REMARK SMILES IDX 18 1 17 2 15 3 16 4 14 5 12 6 13 7 10 9 11 10 8 12 9 13 7 16
REMARK SMILES IDX 6 17 5 18 4 19 3 20 2 21 1 22 19 23 20 24 21 25 22 26 23 27
REMARK SMILES IDX 24 28 25 29 26 30 27 31 28 32 29 34 30 35 31 36 32 37 37 38
REMARK SMILES IDX 33 39 36 40 34 41 35 42 38 44 39 45 40 46 41 48 42 49 43 50
REMARK SMILES IDX 44 51 49 52 45 53 48 54 46 55 47 56 50 58 51 59 52 60
REMARK H PARENT 14 8 11 11 9 14 9 15 28 33 35 43 40 47 47 57 52 61
ROOT
ATOM      1  O   UNL     1     -18.392   0.935  -9.768  1.00  0.00    -0.272 OA
ATOM      2  C   UNL     1     -18.494   1.557  -8.700  1.00  0.00     0.245 C 
ENDROOT
BRANCH   2   3
ATOM      3  C   UNL     1     -17.594   1.141  -7.510  1.00  0.00     0.168 C 
ATOM      4  C   UNL     1     -18.303   0.122  -6.625  1.00  0.00     0.041 C 
BRANCH   3   5
ATOM      5  N   UNL     1     -16.257   0.700  -7.879  1.00  0.00    -0.342 N 
ATOM      6  C   UNL     1     -15.146   1.487  -7.664  1.00  0.00     0.251 C 
ATOM      7  O   UNL     1     -15.199   2.618  -7.191  1.00  0.00    -0.272 OA
ATOM      8  H   UNL     1     -16.092  -0.206  -8.312  1.00  0.00     0.164 HD
BRANCH   6   9
ATOM      9  C   UNL     1     -13.832   0.764  -7.999  1.00  0.00     0.219 C 
BRANCH   9  10
ATOM     10  O   UNL     1     -13.722   0.432  -9.388  1.00  0.00    -0.382 OA
ATOM     11  H   UNL     1     -14.525  -0.106  -9.561  1.00  0.00     0.211 HD
ENDBRANCH   9  10
BRANCH   9  12
ATOM     12  C   UNL     1     -12.574   1.532  -7.515  1.00  0.00     0.089 C 
BRANCH  12  13
ATOM     13  N   UNL     1     -11.556   0.542  -7.093  1.00  0.00    -0.325 NA
ATOM     14  H   UNL     1     -10.650   1.008  -7.008  1.00  0.00     0.119 HD
ATOM     15  H   UNL     1     -11.434  -0.146  -7.839  1.00  0.00     0.119 HD
ENDBRANCH  12  13
BRANCH  12  16
ATOM     16  C   UNL     1     -11.958   2.530  -8.524  1.00  0.00     0.022 C 
BRANCH  16  17
ATOM     17  C   UNL     1     -12.161   4.036  -8.304  1.00  0.00     0.002 C 
BRANCH  17  18
ATOM     18  C   UNL     1     -10.899   4.807  -7.924  1.00  0.00     0.000 C 
BRANCH  18  19
ATOM     19  C   UNL     1     -10.182   4.259  -6.684  1.00  0.00    -0.000 C 
BRANCH  19  20
ATOM     20  C   UNL     1      -8.707   3.902  -6.891  1.00  0.00    -0.000 C 
BRANCH  20  21
ATOM     21  C   UNL     1      -8.463   2.393  -6.984  1.00  0.00    -0.003 C 
ATOM     22  C   UNL     1      -8.307   1.944  -8.428  1.00  0.00     0.004 C 
ENDBRANCH  20  21
ENDBRANCH  19  20
ENDBRANCH  18  19
ENDBRANCH  17  18
ENDBRANCH  16  17
ENDBRANCH  12  16
ENDBRANCH   9  12
ENDBRANCH   6   9
ENDBRANCH   3   5
ENDBRANCH   2   3
BRANCH   2  23
ATOM     23  N   UNL     1     -19.311   2.680  -8.625  1.00  0.00    -0.332 N 
ATOM     24  C   UNL     1     -20.763   2.639  -8.533  1.00  0.00     0.147 C 
BRANCH  23  25
ATOM     25  C   UNL     1     -18.713   4.038  -8.504  1.00  0.00     0.174 C 
BRANCH  25  26
ATOM     26  C   UNL     1     -19.293   4.847  -7.320  1.00  0.00     0.038 C 
BRANCH  26  27
ATOM     27  C   UNL     1     -18.616   4.657  -5.944  1.00  0.00    -0.015 C 
ATOM     28  C   UNL     1     -18.370   5.983  -5.225  1.00  0.00     0.007 C 
ATOM     29  C   UNL     1     -19.357   3.682  -5.032  1.00  0.00     0.007 C 
ENDBRANCH  26  27
ENDBRANCH  25  26
BRANCH  25  30
ATOM     30  C   UNL     1     -18.791   4.777  -9.859  1.00  0.00     0.243 C 
ATOM     31  O   UNL     1     -19.124   4.202 -10.895  1.00  0.00    -0.273 OA
ATOM     32  N   UNL     1     -18.460   6.107  -9.829  1.00  0.00    -0.342 N 
ATOM     33  H   UNL     1     -18.333   6.543  -8.912  1.00  0.00     0.164 HD
BRANCH  32  34
ATOM     34  C   UNL     1     -18.451   6.958 -11.022  1.00  0.00     0.175 C 
BRANCH  34  35
ATOM     35  C   UNL     1     -19.374   8.175 -10.848  1.00  0.00     0.070 C 
BRANCH  35  36
ATOM     36  C   UNL     1     -19.909   8.696 -12.162  1.00  0.00    -0.045 A 
ATOM     37  C   UNL     1     -21.163   8.272 -12.627  1.00  0.00     0.007 A 
ATOM     38  C   UNL     1     -19.159   9.585 -12.942  1.00  0.00     0.007 A 
ATOM     39  C   UNL     1     -21.660   8.736 -13.845  1.00  0.00     0.046 A 
ATOM     40  C   UNL     1     -19.654  10.050 -14.163  1.00  0.00     0.046 A 
ATOM     41  C   UNL     1     -20.903   9.622 -14.602  1.00  0.00     0.115 A 
BRANCH  41  42
ATOM     42  O   UNL     1     -21.423  10.049 -15.788  1.00  0.00    -0.508 OA
ATOM     43  H   UNL     1     -21.640   9.269 -16.324  1.00  0.00     0.293 HD
ENDBRANCH  41  42
ENDBRANCH  35  36
ENDBRANCH  34  35
BRANCH  34  44
ATOM     44  C   UNL     1     -16.990   7.377 -11.301  1.00  0.00     0.243 C 
ATOM     45  O   UNL     1     -16.309   8.063 -10.544  1.00  0.00    -0.273 OA
ATOM     46  N   UNL     1     -16.546   7.018 -12.556  1.00  0.00    -0.341 N 
ATOM     47  H   UNL     1     -17.188   6.552 -13.192  1.00  0.00     0.164 HD
BRANCH  46  48
ATOM     48  C   UNL     1     -15.220   7.365 -13.071  1.00  0.00     0.196 C 
BRANCH  48  49
ATOM     49  C   UNL     1     -14.509   6.135 -13.662  1.00  0.00     0.072 C 
BRANCH  49  50
ATOM     50  C   UNL     1     -14.883   4.852 -12.955  1.00  0.00    -0.045 A 
ATOM     51  C   UNL     1     -14.234   4.495 -11.764  1.00  0.00     0.007 A 
ATOM     52  C   UNL     1     -15.859   3.996 -13.482  1.00  0.00     0.007 A 
ATOM     53  C   UNL     1     -14.561   3.307 -11.110  1.00  0.00     0.046 A 
ATOM     54  C   UNL     1     -16.185   2.806 -12.828  1.00  0.00     0.046 A 
ATOM     55  C   UNL     1     -15.534   2.472 -11.646  1.00  0.00     0.115 A 
BRANCH  55  56
ATOM     56  O   UNL     1     -15.823   1.320 -10.977  1.00  0.00    -0.508 OA
ATOM     57  H   UNL     1     -15.450   0.575 -11.475  1.00  0.00     0.293 HD
ENDBRANCH  55  56
ENDBRANCH  49  50
ENDBRANCH  48  49
BRANCH  48  58
ATOM     58  C   UNL     1     -15.372   8.441 -14.155  1.00  0.00     0.326 C 
ATOM     59  O   UNL     1     -16.319   8.605 -14.907  1.00  0.00    -0.250 OA
BRANCH  58  60
ATOM     60  O   UNL     1     -14.311   9.284 -14.232  1.00  0.00    -0.480 OA
ATOM     61  H   UNL     1     -13.662   8.782 -14.770  1.00  0.00     0.296 HD
ENDBRANCH  58  60
ENDBRANCH  48  58
ENDBRANCH  46  48
ENDBRANCH  34  44
ENDBRANCH  32  34
ENDBRANCH  25  30
ENDBRANCH  23  25
ENDBRANCH   2  23
TORSDOF 28
ENDMDL
MODEL 42
REMARK VINA RESULT:    -5.321      3.004      6.817
REMARK INTER + INTRA:         -19.429
REMARK INTER:                 -15.151
REMARK INTRA:                  -4.278
REMARK UNBOUND:                -6.175
REMARK SMILES CCCCCCC[C@H](N)[C@H](O)C(=O)N[C@H](C)C(=O)N(C)[C@H](CC(C)C)C(=O)N[C@@H](Cc1ccc(O)cc1)C(=O)N[C@@H](Cc1ccc(O)cc1)C(=O)O
REMARK SMILES IDX 18 1 17 2 15 3 16 4 14 5 12 6 13 7 10 9 11 10 8 12 9 13 7 16
REMARK SMILES IDX 6 17 5 18 4 19 3 20 2 21 1 22 19 23 20 24 21 25 22 26 23 27
REMARK SMILES IDX 24 28 25 29 26 30 27 31 28 32 29 34 30 35 31 36 32 37 37 38
REMARK SMILES IDX 33 39 36 40 34 41 35 42 38 44 39 45 40 46 41 48 42 49 43 50
REMARK SMILES IDX 44 51 49 52 45 53 48 54 46 55 47 56 50 58 51 59 52 60
REMARK H PARENT 14 8 11 11 9 14 9 15 28 33 35 43 40 47 47 57 52 61
ROOT
ATOM      1  O   UNL     1     -19.854   0.638  -8.567  1.00  0.00    -0.272 OA
ATOM      2  C   UNL     1     -19.175   1.475  -7.954  1.00  0.00     0.245 C 
ENDROOT
BRANCH   2   3
ATOM      3  C   UNL     1     -19.903   2.512  -7.063  1.00  0.00     0.168 C 
ATOM      4  C   UNL     1     -21.143   3.054  -7.766  1.00  0.00     0.041 C 
BRANCH   3   5
ATOM      5  N   UNL     1     -20.200   2.058  -5.714  1.00  0.00    -0.342 N 
ATOM      6  C   UNL     1     -19.361   2.327  -4.654  1.00  0.00     0.251 C 
ATOM      7  O   UNL     1     -18.296   2.925  -4.769  1.00  0.00    -0.272 OA
ATOM      8  H   UNL     1     -21.038   1.522  -5.501  1.00  0.00     0.164 HD
BRANCH   6   9
ATOM      9  C   UNL     1     -19.943   1.876  -3.305  1.00  0.00     0.219 C 
BRANCH   9  10
ATOM     10  O   UNL     1     -21.372   1.775  -3.326  1.00  0.00    -0.382 OA
ATOM     11  H   UNL     1     -21.642   2.447  -3.990  1.00  0.00     0.211 HD
ENDBRANCH   9  10
BRANCH   9  12
ATOM     12  C   UNL     1     -19.306   0.566  -2.774  1.00  0.00     0.089 C 
BRANCH  12  13
ATOM     13  N   UNL     1     -18.925  -0.272  -3.934  1.00  0.00    -0.325 NA
ATOM     14  H   UNL     1     -19.765  -0.693  -4.334  1.00  0.00     0.119 HD
ATOM     15  H   UNL     1     -18.364  -1.060  -3.603  1.00  0.00     0.119 HD
ENDBRANCH  12  13
BRANCH  12  16
ATOM     16  C   UNL     1     -18.098   0.737  -1.822  1.00  0.00     0.022 C 
BRANCH  16  17
ATOM     17  C   UNL     1     -17.676  -0.441  -0.933  1.00  0.00     0.002 C 
BRANCH  17  18
ATOM     18  C   UNL     1     -16.497  -0.157  -0.004  1.00  0.00     0.000 C 
BRANCH  18  19
ATOM     19  C   UNL     1     -15.567  -1.359   0.210  1.00  0.00    -0.000 C 
BRANCH  19  20
ATOM     20  C   UNL     1     -16.090  -2.691  -0.335  1.00  0.00    -0.000 C 
BRANCH  20  21
ATOM     21  C   UNL     1     -14.974  -3.624  -0.812  1.00  0.00    -0.003 C 
ATOM     22  C   UNL     1     -14.050  -2.925  -1.798  1.00  0.00     0.004 C 
ENDBRANCH  20  21
ENDBRANCH  19  20
ENDBRANCH  18  19
ENDBRANCH  17  18
ENDBRANCH  16  17
ENDBRANCH  12  16
ENDBRANCH   9  12
ENDBRANCH   6   9
ENDBRANCH   3   5
ENDBRANCH   2   3
BRANCH   2  23
ATOM     23  N   UNL     1     -17.786   1.395  -7.977  1.00  0.00    -0.332 N 
ATOM     24  C   UNL     1     -16.991   0.587  -7.065  1.00  0.00     0.147 C 
BRANCH  23  25
ATOM     25  C   UNL     1     -17.014   2.061  -9.061  1.00  0.00     0.174 C 
BRANCH  25  26
ATOM     26  C   UNL     1     -16.785   1.146 -10.287  1.00  0.00     0.038 C 
BRANCH  26  27
ATOM     27  C   UNL     1     -17.225   1.695 -11.662  1.00  0.00    -0.015 C 
ATOM     28  C   UNL     1     -18.574   2.411 -11.601  1.00  0.00     0.007 C 
ATOM     29  C   UNL     1     -16.176   2.582 -12.326  1.00  0.00     0.007 C 
ENDBRANCH  26  27
ENDBRANCH  25  26
BRANCH  25  30
ATOM     30  C   UNL     1     -15.713   2.671  -8.490  1.00  0.00     0.243 C 
ATOM     31  O   UNL     1     -15.730   3.537  -7.617  1.00  0.00    -0.273 OA
ATOM     32  N   UNL     1     -14.546   2.187  -9.024  1.00  0.00    -0.342 N 
ATOM     33  H   UNL     1     -14.609   1.372  -9.640  1.00  0.00     0.164 HD
BRANCH  32  34
ATOM     34  C   UNL     1     -13.221   2.668  -8.624  1.00  0.00     0.175 C 
BRANCH  34  35
ATOM     35  C   UNL     1     -12.153   1.579  -8.807  1.00  0.00     0.070 C 
BRANCH  35  36
ATOM     36  C   UNL     1     -10.851   1.916  -8.116  1.00  0.00    -0.045 A 
ATOM     37  C   UNL     1      -9.724   1.101  -8.306  1.00  0.00     0.007 A 
ATOM     38  C   UNL     1     -10.754   3.024  -7.264  1.00  0.00     0.007 A 
ATOM     39  C   UNL     1      -8.522   1.395  -7.662  1.00  0.00     0.046 A 
ATOM     40  C   UNL     1      -9.551   3.319  -6.618  1.00  0.00     0.046 A 
ATOM     41  C   UNL     1      -8.445   2.501  -6.824  1.00  0.00     0.115 A 
BRANCH  41  42
ATOM     42  O   UNL     1      -7.253   2.752  -6.212  1.00  0.00    -0.508 OA
ATOM     43  H   UNL     1      -6.925   3.612  -6.523  1.00  0.00     0.293 HD
ENDBRANCH  41  42
ENDBRANCH  35  36
ENDBRANCH  34  35
BRANCH  34  44
ATOM     44  C   UNL     1     -12.902   3.935  -9.450  1.00  0.00     0.243 C 
ATOM     45  O   UNL     1     -12.301   3.932 -10.520  1.00  0.00    -0.273 OA
ATOM     46  N   UNL     1     -13.242   5.108  -8.809  1.00  0.00    -0.341 N 
ATOM     47  H   UNL     1     -13.632   5.063  -7.870  1.00  0.00     0.164 HD
BRANCH  46  48
ATOM     48  C   UNL     1     -12.974   6.436  -9.364  1.00  0.00     0.196 C 
BRANCH  48  49
ATOM     49  C   UNL     1     -14.075   7.437  -8.977  1.00  0.00     0.072 C 
BRANCH  49  50
ATOM     50  C   UNL     1     -15.465   6.865  -9.140  1.00  0.00    -0.045 A 
ATOM     51  C   UNL     1     -15.833   6.257 -10.349  1.00  0.00     0.007 A 
ATOM     52  C   UNL     1     -16.406   6.951  -8.106  1.00  0.00     0.007 A 
ATOM     53  C   UNL     1     -17.117   5.737 -10.516  1.00  0.00     0.046 A 
ATOM     54  C   UNL     1     -17.692   6.432  -8.274  1.00  0.00     0.046 A 
ATOM     55  C   UNL     1     -18.036   5.828  -9.478  1.00  0.00     0.115 A 
BRANCH  55  56
ATOM     56  O   UNL     1     -19.280   5.310  -9.683  1.00  0.00    -0.508 OA
ATOM     57  H   UNL     1     -19.250   4.358  -9.497  1.00  0.00     0.293 HD
ENDBRANCH  55  56
ENDBRANCH  49  50
ENDBRANCH  48  49
BRANCH  48  58
ATOM     58  C   UNL     1     -11.619   6.933  -8.840  1.00  0.00     0.326 C 
ATOM     59  O   UNL     1     -11.414   7.600  -7.839  1.00  0.00    -0.250 OA
BRANCH  58  60
ATOM     60  O   UNL     1     -10.568   6.546  -9.606  1.00  0.00    -0.480 OA
ATOM     61  H   UNL     1     -10.906   5.749 -10.068  1.00  0.00     0.296 HD
ENDBRANCH  58  60
ENDBRANCH  48  58
ENDBRANCH  46  48
ENDBRANCH  34  44
ENDBRANCH  32  34
ENDBRANCH  25  30
ENDBRANCH  23  25
ENDBRANCH   2  23
TORSDOF 28
ENDMDL
MODEL 43
REMARK VINA RESULT:    -5.308     12.796     17.505
REMARK INTER + INTRA:         -19.395
REMARK INTER:                 -14.728
REMARK INTRA:                  -4.667
REMARK UNBOUND:                -6.175
REMARK SMILES CCCCCCC[C@H](N)[C@H](O)C(=O)N[C@H](C)C(=O)N(C)[C@H](CC(C)C)C(=O)N[C@@H](Cc1ccc(O)cc1)C(=O)N[C@@H](Cc1ccc(O)cc1)C(=O)O
REMARK SMILES IDX 18 1 17 2 15 3 16 4 14 5 12 6 13 7 10 9 11 10 8 12 9 13 7 16
REMARK SMILES IDX 6 17 5 18 4 19 3 20 2 21 1 22 19 23 20 24 21 25 22 26 23 27
REMARK SMILES IDX 24 28 25 29 26 30 27 31 28 32 29 34 30 35 31 36 32 37 37 38
REMARK SMILES IDX 33 39 36 40 34 41 35 42 38 44 39 45 40 46 41 48 42 49 43 50
REMARK SMILES IDX 44 51 49 52 45 53 48 54 46 55 47 56 50 58 51 59 52 60
REMARK H PARENT 14 8 11 11 9 14 9 15 28 33 35 43 40 47 47 57 52 61
ROOT
ATOM      1  O   UNL     1      -4.346   2.062   4.822  1.00  0.00    -0.272 OA
ATOM      2  C   UNL     1      -3.559   3.015   4.917  1.00  0.00     0.245 C 
ENDROOT
BRANCH   2   3
ATOM      3  C   UNL     1      -2.699   3.142   6.199  1.00  0.00     0.168 C 
ATOM      4  C   UNL     1      -3.520   2.798   7.438  1.00  0.00     0.041 C 
BRANCH   3   5
ATOM      5  N   UNL     1      -1.440   2.415   6.165  1.00  0.00    -0.342 N 
ATOM      6  C   UNL     1      -0.225   3.060   6.253  1.00  0.00     0.251 C 
ATOM      7  O   UNL     1      -0.109   4.279   6.325  1.00  0.00    -0.272 OA
ATOM      8  H   UNL     1      -1.408   1.402   6.073  1.00  0.00     0.164 HD
BRANCH   6   9
ATOM      9  C   UNL     1       0.961   2.085   6.340  1.00  0.00     0.219 C 
BRANCH   9  10
ATOM     10  O   UNL     1       0.734   1.021   7.273  1.00  0.00    -0.382 OA
ATOM     11  H   UNL     1      -0.220   0.816   7.162  1.00  0.00     0.211 HD
ENDBRANCH   9  10
BRANCH   9  12
ATOM     12  C   UNL     1       1.390   1.524   4.959  1.00  0.00     0.089 C 
BRANCH  12  13
ATOM     13  N   UNL     1       0.225   0.846   4.347  1.00  0.00    -0.325 NA
ATOM     14  H   UNL     1      -0.202   1.467   3.658  1.00  0.00     0.119 HD
ATOM     15  H   UNL     1      -0.492   0.709   5.063  1.00  0.00     0.119 HD
ENDBRANCH  12  13
BRANCH  12  16
ATOM     16  C   UNL     1       1.989   2.550   3.967  1.00  0.00     0.022 C 
BRANCH  16  17
ATOM     17  C   UNL     1       3.407   2.324   3.424  1.00  0.00     0.002 C 
BRANCH  17  18
ATOM     18  C   UNL     1       3.516   2.297   1.901  1.00  0.00     0.000 C 
BRANCH  18  19
ATOM     19  C   UNL     1       2.470   3.161   1.184  1.00  0.00    -0.000 C 
BRANCH  19  20
ATOM     20  C   UNL     1       2.055   2.662  -0.203  1.00  0.00    -0.000 C 
BRANCH  20  21
ATOM     21  C   UNL     1       0.537   2.565  -0.376  1.00  0.00    -0.003 C 
ATOM     22  C   UNL     1      -0.145   2.162   0.923  1.00  0.00     0.004 C 
ENDBRANCH  20  21
ENDBRANCH  19  20
ENDBRANCH  18  19
ENDBRANCH  17  18
ENDBRANCH  16  17
ENDBRANCH  12  16
ENDBRANCH   9  12
ENDBRANCH   6   9
ENDBRANCH   3   5
ENDBRANCH   2   3
BRANCH   2  23
ATOM     23  N   UNL     1      -3.373   3.873   3.838  1.00  0.00    -0.332 N 
ATOM     24  C   UNL     1      -2.514   5.048   3.856  1.00  0.00     0.147 C 
BRANCH  23  25
ATOM     25  C   UNL     1      -3.969   3.553   2.512  1.00  0.00     0.174 C 
BRANCH  25  26
ATOM     26  C   UNL     1      -3.270   4.289   1.345  1.00  0.00     0.038 C 
BRANCH  26  27
ATOM     27  C   UNL     1      -3.936   4.186  -0.046  1.00  0.00    -0.015 C 
ATOM     28  C   UNL     1      -4.650   5.477  -0.448  1.00  0.00     0.007 C 
ATOM     29  C   UNL     1      -2.978   3.737  -1.146  1.00  0.00     0.007 C 
ENDBRANCH  26  27
ENDBRANCH  25  26
BRANCH  25  30
ATOM     30  C   UNL     1      -5.500   3.763   2.552  1.00  0.00     0.243 C 
ATOM     31  O   UNL     1      -6.286   2.873   2.233  1.00  0.00    -0.273 OA
ATOM     32  N   UNL     1      -5.918   5.004   2.959  1.00  0.00    -0.342 N 
ATOM     33  H   UNL     1      -5.213   5.639   3.342  1.00  0.00     0.164 HD
BRANCH  32  34
ATOM     34  C   UNL     1      -7.330   5.390   3.032  1.00  0.00     0.175 C 
BRANCH  34  35
ATOM     35  C   UNL     1      -8.050   5.129   1.700  1.00  0.00     0.070 C 
BRANCH  35  36
ATOM     36  C   UNL     1      -9.036   6.219   1.345  1.00  0.00    -0.045 A 
ATOM     37  C   UNL     1      -8.713   7.164   0.360  1.00  0.00     0.007 A 
ATOM     38  C   UNL     1     -10.269   6.315   2.004  1.00  0.00     0.007 A 
ATOM     39  C   UNL     1      -9.610   8.182   0.035  1.00  0.00     0.046 A 
ATOM     40  C   UNL     1     -11.168   7.334   1.680  1.00  0.00     0.046 A 
ATOM     41  C   UNL     1     -10.830   8.258   0.697  1.00  0.00     0.115 A 
BRANCH  41  42
ATOM     42  O   UNL     1     -11.678   9.269   0.352  1.00  0.00    -0.508 OA
ATOM     43  H   UNL     1     -12.162   9.546   1.148  1.00  0.00     0.293 HD
ENDBRANCH  41  42
ENDBRANCH  35  36
ENDBRANCH  34  35
BRANCH  34  44
ATOM     44  C   UNL     1      -7.978   4.615   4.201  1.00  0.00     0.243 C 
ATOM     45  O   UNL     1      -7.906   4.949   5.380  1.00  0.00    -0.273 OA
ATOM     46  N   UNL     1      -8.550   3.420   3.817  1.00  0.00    -0.341 N 
ATOM     47  H   UNL     1      -8.483   3.130   2.845  1.00  0.00     0.164 HD
BRANCH  46  48
ATOM     48  C   UNL     1      -9.166   2.483   4.759  1.00  0.00     0.196 C 
BRANCH  48  49
ATOM     49  C   UNL     1     -10.218   1.602   4.064  1.00  0.00     0.072 C 
BRANCH  49  50
ATOM     50  C   UNL     1     -11.048   2.370   3.060  1.00  0.00    -0.045 A 
ATOM     51  C   UNL     1     -12.130   3.148   3.497  1.00  0.00     0.007 A 
ATOM     52  C   UNL     1     -10.767   2.301   1.690  1.00  0.00     0.007 A 
ATOM     53  C   UNL     1     -12.911   3.850   2.578  1.00  0.00     0.046 A 
ATOM     54  C   UNL     1     -11.549   3.003   0.770  1.00  0.00     0.046 A 
ATOM     55  C   UNL     1     -12.615   3.773   1.223  1.00  0.00     0.115 A 
BRANCH  55  56
ATOM     56  O   UNL     1     -13.403   4.472   0.358  1.00  0.00    -0.508 OA
ATOM     57  H   UNL     1     -13.930   5.107   0.869  1.00  0.00     0.293 HD
ENDBRANCH  55  56
ENDBRANCH  49  50
ENDBRANCH  48  49
BRANCH  48  58
ATOM     58  C   UNL     1      -8.071   1.594   5.366  1.00  0.00     0.326 C 
ATOM     59  O   UNL     1      -7.968   1.239   6.529  1.00  0.00    -0.250 OA
BRANCH  58  60
ATOM     60  O   UNL     1      -7.150   1.175   4.462  1.00  0.00    -0.480 OA
ATOM     61  H   UNL     1      -6.749   0.390   4.894  1.00  0.00     0.296 HD
ENDBRANCH  58  60
ENDBRANCH  48  58
ENDBRANCH  46  48
ENDBRANCH  34  44
ENDBRANCH  32  34
ENDBRANCH  25  30
ENDBRANCH  23  25
ENDBRANCH   2  23
TORSDOF 28
ENDMDL
MODEL 44
REMARK VINA RESULT:    -5.298     10.698     15.828
REMARK INTER + INTRA:         -19.372
REMARK INTER:                 -14.939
REMARK INTRA:                  -4.433
REMARK UNBOUND:                -6.175
REMARK SMILES CCCCCCC[C@H](N)[C@H](O)C(=O)N[C@H](C)C(=O)N(C)[C@H](CC(C)C)C(=O)N[C@@H](Cc1ccc(O)cc1)C(=O)N[C@@H](Cc1ccc(O)cc1)C(=O)O
REMARK SMILES IDX 18 1 17 2 15 3 16 4 14 5 12 6 13 7 10 9 11 10 8 12 9 13 7 16
REMARK SMILES IDX 6 17 5 18 4 19 3 20 2 21 1 22 19 23 20 24 21 25 22 26 23 27
REMARK SMILES IDX 24 28 25 29 26 30 27 31 28 32 29 34 30 35 31 36 32 37 37 38
REMARK SMILES IDX 33 39 36 40 34 41 35 42 38 44 39 45 40 46 41 48 42 49 43 50
REMARK SMILES IDX 44 51 49 52 45 53 48 54 46 55 47 56 50 58 51 59 52 60
REMARK H PARENT 14 8 11 11 9 14 9 15 28 33 35 43 40 47 47 57 52 61
ROOT
ATOM      1  O   UNL     1      -7.108  -6.348  -3.750  1.00  0.00    -0.272 OA
ATOM      2  C   UNL     1      -6.863  -7.444  -4.275  1.00  0.00     0.245 C 
ENDROOT
BRANCH   2   3
ATOM      3  C   UNL     1      -7.713  -7.890  -5.491  1.00  0.00     0.168 C 
ATOM      4  C   UNL     1      -8.976  -8.612  -5.033  1.00  0.00     0.041 C 
BRANCH   3   5
ATOM      5  N   UNL     1      -8.007  -6.837  -6.450  1.00  0.00    -0.342 N 
ATOM      6  C   UNL     1      -7.030  -6.290  -7.254  1.00  0.00     0.251 C 
ATOM      7  O   UNL     1      -5.848  -6.612  -7.195  1.00  0.00    -0.272 OA
ATOM      8  H   UNL     1      -8.947  -6.463  -6.564  1.00  0.00     0.164 HD
BRANCH   6   9
ATOM      9  C   UNL     1      -7.594  -5.299  -8.285  1.00  0.00     0.219 C 
BRANCH   9  10
ATOM     10  O   UNL     1      -8.749  -5.806  -8.963  1.00  0.00    -0.382 OA
ATOM     11  H   UNL     1      -9.413  -5.089  -8.857  1.00  0.00     0.211 HD
ENDBRANCH   9  10
BRANCH   9  12
ATOM     12  C   UNL     1      -7.876  -3.895  -7.690  1.00  0.00     0.089 C 
BRANCH  12  13
ATOM     13  N   UNL     1      -7.261  -3.825  -6.345  1.00  0.00    -0.325 NA
ATOM     14  H   UNL     1      -7.951  -3.476  -5.677  1.00  0.00     0.119 HD
ATOM     15  H   UNL     1      -6.520  -3.121  -6.356  1.00  0.00     0.119 HD
ENDBRANCH  12  13
BRANCH  12  16
ATOM     16  C   UNL     1      -7.418  -2.691  -8.547  1.00  0.00     0.022 C 
BRANCH  16  17
ATOM     17  C   UNL     1      -5.941  -2.274  -8.522  1.00  0.00     0.002 C 
BRANCH  17  18
ATOM     18  C   UNL     1      -5.697  -0.772  -8.393  1.00  0.00     0.000 C 
BRANCH  18  19
ATOM     19  C   UNL     1      -4.831  -0.182  -9.514  1.00  0.00    -0.000 C 
BRANCH  19  20
ATOM     20  C   UNL     1      -5.271  -0.545 -10.935  1.00  0.00    -0.000 C 
BRANCH  20  21
ATOM     21  C   UNL     1      -6.605   0.092 -11.331  1.00  0.00    -0.003 C 
ATOM     22  C   UNL     1      -6.573   1.602 -11.153  1.00  0.00     0.004 C 
ENDBRANCH  20  21
ENDBRANCH  19  20
ENDBRANCH  18  19
ENDBRANCH  17  18
ENDBRANCH  16  17
ENDBRANCH  12  16
ENDBRANCH   9  12
ENDBRANCH   6   9
ENDBRANCH   3   5
ENDBRANCH   2   3
BRANCH   2  23
ATOM     23  N   UNL     1      -5.768  -8.189  -3.850  1.00  0.00    -0.332 N 
ATOM     24  C   UNL     1      -4.381  -7.862  -4.146  1.00  0.00     0.147 C 
BRANCH  23  25
ATOM     25  C   UNL     1      -5.956  -9.340  -2.925  1.00  0.00     0.174 C 
BRANCH  25  26
ATOM     26  C   UNL     1      -6.118 -10.688  -3.666  1.00  0.00     0.038 C 
BRANCH  26  27
ATOM     27  C   UNL     1      -5.161 -11.831  -3.258  1.00  0.00    -0.015 C 
ATOM     28  C   UNL     1      -3.716 -11.357  -3.107  1.00  0.00     0.007 C 
ATOM     29  C   UNL     1      -5.613 -12.584  -2.009  1.00  0.00     0.007 C 
ENDBRANCH  26  27
ENDBRANCH  25  26
BRANCH  25  30
ATOM     30  C   UNL     1      -7.097  -9.039  -1.926  1.00  0.00     0.243 C 
ATOM     31  O   UNL     1      -8.010  -9.838  -1.722  1.00  0.00    -0.273 OA
ATOM     32  N   UNL     1      -7.026  -7.826  -1.293  1.00  0.00    -0.342 N 
ATOM     33  H   UNL     1      -6.168  -7.281  -1.408  1.00  0.00     0.164 HD
BRANCH  32  34
ATOM     34  C   UNL     1      -8.034  -7.361  -0.335  1.00  0.00     0.175 C 
BRANCH  34  35
ATOM     35  C   UNL     1      -7.415  -6.431   0.720  1.00  0.00     0.070 C 
BRANCH  35  36
ATOM     36  C   UNL     1      -7.715  -6.872   2.135  1.00  0.00    -0.045 A 
ATOM     37  C   UNL     1      -7.969  -5.914   3.129  1.00  0.00     0.007 A 
ATOM     38  C   UNL     1      -7.722  -8.230   2.479  1.00  0.00     0.007 A 
ATOM     39  C   UNL     1      -8.234  -6.310   4.440  1.00  0.00     0.046 A 
ATOM     40  C   UNL     1      -7.986  -8.627   3.793  1.00  0.00     0.046 A 
ATOM     41  C   UNL     1      -8.240  -7.662   4.762  1.00  0.00     0.115 A 
BRANCH  41  42
ATOM     42  O   UNL     1      -8.500  -8.007   6.055  1.00  0.00    -0.508 OA
ATOM     43  H   UNL     1      -9.216  -8.664   6.057  1.00  0.00     0.293 HD
ENDBRANCH  41  42
ENDBRANCH  35  36
ENDBRANCH  34  35
BRANCH  34  44
ATOM     44  C   UNL     1      -9.162  -6.664  -1.128  1.00  0.00     0.243 C 
ATOM     45  O   UNL     1     -10.089  -7.252  -1.679  1.00  0.00    -0.273 OA
ATOM     46  N   UNL     1      -8.969  -5.307  -1.280  1.00  0.00    -0.341 N 
ATOM     47  H   UNL     1      -8.124  -4.883  -0.904  1.00  0.00     0.164 HD
BRANCH  46  48
ATOM     48  C   UNL     1      -9.869  -4.446  -2.050  1.00  0.00     0.196 C 
BRANCH  48  49
ATOM     49  C   UNL     1     -10.387  -3.274  -1.200  1.00  0.00     0.072 C 
BRANCH  49  50
ATOM     50  C   UNL     1     -11.879  -3.342  -0.962  1.00  0.00    -0.045 A 
ATOM     51  C   UNL     1     -12.373  -3.916   0.217  1.00  0.00     0.007 A 
ATOM     52  C   UNL     1     -12.783  -2.856  -1.916  1.00  0.00     0.007 A 
ATOM     53  C   UNL     1     -13.748  -3.996   0.441  1.00  0.00     0.046 A 
ATOM     54  C   UNL     1     -14.159  -2.938  -1.692  1.00  0.00     0.046 A 
ATOM     55  C   UNL     1     -14.630  -3.507  -0.514  1.00  0.00     0.115 A 
BRANCH  55  56
ATOM     56  O   UNL     1     -15.966  -3.606  -0.258  1.00  0.00    -0.508 OA
ATOM     57  H   UNL     1     -16.352  -2.717  -0.301  1.00  0.00     0.293 HD
ENDBRANCH  55  56
ENDBRANCH  49  50
ENDBRANCH  48  49
BRANCH  48  58
ATOM     58  C   UNL     1      -9.115  -3.902  -3.272  1.00  0.00     0.326 C 
ATOM     59  O   UNL     1      -9.540  -3.784  -4.410  1.00  0.00    -0.250 OA
BRANCH  58  60
ATOM     60  O   UNL     1      -7.846  -3.511  -2.995  1.00  0.00    -0.480 OA
ATOM     61  H   UNL     1      -7.665  -2.829  -3.677  1.00  0.00     0.296 HD
ENDBRANCH  58  60
ENDBRANCH  48  58
ENDBRANCH  46  48
ENDBRANCH  34  44
ENDBRANCH  32  34
ENDBRANCH  25  30
ENDBRANCH  23  25
ENDBRANCH   2  23
TORSDOF 28
ENDMDL
MODEL 45
REMARK VINA RESULT:    -5.285      2.075      5.760
REMARK INTER + INTRA:         -19.338
REMARK INTER:                 -14.079
REMARK INTRA:                  -5.259
REMARK UNBOUND:                -6.175
REMARK SMILES CCCCCCC[C@H](N)[C@H](O)C(=O)N[C@H](C)C(=O)N(C)[C@H](CC(C)C)C(=O)N[C@@H](Cc1ccc(O)cc1)C(=O)N[C@@H](Cc1ccc(O)cc1)C(=O)O
REMARK SMILES IDX 18 1 17 2 15 3 16 4 14 5 12 6 13 7 10 9 11 10 8 12 9 13 7 16
REMARK SMILES IDX 6 17 5 18 4 19 3 20 2 21 1 22 19 23 20 24 21 25 22 26 23 27
REMARK SMILES IDX 24 28 25 29 26 30 27 31 28 32 29 34 30 35 31 36 32 37 37 38
REMARK SMILES IDX 33 39 36 40 34 41 35 42 38 44 39 45 40 46 41 48 42 49 43 50
REMARK SMILES IDX 44 51 49 52 45 53 48 54 46 55 47 56 50 58 51 59 52 60
REMARK H PARENT 14 8 11 11 9 14 9 15 28 33 35 43 40 47 47 57 52 61
ROOT
ATOM      1  O   UNL     1     -19.768   0.865  -8.329  1.00  0.00    -0.272 OA
ATOM      2  C   UNL     1     -19.009   1.821  -8.546  1.00  0.00     0.245 C 
ENDROOT
BRANCH   2   3
ATOM      3  C   UNL     1     -19.475   2.931  -9.521  1.00  0.00     0.168 C 
ATOM      4  C   UNL     1     -20.620   3.737  -8.916  1.00  0.00     0.041 C 
BRANCH   3   5
ATOM      5  N   UNL     1     -18.413   3.790 -10.021  1.00  0.00    -0.342 N 
ATOM      6  C   UNL     1     -17.753   3.519 -11.201  1.00  0.00     0.251 C 
ATOM      7  O   UNL     1     -17.975   2.528 -11.888  1.00  0.00    -0.272 OA
ATOM      8  H   UNL     1     -18.117   4.624  -9.519  1.00  0.00     0.164 HD
BRANCH   6   9
ATOM      9  C   UNL     1     -16.774   4.634 -11.604  1.00  0.00     0.219 C 
BRANCH   9  10
ATOM     10  O   UNL     1     -16.197   5.298 -10.473  1.00  0.00    -0.382 OA
ATOM     11  H   UNL     1     -16.949   5.381  -9.846  1.00  0.00     0.211 HD
ENDBRANCH   9  10
BRANCH   9  12
ATOM     12  C   UNL     1     -15.670   4.151 -12.581  1.00  0.00     0.089 C 
BRANCH  12  13
ATOM     13  N   UNL     1     -16.309   3.793 -13.867  1.00  0.00    -0.325 NA
ATOM     14  H   UNL     1     -16.096   2.818 -14.089  1.00  0.00     0.119 HD
ATOM     15  H   UNL     1     -15.875   4.337 -14.616  1.00  0.00     0.119 HD
ENDBRANCH  12  13
BRANCH  12  16
ATOM     16  C   UNL     1     -14.502   5.136 -12.824  1.00  0.00     0.022 C 
BRANCH  16  17
ATOM     17  C   UNL     1     -14.767   6.432 -13.602  1.00  0.00     0.002 C 
BRANCH  17  18
ATOM     18  C   UNL     1     -13.731   7.534 -13.392  1.00  0.00     0.000 C 
BRANCH  18  19
ATOM     19  C   UNL     1     -14.131   8.890 -13.989  1.00  0.00    -0.000 C 
BRANCH  19  20
ATOM     20  C   UNL     1     -15.590   8.996 -14.440  1.00  0.00    -0.000 C 
BRANCH  20  21
ATOM     21  C   UNL     1     -16.162  10.409 -14.294  1.00  0.00    -0.003 C 
ATOM     22  C   UNL     1     -15.428  11.195 -13.219  1.00  0.00     0.004 C 
ENDBRANCH  20  21
ENDBRANCH  19  20
ENDBRANCH  18  19
ENDBRANCH  17  18
ENDBRANCH  16  17
ENDBRANCH  12  16
ENDBRANCH   9  12
ENDBRANCH   6   9
ENDBRANCH   3   5
ENDBRANCH   2   3
BRANCH   2  23
ATOM     23  N   UNL     1     -17.823   1.944  -7.830  1.00  0.00    -0.332 N 
ATOM     24  C   UNL     1     -17.745   2.168  -6.394  1.00  0.00     0.147 C 
BRANCH  23  25
ATOM     25  C   UNL     1     -16.513   1.718  -8.501  1.00  0.00     0.174 C 
BRANCH  25  26
ATOM     26  C   UNL     1     -15.913   0.325  -8.196  1.00  0.00     0.038 C 
BRANCH  26  27
ATOM     27  C   UNL     1     -15.360  -0.477  -9.395  1.00  0.00    -0.015 C 
ATOM     28  C   UNL     1     -16.168  -0.250 -10.672  1.00  0.00     0.007 C 
ATOM     29  C   UNL     1     -13.874  -0.239  -9.651  1.00  0.00     0.007 C 
ENDBRANCH  26  27
ENDBRANCH  25  26
BRANCH  25  30
ATOM     30  C   UNL     1     -15.551   2.889  -8.199  1.00  0.00     0.243 C 
ATOM     31  O   UNL     1     -15.951   4.047  -8.089  1.00  0.00    -0.273 OA
ATOM     32  N   UNL     1     -14.229   2.552  -8.068  1.00  0.00    -0.342 N 
ATOM     33  H   UNL     1     -13.995   1.556  -8.032  1.00  0.00     0.164 HD
BRANCH  32  34
ATOM     34  C   UNL     1     -13.173   3.534  -7.808  1.00  0.00     0.175 C 
BRANCH  34  35
ATOM     35  C   UNL     1     -11.890   2.856  -7.304  1.00  0.00     0.070 C 
BRANCH  35  36
ATOM     36  C   UNL     1     -10.686   3.769  -7.355  1.00  0.00    -0.045 A 
ATOM     37  C   UNL     1     -10.710   4.999  -6.680  1.00  0.00     0.007 A 
ATOM     38  C   UNL     1      -9.546   3.417  -8.089  1.00  0.00     0.007 A 
ATOM     39  C   UNL     1      -9.609   5.855  -6.732  1.00  0.00     0.046 A 
ATOM     40  C   UNL     1      -8.444   4.274  -8.143  1.00  0.00     0.046 A 
ATOM     41  C   UNL     1      -8.486   5.486  -7.462  1.00  0.00     0.115 A 
BRANCH  41  42
ATOM     42  O   UNL     1      -7.433   6.352  -7.490  1.00  0.00    -0.508 OA
ATOM     43  H   UNL     1      -6.623   5.842  -7.657  1.00  0.00     0.293 HD
ENDBRANCH  41  42
ENDBRANCH  35  36
ENDBRANCH  34  35
BRANCH  34  44
ATOM     44  C   UNL     1     -12.930   4.332  -9.110  1.00  0.00     0.243 C 
ATOM     45  O   UNL     1     -12.479   3.851 -10.145  1.00  0.00    -0.273 OA
ATOM     46  N   UNL     1     -13.147   5.687  -8.971  1.00  0.00    -0.341 N 
ATOM     47  H   UNL     1     -13.408   6.055  -8.060  1.00  0.00     0.164 HD
BRANCH  46  48
ATOM     48  C   UNL     1     -12.918   6.654 -10.047  1.00  0.00     0.196 C 
BRANCH  48  49
ATOM     49  C   UNL     1     -13.293   8.079  -9.608  1.00  0.00     0.072 C 
BRANCH  49  50
ATOM     50  C   UNL     1     -14.784   8.260  -9.432  1.00  0.00    -0.045 A 
ATOM     51  C   UNL     1     -15.575   8.649 -10.523  1.00  0.00     0.007 A 
ATOM     52  C   UNL     1     -15.392   8.064  -8.186  1.00  0.00     0.007 A 
ATOM     53  C   UNL     1     -16.949   8.832 -10.370  1.00  0.00     0.046 A 
ATOM     54  C   UNL     1     -16.768   8.248  -8.032  1.00  0.00     0.046 A 
ATOM     55  C   UNL     1     -17.535   8.629  -9.126  1.00  0.00     0.115 A 
BRANCH  55  56
ATOM     56  O   UNL     1     -18.881   8.820  -9.018  1.00  0.00    -0.508 OA
ATOM     57  H   UNL     1     -19.259   8.848  -9.911  1.00  0.00     0.293 HD
ENDBRANCH  55  56
ENDBRANCH  49  50
ENDBRANCH  48  49
BRANCH  48  58
ATOM     58  C   UNL     1     -11.437   6.612 -10.448  1.00  0.00     0.326 C 
ATOM     59  O   UNL     1     -10.505   7.173  -9.894  1.00  0.00    -0.250 OA
BRANCH  58  60
ATOM     60  O   UNL     1     -11.193   5.842 -11.538  1.00  0.00    -0.480 OA
ATOM     61  H   UNL     1     -12.016   5.315 -11.631  1.00  0.00     0.296 HD
ENDBRANCH  58  60
ENDBRANCH  48  58
ENDBRANCH  46  48
ENDBRANCH  34  44
ENDBRANCH  32  34
ENDBRANCH  25  30
ENDBRANCH  23  25
ENDBRANCH   2  23
TORSDOF 28
ENDMDL
MODEL 46
REMARK VINA RESULT:    -5.271     12.872     17.325
REMARK INTER + INTRA:         -19.304
REMARK INTER:                 -15.219
REMARK INTRA:                  -4.084
REMARK UNBOUND:                -6.175
REMARK SMILES CCCCCCC[C@H](N)[C@H](O)C(=O)N[C@H](C)C(=O)N(C)[C@H](CC(C)C)C(=O)N[C@@H](Cc1ccc(O)cc1)C(=O)N[C@@H](Cc1ccc(O)cc1)C(=O)O
REMARK SMILES IDX 18 1 17 2 15 3 16 4 14 5 12 6 13 7 10 9 11 10 8 12 9 13 7 16
REMARK SMILES IDX 6 17 5 18 4 19 3 20 2 21 1 22 19 23 20 24 21 25 22 26 23 27
REMARK SMILES IDX 24 28 25 29 26 30 27 31 28 32 29 34 30 35 31 36 32 37 37 38
REMARK SMILES IDX 33 39 36 40 34 41 35 42 38 44 39 45 40 46 41 48 42 49 43 50
REMARK SMILES IDX 44 51 49 52 45 53 48 54 46 55 47 56 50 58 51 59 52 60
REMARK H PARENT 14 8 11 11 9 14 9 15 28 33 35 43 40 47 47 57 52 61
ROOT
ATOM      1  O   UNL     1      -3.779   5.765   3.811  1.00  0.00    -0.272 OA
ATOM      2  C   UNL     1      -3.617   4.846   2.995  1.00  0.00     0.245 C 
ENDROOT
BRANCH   2   3
ATOM      3  C   UNL     1      -2.372   3.936   3.141  1.00  0.00     0.168 C 
ATOM      4  C   UNL     1      -1.482   4.034   1.907  1.00  0.00     0.041 C 
BRANCH   3   5
ATOM      5  N   UNL     1      -1.618   4.125   4.370  1.00  0.00    -0.342 N 
ATOM      6  C   UNL     1      -1.689   3.226   5.413  1.00  0.00     0.251 C 
ATOM      7  O   UNL     1      -2.413   2.236   5.405  1.00  0.00    -0.272 OA
ATOM      8  H   UNL     1      -1.009   4.928   4.508  1.00  0.00     0.164 HD
BRANCH   6   9
ATOM      9  C   UNL     1      -0.703   3.551   6.546  1.00  0.00     0.219 C 
BRANCH   9  10
ATOM     10  O   UNL     1      -1.362   3.891   7.772  1.00  0.00    -0.382 OA
ATOM     11  H   UNL     1      -1.577   3.018   8.168  1.00  0.00     0.211 HD
ENDBRANCH   9  10
BRANCH   9  12
ATOM     12  C   UNL     1       0.349   2.435   6.777  1.00  0.00     0.089 C 
BRANCH  12  13
ATOM     13  N   UNL     1      -0.346   1.241   7.311  1.00  0.00    -0.325 NA
ATOM     14  H   UNL     1      -1.005   1.532   8.036  1.00  0.00     0.119 HD
ATOM     15  H   UNL     1       0.335   0.649   7.792  1.00  0.00     0.119 HD
ENDBRANCH  12  13
BRANCH  12  16
ATOM     16  C   UNL     1       1.206   2.046   5.549  1.00  0.00     0.022 C 
BRANCH  16  17
ATOM     17  C   UNL     1       1.669   3.145   4.583  1.00  0.00     0.002 C 
BRANCH  17  18
ATOM     18  C   UNL     1       2.823   4.007   5.091  1.00  0.00     0.000 C 
BRANCH  18  19
ATOM     19  C   UNL     1       2.390   5.377   5.629  1.00  0.00    -0.000 C 
BRANCH  19  20
ATOM     20  C   UNL     1       3.492   6.439   5.666  1.00  0.00    -0.000 C 
BRANCH  20  21
ATOM     21  C   UNL     1       3.952   6.776   7.087  1.00  0.00    -0.003 C 
ATOM     22  C   UNL     1       5.174   7.681   7.074  1.00  0.00     0.004 C 
ENDBRANCH  20  21
ENDBRANCH  19  20
ENDBRANCH  18  19
ENDBRANCH  17  18
ENDBRANCH  16  17
ENDBRANCH  12  16
ENDBRANCH   9  12
ENDBRANCH   6   9
ENDBRANCH   3   5
ENDBRANCH   2   3
BRANCH   2  23
ATOM     23  N   UNL     1      -4.601   4.573   2.050  1.00  0.00    -0.332 N 
ATOM     24  C   UNL     1      -4.848   5.373   0.860  1.00  0.00     0.147 C 
BRANCH  23  25
ATOM     25  C   UNL     1      -5.407   3.325   2.144  1.00  0.00     0.174 C 
BRANCH  25  26
ATOM     26  C   UNL     1      -5.200   2.382   0.936  1.00  0.00     0.038 C 
BRANCH  26  27
ATOM     27  C   UNL     1      -4.428   1.069   1.196  1.00  0.00    -0.015 C 
ATOM     28  C   UNL     1      -3.059   1.051   0.518  1.00  0.00     0.007 C 
ATOM     29  C   UNL     1      -4.298   0.725   2.678  1.00  0.00     0.007 C 
ENDBRANCH  26  27
ENDBRANCH  25  26
BRANCH  25  30
ATOM     30  C   UNL     1      -6.889   3.667   2.418  1.00  0.00     0.243 C 
ATOM     31  O   UNL     1      -7.232   4.338   3.391  1.00  0.00    -0.273 OA
ATOM     32  N   UNL     1      -7.790   3.170   1.512  1.00  0.00    -0.342 N 
ATOM     33  H   UNL     1      -7.419   2.745   0.659  1.00  0.00     0.164 HD
BRANCH  32  34
ATOM     34  C   UNL     1      -9.237   3.372   1.627  1.00  0.00     0.175 C 
BRANCH  34  35
ATOM     35  C   UNL     1      -9.791   2.730   2.909  1.00  0.00     0.070 C 
BRANCH  35  36
ATOM     36  C   UNL     1     -11.065   1.952   2.670  1.00  0.00    -0.045 A 
ATOM     37  C   UNL     1     -11.904   1.631   3.748  1.00  0.00     0.007 A 
ATOM     38  C   UNL     1     -11.414   1.522   1.383  1.00  0.00     0.007 A 
ATOM     39  C   UNL     1     -13.075   0.902   3.539  1.00  0.00     0.046 A 
ATOM     40  C   UNL     1     -12.586   0.790   1.174  1.00  0.00     0.046 A 
ATOM     41  C   UNL     1     -13.407   0.488   2.255  1.00  0.00     0.115 A 
BRANCH  41  42
ATOM     42  O   UNL     1     -14.558  -0.225   2.094  1.00  0.00    -0.508 OA
ATOM     43  H   UNL     1     -15.309   0.362   2.285  1.00  0.00     0.293 HD
ENDBRANCH  41  42
ENDBRANCH  35  36
ENDBRANCH  34  35
BRANCH  34  44
ATOM     44  C   UNL     1      -9.514   4.891   1.577  1.00  0.00     0.243 C 
ATOM     45  O   UNL     1      -9.156   5.632   0.665  1.00  0.00    -0.273 OA
ATOM     46  N   UNL     1     -10.098   5.381   2.726  1.00  0.00    -0.341 N 
ATOM     47  H   UNL     1     -10.270   4.747   3.502  1.00  0.00     0.164 HD
BRANCH  46  48
ATOM     48  C   UNL     1     -10.393   6.800   2.937  1.00  0.00     0.196 C 
BRANCH  48  49
ATOM     49  C   UNL     1     -11.759   7.183   2.343  1.00  0.00     0.072 C 
BRANCH  49  50
ATOM     50  C   UNL     1     -12.808   6.116   2.561  1.00  0.00    -0.045 A 
ATOM     51  C   UNL     1     -13.517   6.070   3.771  1.00  0.00     0.007 A 
ATOM     52  C   UNL     1     -13.073   5.153   1.579  1.00  0.00     0.007 A 
ATOM     53  C   UNL     1     -14.478   5.083   3.989  1.00  0.00     0.046 A 
ATOM     54  C   UNL     1     -14.034   4.164   1.798  1.00  0.00     0.046 A 
ATOM     55  C   UNL     1     -14.729   4.138   3.002  1.00  0.00     0.115 A 
BRANCH  55  56
ATOM     56  O   UNL     1     -15.675   3.188   3.256  1.00  0.00    -0.508 OA
ATOM     57  H   UNL     1     -15.321   2.325   2.987  1.00  0.00     0.293 HD
ENDBRANCH  55  56
ENDBRANCH  49  50
ENDBRANCH  48  49
BRANCH  48  58
ATOM     58  C   UNL     1     -10.388   7.092   4.444  1.00  0.00     0.326 C 
ATOM     59  O   UNL     1     -10.692   8.137   4.996  1.00  0.00    -0.250 OA
BRANCH  58  60
ATOM     60  O   UNL     1     -10.008   6.031   5.199  1.00  0.00    -0.480 OA
ATOM     61  H   UNL     1      -9.438   6.436   5.889  1.00  0.00     0.296 HD
ENDBRANCH  58  60
ENDBRANCH  48  58
ENDBRANCH  46  48
ENDBRANCH  34  44
ENDBRANCH  32  34
ENDBRANCH  25  30
ENDBRANCH  23  25
ENDBRANCH   2  23
TORSDOF 28
ENDMDL
MODEL 47
REMARK VINA RESULT:    -5.234     14.315     19.120
REMARK INTER + INTRA:         -19.213
REMARK INTER:                 -15.627
REMARK INTRA:                  -3.586
REMARK UNBOUND:                -6.175
REMARK SMILES CCCCCCC[C@H](N)[C@H](O)C(=O)N[C@H](C)C(=O)N(C)[C@H](CC(C)C)C(=O)N[C@@H](Cc1ccc(O)cc1)C(=O)N[C@@H](Cc1ccc(O)cc1)C(=O)O
REMARK SMILES IDX 18 1 17 2 15 3 16 4 14 5 12 6 13 7 10 9 11 10 8 12 9 13 7 16
REMARK SMILES IDX 6 17 5 18 4 19 3 20 2 21 1 22 19 23 20 24 21 25 22 26 23 27
REMARK SMILES IDX 24 28 25 29 26 30 27 31 28 32 29 34 30 35 31 36 32 37 37 38
REMARK SMILES IDX 33 39 36 40 34 41 35 42 38 44 39 45 40 46 41 48 42 49 43 50
REMARK SMILES IDX 44 51 49 52 45 53 48 54 46 55 47 56 50 58 51 59 52 60
REMARK H PARENT 14 8 11 11 9 14 9 15 28 33 35 43 40 47 47 57 52 61
ROOT
ATOM      1  O   UNL     1      -5.365   1.568   4.605  1.00  0.00    -0.272 OA
ATOM      2  C   UNL     1      -6.234   2.311   5.085  1.00  0.00     0.245 C 
ENDROOT
BRANCH   2   3
ATOM      3  C   UNL     1      -7.545   1.675   5.609  1.00  0.00     0.168 C 
ATOM      4  C   UNL     1      -8.760   2.456   5.119  1.00  0.00     0.041 C 
BRANCH   3   5
ATOM      5  N   UNL     1      -7.678   0.249   5.352  1.00  0.00    -0.342 N 
ATOM      6  C   UNL     1      -8.135  -0.625   6.316  1.00  0.00     0.251 C 
ATOM      7  O   UNL     1      -8.419  -0.283   7.459  1.00  0.00    -0.272 OA
ATOM      8  H   UNL     1      -7.439  -0.158   4.451  1.00  0.00     0.164 HD
BRANCH   6   9
ATOM      9  C   UNL     1      -8.329  -2.052   5.780  1.00  0.00     0.219 C 
BRANCH   9  10
ATOM     10  O   UNL     1      -7.752  -3.047   6.635  1.00  0.00    -0.382 OA
ATOM     11  H   UNL     1      -7.544  -3.786   6.022  1.00  0.00     0.211 HD
ENDBRANCH   9  10
BRANCH   9  12
ATOM     12  C   UNL     1      -9.810  -2.389   5.466  1.00  0.00     0.089 C 
BRANCH  12  13
ATOM     13  N   UNL     1     -10.571  -1.121   5.390  1.00  0.00    -0.325 NA
ATOM     14  H   UNL     1     -10.182  -0.539   4.646  1.00  0.00     0.119 HD
ATOM     15  H   UNL     1     -10.417  -0.590   6.251  1.00  0.00     0.119 HD
ENDBRANCH  12  13
BRANCH  12  16
ATOM     16  C   UNL     1     -10.058  -3.234   4.194  1.00  0.00     0.022 C 
BRANCH  16  17
ATOM     17  C   UNL     1     -11.477  -3.311   3.614  1.00  0.00     0.002 C 
BRANCH  17  18
ATOM     18  C   UNL     1     -11.636  -2.712   2.218  1.00  0.00     0.000 C 
BRANCH  18  19
ATOM     19  C   UNL     1     -12.433  -3.593   1.247  1.00  0.00    -0.000 C 
BRANCH  19  20
ATOM     20  C   UNL     1     -11.802  -3.769  -0.137  1.00  0.00    -0.000 C 
BRANCH  20  21
ATOM     21  C   UNL     1     -10.349  -4.248  -0.078  1.00  0.00    -0.003 C 
ATOM     22  C   UNL     1      -9.670  -4.130  -1.433  1.00  0.00     0.004 C 
ENDBRANCH  20  21
ENDBRANCH  19  20
ENDBRANCH  18  19
ENDBRANCH  17  18
ENDBRANCH  16  17
ENDBRANCH  12  16
ENDBRANCH   9  12
ENDBRANCH   6   9
ENDBRANCH   3   5
ENDBRANCH   2   3
BRANCH   2  23
ATOM     23  N   UNL     1      -5.973   3.666   5.256  1.00  0.00    -0.332 N 
ATOM     24  C   UNL     1      -5.728   4.305   6.540  1.00  0.00     0.147 C 
BRANCH  23  25
ATOM     25  C   UNL     1      -5.799   4.552   4.072  1.00  0.00     0.174 C 
BRANCH  25  26
ATOM     26  C   UNL     1      -6.395   3.952   2.777  1.00  0.00     0.038 C 
BRANCH  26  27
ATOM     27  C   UNL     1      -7.168   4.916   1.850  1.00  0.00    -0.015 C 
ATOM     28  C   UNL     1      -6.657   4.877   0.410  1.00  0.00     0.007 C 
ATOM     29  C   UNL     1      -8.681   4.714   1.888  1.00  0.00     0.007 C 
ENDBRANCH  26  27
ENDBRANCH  25  26
BRANCH  25  30
ATOM     30  C   UNL     1      -4.318   4.975   3.937  1.00  0.00     0.243 C 
ATOM     31  O   UNL     1      -3.994   6.071   3.481  1.00  0.00    -0.273 OA
ATOM     32  N   UNL     1      -3.397   4.049   4.352  1.00  0.00    -0.342 N 
ATOM     33  H   UNL     1      -3.744   3.224   4.848  1.00  0.00     0.164 HD
BRANCH  32  34
ATOM     34  C   UNL     1      -1.950   4.266   4.272  1.00  0.00     0.175 C 
BRANCH  34  35
ATOM     35  C   UNL     1      -1.253   3.879   5.586  1.00  0.00     0.070 C 
BRANCH  35  36
ATOM     36  C   UNL     1       0.113   4.509   5.732  1.00  0.00    -0.045 A 
ATOM     37  C   UNL     1       0.259   5.714   6.436  1.00  0.00     0.007 A 
ATOM     38  C   UNL     1       1.243   3.918   5.150  1.00  0.00     0.007 A 
ATOM     39  C   UNL     1       1.514   6.310   6.564  1.00  0.00     0.046 A 
ATOM     40  C   UNL     1       2.500   4.515   5.277  1.00  0.00     0.046 A 
ATOM     41  C   UNL     1       2.624   5.706   5.984  1.00  0.00     0.115 A 
BRANCH  41  42
ATOM     42  O   UNL     1       3.831   6.323   6.129  1.00  0.00    -0.508 OA
ATOM     43  H   UNL     1       4.100   6.674   5.264  1.00  0.00     0.293 HD
ENDBRANCH  41  42
ENDBRANCH  35  36
ENDBRANCH  34  35
BRANCH  34  44
ATOM     44  C   UNL     1      -1.409   3.456   3.072  1.00  0.00     0.243 C 
ATOM     45  O   UNL     1      -1.422   3.848   1.909  1.00  0.00    -0.273 OA
ATOM     46  N   UNL     1      -1.020   2.176   3.405  1.00  0.00    -0.341 N 
ATOM     47  H   UNL     1      -1.137   1.857   4.364  1.00  0.00     0.164 HD
BRANCH  46  48
ATOM     48  C   UNL     1      -0.538   1.200   2.425  1.00  0.00     0.196 C 
BRANCH  48  49
ATOM     49  C   UNL     1       0.931   0.824   2.685  1.00  0.00     0.072 C 
BRANCH  49  50
ATOM     50  C   UNL     1       1.900   1.712   1.939  1.00  0.00    -0.045 A 
ATOM     51  C   UNL     1       1.490   2.364   0.767  1.00  0.00     0.007 A 
ATOM     52  C   UNL     1       3.216   1.879   2.387  1.00  0.00     0.007 A 
ATOM     53  C   UNL     1       2.379   3.175   0.062  1.00  0.00     0.046 A 
ATOM     54  C   UNL     1       4.107   2.691   1.681  1.00  0.00     0.046 A 
ATOM     55  C   UNL     1       3.680   3.333   0.524  1.00  0.00     0.115 A 
BRANCH  55  56
ATOM     56  O   UNL     1       4.519   4.133  -0.194  1.00  0.00    -0.508 OA
ATOM     57  H   UNL     1       4.336   5.057   0.040  1.00  0.00     0.293 HD
ENDBRANCH  55  56
ENDBRANCH  49  50
ENDBRANCH  48  49
BRANCH  48  58
ATOM     58  C   UNL     1      -1.413  -0.058   2.502  1.00  0.00     0.326 C 
ATOM     59  O   UNL     1      -2.298  -0.295   3.308  1.00  0.00    -0.250 OA
BRANCH  58  60
ATOM     60  O   UNL     1      -1.138  -0.969   1.534  1.00  0.00    -0.480 OA
ATOM     61  H   UNL     1      -1.721  -0.694   0.793  1.00  0.00     0.296 HD
ENDBRANCH  58  60
ENDBRANCH  48  58
ENDBRANCH  46  48
ENDBRANCH  34  44
ENDBRANCH  32  34
ENDBRANCH  25  30
ENDBRANCH  23  25
ENDBRANCH   2  23
TORSDOF 28
ENDMDL
MODEL 48
REMARK VINA RESULT:    -5.192      3.098      6.798
REMARK INTER + INTRA:         -19.107
REMARK INTER:                 -15.284
REMARK INTRA:                  -3.823
REMARK UNBOUND:                -6.175
REMARK SMILES CCCCCCC[C@H](N)[C@H](O)C(=O)N[C@H](C)C(=O)N(C)[C@H](CC(C)C)C(=O)N[C@@H](Cc1ccc(O)cc1)C(=O)N[C@@H](Cc1ccc(O)cc1)C(=O)O
REMARK SMILES IDX 18 1 17 2 15 3 16 4 14 5 12 6 13 7 10 9 11 10 8 12 9 13 7 16
REMARK SMILES IDX 6 17 5 18 4 19 3 20 2 21 1 22 19 23 20 24 21 25 22 26 23 27
REMARK SMILES IDX 24 28 25 29 26 30 27 31 28 32 29 34 30 35 31 36 32 37 37 38
REMARK SMILES IDX 33 39 36 40 34 41 35 42 38 44 39 45 40 46 41 48 42 49 43 50
REMARK SMILES IDX 44 51 49 52 45 53 48 54 46 55 47 56 50 58 51 59 52 60
REMARK H PARENT 14 8 11 11 9 14 9 15 28 33 35 43 40 47 47 57 52 61
ROOT
ATOM      1  O   UNL     1     -19.739   0.878  -8.280  1.00  0.00    -0.272 OA
ATOM      2  C   UNL     1     -18.946   1.460  -7.526  1.00  0.00     0.245 C 
ENDROOT
BRANCH   2   3
ATOM      3  C   UNL     1     -19.514   2.431  -6.461  1.00  0.00     0.168 C 
ATOM      4  C   UNL     1     -20.647   3.270  -7.042  1.00  0.00     0.041 C 
BRANCH   3   5
ATOM      5  N   UNL     1     -19.893   1.805  -5.204  1.00  0.00    -0.342 N 
ATOM      6  C   UNL     1     -19.299   2.152  -4.009  1.00  0.00     0.251 C 
ATOM      7  O   UNL     1     -18.390   2.971  -3.918  1.00  0.00    -0.272 OA
ATOM      8  H   UNL     1     -20.612   1.086  -5.158  1.00  0.00     0.164 HD
BRANCH   6   9
ATOM      9  C   UNL     1     -19.954   1.468  -2.798  1.00  0.00     0.219 C 
BRANCH   9  10
ATOM     10  O   UNL     1     -21.381   1.404  -2.906  1.00  0.00    -0.382 OA
ATOM     11  H   UNL     1     -21.581   1.979  -3.676  1.00  0.00     0.211 HD
ENDBRANCH   9  10
BRANCH   9  12
ATOM     12  C   UNL     1     -19.361   0.068  -2.495  1.00  0.00     0.089 C 
BRANCH  12  13
ATOM     13  N   UNL     1     -19.011  -0.580  -3.780  1.00  0.00    -0.325 NA
ATOM     14  H   UNL     1     -18.267  -1.263  -3.620  1.00  0.00     0.119 HD
ATOM     15  H   UNL     1     -18.601   0.120  -4.403  1.00  0.00     0.119 HD
ENDBRANCH  12  13
BRANCH  12  16
ATOM     16  C   UNL     1     -18.146   0.039  -1.537  1.00  0.00     0.022 C 
BRANCH  16  17
ATOM     17  C   UNL     1     -17.590   1.364  -0.995  1.00  0.00     0.002 C 
BRANCH  17  18
ATOM     18  C   UNL     1     -17.944   1.664   0.459  1.00  0.00     0.000 C 
BRANCH  18  19
ATOM     19  C   UNL     1     -16.765   1.521   1.431  1.00  0.00    -0.000 C 
BRANCH  19  20
ATOM     20  C   UNL     1     -15.522   0.842   0.850  1.00  0.00    -0.000 C 
BRANCH  20  21
ATOM     21  C   UNL     1     -15.310  -0.578   1.382  1.00  0.00    -0.003 C 
ATOM     22  C   UNL     1     -15.064  -1.563   0.250  1.00  0.00     0.004 C 
ENDBRANCH  20  21
ENDBRANCH  19  20
ENDBRANCH  18  19
ENDBRANCH  17  18
ENDBRANCH  16  17
ENDBRANCH  12  16
ENDBRANCH   9  12
ENDBRANCH   6   9
ENDBRANCH   3   5
ENDBRANCH   2   3
BRANCH   2  23
ATOM     23  N   UNL     1     -17.592   1.147  -7.564  1.00  0.00    -0.332 N 
ATOM     24  C   UNL     1     -16.916   0.285  -6.606  1.00  0.00     0.147 C 
BRANCH  23  25
ATOM     25  C   UNL     1     -16.749   1.593  -8.708  1.00  0.00     0.174 C 
BRANCH  25  26
ATOM     26  C   UNL     1     -16.485   0.468  -9.736  1.00  0.00     0.038 C 
BRANCH  26  27
ATOM     27  C   UNL     1     -16.555   0.854 -11.230  1.00  0.00    -0.015 C 
ATOM     28  C   UNL     1     -17.738   1.770 -11.542  1.00  0.00     0.007 C 
ATOM     29  C   UNL     1     -15.256   1.454 -11.764  1.00  0.00     0.007 C 
ENDBRANCH  26  27
ENDBRANCH  25  26
BRANCH  25  30
ATOM     30  C   UNL     1     -15.463   2.274  -8.187  1.00  0.00     0.243 C 
ATOM     31  O   UNL     1     -15.485   3.383  -7.654  1.00  0.00    -0.273 OA
ATOM     32  N   UNL     1     -14.303   1.566  -8.365  1.00  0.00    -0.342 N 
ATOM     33  H   UNL     1     -14.384   0.597  -8.685  1.00  0.00     0.164 HD
BRANCH  32  34
ATOM     34  C   UNL     1     -12.987   2.067  -7.959  1.00  0.00     0.175 C 
BRANCH  34  35
ATOM     35  C   UNL     1     -11.974   0.921  -7.810  1.00  0.00     0.070 C 
BRANCH  35  36
ATOM     36  C   UNL     1     -10.543   1.407  -7.770  1.00  0.00    -0.045 A 
ATOM     37  C   UNL     1      -9.590   0.856  -8.640  1.00  0.00     0.007 A 
ATOM     38  C   UNL     1     -10.143   2.391  -6.856  1.00  0.00     0.007 A 
ATOM     39  C   UNL     1      -8.264   1.289  -8.601  1.00  0.00     0.046 A 
ATOM     40  C   UNL     1      -8.816   2.824  -6.815  1.00  0.00     0.046 A 
ATOM     41  C   UNL     1      -7.887   2.269  -7.690  1.00  0.00     0.115 A 
BRANCH  41  42
ATOM     42  O   UNL     1      -6.582   2.661  -7.682  1.00  0.00    -0.508 OA
ATOM     43  H   UNL     1      -6.027   1.876  -7.824  1.00  0.00     0.293 HD
ENDBRANCH  41  42
ENDBRANCH  35  36
ENDBRANCH  34  35
BRANCH  34  44
ATOM     44  C   UNL     1     -12.529   3.111  -9.002  1.00  0.00     0.243 C 
ATOM     45  O   UNL     1     -12.164   2.838 -10.142  1.00  0.00    -0.273 OA
ATOM     46  N   UNL     1     -12.440   4.390  -8.495  1.00  0.00    -0.341 N 
ATOM     47  H   UNL     1     -12.642   4.547  -7.511  1.00  0.00     0.164 HD
BRANCH  46  48
ATOM     48  C   UNL     1     -11.964   5.534  -9.276  1.00  0.00     0.196 C 
BRANCH  48  49
ATOM     49  C   UNL     1     -13.129   6.443  -9.703  1.00  0.00     0.072 C 
BRANCH  49  50
ATOM     50  C   UNL     1     -13.882   5.901 -10.897  1.00  0.00    -0.045 A 
ATOM     51  C   UNL     1     -13.223   5.735 -12.123  1.00  0.00     0.007 A 
ATOM     52  C   UNL     1     -15.242   5.578 -10.804  1.00  0.00     0.007 A 
ATOM     53  C   UNL     1     -13.911   5.248 -13.235  1.00  0.00     0.046 A 
ATOM     54  C   UNL     1     -15.932   5.091 -11.917  1.00  0.00     0.046 A 
ATOM     55  C   UNL     1     -15.259   4.929 -13.123  1.00  0.00     0.115 A 
BRANCH  55  56
ATOM     56  O   UNL     1     -15.896   4.458 -14.233  1.00  0.00    -0.508 OA
ATOM     57  H   UNL     1     -16.846   4.631 -14.138  1.00  0.00     0.293 HD
ENDBRANCH  55  56
ENDBRANCH  49  50
ENDBRANCH  48  49
BRANCH  48  58
ATOM     58  C   UNL     1     -10.969   6.338  -8.428  1.00  0.00     0.326 C 
ATOM     59  O   UNL     1     -11.016   6.539  -7.225  1.00  0.00    -0.250 OA
BRANCH  58  60
ATOM     60  O   UNL     1      -9.934   6.846  -9.144  1.00  0.00    -0.480 OA
ATOM     61  H   UNL     1      -9.887   7.779  -8.842  1.00  0.00     0.296 HD
ENDBRANCH  58  60
ENDBRANCH  48  58
ENDBRANCH  46  48
ENDBRANCH  34  44
ENDBRANCH  32  34
ENDBRANCH  25  30
ENDBRANCH  23  25
ENDBRANCH   2  23
TORSDOF 28
ENDMDL
MODEL 49
REMARK VINA RESULT:    -5.190      2.118      4.419
REMARK INTER + INTRA:         -19.102
REMARK INTER:                 -14.000
REMARK INTRA:                  -5.102
REMARK UNBOUND:                -6.175
REMARK SMILES CCCCCCC[C@H](N)[C@H](O)C(=O)N[C@H](C)C(=O)N(C)[C@H](CC(C)C)C(=O)N[C@@H](Cc1ccc(O)cc1)C(=O)N[C@@H](Cc1ccc(O)cc1)C(=O)O
REMARK SMILES IDX 18 1 17 2 15 3 16 4 14 5 12 6 13 7 10 9 11 10 8 12 9 13 7 16
REMARK SMILES IDX 6 17 5 18 4 19 3 20 2 21 1 22 19 23 20 24 21 25 22 26 23 27
REMARK SMILES IDX 24 28 25 29 26 30 27 31 28 32 29 34 30 35 31 36 32 37 37 38
REMARK SMILES IDX 33 39 36 40 34 41 35 42 38 44 39 45 40 46 41 48 42 49 43 50
REMARK SMILES IDX 44 51 49 52 45 53 48 54 46 55 47 56 50 58 51 59 52 60
REMARK H PARENT 14 8 11 11 9 14 9 15 28 33 35 43 40 47 47 57 52 61
ROOT
ATOM      1  O   UNL     1     -16.746   0.441  -9.679  1.00  0.00    -0.272 OA
ATOM      2  C   UNL     1     -17.028   0.885  -8.556  1.00  0.00     0.245 C 
ENDROOT
BRANCH   2   3
ATOM      3  C   UNL     1     -16.040   0.634  -7.390  1.00  0.00     0.168 C 
ATOM      4  C   UNL     1     -16.434  -0.612  -6.605  1.00  0.00     0.041 C 
BRANCH   3   5
ATOM      5  N   UNL     1     -14.637   0.613  -7.771  1.00  0.00    -0.342 N 
ATOM      6  C   UNL     1     -13.806   1.692  -7.552  1.00  0.00     0.251 C 
ATOM      7  O   UNL     1     -14.188   2.751  -7.066  1.00  0.00    -0.272 OA
ATOM      8  H   UNL     1     -14.214  -0.198  -8.215  1.00  0.00     0.164 HD
BRANCH   6   9
ATOM      9  C   UNL     1     -12.340   1.394  -7.902  1.00  0.00     0.219 C 
BRANCH   9  10
ATOM     10  O   UNL     1     -12.149   1.119  -9.295  1.00  0.00    -0.382 OA
ATOM     11  H   UNL     1     -11.443   0.436  -9.301  1.00  0.00     0.211 HD
ENDBRANCH   9  10
BRANCH   9  12
ATOM     12  C   UNL     1     -11.362   2.498  -7.420  1.00  0.00     0.089 C 
BRANCH  12  13
ATOM     13  N   UNL     1     -10.225   1.847  -6.731  1.00  0.00    -0.325 NA
ATOM     14  H   UNL     1     -10.560   1.013  -6.245  1.00  0.00     0.119 HD
ATOM     15  H   UNL     1      -9.885   2.468  -5.993  1.00  0.00     0.119 HD
ENDBRANCH  12  13
BRANCH  12  16
ATOM     16  C   UNL     1     -10.840   3.465  -8.510  1.00  0.00     0.022 C 
BRANCH  16  17
ATOM     17  C   UNL     1     -11.680   4.694  -8.882  1.00  0.00     0.002 C 
BRANCH  17  18
ATOM     18  C   UNL     1     -11.855   5.718  -7.763  1.00  0.00     0.000 C 
BRANCH  18  19
ATOM     19  C   UNL     1     -10.607   5.910  -6.891  1.00  0.00    -0.000 C 
BRANCH  19  20
ATOM     20  C   UNL     1     -10.259   7.365  -6.564  1.00  0.00    -0.000 C 
BRANCH  20  21
ATOM     21  C   UNL     1      -8.849   7.760  -7.013  1.00  0.00    -0.003 C 
ATOM     22  C   UNL     1      -8.246   6.710  -7.934  1.00  0.00     0.004 C 
ENDBRANCH  20  21
ENDBRANCH  19  20
ENDBRANCH  18  19
ENDBRANCH  17  18
ENDBRANCH  16  17
ENDBRANCH  12  16
ENDBRANCH   9  12
ENDBRANCH   6   9
ENDBRANCH   3   5
ENDBRANCH   2   3
BRANCH   2  23
ATOM     23  N   UNL     1     -18.147   1.694  -8.390  1.00  0.00    -0.332 N 
ATOM     24  C   UNL     1     -19.520   1.213  -8.380  1.00  0.00     0.147 C 
BRANCH  23  25
ATOM     25  C   UNL     1     -17.988   3.140  -8.074  1.00  0.00     0.174 C 
BRANCH  25  26
ATOM     26  C   UNL     1     -18.835   3.588  -6.859  1.00  0.00     0.038 C 
BRANCH  26  27
ATOM     27  C   UNL     1     -18.230   3.350  -5.458  1.00  0.00    -0.015 C 
ATOM     28  C   UNL     1     -18.375   4.567  -4.544  1.00  0.00     0.007 C 
ATOM     29  C   UNL     1     -18.763   2.096  -4.771  1.00  0.00     0.007 C 
ENDBRANCH  26  27
ENDBRANCH  25  26
BRANCH  25  30
ATOM     30  C   UNL     1     -18.223   3.991  -9.343  1.00  0.00     0.243 C 
ATOM     31  O   UNL     1     -18.468   3.478 -10.433  1.00  0.00    -0.273 OA
ATOM     32  N   UNL     1     -18.135   5.349  -9.171  1.00  0.00    -0.342 N 
ATOM     33  H   UNL     1     -18.070   5.702  -8.213  1.00  0.00     0.164 HD
BRANCH  32  34
ATOM     34  C   UNL     1     -18.302   6.308 -10.267  1.00  0.00     0.175 C 
BRANCH  34  35
ATOM     35  C   UNL     1     -19.008   7.586  -9.789  1.00  0.00     0.070 C 
BRANCH  35  36
ATOM     36  C   UNL     1     -18.654   7.952  -8.365  1.00  0.00    -0.045 A 
ATOM     37  C   UNL     1     -19.470   7.524  -7.307  1.00  0.00     0.007 A 
ATOM     38  C   UNL     1     -17.527   8.736  -8.083  1.00  0.00     0.007 A 
ATOM     39  C   UNL     1     -19.159   7.869  -5.991  1.00  0.00     0.046 A 
ATOM     40  C   UNL     1     -17.216   9.082  -6.766  1.00  0.00     0.046 A 
ATOM     41  C   UNL     1     -18.035   8.643  -5.731  1.00  0.00     0.115 A 
BRANCH  41  42
ATOM     42  O   UNL     1     -17.768   8.960  -4.432  1.00  0.00    -0.508 OA
ATOM     43  H   UNL     1     -17.972   8.186  -3.881  1.00  0.00     0.293 HD
ENDBRANCH  41  42
ENDBRANCH  35  36
ENDBRANCH  34  35
BRANCH  34  44
ATOM     44  C   UNL     1     -16.905   6.607 -10.858  1.00  0.00     0.243 C 
ATOM     45  O   UNL     1     -15.883   6.737 -10.191  1.00  0.00    -0.273 OA
ATOM     46  N   UNL     1     -16.925   6.848 -12.216  1.00  0.00    -0.341 N 
ATOM     47  H   UNL     1     -17.816   6.843 -12.706  1.00  0.00     0.164 HD
BRANCH  46  48
ATOM     48  C   UNL     1     -15.735   7.219 -12.985  1.00  0.00     0.196 C 
BRANCH  48  49
ATOM     49  C   UNL     1     -15.235   6.045 -13.844  1.00  0.00     0.072 C 
BRANCH  49  50
ATOM     50  C   UNL     1     -15.053   4.775 -13.044  1.00  0.00    -0.045 A 
ATOM     51  C   UNL     1     -13.982   4.661 -12.147  1.00  0.00     0.007 A 
ATOM     52  C   UNL     1     -15.930   3.693 -13.200  1.00  0.00     0.007 A 
ATOM     53  C   UNL     1     -13.796   3.489 -11.413  1.00  0.00     0.046 A 
ATOM     54  C   UNL     1     -15.744   2.520 -12.466  1.00  0.00     0.046 A 
ATOM     55  C   UNL     1     -14.678   2.428 -11.578  1.00  0.00     0.115 A 
BRANCH  55  56
ATOM     56  O   UNL     1     -14.461   1.300 -10.844  1.00  0.00    -0.508 OA
ATOM     57  H   UNL     1     -15.320   0.950 -10.559  1.00  0.00     0.293 HD
ENDBRANCH  55  56
ENDBRANCH  49  50
ENDBRANCH  48  49
BRANCH  48  58
ATOM     58  C   UNL     1     -16.077   8.410 -13.890  1.00  0.00     0.326 C 
ATOM     59  O   UNL     1     -15.307   9.250 -14.329  1.00  0.00    -0.250 OA
BRANCH  58  60
ATOM     60  O   UNL     1     -17.391   8.481 -14.218  1.00  0.00    -0.480 OA
ATOM     61  H   UNL     1     -17.509   7.734 -14.845  1.00  0.00     0.296 HD
ENDBRANCH  58  60
ENDBRANCH  48  58
ENDBRANCH  46  48
ENDBRANCH  34  44
ENDBRANCH  32  34
ENDBRANCH  25  30
ENDBRANCH  23  25
ENDBRANCH   2  23
TORSDOF 28
ENDMDL
MODEL 50
REMARK VINA RESULT:    -5.154      2.438      8.357
REMARK INTER + INTRA:         -19.012
REMARK INTER:                 -15.390
REMARK INTRA:                  -3.621
REMARK UNBOUND:                -6.175
REMARK SMILES CCCCCCC[C@H](N)[C@H](O)C(=O)N[C@H](C)C(=O)N(C)[C@H](CC(C)C)C(=O)N[C@@H](Cc1ccc(O)cc1)C(=O)N[C@@H](Cc1ccc(O)cc1)C(=O)O
REMARK SMILES IDX 18 1 17 2 15 3 16 4 14 5 12 6 13 7 10 9 11 10 8 12 9 13 7 16
REMARK SMILES IDX 6 17 5 18 4 19 3 20 2 21 1 22 19 23 20 24 21 25 22 26 23 27
REMARK SMILES IDX 24 28 25 29 26 30 27 31 28 32 29 34 30 35 31 36 32 37 37 38
REMARK SMILES IDX 33 39 36 40 34 41 35 42 38 44 39 45 40 46 41 48 42 49 43 50
REMARK SMILES IDX 44 51 49 52 45 53 48 54 46 55 47 56 50 58 51 59 52 60
REMARK H PARENT 14 8 11 11 9 14 9 15 28 33 35 43 40 47 47 57 52 61
ROOT
ATOM      1  O   UNL     1     -15.511   6.011  -8.152  1.00  0.00    -0.272 OA
ATOM      2  C   UNL     1     -15.370   6.769  -9.123  1.00  0.00     0.245 C 
ENDROOT
BRANCH   2   3
ATOM      3  C   UNL     1     -16.546   7.699  -9.513  1.00  0.00     0.168 C 
ATOM      4  C   UNL     1     -17.123   8.388  -8.281  1.00  0.00     0.041 C 
BRANCH   3   5
ATOM      5  N   UNL     1     -16.248   8.648 -10.575  1.00  0.00    -0.342 N 
ATOM      6  C   UNL     1     -16.587   8.401 -11.888  1.00  0.00     0.251 C 
ATOM      7  O   UNL     1     -17.119   7.362 -12.265  1.00  0.00    -0.272 OA
ATOM      8  H   UNL     1     -15.777   9.531 -10.389  1.00  0.00     0.164 HD
BRANCH   6   9
ATOM      9  C   UNL     1     -16.306   9.598 -12.810  1.00  0.00     0.219 C 
BRANCH   9  10
ATOM     10  O   UNL     1     -15.602  10.654 -12.145  1.00  0.00    -0.382 OA
ATOM     11  H   UNL     1     -15.745  10.463 -11.192  1.00  0.00     0.211 HD
ENDBRANCH   9  10
BRANCH   9  12
ATOM     12  C   UNL     1     -15.586   9.199 -14.125  1.00  0.00     0.089 C 
BRANCH  12  13
ATOM     13  N   UNL     1     -16.471   8.286 -14.884  1.00  0.00    -0.325 NA
ATOM     14  H   UNL     1     -16.197   7.320 -14.697  1.00  0.00     0.119 HD
ATOM     15  H   UNL     1     -16.307   8.422 -15.884  1.00  0.00     0.119 HD
ENDBRANCH  12  13
BRANCH  12  16
ATOM     16  C   UNL     1     -15.127  10.368 -15.029  1.00  0.00     0.022 C 
BRANCH  16  17
ATOM     17  C   UNL     1     -13.760  10.284 -15.722  1.00  0.00     0.002 C 
BRANCH  17  18
ATOM     18  C   UNL     1     -12.764  11.369 -15.317  1.00  0.00     0.000 C 
BRANCH  18  19
ATOM     19  C   UNL     1     -11.298  10.917 -15.355  1.00  0.00    -0.000 C 
BRANCH  19  20
ATOM     20  C   UNL     1     -10.628  11.003 -16.729  1.00  0.00    -0.000 C 
BRANCH  20  21
ATOM     21  C   UNL     1     -10.460  12.442 -17.226  1.00  0.00    -0.003 C 
ATOM     22  C   UNL     1      -9.174  12.607 -18.021  1.00  0.00     0.004 C 
ENDBRANCH  20  21
ENDBRANCH  19  20
ENDBRANCH  18  19
ENDBRANCH  17  18
ENDBRANCH  16  17
ENDBRANCH  12  16
ENDBRANCH   9  12
ENDBRANCH   6   9
ENDBRANCH   3   5
ENDBRANCH   2   3
BRANCH   2  23
ATOM     23  N   UNL     1     -14.138   6.859  -9.762  1.00  0.00    -0.332 N 
ATOM     24  C   UNL     1     -13.174   7.928  -9.549  1.00  0.00     0.147 C 
BRANCH  23  25
ATOM     25  C   UNL     1     -13.666   5.755 -10.642  1.00  0.00     0.174 C 
BRANCH  25  26
ATOM     26  C   UNL     1     -14.816   4.849 -11.142  1.00  0.00     0.038 C 
BRANCH  26  27
ATOM     27  C   UNL     1     -14.775   4.421 -12.626  1.00  0.00    -0.015 C 
ATOM     28  C   UNL     1     -16.064   3.730 -13.070  1.00  0.00     0.007 C 
ATOM     29  C   UNL     1     -14.421   5.561 -13.578  1.00  0.00     0.007 C 
ENDBRANCH  26  27
ENDBRANCH  25  26
BRANCH  25  30
ATOM     30  C   UNL     1     -12.518   4.981  -9.955  1.00  0.00     0.243 C 
ATOM     31  O   UNL     1     -11.369   4.999 -10.392  1.00  0.00    -0.273 OA
ATOM     32  N   UNL     1     -12.869   4.272  -8.835  1.00  0.00    -0.342 N 
ATOM     33  H   UNL     1     -13.807   4.420  -8.455  1.00  0.00     0.164 HD
BRANCH  32  34
ATOM     34  C   UNL     1     -11.919   3.458  -8.071  1.00  0.00     0.175 C 
BRANCH  34  35
ATOM     35  C   UNL     1     -11.396   4.217  -6.841  1.00  0.00     0.070 C 
BRANCH  35  36
ATOM     36  C   UNL     1     -10.003   4.770  -7.044  1.00  0.00    -0.045 A 
ATOM     37  C   UNL     1      -9.798   6.157  -7.087  1.00  0.00     0.007 A 
ATOM     38  C   UNL     1      -8.908   3.913  -7.214  1.00  0.00     0.007 A 
ATOM     39  C   UNL     1      -8.518   6.676  -7.288  1.00  0.00     0.046 A 
ATOM     40  C   UNL     1      -7.626   4.432  -7.416  1.00  0.00     0.046 A 
ATOM     41  C   UNL     1      -7.444   5.810  -7.450  1.00  0.00     0.115 A 
BRANCH  41  42
ATOM     42  O   UNL     1      -6.210   6.358  -7.646  1.00  0.00    -0.508 OA
ATOM     43  H   UNL     1      -6.326   7.226  -8.068  1.00  0.00     0.293 HD
ENDBRANCH  41  42
ENDBRANCH  35  36
ENDBRANCH  34  35
BRANCH  34  44
ATOM     44  C   UNL     1     -12.625   2.140  -7.679  1.00  0.00     0.243 C 
ATOM     45  O   UNL     1     -12.040   1.096  -7.404  1.00  0.00    -0.273 OA
ATOM     46  N   UNL     1     -13.998   2.199  -7.790  1.00  0.00    -0.341 N 
ATOM     47  H   UNL     1     -14.429   3.053  -8.135  1.00  0.00     0.164 HD
BRANCH  46  48
ATOM     48  C   UNL     1     -14.876   1.054  -7.538  1.00  0.00     0.196 C 
BRANCH  48  49
ATOM     49  C   UNL     1     -16.242   1.505  -6.994  1.00  0.00     0.072 C 
BRANCH  49  50
ATOM     50  C   UNL     1     -17.206   1.893  -8.091  1.00  0.00    -0.045 A 
ATOM     51  C   UNL     1     -18.250   1.025  -8.444  1.00  0.00     0.007 A 
ATOM     52  C   UNL     1     -17.064   3.104  -8.782  1.00  0.00     0.007 A 
ATOM     53  C   UNL     1     -19.138   1.366  -9.464  1.00  0.00     0.046 A 
ATOM     54  C   UNL     1     -17.952   3.445  -9.804  1.00  0.00     0.046 A 
ATOM     55  C   UNL     1     -18.983   2.573 -10.136  1.00  0.00     0.115 A 
BRANCH  55  56
ATOM     56  O   UNL     1     -19.871   2.868 -11.127  1.00  0.00    -0.508 OA
ATOM     57  H   UNL     1     -19.458   2.658 -11.980  1.00  0.00     0.293 HD
ENDBRANCH  55  56
ENDBRANCH  49  50
ENDBRANCH  48  49
BRANCH  48  58
ATOM     58  C   UNL     1     -15.075   0.279  -8.848  1.00  0.00     0.326 C 
ATOM     59  O   UNL     1     -15.467  -0.869  -8.975  1.00  0.00    -0.250 OA
BRANCH  58  60
ATOM     60  O   UNL     1     -14.779   1.004  -9.956  1.00  0.00    -0.480 OA
ATOM     61  H   UNL     1     -13.847   1.277  -9.806  1.00  0.00     0.296 HD
ENDBRANCH  58  60
ENDBRANCH  48  58
ENDBRANCH  46  48
ENDBRANCH  34  44
ENDBRANCH  32  34
ENDBRANCH  25  30
ENDBRANCH  23  25
ENDBRANCH   2  23
TORSDOF 28
ENDMDL
