MODEL 1
REMARK VINA RESULT:    -5.982      0.000      0.000
REMARK INTER + INTRA:         -23.115
REMARK INTER:                 -17.172
REMARK INTRA:                  -5.944
REMARK UNBOUND:                -5.944
REMARK SMILES CCCCCC(=O)N[C@H](CC(=O)O)C(=O)N[C@H]1C(=O)N[C@H](CCCN=C(N)N)C(=O)N[C@@H]2CC[C@H](O)N(C2=O)[C@@H](CC(C)C)C(=O)N(C)[C@@H](Cc2ccccc2)C(=O)N[C@H](C(C)C)C(=O)O[C@@H]1C
REMARK SMILES IDX 30 1 31 2 29 3 32 5 35 6 37 7 34 8 38 9 33 10 39 11 36 12
REMARK SMILES IDX 40 14 41 15 42 16 43 17 44 18 45 19 46 20 47 21 48 22 49 23
REMARK SMILES IDX 50 24 51 25 52 26 56 27 53 28 55 29 54 30 57 31 58 32 59 33
REMARK SMILES IDX 60 35 61 36 62 37 63 38 64 39 65 40 66 41 67 42 68 43 21 45
REMARK SMILES IDX 20 46 18 47 19 48 17 50 16 52 14 53 15 54 9 56 8 57 6 58
REMARK SMILES IDX 7 59 5 61 4 62 3 63 2 64 1 65 10 66 11 67 12 68 13 69 22 71
REMARK SMILES IDX 23 72 24 73 25 74 26 75 27 76 28 77
REMARK H PARENT 31 4 36 13 59 34 20 49 16 55 8 60 13 70 27 78 27 79 28 80
REMARK H PARENT 28 81
REMARK Flexibility Score:  259.900
ROOT
ATOM      1  O   UNL     1     -10.405  13.200   2.539  1.00  0.00    -0.273 OA
ATOM      2  N   UNL     1     -11.934  12.757   0.897  1.00  0.00    -0.343 N 
ATOM      3  C   UNL     1     -11.576  13.021   2.202  1.00  0.00     0.243 C 
ATOM      4  H   UNL     1     -12.909  12.629   0.654  1.00  0.00     0.164 HD
ENDROOT
BRANCH   2   5
ATOM      5  C   UNL     1     -10.915  12.558  -0.128  1.00  0.00     0.171 C 
ATOM      6  C   UNL     1     -11.060  11.777  -2.916  1.00  0.00     0.214 C 
ATOM      7  N   UNL     1     -10.900  10.762  -1.901  1.00  0.00    -0.303 N 
ATOM      8  C   UNL     1     -10.440  13.112  -2.534  1.00  0.00     0.057 C 
ATOM      9  C   UNL     1     -10.875  11.061  -0.549  1.00  0.00     0.247 C 
ATOM     10  C   UNL     1     -11.041  13.604  -1.235  1.00  0.00     0.040 C 
ATOM     11  O   UNL     1     -10.825  10.179   0.318  1.00  0.00    -0.272 OA
BRANCH   6  12
ATOM     12  O   UNL     1     -12.439  11.927  -3.162  1.00  0.00    -0.373 OA
ATOM     13  H   UNL     1     -12.561  11.904  -4.135  1.00  0.00     0.213 HD
ENDBRANCH   6  12
BRANCH   7  14
ATOM     14  C   UNL     1     -10.910   9.355  -2.353  1.00  0.00     0.177 C 
BRANCH  14  15
ATOM     15  C   UNL     1     -12.274   8.644  -2.256  1.00  0.00     0.038 C 
BRANCH  15  16
ATOM     16  C   UNL     1     -12.495   7.566  -1.173  1.00  0.00    -0.015 C 
ATOM     17  C   UNL     1     -12.819   6.194  -1.772  1.00  0.00     0.007 C 
ATOM     18  C   UNL     1     -13.658   7.977  -0.260  1.00  0.00     0.007 C 
ENDBRANCH  15  16
ENDBRANCH  14  15
BRANCH  14  19
ATOM     19  C   UNL     1      -9.857   9.143  -3.494  1.00  0.00     0.245 C 
ATOM     20  O   UNL     1     -10.301   8.970  -4.642  1.00  0.00    -0.272 OA
BRANCH  19  21
ATOM     21  N   UNL     1      -8.495   9.027  -3.275  1.00  0.00    -0.332 N 
ATOM     22  C   UNL     1      -7.872   8.671  -2.013  1.00  0.00     0.147 C 
BRANCH  21  23
ATOM     23  C   UNL     1      -7.581   9.298  -4.419  1.00  0.00     0.178 C 
BRANCH  23  24
ATOM     24  C   UNL     1      -6.511  10.376  -4.149  1.00  0.00     0.070 C 
BRANCH  24  25
ATOM     25  C   UNL     1      -6.685  11.707  -4.843  1.00  0.00    -0.045 A 
ATOM     26  C   UNL     1      -7.187  12.817  -4.151  1.00  0.00     0.004 A 
ATOM     27  C   UNL     1      -6.349  11.848  -6.197  1.00  0.00     0.004 A 
ATOM     28  C   UNL     1      -7.360  14.039  -4.804  1.00  0.00     0.000 A 
ATOM     29  C   UNL     1      -6.523  13.070  -6.848  1.00  0.00     0.000 A 
ATOM     30  C   UNL     1      -7.031  14.164  -6.151  1.00  0.00     0.000 A 
ENDBRANCH  24  25
ENDBRANCH  23  24
BRANCH  23  31
ATOM     31  C   UNL     1      -7.051   8.007  -5.087  1.00  0.00     0.243 C 
ATOM     32  O   UNL     1      -7.617   6.919  -5.025  1.00  0.00    -0.273 OA
ATOM     33  N   UNL     1      -5.776   8.139  -5.611  1.00  0.00    -0.341 N 
ATOM     34  H   UNL     1      -5.353   9.070  -5.630  1.00  0.00     0.164 HD
BRANCH  33  35
ATOM     35  C   UNL     1      -5.028   7.017  -6.185  1.00  0.00     0.194 C 
BRANCH  35  36
ATOM     36  C   UNL     1      -3.861   6.509  -5.292  1.00  0.00     0.017 C 
ATOM     37  C   UNL     1      -4.383   5.923  -3.969  1.00  0.00     0.010 C 
ATOM     38  C   UNL     1      -2.848   7.605  -4.940  1.00  0.00     0.010 C 
ENDBRANCH  35  36
BRANCH  35  39
ATOM     39  C   UNL     1      -4.566   7.291  -7.644  1.00  0.00     0.329 C 
ATOM     40  O   UNL     1      -4.371   8.410  -8.104  1.00  0.00    -0.250 OA
BRANCH  39  41
ATOM     41  O   UNL     1      -4.317   6.137  -8.335  1.00  0.00    -0.458 OA
BRANCH  41  42
ATOM     42  C   UNL     1      -3.771   6.293  -9.667  1.00  0.00     0.205 CG0
ATOM     43  C   UNL     1      -4.938   6.216 -10.648  1.00  0.00     0.056 C 
ATOM     44  G   UNL     1      -2.727   5.183  -9.904  1.00  0.00     0.000 G0
ENDBRANCH  41  42
ENDBRANCH  39  41
ENDBRANCH  35  39
ENDBRANCH  33  35
ENDBRANCH  23  31
ENDBRANCH  21  23
ENDBRANCH  19  21
ENDBRANCH  14  19
ENDBRANCH   7  14
ENDBRANCH   2   5
BRANCH   3  45
ATOM     45  C   UNL     1     -12.738  13.098   3.200  1.00  0.00     0.171 C 
BRANCH  45  46
ATOM     46  N   UNL     1     -12.354  14.111   4.174  1.00  0.00    -0.342 N 
ATOM     47  C   UNL     1     -12.998  15.318   4.275  1.00  0.00     0.247 C 
ATOM     48  O   UNL     1     -13.989  15.605   3.602  1.00  0.00    -0.273 OA
ATOM     49  H   UNL     1     -11.572  13.892   4.790  1.00  0.00     0.164 HD
BRANCH  47  50
ATOM     50  C   UNL     1     -12.376  16.307   5.271  1.00  0.00     0.212 CG0
ATOM     51  G   UNL     1     -13.313  16.390   6.493  1.00  0.00     0.000 G0
BRANCH  50  52
ATOM     52  N   UNL     1     -11.059  15.761   5.590  1.00  0.00    -0.339 N 
ATOM     53  C   UNL     1     -10.636  15.510   6.873  1.00  0.00     0.243 C 
ATOM     54  O   UNL     1     -11.317  15.777   7.859  1.00  0.00    -0.273 OA
ATOM     55  H   UNL     1     -10.406  15.623   4.822  1.00  0.00     0.164 HD
BRANCH  53  56
ATOM     56  C   UNL     1      -9.177  15.018   6.967  1.00  0.00     0.182 C 
BRANCH  56  57
ATOM     57  N   UNL     1      -9.124  13.588   7.289  1.00  0.00    -0.344 N 
ATOM     58  C   UNL     1      -8.327  12.707   6.600  1.00  0.00     0.220 C 
ATOM     59  O   UNL     1      -7.662  13.038   5.624  1.00  0.00    -0.275 OA
ATOM     60  H   UNL     1      -9.578  13.293   8.150  1.00  0.00     0.164 HD
BRANCH  58  61
ATOM     61  C   UNL     1      -8.386  11.292   7.143  1.00  0.00     0.100 C 
BRANCH  61  62
ATOM     62  C   UNL     1      -9.444  11.091   8.229  1.00  0.00     0.010 C 
BRANCH  62  63
ATOM     63  C   UNL     1      -9.834   9.626   8.462  1.00  0.00     0.000 C 
BRANCH  63  64
ATOM     64  C   UNL     1      -9.082   8.630   7.581  1.00  0.00    -0.003 C 
ATOM     65  C   UNL     1      -8.957   7.273   8.260  1.00  0.00     0.004 C 
ENDBRANCH  63  64
ENDBRANCH  62  63
ENDBRANCH  61  62
ENDBRANCH  58  61
ENDBRANCH  56  57
BRANCH  56  66
ATOM     66  C   UNL     1      -8.363  15.861   7.947  1.00  0.00     0.157 C 
BRANCH  66  67
ATOM     67  C   UNL     1      -7.067  16.307   7.335  1.00  0.00     0.305 C 
ATOM     68  O   UNL     1      -6.196  16.976   7.869  1.00  0.00    -0.252 OA
BRANCH  67  69
ATOM     69  O   UNL     1      -6.905  15.839   6.082  1.00  0.00    -0.481 OA
ATOM     70  H   UNL     1      -5.982  15.508   6.056  1.00  0.00     0.296 HD
ENDBRANCH  67  69
ENDBRANCH  66  67
ENDBRANCH  56  66
ENDBRANCH  53  56
ENDBRANCH  50  52
ENDBRANCH  47  50
ENDBRANCH  45  46
BRANCH  45  71
ATOM     71  C   UNL     1     -12.965  11.735   3.862  1.00  0.00     0.037 C 
BRANCH  71  72
ATOM     72  C   UNL     1     -12.119  11.560   5.126  1.00  0.00     0.026 C 
BRANCH  72  73
ATOM     73  C   UNL     1     -11.471  10.178   5.180  1.00  0.00     0.146 C 
BRANCH  73  74
ATOM     74  N   UNL     1     -11.304   9.709   3.808  1.00  0.00    -0.254 NA
ATOM     75  C   UNL     1     -11.177   8.448   3.617  1.00  0.00     0.185 C 
ATOM     76  N   UNL     1     -11.023   7.986   2.366  1.00  0.00    -0.370 N 
ATOM     77  N   UNL     1     -11.176   7.452   4.521  1.00  0.00    -0.370 N 
ATOM     78  H   UNL     1     -11.005   8.671   1.624  1.00  0.00     0.159 HD
ATOM     79  H   UNL     1     -10.775   7.035   2.153  1.00  0.00     0.159 HD
ATOM     80  H   UNL     1     -11.287   7.651   5.504  1.00  0.00     0.159 HD
ATOM     81  H   UNL     1     -11.185   6.485   4.242  1.00  0.00     0.159 HD
ENDBRANCH  73  74
ENDBRANCH  72  73
ENDBRANCH  71  72
ENDBRANCH  45  71
ENDBRANCH   3  45
TORSDOF 20
ENDMDL
MODEL 2
REMARK VINA RESULT:    -5.862      1.423      2.073
REMARK INTER + INTRA:         -22.771
REMARK INTER:                 -16.932
REMARK INTRA:                  -5.839
REMARK UNBOUND:                -5.944
REMARK SMILES CCCCCC(=O)N[C@H](CC(=O)O)C(=O)N[C@H]1C(=O)N[C@H](CCCN=C(N)N)C(=O)N[C@@H]2CC[C@H](O)N(C2=O)[C@@H](CC(C)C)C(=O)N(C)[C@@H](Cc2ccccc2)C(=O)N[C@H](C(C)C)C(=O)O[C@@H]1C
REMARK SMILES IDX 30 1 31 2 29 3 32 5 35 6 37 7 34 8 38 9 33 10 39 11 36 12
REMARK SMILES IDX 40 14 41 15 42 16 43 17 44 18 45 19 46 20 47 21 48 22 49 23
REMARK SMILES IDX 50 24 51 25 52 26 56 27 53 28 55 29 54 30 57 31 58 32 59 33
REMARK SMILES IDX 60 35 61 36 62 37 63 38 64 39 65 40 66 41 67 42 68 43 21 45
REMARK SMILES IDX 20 46 18 47 19 48 17 50 16 52 14 53 15 54 9 56 8 57 6 58
REMARK SMILES IDX 7 59 5 61 4 62 3 63 2 64 1 65 10 66 11 67 12 68 13 69 22 71
REMARK SMILES IDX 23 72 24 73 25 74 26 75 27 76 28 77
REMARK H PARENT 31 4 36 13 59 34 20 49 16 55 8 60 13 70 27 78 27 79 28 80
REMARK H PARENT 28 81
REMARK Flexibility Score:  259.900
ROOT
ATOM      1  O   UNL     1     -10.516  13.111   2.224  1.00  0.00    -0.273 OA
ATOM      2  N   UNL     1     -12.017  12.201   0.757  1.00  0.00    -0.343 N 
ATOM      3  C   UNL     1     -11.638  12.654   2.003  1.00  0.00     0.243 C 
ATOM      4  H   UNL     1     -12.953  11.846   0.609  1.00  0.00     0.164 HD
ENDROOT
BRANCH   2   5
ATOM      5  C   UNL     1     -11.051  12.134  -0.334  1.00  0.00     0.171 C 
ATOM      6  C   UNL     1     -11.311  11.500  -3.151  1.00  0.00     0.214 C 
ATOM      7  N   UNL     1     -11.019  10.444  -2.209  1.00  0.00    -0.303 N 
ATOM      8  C   UNL     1     -10.763  12.853  -2.726  1.00  0.00     0.057 C 
ATOM      9  C   UNL     1     -10.933  10.670  -0.844  1.00  0.00     0.247 C 
ATOM     10  C   UNL     1     -11.316  13.227  -1.368  1.00  0.00     0.040 C 
ATOM     11  O   UNL     1     -10.769   9.746  -0.036  1.00  0.00    -0.272 OA
BRANCH   6  12
ATOM     12  O   UNL     1     -12.709  11.562  -3.308  1.00  0.00    -0.373 OA
ATOM     13  H   UNL     1     -12.989  12.463  -3.038  1.00  0.00     0.213 HD
ENDBRANCH   6  12
BRANCH   7  14
ATOM     14  C   UNL     1     -10.960   9.067  -2.743  1.00  0.00     0.177 C 
BRANCH  14  15
ATOM     15  C   UNL     1     -12.305   8.316  -2.771  1.00  0.00     0.038 C 
BRANCH  15  16
ATOM     16  C   UNL     1     -12.497   7.065  -1.885  1.00  0.00    -0.015 C 
ATOM     17  C   UNL     1     -13.373   7.345  -0.660  1.00  0.00     0.007 C 
ATOM     18  C   UNL     1     -11.133   6.562  -1.396  1.00  0.00     0.007 C 
ENDBRANCH  15  16
ENDBRANCH  14  15
BRANCH  14  19
ATOM     19  C   UNL     1      -9.834   8.953  -3.827  1.00  0.00     0.245 C 
ATOM     20  O   UNL     1     -10.201   8.727  -4.993  1.00  0.00    -0.272 OA
BRANCH  19  21
ATOM     21  N   UNL     1      -8.481   8.977  -3.540  1.00  0.00    -0.332 N 
ATOM     22  C   UNL     1      -7.893   8.755  -2.231  1.00  0.00     0.147 C 
BRANCH  21  23
ATOM     23  C   UNL     1      -7.538   9.264  -4.656  1.00  0.00     0.178 C 
BRANCH  23  24
ATOM     24  C   UNL     1      -6.506  10.372  -4.360  1.00  0.00     0.070 C 
BRANCH  24  25
ATOM     25  C   UNL     1      -6.792  11.746  -4.920  1.00  0.00    -0.045 A 
ATOM     26  C   UNL     1      -6.385  12.092  -6.215  1.00  0.00     0.004 A 
ATOM     27  C   UNL     1      -7.467  12.700  -4.144  1.00  0.00     0.004 A 
ATOM     28  C   UNL     1      -6.638  13.369  -6.719  1.00  0.00     0.000 A 
ATOM     29  C   UNL     1      -7.720  13.976  -4.650  1.00  0.00     0.000 A 
ATOM     30  C   UNL     1      -7.302  14.311  -5.937  1.00  0.00     0.000 A 
ENDBRANCH  24  25
ENDBRANCH  23  24
BRANCH  23  31
ATOM     31  C   UNL     1      -6.953   7.983  -5.297  1.00  0.00     0.243 C 
ATOM     32  O   UNL     1      -7.440   6.864  -5.163  1.00  0.00    -0.273 OA
ATOM     33  N   UNL     1      -5.716   8.176  -5.888  1.00  0.00    -0.341 N 
ATOM     34  H   UNL     1      -5.358   9.132  -5.965  1.00  0.00     0.164 HD
BRANCH  33  35
ATOM     35  C   UNL     1      -4.921   7.082  -6.453  1.00  0.00     0.194 C 
BRANCH  35  36
ATOM     36  C   UNL     1      -3.669   6.706  -5.610  1.00  0.00     0.017 C 
ATOM     37  C   UNL     1      -4.020   6.566  -4.119  1.00  0.00     0.010 C 
ATOM     38  C   UNL     1      -2.536   7.734  -5.720  1.00  0.00     0.010 C 
ENDBRANCH  35  36
BRANCH  35  39
ATOM     39  C   UNL     1      -4.566   7.311  -7.949  1.00  0.00     0.329 C 
ATOM     40  O   UNL     1      -4.526   8.413  -8.484  1.00  0.00    -0.250 OA
BRANCH  39  41
ATOM     41  O   UNL     1      -4.217   6.151  -8.583  1.00  0.00    -0.458 OA
BRANCH  41  42
ATOM     42  C   UNL     1      -4.047   6.232 -10.019  1.00  0.00     0.205 CG0
ATOM     43  C   UNL     1      -5.282   5.599 -10.658  1.00  0.00     0.056 C 
ATOM     44  G   UNL     1      -2.745   5.501 -10.402  1.00  0.00     0.000 G0
ENDBRANCH  41  42
ENDBRANCH  39  41
ENDBRANCH  35  39
ENDBRANCH  33  35
ENDBRANCH  23  31
ENDBRANCH  21  23
ENDBRANCH  19  21
ENDBRANCH  14  19
ENDBRANCH   7  14
ENDBRANCH   2   5
BRANCH   3  45
ATOM     45  C   UNL     1     -12.719  12.570   3.089  1.00  0.00     0.171 C 
BRANCH  45  46
ATOM     46  N   UNL     1     -12.507  13.729   3.946  1.00  0.00    -0.342 N 
ATOM     47  C   UNL     1     -13.237  14.884   3.816  1.00  0.00     0.247 C 
ATOM     48  O   UNL     1     -14.170  14.999   3.020  1.00  0.00    -0.273 OA
ATOM     49  H   UNL     1     -11.782  13.657   4.657  1.00  0.00     0.164 HD
BRANCH  47  50
ATOM     50  C   UNL     1     -12.791  16.041   4.721  1.00  0.00     0.212 CG0
ATOM     51  G   UNL     1     -14.039  16.880   5.057  1.00  0.00     0.000 G0
BRANCH  50  52
ATOM     52  N   UNL     1     -12.187  15.410   5.891  1.00  0.00    -0.339 N 
ATOM     53  C   UNL     1     -10.956  15.761   6.389  1.00  0.00     0.243 C 
ATOM     54  O   UNL     1     -10.241  16.602   5.852  1.00  0.00    -0.273 OA
ATOM     55  H   UNL     1     -12.683  14.628   6.315  1.00  0.00     0.164 HD
BRANCH  53  56
ATOM     56  C   UNL     1     -10.490  14.897   7.578  1.00  0.00     0.182 C 
BRANCH  56  57
ATOM     57  N   UNL     1      -9.245  14.191   7.260  1.00  0.00    -0.344 N 
ATOM     58  C   UNL     1      -9.123  13.372   6.164  1.00  0.00     0.220 C 
ATOM     59  O   UNL     1     -10.063  13.117   5.419  1.00  0.00    -0.275 OA
ATOM     60  H   UNL     1      -8.418  14.453   7.790  1.00  0.00     0.164 HD
BRANCH  58  61
ATOM     61  C   UNL     1      -7.730  12.793   5.998  1.00  0.00     0.100 C 
BRANCH  61  62
ATOM     62  C   UNL     1      -7.712  11.277   5.802  1.00  0.00     0.010 C 
BRANCH  62  63
ATOM     63  C   UNL     1      -8.300  10.485   6.977  1.00  0.00     0.000 C 
BRANCH  63  64
ATOM     64  C   UNL     1      -9.643   9.823   6.677  1.00  0.00    -0.003 C 
ATOM     65  C   UNL     1      -9.696   9.296   5.251  1.00  0.00     0.004 C 
ENDBRANCH  63  64
ENDBRANCH  62  63
ENDBRANCH  61  62
ENDBRANCH  58  61
ENDBRANCH  56  57
BRANCH  56  66
ATOM     66  C   UNL     1     -11.590  13.945   8.044  1.00  0.00     0.157 C 
BRANCH  66  67
ATOM     67  C   UNL     1     -11.151  13.148   9.238  1.00  0.00     0.305 C 
ATOM     68  O   UNL     1     -10.362  12.215   9.246  1.00  0.00    -0.252 OA
BRANCH  67  69
ATOM     69  O   UNL     1     -11.691  13.603  10.384  1.00  0.00    -0.481 OA
ATOM     70  H   UNL     1     -10.962  13.564  11.038  1.00  0.00     0.296 HD
ENDBRANCH  67  69
ENDBRANCH  66  67
ENDBRANCH  56  66
ENDBRANCH  53  56
ENDBRANCH  50  52
ENDBRANCH  47  50
ENDBRANCH  45  46
BRANCH  45  71
ATOM     71  C   UNL     1     -12.589  11.258   3.871  1.00  0.00     0.037 C 
BRANCH  71  72
ATOM     72  C   UNL     1     -13.948  10.603   4.126  1.00  0.00     0.026 C 
BRANCH  72  73
ATOM     73  C   UNL     1     -13.802   9.117   4.450  1.00  0.00     0.146 C 
BRANCH  73  74
ATOM     74  N   UNL     1     -13.556   8.995   5.884  1.00  0.00    -0.254 NA
ATOM     75  C   UNL     1     -12.994   7.923   6.306  1.00  0.00     0.185 C 
ATOM     76  N   UNL     1     -12.753   7.782   7.619  1.00  0.00    -0.370 N 
ATOM     77  N   UNL     1     -12.580   6.854   5.604  1.00  0.00    -0.370 N 
ATOM     78  H   UNL     1     -13.041   8.540   8.221  1.00  0.00     0.159 HD
ATOM     79  H   UNL     1     -12.452   6.919   8.037  1.00  0.00     0.159 HD
ATOM     80  H   UNL     1     -12.693   6.822   4.602  1.00  0.00     0.159 HD
ATOM     81  H   UNL     1     -12.044   6.116   6.032  1.00  0.00     0.159 HD
ENDBRANCH  73  74
ENDBRANCH  72  73
ENDBRANCH  71  72
ENDBRANCH  45  71
ENDBRANCH   3  45
TORSDOF 20
ENDMDL
MODEL 3
REMARK VINA RESULT:    -5.742      2.223      3.832
REMARK INTER + INTRA:         -22.427
REMARK INTER:                 -14.740
REMARK INTRA:                  -7.687
REMARK UNBOUND:                -5.944
REMARK SMILES CCCCCC(=O)N[C@H](CC(=O)O)C(=O)N[C@H]1C(=O)N[C@H](CCCN=C(N)N)C(=O)N[C@@H]2CC[C@H](O)N(C2=O)[C@@H](CC(C)C)C(=O)N(C)[C@@H](Cc2ccccc2)C(=O)N[C@H](C(C)C)C(=O)O[C@@H]1C
REMARK SMILES IDX 30 1 31 2 29 3 32 5 35 6 37 7 34 8 38 9 33 10 39 11 36 12
REMARK SMILES IDX 40 14 41 15 42 16 43 17 44 18 45 19 46 20 47 21 48 22 49 23
REMARK SMILES IDX 50 24 51 25 52 26 56 27 53 28 55 29 54 30 57 31 58 32 59 33
REMARK SMILES IDX 60 35 61 36 62 37 63 38 64 39 65 40 66 41 67 42 68 43 21 45
REMARK SMILES IDX 20 46 18 47 19 48 17 50 16 52 14 53 15 54 9 56 8 57 6 58
REMARK SMILES IDX 7 59 5 61 4 62 3 63 2 64 1 65 10 66 11 67 12 68 13 69 22 71
REMARK SMILES IDX 23 72 24 73 25 74 26 75 27 76 28 77
REMARK H PARENT 31 4 36 13 59 34 20 49 16 55 8 60 13 70 27 78 27 79 28 80
REMARK H PARENT 28 81
REMARK Flexibility Score:  259.900
ROOT
ATOM      1  O   UNL     1     -10.476  13.222   2.897  1.00  0.00    -0.273 OA
ATOM      2  N   UNL     1     -11.566  12.702   0.954  1.00  0.00    -0.343 N 
ATOM      3  C   UNL     1     -11.501  12.850   2.323  1.00  0.00     0.243 C 
ATOM      4  H   UNL     1     -12.429  12.409   0.515  1.00  0.00     0.164 HD
ENDROOT
BRANCH   2   5
ATOM      5  C   UNL     1     -10.372  12.868   0.132  1.00  0.00     0.171 C 
ATOM      6  C   UNL     1      -9.845  12.408  -2.682  1.00  0.00     0.214 C 
ATOM      7  N   UNL     1      -9.610  11.345  -1.732  1.00  0.00    -0.303 N 
ATOM      8  C   UNL     1      -9.653  13.796  -2.092  1.00  0.00     0.057 C 
ATOM      9  C   UNL     1      -9.888  11.482  -0.382  1.00  0.00     0.247 C 
ATOM     10  C   UNL     1     -10.567  13.978  -0.900  1.00  0.00     0.040 C 
ATOM     11  O   UNL     1      -9.766  10.539   0.412  1.00  0.00    -0.272 OA
BRANCH   6  12
ATOM     12  O   UNL     1     -11.156  12.260  -3.176  1.00  0.00    -0.373 OA
ATOM     13  H   UNL     1     -11.082  12.071  -4.136  1.00  0.00     0.213 HD
ENDBRANCH   6  12
BRANCH   7  14
ATOM     14  C   UNL     1      -9.192  10.037  -2.279  1.00  0.00     0.177 C 
BRANCH  14  15
ATOM     15  C   UNL     1     -10.284   9.268  -3.046  1.00  0.00     0.038 C 
BRANCH  15  16
ATOM     16  C   UNL     1     -11.171   8.251  -2.293  1.00  0.00    -0.015 C 
ATOM     17  C   UNL     1     -12.393   8.908  -1.647  1.00  0.00     0.007 C 
ATOM     18  C   UNL     1     -10.353   7.567  -1.190  1.00  0.00     0.007 C 
ENDBRANCH  15  16
ENDBRANCH  14  15
BRANCH  14  19
ATOM     19  C   UNL     1      -7.670  10.066  -2.653  1.00  0.00     0.245 C 
ATOM     20  O   UNL     1      -6.866  10.198  -1.715  1.00  0.00    -0.272 OA
BRANCH  19  21
ATOM     21  N   UNL     1      -7.195  10.065  -3.953  1.00  0.00    -0.332 N 
ATOM     22  C   UNL     1      -7.287  11.175  -4.884  1.00  0.00     0.147 C 
BRANCH  21  23
ATOM     23  C   UNL     1      -6.542   8.824  -4.454  1.00  0.00     0.178 C 
BRANCH  23  24
ATOM     24  C   UNL     1      -7.513   7.770  -5.025  1.00  0.00     0.070 C 
BRANCH  24  25
ATOM     25  C   UNL     1      -7.905   6.630  -4.113  1.00  0.00    -0.045 A 
ATOM     26  C   UNL     1      -9.027   5.839  -4.395  1.00  0.00     0.004 A 
ATOM     27  C   UNL     1      -7.150   6.352  -2.964  1.00  0.00     0.004 A 
ATOM     28  C   UNL     1      -9.392   4.799  -3.538  1.00  0.00     0.000 A 
ATOM     29  C   UNL     1      -7.517   5.311  -2.109  1.00  0.00     0.000 A 
ATOM     30  C   UNL     1      -8.640   4.537  -2.395  1.00  0.00     0.000 A 
ENDBRANCH  24  25
ENDBRANCH  23  24
BRANCH  23  31
ATOM     31  C   UNL     1      -5.299   9.108  -5.331  1.00  0.00     0.243 C 
ATOM     32  O   UNL     1      -4.191   9.389  -4.882  1.00  0.00    -0.273 OA
ATOM     33  N   UNL     1      -5.586   9.200  -6.683  1.00  0.00    -0.341 N 
ATOM     34  H   UNL     1      -6.529   8.959  -6.997  1.00  0.00     0.164 HD
BRANCH  33  35
ATOM     35  C   UNL     1      -4.587   9.578  -7.687  1.00  0.00     0.194 C 
BRANCH  35  36
ATOM     36  C   UNL     1      -5.097  10.607  -8.734  1.00  0.00     0.017 C 
ATOM     37  C   UNL     1      -3.941  11.155  -9.589  1.00  0.00     0.010 C 
ATOM     38  C   UNL     1      -5.810  11.809  -8.102  1.00  0.00     0.010 C 
ENDBRANCH  35  36
BRANCH  35  39
ATOM     39  C   UNL     1      -3.922   8.345  -8.361  1.00  0.00     0.329 C 
ATOM     40  O   UNL     1      -4.497   7.598  -9.143  1.00  0.00    -0.250 OA
BRANCH  39  41
ATOM     41  O   UNL     1      -2.594   8.237  -8.052  1.00  0.00    -0.458 OA
BRANCH  41  42
ATOM     42  C   UNL     1      -1.693   8.012  -9.163  1.00  0.00     0.205 CG0
ATOM     43  C   UNL     1      -1.042   6.647  -8.950  1.00  0.00     0.056 C 
ATOM     44  G   UNL     1      -0.662   9.157  -9.201  1.00  0.00     0.000 G0
ENDBRANCH  41  42
ENDBRANCH  39  41
ENDBRANCH  35  39
ENDBRANCH  33  35
ENDBRANCH  23  31
ENDBRANCH  21  23
ENDBRANCH  19  21
ENDBRANCH  14  19
ENDBRANCH   7  14
ENDBRANCH   2   5
BRANCH   3  45
ATOM     45  C   UNL     1     -12.799  12.541   3.079  1.00  0.00     0.171 C 
BRANCH  45  46
ATOM     46  N   UNL     1     -12.797  13.420   4.241  1.00  0.00    -0.342 N 
ATOM     47  C   UNL     1     -13.365  14.669   4.222  1.00  0.00     0.247 C 
ATOM     48  O   UNL     1     -13.979  15.108   3.249  1.00  0.00    -0.273 OA
ATOM     49  H   UNL     1     -12.347  13.072   5.087  1.00  0.00     0.164 HD
BRANCH  47  50
ATOM     50  C   UNL     1     -13.156  15.498   5.497  1.00  0.00     0.212 CG0
ATOM     51  G   UNL     1     -14.424  15.355   6.361  1.00  0.00     0.000 G0
BRANCH  50  52
ATOM     52  N   UNL     1     -11.961  14.946   6.129  1.00  0.00    -0.339 N 
ATOM     53  C   UNL     1     -10.733  15.561   6.093  1.00  0.00     0.243 C 
ATOM     54  O   UNL     1     -10.533  16.603   5.475  1.00  0.00    -0.273 OA
ATOM     55  H   UNL     1     -12.037  14.028   6.563  1.00  0.00     0.164 HD
BRANCH  53  56
ATOM     56  C   UNL     1      -9.604  14.747   6.756  1.00  0.00     0.182 C 
BRANCH  56  57
ATOM     57  N   UNL     1      -8.870  13.957   5.761  1.00  0.00    -0.344 N 
ATOM     58  C   UNL     1      -7.680  14.377   5.220  1.00  0.00     0.220 C 
ATOM     59  O   UNL     1      -7.185  15.470   5.473  1.00  0.00    -0.275 OA
ATOM     60  H   UNL     1      -9.191  13.005   5.602  1.00  0.00     0.164 HD
BRANCH  58  61
ATOM     61  C   UNL     1      -7.070  13.375   4.257  1.00  0.00     0.100 C 
BRANCH  61  62
ATOM     62  C   UNL     1      -7.296  11.917   4.660  1.00  0.00     0.010 C 
BRANCH  62  63
ATOM     63  C   UNL     1      -6.445  11.456   5.850  1.00  0.00     0.000 C 
BRANCH  63  64
ATOM     64  C   UNL     1      -5.135  10.773   5.457  1.00  0.00    -0.003 C 
ATOM     65  C   UNL     1      -3.955  11.353   6.224  1.00  0.00     0.004 C 
ENDBRANCH  63  64
ENDBRANCH  62  63
ENDBRANCH  61  62
ENDBRANCH  58  61
ENDBRANCH  56  57
BRANCH  56  66
ATOM     66  C   UNL     1     -10.132  13.885   7.901  1.00  0.00     0.157 C 
BRANCH  66  67
ATOM     67  C   UNL     1     -10.103  12.427   7.543  1.00  0.00     0.305 C 
ATOM     68  O   UNL     1      -9.343  11.579   7.986  1.00  0.00    -0.252 OA
BRANCH  67  69
ATOM     69  O   UNL     1     -11.076  12.093   6.674  1.00  0.00    -0.481 OA
ATOM     70  H   UNL     1     -11.892  12.487   7.049  1.00  0.00     0.296 HD
ENDBRANCH  67  69
ENDBRANCH  66  67
ENDBRANCH  56  66
ENDBRANCH  53  56
ENDBRANCH  50  52
ENDBRANCH  47  50
ENDBRANCH  45  46
BRANCH  45  71
ATOM     71  C   UNL     1     -12.841  11.064   3.487  1.00  0.00     0.037 C 
BRANCH  71  72
ATOM     72  C   UNL     1     -13.894  10.794   4.565  1.00  0.00     0.026 C 
BRANCH  72  73
ATOM     73  C   UNL     1     -13.672   9.441   5.238  1.00  0.00     0.146 C 
BRANCH  73  74
ATOM     74  N   UNL     1     -12.649   9.615   6.265  1.00  0.00    -0.254 NA
ATOM     75  C   UNL     1     -11.700   8.755   6.316  1.00  0.00     0.185 C 
ATOM     76  N   UNL     1     -10.743   8.889   7.249  1.00  0.00    -0.370 N 
ATOM     77  N   UNL     1     -11.493   7.677   5.540  1.00  0.00    -0.370 N 
ATOM     78  H   UNL     1     -10.827   9.672   7.881  1.00  0.00     0.159 HD
ATOM     79  H   UNL     1     -10.056   8.183   7.443  1.00  0.00     0.159 HD
ATOM     80  H   UNL     1     -12.131   7.453   4.792  1.00  0.00     0.159 HD
ATOM     81  H   UNL     1     -10.646   7.137   5.601  1.00  0.00     0.159 HD
ENDBRANCH  73  74
ENDBRANCH  72  73
ENDBRANCH  71  72
ENDBRANCH  45  71
ENDBRANCH   3  45
TORSDOF 20
ENDMDL
MODEL 4
REMARK VINA RESULT:    -5.541     11.391     14.914
REMARK INTER + INTRA:         -21.851
REMARK INTER:                 -14.479
REMARK INTRA:                  -7.372
REMARK UNBOUND:                -5.944
REMARK SMILES CCCCCC(=O)N[C@H](CC(=O)O)C(=O)N[C@H]1C(=O)N[C@H](CCCN=C(N)N)C(=O)N[C@@H]2CC[C@H](O)N(C2=O)[C@@H](CC(C)C)C(=O)N(C)[C@@H](Cc2ccccc2)C(=O)N[C@H](C(C)C)C(=O)O[C@@H]1C
REMARK SMILES IDX 30 1 31 2 29 3 32 5 35 6 37 7 34 8 38 9 33 10 39 11 36 12
REMARK SMILES IDX 40 14 41 15 42 16 43 17 44 18 45 19 46 20 47 21 48 22 49 23
REMARK SMILES IDX 50 24 51 25 52 26 56 27 53 28 55 29 54 30 57 31 58 32 59 33
REMARK SMILES IDX 60 35 61 36 62 37 63 38 64 39 65 40 66 41 67 42 68 43 21 45
REMARK SMILES IDX 20 46 18 47 19 48 17 50 16 52 14 53 15 54 9 56 8 57 6 58
REMARK SMILES IDX 7 59 5 61 4 62 3 63 2 64 1 65 10 66 11 67 12 68 13 69 22 71
REMARK SMILES IDX 23 72 24 73 25 74 26 75 27 76 28 77
REMARK H PARENT 31 4 36 13 59 34 20 49 16 55 8 60 13 70 27 78 27 79 28 80
REMARK H PARENT 28 81
REMARK Flexibility Score:  259.900
ROOT
ATOM      1  O   UNL     1       0.569   5.859   6.343  1.00  0.00    -0.273 OA
ATOM      2  N   UNL     1      -1.650   5.322   6.213  1.00  0.00    -0.343 N 
ATOM      3  C   UNL     1      -0.578   5.981   6.775  1.00  0.00     0.243 C 
ATOM      4  H   UNL     1      -2.582   5.458   6.586  1.00  0.00     0.164 HD
ENDROOT
BRANCH   2   5
ATOM      5  C   UNL     1      -1.448   4.350   5.144  1.00  0.00     0.171 C 
ATOM      6  C   UNL     1      -3.202   3.293   3.092  1.00  0.00     0.214 C 
ATOM      7  N   UNL     1      -3.104   2.613   4.362  1.00  0.00    -0.303 N 
ATOM      8  C   UNL     1      -1.924   4.018   2.698  1.00  0.00     0.057 C 
ATOM      9  C   UNL     1      -2.325   3.091   5.403  1.00  0.00     0.247 C 
ATOM     10  C   UNL     1      -1.548   5.014   3.772  1.00  0.00     0.040 C 
ATOM     11  O   UNL     1      -2.314   2.551   6.517  1.00  0.00    -0.272 OA
BRANCH   6  12
ATOM     12  O   UNL     1      -4.277   4.199   3.171  1.00  0.00    -0.373 OA
ATOM     13  H   UNL     1      -4.701   4.219   2.286  1.00  0.00     0.213 HD
ENDBRANCH   6  12
BRANCH   7  14
ATOM     14  C   UNL     1      -3.991   1.448   4.569  1.00  0.00     0.177 C 
BRANCH  14  15
ATOM     15  C   UNL     1      -5.483   1.785   4.758  1.00  0.00     0.038 C 
BRANCH  15  16
ATOM     16  C   UNL     1      -6.052   1.948   6.185  1.00  0.00    -0.015 C 
ATOM     17  C   UNL     1      -5.915   3.380   6.709  1.00  0.00     0.007 C 
ATOM     18  C   UNL     1      -5.312   1.011   7.148  1.00  0.00     0.007 C 
ENDBRANCH  15  16
ENDBRANCH  14  15
BRANCH  14  19
ATOM     19  C   UNL     1      -3.433   0.198   3.806  1.00  0.00     0.245 C 
ATOM     20  O   UNL     1      -2.198   0.116   3.694  1.00  0.00    -0.272 OA
BRANCH  19  21
ATOM     21  N   UNL     1      -4.231  -0.736   3.169  1.00  0.00    -0.332 N 
ATOM     22  C   UNL     1      -5.104  -0.468   2.040  1.00  0.00     0.147 C 
BRANCH  21  23
ATOM     23  C   UNL     1      -4.210  -2.134   3.680  1.00  0.00     0.178 C 
BRANCH  23  24
ATOM     24  C   UNL     1      -5.583  -2.681   4.122  1.00  0.00     0.070 C 
BRANCH  24  25
ATOM     25  C   UNL     1      -5.675  -3.270   5.510  1.00  0.00    -0.045 A 
ATOM     26  C   UNL     1      -5.994  -2.465   6.611  1.00  0.00     0.004 A 
ATOM     27  C   UNL     1      -5.436  -4.637   5.717  1.00  0.00     0.004 A 
ATOM     28  C   UNL     1      -6.060  -3.013   7.894  1.00  0.00     0.000 A 
ATOM     29  C   UNL     1      -5.504  -5.184   6.999  1.00  0.00     0.000 A 
ATOM     30  C   UNL     1      -5.813  -4.370   8.087  1.00  0.00     0.000 A 
ENDBRANCH  24  25
ENDBRANCH  23  24
BRANCH  23  31
ATOM     31  C   UNL     1      -3.384  -3.091   2.788  1.00  0.00     0.243 C 
ATOM     32  O   UNL     1      -2.359  -2.764   2.195  1.00  0.00    -0.273 OA
ATOM     33  N   UNL     1      -4.003  -4.309   2.562  1.00  0.00    -0.341 N 
ATOM     34  H   UNL     1      -4.858  -4.522   3.081  1.00  0.00     0.164 HD
BRANCH  33  35
ATOM     35  C   UNL     1      -3.462  -5.324   1.654  1.00  0.00     0.194 C 
BRANCH  35  36
ATOM     36  C   UNL     1      -4.543  -6.085   0.835  1.00  0.00     0.017 C 
ATOM     37  C   UNL     1      -5.556  -5.112   0.207  1.00  0.00     0.010 C 
ATOM     38  C   UNL     1      -5.336  -7.095   1.674  1.00  0.00     0.010 C 
ENDBRANCH  35  36
BRANCH  35  39
ATOM     39  C   UNL     1      -2.478  -6.297   2.362  1.00  0.00     0.329 C 
ATOM     40  O   UNL     1      -2.503  -6.544   3.562  1.00  0.00    -0.250 OA
BRANCH  39  41
ATOM     41  O   UNL     1      -1.636  -6.917   1.482  1.00  0.00    -0.458 OA
BRANCH  41  42
ATOM     42  C   UNL     1      -1.144  -8.221   1.874  1.00  0.00     0.205 CG0
ATOM     43  C   UNL     1       0.291  -8.338   1.365  1.00  0.00     0.056 C 
ATOM     44  G   UNL     1      -2.072  -9.297   1.276  1.00  0.00     0.000 G0
ENDBRANCH  41  42
ENDBRANCH  39  41
ENDBRANCH  35  39
ENDBRANCH  33  35
ENDBRANCH  23  31
ENDBRANCH  21  23
ENDBRANCH  19  21
ENDBRANCH  14  19
ENDBRANCH   7  14
ENDBRANCH   2   5
BRANCH   3  45
ATOM     45  C   UNL     1      -0.915   6.892   7.962  1.00  0.00     0.171 C 
BRANCH  45  46
ATOM     46  N   UNL     1       0.228   7.783   8.112  1.00  0.00    -0.342 N 
ATOM     47  C   UNL     1       0.154   9.127   7.846  1.00  0.00     0.247 C 
ATOM     48  O   UNL     1      -0.896   9.690   7.534  1.00  0.00    -0.273 OA
ATOM     49  H   UNL     1       1.105   7.368   8.423  1.00  0.00     0.164 HD
BRANCH  47  50
ATOM     50  C   UNL     1       1.488   9.883   7.939  1.00  0.00     0.212 CG0
ATOM     51  G   UNL     1       1.527  10.594   9.306  1.00  0.00     0.000 G0
BRANCH  50  52
ATOM     52  N   UNL     1       2.524   8.865   7.788  1.00  0.00    -0.339 N 
ATOM     53  C   UNL     1       3.122   8.567   6.587  1.00  0.00     0.243 C 
ATOM     54  O   UNL     1       2.791   9.102   5.532  1.00  0.00    -0.273 OA
ATOM     55  H   UNL     1       2.763   8.308   8.606  1.00  0.00     0.164 HD
BRANCH  53  56
ATOM     56  C   UNL     1       4.124   7.398   6.658  1.00  0.00     0.182 C 
BRANCH  56  57
ATOM     57  N   UNL     1       3.656   6.254   5.868  1.00  0.00    -0.344 N 
ATOM     58  C   UNL     1       4.147   5.975   4.616  1.00  0.00     0.220 C 
ATOM     59  O   UNL     1       4.953   6.699   4.043  1.00  0.00    -0.275 OA
ATOM     60  H   UNL     1       3.067   5.576   6.344  1.00  0.00     0.164 HD
BRANCH  58  61
ATOM     61  C   UNL     1       3.562   4.713   4.009  1.00  0.00     0.100 C 
BRANCH  61  62
ATOM     62  C   UNL     1       2.540   4.977   2.904  1.00  0.00     0.010 C 
BRANCH  62  63
ATOM     63  C   UNL     1       1.864   3.712   2.359  1.00  0.00     0.000 C 
BRANCH  63  64
ATOM     64  C   UNL     1       2.162   2.446   3.162  1.00  0.00    -0.003 C 
ATOM     65  C   UNL     1       0.881   1.753   3.601  1.00  0.00     0.004 C 
ENDBRANCH  63  64
ENDBRANCH  62  63
ENDBRANCH  61  62
ENDBRANCH  58  61
ENDBRANCH  56  57
BRANCH  56  66
ATOM     66  C   UNL     1       4.433   7.012   8.104  1.00  0.00     0.157 C 
BRANCH  66  67
ATOM     67  C   UNL     1       3.831   5.681   8.452  1.00  0.00     0.305 C 
ATOM     68  O   UNL     1       4.433   4.656   8.736  1.00  0.00    -0.252 OA
BRANCH  67  69
ATOM     69  O   UNL     1       2.485   5.718   8.475  1.00  0.00    -0.481 OA
ATOM     70  H   UNL     1       2.247   6.492   7.922  1.00  0.00     0.296 HD
ENDBRANCH  67  69
ENDBRANCH  66  67
ENDBRANCH  56  66
ENDBRANCH  53  56
ENDBRANCH  50  52
ENDBRANCH  47  50
ENDBRANCH  45  46
BRANCH  45  71
ATOM     71  C   UNL     1      -1.151   6.058   9.226  1.00  0.00     0.037 C 
BRANCH  71  72
ATOM     72  C   UNL     1      -2.425   6.478   9.963  1.00  0.00     0.026 C 
BRANCH  72  73
ATOM     73  C   UNL     1      -3.674   5.914   9.290  1.00  0.00     0.146 C 
BRANCH  73  74
ATOM     74  N   UNL     1      -4.354   5.057  10.257  1.00  0.00    -0.254 NA
ATOM     75  C   UNL     1      -4.186   3.790  10.157  1.00  0.00     0.185 C 
ATOM     76  N   UNL     1      -4.798   2.976  11.032  1.00  0.00    -0.370 N 
ATOM     77  N   UNL     1      -3.452   3.103   9.265  1.00  0.00    -0.370 N 
ATOM     78  H   UNL     1      -5.378   3.413  11.735  1.00  0.00     0.159 HD
ATOM     79  H   UNL     1      -4.830   1.977  10.930  1.00  0.00     0.159 HD
ATOM     80  H   UNL     1      -2.932   3.586   8.547  1.00  0.00     0.159 HD
ATOM     81  H   UNL     1      -3.302   2.112   9.356  1.00  0.00     0.159 HD
ENDBRANCH  73  74
ENDBRANCH  72  73
ENDBRANCH  71  72
ENDBRANCH  45  71
ENDBRANCH   3  45
TORSDOF 20
ENDMDL
MODEL 5
REMARK VINA RESULT:    -5.440      7.757     11.200
REMARK INTER + INTRA:         -21.561
REMARK INTER:                 -15.587
REMARK INTRA:                  -5.974
REMARK UNBOUND:                -5.944
REMARK SMILES CCCCCC(=O)N[C@H](CC(=O)O)C(=O)N[C@H]1C(=O)N[C@H](CCCN=C(N)N)C(=O)N[C@@H]2CC[C@H](O)N(C2=O)[C@@H](CC(C)C)C(=O)N(C)[C@@H](Cc2ccccc2)C(=O)N[C@H](C(C)C)C(=O)O[C@@H]1C
REMARK SMILES IDX 30 1 31 2 29 3 32 5 35 6 37 7 34 8 38 9 33 10 39 11 36 12
REMARK SMILES IDX 40 14 41 15 42 16 43 17 44 18 45 19 46 20 47 21 48 22 49 23
REMARK SMILES IDX 50 24 51 25 52 26 56 27 53 28 55 29 54 30 57 31 58 32 59 33
REMARK SMILES IDX 60 35 61 36 62 37 63 38 64 39 65 40 66 41 67 42 68 43 21 45
REMARK SMILES IDX 20 46 18 47 19 48 17 50 16 52 14 53 15 54 9 56 8 57 6 58
REMARK SMILES IDX 7 59 5 61 4 62 3 63 2 64 1 65 10 66 11 67 12 68 13 69 22 71
REMARK SMILES IDX 23 72 24 73 25 74 26 75 27 76 28 77
REMARK H PARENT 31 4 36 13 59 34 20 49 16 55 8 60 13 70 27 78 27 79 28 80
REMARK H PARENT 28 81
REMARK Flexibility Score:  259.900
ROOT
ATOM      1  O   UNL     1      -2.311  10.423   7.259  1.00  0.00    -0.273 OA
ATOM      2  N   UNL     1      -1.710   8.510   6.160  1.00  0.00    -0.343 N 
ATOM      3  C   UNL     1      -1.782   9.312   7.279  1.00  0.00     0.243 C 
ATOM      4  H   UNL     1      -1.280   7.595   6.217  1.00  0.00     0.164 HD
ENDROOT
BRANCH   2   5
ATOM      5  C   UNL     1      -2.159   9.004   4.863  1.00  0.00     0.171 C 
ATOM      6  C   UNL     1      -3.464  11.458   4.040  1.00  0.00     0.214 C 
ATOM      7  N   UNL     1      -4.267  10.314   4.404  1.00  0.00    -0.303 N 
ATOM      8  C   UNL     1      -2.115  11.082   3.448  1.00  0.00     0.057 C 
ATOM      9  C   UNL     1      -3.710   9.128   4.854  1.00  0.00     0.247 C 
ATOM     10  C   UNL     1      -1.347  10.223   4.429  1.00  0.00     0.040 C 
ATOM     11  O   UNL     1      -4.406   8.183   5.247  1.00  0.00    -0.272 OA
BRANCH   6  12
ATOM     12  O   UNL     1      -3.293  12.248   5.193  1.00  0.00    -0.373 OA
ATOM     13  H   UNL     1      -2.387  12.077   5.528  1.00  0.00     0.213 HD
ENDBRANCH   6  12
BRANCH   7  14
ATOM     14  C   UNL     1      -5.734  10.502   4.419  1.00  0.00     0.177 C 
BRANCH  14  15
ATOM     15  C   UNL     1      -6.256  11.506   5.465  1.00  0.00     0.038 C 
BRANCH  15  16
ATOM     16  C   UNL     1      -7.763  11.539   5.802  1.00  0.00    -0.015 C 
ATOM     17  C   UNL     1      -8.250  12.946   6.163  1.00  0.00     0.007 C 
ATOM     18  C   UNL     1      -8.049  10.612   6.990  1.00  0.00     0.007 C 
ENDBRANCH  15  16
ENDBRANCH  14  15
BRANCH  14  19
ATOM     19  C   UNL     1      -6.322  10.303   2.980  1.00  0.00     0.245 C 
ATOM     20  O   UNL     1      -6.245   9.161   2.497  1.00  0.00    -0.272 OA
BRANCH  19  21
ATOM     21  N   UNL     1      -6.807  11.334   2.196  1.00  0.00    -0.332 N 
ATOM     22  C   UNL     1      -6.004  12.379   1.586  1.00  0.00     0.147 C 
BRANCH  21  23
ATOM     23  C   UNL     1      -8.276  11.397   1.959  1.00  0.00     0.178 C 
BRANCH  23  24
ATOM     24  C   UNL     1      -8.961  12.676   2.482  1.00  0.00     0.070 C 
BRANCH  24  25
ATOM     25  C   UNL     1     -10.288  12.508   3.185  1.00  0.00    -0.045 A 
ATOM     26  C   UNL     1     -10.702  11.252   3.646  1.00  0.00     0.004 A 
ATOM     27  C   UNL     1     -11.129  13.613   3.382  1.00  0.00     0.004 A 
ATOM     28  C   UNL     1     -11.938  11.102   4.279  1.00  0.00     0.000 A 
ATOM     29  C   UNL     1     -12.363  13.462   4.016  1.00  0.00     0.000 A 
ATOM     30  C   UNL     1     -12.768  12.206   4.462  1.00  0.00     0.000 A 
ENDBRANCH  24  25
ENDBRANCH  23  24
BRANCH  23  31
ATOM     31  C   UNL     1      -8.674  10.987   0.521  1.00  0.00     0.243 C 
ATOM     32  O   UNL     1      -8.399   9.901   0.016  1.00  0.00    -0.273 OA
ATOM     33  N   UNL     1      -9.210  12.025  -0.222  1.00  0.00    -0.341 N 
ATOM     34  H   UNL     1      -9.411  12.908   0.253  1.00  0.00     0.164 HD
BRANCH  33  35
ATOM     35  C   UNL     1      -9.548  11.899  -1.642  1.00  0.00     0.194 C 
BRANCH  35  36
ATOM     36  C   UNL     1      -8.625  12.716  -2.589  1.00  0.00     0.017 C 
ATOM     37  C   UNL     1      -9.335  13.977  -3.111  1.00  0.00     0.010 C 
ATOM     38  C   UNL     1      -8.153  11.918  -3.810  1.00  0.00     0.010 C 
ENDBRANCH  35  36
BRANCH  35  39
ATOM     39  C   UNL     1     -11.053  12.167  -1.925  1.00  0.00     0.329 C 
ATOM     40  O   UNL     1     -11.767  12.874  -1.223  1.00  0.00    -0.250 OA
BRANCH  39  41
ATOM     41  O   UNL     1     -11.472  11.596  -3.094  1.00  0.00    -0.458 OA
BRANCH  41  42
ATOM     42  C   UNL     1     -12.059  10.277  -2.989  1.00  0.00     0.205 CG0
ATOM     43  C   UNL     1     -11.251   9.347  -3.891  1.00  0.00     0.056 C 
ATOM     44  G   UNL     1     -13.541  10.363  -3.406  1.00  0.00     0.000 G0
ENDBRANCH  41  42
ENDBRANCH  39  41
ENDBRANCH  35  39
ENDBRANCH  33  35
ENDBRANCH  23  31
ENDBRANCH  21  23
ENDBRANCH  19  21
ENDBRANCH  14  19
ENDBRANCH   7  14
ENDBRANCH   2   5
BRANCH   3  45
ATOM     45  C   UNL     1      -1.175   8.714   8.556  1.00  0.00     0.171 C 
BRANCH  45  46
ATOM     46  N   UNL     1       0.141   9.324   8.690  1.00  0.00    -0.342 N 
ATOM     47  C   UNL     1       0.377  10.391   9.520  1.00  0.00     0.247 C 
ATOM     48  O   UNL     1      -0.484  10.861  10.265  1.00  0.00    -0.273 OA
ATOM     49  H   UNL     1       0.896   8.929   8.133  1.00  0.00     0.164 HD
BRANCH  47  50
ATOM     50  C   UNL     1       1.793  10.979   9.437  1.00  0.00     0.212 CG0
ATOM     51  G   UNL     1       2.523  10.626  10.748  1.00  0.00     0.000 G0
BRANCH  50  52
ATOM     52  N   UNL     1       2.399  10.369   8.257  1.00  0.00    -0.339 N 
ATOM     53  C   UNL     1       2.154  10.797   6.975  1.00  0.00     0.243 C 
ATOM     54  O   UNL     1       1.360  11.698   6.718  1.00  0.00    -0.273 OA
ATOM     55  H   UNL     1       2.981   9.545   8.396  1.00  0.00     0.164 HD
BRANCH  53  56
ATOM     56  C   UNL     1       2.839   9.945   5.887  1.00  0.00     0.182 C 
BRANCH  56  57
ATOM     57  N   UNL     1       3.165   8.608   6.393  1.00  0.00    -0.344 N 
ATOM     58  C   UNL     1       2.324   7.534   6.230  1.00  0.00     0.220 C 
ATOM     59  O   UNL     1       1.215   7.632   5.717  1.00  0.00    -0.275 OA
ATOM     60  H   UNL     1       4.112   8.462   6.732  1.00  0.00     0.164 HD
BRANCH  58  61
ATOM     61  C   UNL     1       2.890   6.238   6.781  1.00  0.00     0.100 C 
BRANCH  61  62
ATOM     62  C   UNL     1       2.155   5.721   8.018  1.00  0.00     0.010 C 
BRANCH  62  63
ATOM     63  C   UNL     1       1.135   4.614   7.725  1.00  0.00     0.000 C 
BRANCH  63  64
ATOM     64  C   UNL     1       1.042   4.221   6.251  1.00  0.00    -0.003 C 
ATOM     65  C   UNL     1      -0.396   4.266   5.754  1.00  0.00     0.004 C 
ENDBRANCH  63  64
ENDBRANCH  62  63
ENDBRANCH  61  62
ENDBRANCH  58  61
ENDBRANCH  56  57
BRANCH  56  66
ATOM     66  C   UNL     1       4.060  10.654   5.305  1.00  0.00     0.157 C 
BRANCH  66  67
ATOM     67  C   UNL     1       5.318   9.881   5.574  1.00  0.00     0.305 C 
ATOM     68  O   UNL     1       5.951   9.851   6.619  1.00  0.00    -0.252 OA
BRANCH  67  69
ATOM     69  O   UNL     1       5.695   9.133   4.520  1.00  0.00    -0.481 OA
ATOM     70  H   UNL     1       6.596   8.817   4.746  1.00  0.00     0.296 HD
ENDBRANCH  67  69
ENDBRANCH  66  67
ENDBRANCH  56  66
ENDBRANCH  53  56
ENDBRANCH  50  52
ENDBRANCH  47  50
ENDBRANCH  45  46
BRANCH  45  71
ATOM     71  C   UNL     1      -1.082   7.189   8.439  1.00  0.00     0.037 C 
BRANCH  71  72
ATOM     72  C   UNL     1      -1.833   6.478   9.568  1.00  0.00     0.026 C 
BRANCH  72  73
ATOM     73  C   UNL     1      -3.054   5.726   9.042  1.00  0.00     0.146 C 
BRANCH  73  74
ATOM     74  N   UNL     1      -3.988   5.558  10.151  1.00  0.00    -0.254 NA
ATOM     75  C   UNL     1      -4.462   4.386  10.363  1.00  0.00     0.185 C 
ATOM     76  N   UNL     1      -5.322   4.199  11.377  1.00  0.00    -0.370 N 
ATOM     77  N   UNL     1      -4.222   3.244   9.694  1.00  0.00    -0.370 N 
ATOM     78  H   UNL     1      -5.562   5.010  11.928  1.00  0.00     0.159 HD
ATOM     79  H   UNL     1      -5.841   3.350  11.513  1.00  0.00     0.159 HD
ATOM     80  H   UNL     1      -3.591   3.232   8.907  1.00  0.00     0.159 HD
ATOM     81  H   UNL     1      -4.564   2.357  10.024  1.00  0.00     0.159 HD
ENDBRANCH  73  74
ENDBRANCH  72  73
ENDBRANCH  71  72
ENDBRANCH  45  71
ENDBRANCH   3  45
TORSDOF 20
ENDMDL
MODEL 6
REMARK VINA RESULT:    -5.386      7.279     11.435
REMARK INTER + INTRA:         -21.405
REMARK INTER:                 -13.113
REMARK INTRA:                  -8.292
REMARK UNBOUND:                -5.944
REMARK SMILES CCCCCC(=O)N[C@H](CC(=O)O)C(=O)N[C@H]1C(=O)N[C@H](CCCN=C(N)N)C(=O)N[C@@H]2CC[C@H](O)N(C2=O)[C@@H](CC(C)C)C(=O)N(C)[C@@H](Cc2ccccc2)C(=O)N[C@H](C(C)C)C(=O)O[C@@H]1C
REMARK SMILES IDX 30 1 31 2 29 3 32 5 35 6 37 7 34 8 38 9 33 10 39 11 36 12
REMARK SMILES IDX 40 14 41 15 42 16 43 17 44 18 45 19 46 20 47 21 48 22 49 23
REMARK SMILES IDX 50 24 51 25 52 26 56 27 53 28 55 29 54 30 57 31 58 32 59 33
REMARK SMILES IDX 60 35 61 36 62 37 63 38 64 39 65 40 66 41 67 42 68 43 21 45
REMARK SMILES IDX 20 46 18 47 19 48 17 50 16 52 14 53 15 54 9 56 8 57 6 58
REMARK SMILES IDX 7 59 5 61 4 62 3 63 2 64 1 65 10 66 11 67 12 68 13 69 22 71
REMARK SMILES IDX 23 72 24 73 25 74 26 75 27 76 28 77
REMARK H PARENT 31 4 36 13 59 34 20 49 16 55 8 60 13 70 27 78 27 79 28 80
REMARK H PARENT 28 81
REMARK Flexibility Score:  259.900
ROOT
ATOM      1  O   UNL     1      -8.081  10.633  -1.748  1.00  0.00    -0.273 OA
ATOM      2  N   UNL     1      -7.001  12.490  -0.963  1.00  0.00    -0.343 N 
ATOM      3  C   UNL     1      -7.965  11.858  -1.719  1.00  0.00     0.243 C 
ATOM      4  H   UNL     1      -6.945  13.501  -0.952  1.00  0.00     0.164 HD
ENDROOT
BRANCH   2   5
ATOM      5  C   UNL     1      -5.990  11.715  -0.252  1.00  0.00     0.171 C 
ATOM      6  C   UNL     1      -3.615  12.474   1.227  1.00  0.00     0.214 C 
ATOM      7  N   UNL     1      -3.511  12.187  -0.184  1.00  0.00    -0.303 N 
ATOM      8  C   UNL     1      -4.723  11.696   1.920  1.00  0.00     0.057 C 
ATOM      9  C   UNL     1      -4.613  11.868  -0.960  1.00  0.00     0.247 C 
ATOM     10  C   UNL     1      -6.048  11.986   1.251  1.00  0.00     0.040 C 
ATOM     11  O   UNL     1      -4.529  11.708  -2.185  1.00  0.00    -0.272 OA
BRANCH   6  12
ATOM     12  O   UNL     1      -3.824  13.860   1.370  1.00  0.00    -0.373 OA
ATOM     13  H   UNL     1      -4.616  14.088   0.839  1.00  0.00     0.213 HD
ENDBRANCH   6  12
BRANCH   7  14
ATOM     14  C   UNL     1      -2.189  12.389  -0.814  1.00  0.00     0.177 C 
BRANCH  14  15
ATOM     15  C   UNL     1      -1.751  13.859  -0.961  1.00  0.00     0.038 C 
BRANCH  15  16
ATOM     16  C   UNL     1      -1.062  14.321  -2.265  1.00  0.00    -0.015 C 
ATOM     17  C   UNL     1       0.359  13.768  -2.403  1.00  0.00     0.007 C 
ATOM     18  C   UNL     1      -0.987  15.853  -2.297  1.00  0.00     0.007 C 
ENDBRANCH  15  16
ENDBRANCH  14  15
BRANCH  14  19
ATOM     19  C   UNL     1      -1.238  11.189  -0.480  1.00  0.00     0.245 C 
ATOM     20  O   UNL     1      -0.926  10.443  -1.423  1.00  0.00    -0.272 OA
BRANCH  19  21
ATOM     21  N   UNL     1      -0.830  10.861   0.801  1.00  0.00    -0.332 N 
ATOM     22  C   UNL     1      -1.430   9.839   1.641  1.00  0.00     0.147 C 
BRANCH  21  23
ATOM     23  C   UNL     1       0.310  11.620   1.384  1.00  0.00     0.178 C 
BRANCH  23  24
ATOM     24  C   UNL     1      -0.096  12.815   2.272  1.00  0.00     0.070 C 
BRANCH  24  25
ATOM     25  C   UNL     1       0.239  14.197   1.761  1.00  0.00    -0.045 A 
ATOM     26  C   UNL     1       1.387  14.418   0.989  1.00  0.00     0.004 A 
ATOM     27  C   UNL     1      -0.598  15.283   2.058  1.00  0.00     0.004 A 
ATOM     28  C   UNL     1       1.699  15.702   0.535  1.00  0.00     0.000 A 
ATOM     29  C   UNL     1      -0.286  16.565   1.602  1.00  0.00     0.000 A 
ATOM     30  C   UNL     1       0.864  16.774   0.843  1.00  0.00     0.000 A 
ENDBRANCH  24  25
ENDBRANCH  23  24
BRANCH  23  31
ATOM     31  C   UNL     1       1.402  10.703   1.986  1.00  0.00     0.243 C 
ATOM     32  O   UNL     1       1.887   9.739   1.401  1.00  0.00    -0.273 OA
ATOM     33  N   UNL     1       1.656  10.951   3.324  1.00  0.00    -0.341 N 
ATOM     34  H   UNL     1       1.217  11.766   3.759  1.00  0.00     0.164 HD
BRANCH  33  35
ATOM     35  C   UNL     1       2.564  10.130   4.130  1.00  0.00     0.194 C 
BRANCH  35  36
ATOM     36  C   UNL     1       2.143   9.994   5.621  1.00  0.00     0.017 C 
ATOM     37  C   UNL     1       0.678   9.544   5.749  1.00  0.00     0.010 C 
ATOM     38  C   UNL     1       2.294  11.299   6.412  1.00  0.00     0.010 C 
ENDBRANCH  35  36
BRANCH  35  39
ATOM     39  C   UNL     1       4.050  10.561   3.983  1.00  0.00     0.329 C 
ATOM     40  O   UNL     1       4.411  11.615   3.474  1.00  0.00    -0.250 OA
BRANCH  39  41
ATOM     41  O   UNL     1       4.910   9.671   4.565  1.00  0.00    -0.458 OA
BRANCH  41  42
ATOM     42  C   UNL     1       5.905  10.229   5.456  1.00  0.00     0.205 CG0
ATOM     43  C   UNL     1       6.770   9.073   5.953  1.00  0.00     0.056 C 
ATOM     44  G   UNL     1       5.181  10.961   6.605  1.00  0.00     0.000 G0
ENDBRANCH  41  42
ENDBRANCH  39  41
ENDBRANCH  35  39
ENDBRANCH  33  35
ENDBRANCH  23  31
ENDBRANCH  21  23
ENDBRANCH  19  21
ENDBRANCH  14  19
ENDBRANCH   7  14
ENDBRANCH   2   5
BRANCH   3  45
ATOM     45  C   UNL     1      -8.899  12.789  -2.504  1.00  0.00     0.171 C 
BRANCH  45  46
ATOM     46  N   UNL     1      -9.873  11.918  -3.149  1.00  0.00    -0.342 N 
ATOM     47  C   UNL     1     -11.209  11.950  -2.838  1.00  0.00     0.247 C 
ATOM     48  O   UNL     1     -11.692  12.763  -2.049  1.00  0.00    -0.273 OA
ATOM     49  H   UNL     1      -9.523  11.268  -3.850  1.00  0.00     0.164 HD
BRANCH  47  50
ATOM     50  C   UNL     1     -12.062  10.876  -3.527  1.00  0.00     0.212 CG0
ATOM     51  G   UNL     1     -12.553  11.458  -4.867  1.00  0.00     0.000 G0
BRANCH  50  52
ATOM     52  N   UNL     1     -11.182   9.722  -3.687  1.00  0.00    -0.339 N 
ATOM     53  C   UNL     1     -11.207   8.631  -2.852  1.00  0.00     0.243 C 
ATOM     54  O   UNL     1     -11.940   8.566  -1.870  1.00  0.00    -0.273 OA
ATOM     55  H   UNL     1     -10.474   9.765  -4.417  1.00  0.00     0.164 HD
BRANCH  53  56
ATOM     56  C   UNL     1     -10.126   7.577  -3.166  1.00  0.00     0.182 C 
BRANCH  56  57
ATOM     57  N   UNL     1      -8.923   7.799  -2.358  1.00  0.00    -0.344 N 
ATOM     58  C   UNL     1      -8.585   6.987  -1.303  1.00  0.00     0.220 C 
ATOM     59  O   UNL     1      -9.299   6.067  -0.918  1.00  0.00    -0.275 OA
ATOM     60  H   UNL     1      -8.256   8.483  -2.704  1.00  0.00     0.164 HD
BRANCH  58  61
ATOM     61  C   UNL     1      -7.270   7.368  -0.648  1.00  0.00     0.100 C 
BRANCH  61  62
ATOM     62  C   UNL     1      -6.059   7.232  -1.571  1.00  0.00     0.010 C 
BRANCH  62  63
ATOM     63  C   UNL     1      -5.518   5.801  -1.689  1.00  0.00     0.000 C 
BRANCH  63  64
ATOM     64  C   UNL     1      -5.340   5.315  -3.127  1.00  0.00    -0.003 C 
ATOM     65  C   UNL     1      -6.657   4.829  -3.716  1.00  0.00     0.004 C 
ENDBRANCH  63  64
ENDBRANCH  62  63
ENDBRANCH  61  62
ENDBRANCH  58  61
ENDBRANCH  56  57
BRANCH  56  66
ATOM     66  C   UNL     1      -9.815   7.521  -4.661  1.00  0.00     0.157 C 
BRANCH  66  67
ATOM     67  C   UNL     1      -8.621   8.367  -4.999  1.00  0.00     0.305 C 
ATOM     68  O   UNL     1      -8.531   9.581  -4.901  1.00  0.00    -0.252 OA
BRANCH  67  69
ATOM     69  O   UNL     1      -7.568   7.629  -5.400  1.00  0.00    -0.481 OA
ATOM     70  H   UNL     1      -7.592   7.671  -6.379  1.00  0.00     0.296 HD
ENDBRANCH  67  69
ENDBRANCH  66  67
ENDBRANCH  56  66
ENDBRANCH  53  56
ENDBRANCH  50  52
ENDBRANCH  47  50
ENDBRANCH  45  46
BRANCH  45  71
ATOM     71  C   UNL     1      -8.102  13.604  -3.529  1.00  0.00     0.037 C 
BRANCH  71  72
ATOM     72  C   UNL     1      -7.773  12.788  -4.782  1.00  0.00     0.026 C 
BRANCH  72  73
ATOM     73  C   UNL     1      -6.267  12.710  -5.020  1.00  0.00     0.146 C 
BRANCH  73  74
ATOM     74  N   UNL     1      -6.035  11.765  -6.109  1.00  0.00    -0.254 NA
ATOM     75  C   UNL     1      -5.685  10.571  -5.801  1.00  0.00     0.185 C 
ATOM     76  N   UNL     1      -5.466   9.679  -6.781  1.00  0.00    -0.370 N 
ATOM     77  N   UNL     1      -5.491  10.034  -4.584  1.00  0.00    -0.370 N 
ATOM     78  H   UNL     1      -5.582  10.004  -7.730  1.00  0.00     0.159 HD
ATOM     79  H   UNL     1      -5.053   8.776  -6.625  1.00  0.00     0.159 HD
ATOM     80  H   UNL     1      -5.624  10.588  -3.751  1.00  0.00     0.159 HD
ATOM     81  H   UNL     1      -5.329   9.048  -4.461  1.00  0.00     0.159 HD
ENDBRANCH  73  74
ENDBRANCH  72  73
ENDBRANCH  71  72
ENDBRANCH  45  71
ENDBRANCH   3  45
TORSDOF 20
ENDMDL
MODEL 7
REMARK VINA RESULT:    -5.213      6.906     11.891
REMARK INTER + INTRA:         -20.909
REMARK INTER:                 -15.095
REMARK INTRA:                  -5.814
REMARK UNBOUND:                -5.944
REMARK SMILES CCCCCC(=O)N[C@H](CC(=O)O)C(=O)N[C@H]1C(=O)N[C@H](CCCN=C(N)N)C(=O)N[C@@H]2CC[C@H](O)N(C2=O)[C@@H](CC(C)C)C(=O)N(C)[C@@H](Cc2ccccc2)C(=O)N[C@H](C(C)C)C(=O)O[C@@H]1C
REMARK SMILES IDX 30 1 31 2 29 3 32 5 35 6 37 7 34 8 38 9 33 10 39 11 36 12
REMARK SMILES IDX 40 14 41 15 42 16 43 17 44 18 45 19 46 20 47 21 48 22 49 23
REMARK SMILES IDX 50 24 51 25 52 26 56 27 53 28 55 29 54 30 57 31 58 32 59 33
REMARK SMILES IDX 60 35 61 36 62 37 63 38 64 39 65 40 66 41 67 42 68 43 21 45
REMARK SMILES IDX 20 46 18 47 19 48 17 50 16 52 14 53 15 54 9 56 8 57 6 58
REMARK SMILES IDX 7 59 5 61 4 62 3 63 2 64 1 65 10 66 11 67 12 68 13 69 22 71
REMARK SMILES IDX 23 72 24 73 25 74 26 75 27 76 28 77
REMARK H PARENT 31 4 36 13 59 34 20 49 16 55 8 60 13 70 27 78 27 79 28 80
REMARK H PARENT 28 81
REMARK Flexibility Score:  259.900
ROOT
ATOM      1  O   UNL     1      -7.837  10.726  -2.094  1.00  0.00    -0.273 OA
ATOM      2  N   UNL     1      -6.649  12.495  -1.265  1.00  0.00    -0.343 N 
ATOM      3  C   UNL     1      -7.481  11.901  -2.189  1.00  0.00     0.243 C 
ATOM      4  H   UNL     1      -6.389  13.469  -1.367  1.00  0.00     0.164 HD
ENDROOT
BRANCH   2   5
ATOM      5  C   UNL     1      -6.054  11.711  -0.189  1.00  0.00     0.171 C 
ATOM      6  C   UNL     1      -4.235  12.391   1.964  1.00  0.00     0.214 C 
ATOM      7  N   UNL     1      -3.702  11.928   0.704  1.00  0.00    -0.303 N 
ATOM      8  C   UNL     1      -5.607  11.820   2.283  1.00  0.00     0.057 C 
ATOM      9  C   UNL     1      -4.512  11.635  -0.382  1.00  0.00     0.247 C 
ATOM     10  C   UNL     1      -6.577  12.163   1.173  1.00  0.00     0.040 C 
ATOM     11  O   UNL     1      -4.043  11.322  -1.484  1.00  0.00    -0.272 OA
BRANCH   6  12
ATOM     12  O   UNL     1      -4.286  13.799   1.919  1.00  0.00    -0.373 OA
ATOM     13  H   UNL     1      -4.511  14.049   0.997  1.00  0.00     0.213 HD
ENDBRANCH   6  12
BRANCH   7  14
ATOM     14  C   UNL     1      -2.231  11.917   0.561  1.00  0.00     0.177 C 
BRANCH  14  15
ATOM     15  C   UNL     1      -1.580  13.300   0.365  1.00  0.00     0.038 C 
BRANCH  15  16
ATOM     16  C   UNL     1      -0.903  13.638  -0.981  1.00  0.00    -0.015 C 
ATOM     17  C   UNL     1       0.351  14.499  -0.804  1.00  0.00     0.007 C 
ATOM     18  C   UNL     1      -1.886  14.399  -1.880  1.00  0.00     0.007 C 
ENDBRANCH  15  16
ENDBRANCH  14  15
BRANCH  14  19
ATOM     19  C   UNL     1      -1.615  10.733   1.383  1.00  0.00     0.245 C 
ATOM     20  O   UNL     1      -1.221   9.748   0.736  1.00  0.00    -0.272 OA
BRANCH  19  21
ATOM     21  N   UNL     1      -1.592  10.683   2.766  1.00  0.00    -0.332 N 
ATOM     22  C   UNL     1      -2.465   9.871   3.594  1.00  0.00     0.147 C 
BRANCH  21  23
ATOM     23  C   UNL     1      -0.601  11.537   3.476  1.00  0.00     0.178 C 
BRANCH  23  24
ATOM     24  C   UNL     1      -1.187  12.818   4.107  1.00  0.00     0.070 C 
BRANCH  24  25
ATOM     25  C   UNL     1      -0.663  14.139   3.594  1.00  0.00    -0.045 A 
ATOM     26  C   UNL     1      -1.503  15.255   3.496  1.00  0.00     0.004 A 
ATOM     27  C   UNL     1       0.679  14.264   3.204  1.00  0.00     0.004 A 
ATOM     28  C   UNL     1      -1.015  16.468   3.005  1.00  0.00     0.000 A 
ATOM     29  C   UNL     1       1.166  15.477   2.716  1.00  0.00     0.000 A 
ATOM     30  C   UNL     1       0.317  16.578   2.614  1.00  0.00     0.000 A 
ENDBRANCH  24  25
ENDBRANCH  23  24
BRANCH  23  31
ATOM     31  C   UNL     1       0.341  10.729   4.400  1.00  0.00     0.243 C 
ATOM     32  O   UNL     1       0.943   9.717   4.051  1.00  0.00    -0.273 OA
ATOM     33  N   UNL     1       0.304  11.139   5.722  1.00  0.00    -0.341 N 
ATOM     34  H   UNL     1      -0.220  11.986   5.954  1.00  0.00     0.164 HD
BRANCH  33  35
ATOM     35  C   UNL     1       1.023  10.444   6.794  1.00  0.00     0.194 C 
BRANCH  35  36
ATOM     36  C   UNL     1       0.320  10.514   8.179  1.00  0.00     0.017 C 
ATOM     37  C   UNL     1       0.808   9.391   9.111  1.00  0.00     0.010 C 
ATOM     38  C   UNL     1      -1.207  10.404   8.088  1.00  0.00     0.010 C 
ENDBRANCH  35  36
BRANCH  35  39
ATOM     39  C   UNL     1       2.518  10.861   6.880  1.00  0.00     0.329 C 
ATOM     40  O   UNL     1       2.907  11.929   7.339  1.00  0.00    -0.250 OA
BRANCH  39  41
ATOM     41  O   UNL     1       3.360   9.867   6.466  1.00  0.00    -0.458 OA
BRANCH  41  42
ATOM     42  C   UNL     1       4.615   9.751   7.178  1.00  0.00     0.205 CG0
ATOM     43  C   UNL     1       5.729   9.725   6.134  1.00  0.00     0.056 C 
ATOM     44  G   UNL     1       4.579   8.470   8.034  1.00  0.00     0.000 G0
ENDBRANCH  41  42
ENDBRANCH  39  41
ENDBRANCH  35  39
ENDBRANCH  33  35
ENDBRANCH  23  31
ENDBRANCH  21  23
ENDBRANCH  19  21
ENDBRANCH  14  19
ENDBRANCH   7  14
ENDBRANCH   2   5
BRANCH   3  45
ATOM     45  C   UNL     1      -7.951  12.811  -3.332  1.00  0.00     0.171 C 
BRANCH  45  46
ATOM     46  N   UNL     1      -9.348  12.467  -3.560  1.00  0.00    -0.342 N 
ATOM     47  C   UNL     1     -10.375  13.056  -2.865  1.00  0.00     0.247 C 
ATOM     48  O   UNL     1     -10.197  13.965  -2.054  1.00  0.00    -0.273 OA
ATOM     49  H   UNL     1      -9.544  11.758  -4.264  1.00  0.00     0.164 HD
BRANCH  47  50
ATOM     50  C   UNL     1     -11.768  12.479  -3.151  1.00  0.00     0.212 CG0
ATOM     51  G   UNL     1     -12.362  13.258  -4.341  1.00  0.00     0.000 G0
BRANCH  50  52
ATOM     52  N   UNL     1     -11.553  11.063  -3.437  1.00  0.00    -0.339 N 
ATOM     53  C   UNL     1     -11.989  10.051  -2.617  1.00  0.00     0.243 C 
ATOM     54  O   UNL     1     -12.552  10.262  -1.547  1.00  0.00    -0.273 OA
ATOM     55  H   UNL     1     -10.994  10.826  -4.255  1.00  0.00     0.164 HD
BRANCH  53  56
ATOM     56  C   UNL     1     -11.569   8.642  -3.082  1.00  0.00     0.182 C 
BRANCH  56  57
ATOM     57  N   UNL     1     -11.356   7.751  -1.937  1.00  0.00    -0.344 N 
ATOM     58  C   UNL     1     -12.358   6.969  -1.416  1.00  0.00     0.220 C 
ATOM     59  O   UNL     1     -13.514   7.015  -1.823  1.00  0.00    -0.275 OA
ATOM     60  H   UNL     1     -10.395   7.608  -1.637  1.00  0.00     0.164 HD
BRANCH  58  61
ATOM     61  C   UNL     1     -11.898   6.084  -0.272  1.00  0.00     0.100 C 
BRANCH  61  62
ATOM     62  C   UNL     1     -10.694   5.208  -0.618  1.00  0.00     0.010 C 
BRANCH  62  63
ATOM     63  C   UNL     1     -10.974   4.154  -1.697  1.00  0.00     0.000 C 
BRANCH  63  64
ATOM     64  C   UNL     1     -12.162   3.244  -1.391  1.00  0.00    -0.003 C 
ATOM     65  C   UNL     1     -13.047   3.057  -2.615  1.00  0.00     0.004 C 
ENDBRANCH  63  64
ENDBRANCH  62  63
ENDBRANCH  61  62
ENDBRANCH  58  61
ENDBRANCH  56  57
BRANCH  56  66
ATOM     66  C   UNL     1     -10.352   8.695  -4.005  1.00  0.00     0.157 C 
BRANCH  66  67
ATOM     67  C   UNL     1      -9.403   7.567  -3.719  1.00  0.00     0.305 C 
ATOM     68  O   UNL     1      -8.387   7.618  -3.043  1.00  0.00    -0.252 OA
BRANCH  67  69
ATOM     69  O   UNL     1      -9.812   6.405  -4.263  1.00  0.00    -0.481 OA
ATOM     70  H   UNL     1      -9.130   6.189  -4.933  1.00  0.00     0.296 HD
ENDBRANCH  67  69
ENDBRANCH  66  67
ENDBRANCH  56  66
ENDBRANCH  53  56
ENDBRANCH  50  52
ENDBRANCH  47  50
ENDBRANCH  45  46
BRANCH  45  71
ATOM     71  C   UNL     1      -7.099  12.578  -4.585  1.00  0.00     0.037 C 
BRANCH  71  72
ATOM     72  C   UNL     1      -7.328  13.658  -5.645  1.00  0.00     0.026 C 
BRANCH  72  73
ATOM     73  C   UNL     1      -6.237  13.632  -6.714  1.00  0.00     0.146 C 
BRANCH  73  74
ATOM     74  N   UNL     1      -6.737  12.854  -7.844  1.00  0.00    -0.254 NA
ATOM     75  C   UNL     1      -6.181  11.724  -8.085  1.00  0.00     0.185 C 
ATOM     76  N   UNL     1      -6.620  10.984  -9.116  1.00  0.00    -0.370 N 
ATOM     77  N   UNL     1      -5.170  11.124  -7.434  1.00  0.00    -0.370 N 
ATOM     78  H   UNL     1      -7.376  11.367  -9.665  1.00  0.00     0.159 HD
ATOM     79  H   UNL     1      -6.144  10.166  -9.452  1.00  0.00     0.159 HD
ATOM     80  H   UNL     1      -4.742  11.563  -6.632  1.00  0.00     0.159 HD
ATOM     81  H   UNL     1      -4.892  10.179  -7.645  1.00  0.00     0.159 HD
ENDBRANCH  73  74
ENDBRANCH  72  73
ENDBRANCH  71  72
ENDBRANCH  45  71
ENDBRANCH   3  45
TORSDOF 20
ENDMDL
MODEL 8
REMARK VINA RESULT:    -5.138      8.254     14.706
REMARK INTER + INTRA:         -20.695
REMARK INTER:                 -16.191
REMARK INTRA:                  -4.504
REMARK UNBOUND:                -5.944
REMARK SMILES CCCCCC(=O)N[C@H](CC(=O)O)C(=O)N[C@H]1C(=O)N[C@H](CCCN=C(N)N)C(=O)N[C@@H]2CC[C@H](O)N(C2=O)[C@@H](CC(C)C)C(=O)N(C)[C@@H](Cc2ccccc2)C(=O)N[C@H](C(C)C)C(=O)O[C@@H]1C
REMARK SMILES IDX 30 1 31 2 29 3 32 5 35 6 37 7 34 8 38 9 33 10 39 11 36 12
REMARK SMILES IDX 40 14 41 15 42 16 43 17 44 18 45 19 46 20 47 21 48 22 49 23
REMARK SMILES IDX 50 24 51 25 52 26 56 27 53 28 55 29 54 30 57 31 58 32 59 33
REMARK SMILES IDX 60 35 61 36 62 37 63 38 64 39 65 40 66 41 67 42 68 43 21 45
REMARK SMILES IDX 20 46 18 47 19 48 17 50 16 52 14 53 15 54 9 56 8 57 6 58
REMARK SMILES IDX 7 59 5 61 4 62 3 63 2 64 1 65 10 66 11 67 12 68 13 69 22 71
REMARK SMILES IDX 23 72 24 73 25 74 26 75 27 76 28 77
REMARK H PARENT 31 4 36 13 59 34 20 49 16 55 8 60 13 70 27 78 27 79 28 80
REMARK H PARENT 28 81
REMARK Flexibility Score:  259.900
ROOT
ATOM      1  O   UNL     1      -7.031   4.638   6.597  1.00  0.00    -0.273 OA
ATOM      2  N   UNL     1      -7.628   6.397   7.932  1.00  0.00    -0.343 N 
ATOM      3  C   UNL     1      -6.981   5.204   7.690  1.00  0.00     0.243 C 
ATOM      4  H   UNL     1      -7.552   6.841   8.839  1.00  0.00     0.164 HD
ENDROOT
BRANCH   2   5
ATOM      5  C   UNL     1      -8.507   6.982   6.926  1.00  0.00     0.171 C 
ATOM      6  C   UNL     1      -9.285   9.715   6.349  1.00  0.00     0.214 C 
ATOM      7  N   UNL     1     -10.083   8.926   7.259  1.00  0.00    -0.303 N 
ATOM      8  C   UNL     1      -8.591   8.883   5.282  1.00  0.00     0.057 C 
ATOM      9  C   UNL     1      -9.740   7.633   7.617  1.00  0.00     0.247 C 
ATOM     10  C   UNL     1      -7.716   7.836   5.937  1.00  0.00     0.040 C 
ATOM     11  O   UNL     1     -10.380   6.995   8.463  1.00  0.00    -0.272 OA
BRANCH   6  12
ATOM     12  O   UNL     1      -8.339  10.426   7.112  1.00  0.00    -0.373 OA
ATOM     13  H   UNL     1      -8.445  11.376   6.889  1.00  0.00     0.213 HD
ENDBRANCH   6  12
BRANCH   7  14
ATOM     14  C   UNL     1     -11.217   9.607   7.919  1.00  0.00     0.177 C 
BRANCH  14  15
ATOM     15  C   UNL     1     -10.975  10.013   9.386  1.00  0.00     0.038 C 
BRANCH  15  16
ATOM     16  C   UNL     1     -12.124  10.647  10.199  1.00  0.00    -0.015 C 
ATOM     17  C   UNL     1     -12.067  12.178  10.196  1.00  0.00     0.007 C 
ATOM     18  C   UNL     1     -12.055  10.167  11.655  1.00  0.00     0.007 C 
ENDBRANCH  15  16
ENDBRANCH  14  15
BRANCH  14  19
ATOM     19  C   UNL     1     -12.036  10.437   6.872  1.00  0.00     0.245 C 
ATOM     20  O   UNL     1     -11.645  11.594   6.645  1.00  0.00    -0.272 OA
BRANCH  19  21
ATOM     21  N   UNL     1     -13.211   9.997   6.287  1.00  0.00    -0.332 N 
ATOM     22  C   UNL     1     -13.442   8.662   5.763  1.00  0.00     0.147 C 
BRANCH  21  23
ATOM     23  C   UNL     1     -14.335  10.965   6.170  1.00  0.00     0.178 C 
BRANCH  23  24
ATOM     24  C   UNL     1     -14.713  11.343   4.723  1.00  0.00     0.070 C 
BRANCH  24  25
ATOM     25  C   UNL     1     -14.602  12.801   4.340  1.00  0.00    -0.045 A 
ATOM     26  C   UNL     1     -15.728  13.634   4.353  1.00  0.00     0.004 A 
ATOM     27  C   UNL     1     -13.364  13.340   3.961  1.00  0.00     0.004 A 
ATOM     28  C   UNL     1     -15.620  14.976   3.982  1.00  0.00     0.000 A 
ATOM     29  C   UNL     1     -13.257  14.682   3.592  1.00  0.00     0.000 A 
ATOM     30  C   UNL     1     -14.386  15.498   3.600  1.00  0.00     0.000 A 
ENDBRANCH  24  25
ENDBRANCH  23  24
BRANCH  23  31
ATOM     31  C   UNL     1     -15.533  10.615   7.085  1.00  0.00     0.243 C 
ATOM     32  O   UNL     1     -15.419  10.217   8.242  1.00  0.00    -0.273 OA
ATOM     33  N   UNL     1     -16.750  10.610   6.426  1.00  0.00    -0.341 N 
ATOM     34  H   UNL     1     -16.781  10.947   5.461  1.00  0.00     0.164 HD
BRANCH  33  35
ATOM     35  C   UNL     1     -18.002  10.193   7.064  1.00  0.00     0.194 C 
BRANCH  35  36
ATOM     36  C   UNL     1     -18.525   8.808   6.591  1.00  0.00     0.017 C 
ATOM     37  C   UNL     1     -19.346   8.114   7.691  1.00  0.00     0.010 C 
ATOM     38  C   UNL     1     -17.403   7.846   6.180  1.00  0.00     0.010 C 
ENDBRANCH  35  36
BRANCH  35  39
ATOM     39  C   UNL     1     -19.105  11.286   6.988  1.00  0.00     0.329 C 
ATOM     40  O   UNL     1     -19.935  11.362   6.090  1.00  0.00    -0.250 OA
BRANCH  39  41
ATOM     41  O   UNL     1     -19.101  12.106   8.083  1.00  0.00    -0.458 OA
BRANCH  41  42
ATOM     42  C   UNL     1     -19.190  13.527   7.820  1.00  0.00     0.205 CG0
ATOM     43  C   UNL     1     -19.563  14.209   9.135  1.00  0.00     0.056 C 
ATOM     44  G   UNL     1     -20.243  13.757   6.718  1.00  0.00     0.000 G0
ENDBRANCH  41  42
ENDBRANCH  39  41
ENDBRANCH  35  39
ENDBRANCH  33  35
ENDBRANCH  23  31
ENDBRANCH  21  23
ENDBRANCH  19  21
ENDBRANCH  14  19
ENDBRANCH   7  14
ENDBRANCH   2   5
BRANCH   3  45
ATOM     45  C   UNL     1      -6.175   4.642   8.868  1.00  0.00     0.171 C 
BRANCH  45  46
ATOM     46  N   UNL     1      -5.146   3.798   8.276  1.00  0.00    -0.342 N 
ATOM     47  C   UNL     1      -3.881   4.259   8.007  1.00  0.00     0.247 C 
ATOM     48  O   UNL     1      -3.503   5.390   8.312  1.00  0.00    -0.273 OA
ATOM     49  H   UNL     1      -5.400   2.836   8.058  1.00  0.00     0.164 HD
BRANCH  47  50
ATOM     50  C   UNL     1      -2.972   3.267   7.268  1.00  0.00     0.212 CG0
ATOM     51  G   UNL     1      -2.205   2.455   8.331  1.00  0.00     0.000 G0
BRANCH  50  52
ATOM     52  N   UNL     1      -3.867   2.450   6.453  1.00  0.00    -0.339 N 
ATOM     53  C   UNL     1      -3.473   1.293   5.826  1.00  0.00     0.243 C 
ATOM     54  O   UNL     1      -2.316   0.883   5.860  1.00  0.00    -0.273 OA
ATOM     55  H   UNL     1      -4.811   2.797   6.295  1.00  0.00     0.164 HD
BRANCH  53  56
ATOM     56  C   UNL     1      -4.568   0.650   4.950  1.00  0.00     0.182 C 
BRANCH  56  57
ATOM     57  N   UNL     1      -4.857  -0.719   5.391  1.00  0.00    -0.344 N 
ATOM     58  C   UNL     1      -5.482  -0.992   6.583  1.00  0.00     0.220 C 
ATOM     59  O   UNL     1      -5.775  -0.119   7.393  1.00  0.00    -0.275 OA
ATOM     60  H   UNL     1      -4.724  -1.460   4.708  1.00  0.00     0.164 HD
BRANCH  58  61
ATOM     61  C   UNL     1      -5.732  -2.472   6.805  1.00  0.00     0.100 C 
BRANCH  61  62
ATOM     62  C   UNL     1      -6.276  -3.197   5.574  1.00  0.00     0.010 C 
BRANCH  62  63
ATOM     63  C   UNL     1      -5.317  -4.238   4.985  1.00  0.00     0.000 C 
BRANCH  63  64
ATOM     64  C   UNL     1      -5.523  -4.508   3.495  1.00  0.00    -0.003 C 
ATOM     65  C   UNL     1      -4.498  -5.498   2.963  1.00  0.00     0.004 C 
ENDBRANCH  63  64
ENDBRANCH  62  63
ENDBRANCH  61  62
ENDBRANCH  58  61
ENDBRANCH  56  57
BRANCH  56  66
ATOM     66  C   UNL     1      -4.209   0.715   3.467  1.00  0.00     0.157 C 
BRANCH  66  67
ATOM     67  C   UNL     1      -3.641  -0.590   2.987  1.00  0.00     0.305 C 
ATOM     68  O   UNL     1      -4.240  -1.479   2.401  1.00  0.00    -0.252 OA
BRANCH  67  69
ATOM     69  O   UNL     1      -2.319  -0.691   3.225  1.00  0.00    -0.481 OA
ATOM     70  H   UNL     1      -2.056   0.194   3.556  1.00  0.00     0.296 HD
ENDBRANCH  67  69
ENDBRANCH  66  67
ENDBRANCH  56  66
ENDBRANCH  53  56
ENDBRANCH  50  52
ENDBRANCH  47  50
ENDBRANCH  45  46
BRANCH  45  71
ATOM     71  C   UNL     1      -7.088   3.845   9.807  1.00  0.00     0.037 C 
BRANCH  71  72
ATOM     72  C   UNL     1      -7.275   2.400   9.338  1.00  0.00     0.026 C 
BRANCH  72  73
ATOM     73  C   UNL     1      -7.033   1.407  10.472  1.00  0.00     0.146 C 
BRANCH  73  74
ATOM     74  N   UNL     1      -8.319   0.816  10.831  1.00  0.00    -0.254 NA
ATOM     75  C   UNL     1      -8.844   1.157  11.950  1.00  0.00     0.185 C 
ATOM     76  N   UNL     1     -10.027   0.632  12.307  1.00  0.00    -0.370 N 
ATOM     77  N   UNL     1      -8.374   2.008  12.879  1.00  0.00    -0.370 N 
ATOM     78  H   UNL     1     -10.447  -0.026  11.666  1.00  0.00     0.159 HD
ATOM     79  H   UNL     1     -10.426   0.738  13.223  1.00  0.00     0.159 HD
ATOM     80  H   UNL     1      -7.494   2.483  12.743  1.00  0.00     0.159 HD
ATOM     81  H   UNL     1      -8.931   2.288  13.669  1.00  0.00     0.159 HD
ENDBRANCH  73  74
ENDBRANCH  72  73
ENDBRANCH  71  72
ENDBRANCH  45  71
ENDBRANCH   3  45
TORSDOF 20
ENDMDL
MODEL 9
REMARK VINA RESULT:    -5.114      7.924     14.724
REMARK INTER + INTRA:         -20.624
REMARK INTER:                 -15.935
REMARK INTRA:                  -4.690
REMARK UNBOUND:                -5.944
REMARK SMILES CCCCCC(=O)N[C@H](CC(=O)O)C(=O)N[C@H]1C(=O)N[C@H](CCCN=C(N)N)C(=O)N[C@@H]2CC[C@H](O)N(C2=O)[C@@H](CC(C)C)C(=O)N(C)[C@@H](Cc2ccccc2)C(=O)N[C@H](C(C)C)C(=O)O[C@@H]1C
REMARK SMILES IDX 30 1 31 2 29 3 32 5 35 6 37 7 34 8 38 9 33 10 39 11 36 12
REMARK SMILES IDX 40 14 41 15 42 16 43 17 44 18 45 19 46 20 47 21 48 22 49 23
REMARK SMILES IDX 50 24 51 25 52 26 56 27 53 28 55 29 54 30 57 31 58 32 59 33
REMARK SMILES IDX 60 35 61 36 62 37 63 38 64 39 65 40 66 41 67 42 68 43 21 45
REMARK SMILES IDX 20 46 18 47 19 48 17 50 16 52 14 53 15 54 9 56 8 57 6 58
REMARK SMILES IDX 7 59 5 61 4 62 3 63 2 64 1 65 10 66 11 67 12 68 13 69 22 71
REMARK SMILES IDX 23 72 24 73 25 74 26 75 27 76 28 77
REMARK H PARENT 31 4 36 13 59 34 20 49 16 55 8 60 13 70 27 78 27 79 28 80
REMARK H PARENT 28 81
REMARK Flexibility Score:  259.900
ROOT
ATOM      1  O   UNL     1      -7.227   4.381   7.286  1.00  0.00    -0.273 OA
ATOM      2  N   UNL     1      -7.625   6.339   8.399  1.00  0.00    -0.343 N 
ATOM      3  C   UNL     1      -7.002   5.119   8.246  1.00  0.00     0.243 C 
ATOM      4  H   UNL     1      -7.405   6.926   9.194  1.00  0.00     0.164 HD
ENDROOT
BRANCH   2   5
ATOM      5  C   UNL     1      -8.677   6.756   7.478  1.00  0.00     0.171 C 
ATOM      6  C   UNL     1      -9.670   9.361   6.681  1.00  0.00     0.214 C 
ATOM      7  N   UNL     1     -10.278   8.681   7.801  1.00  0.00    -0.303 N 
ATOM      8  C   UNL     1      -9.107   8.412   5.635  1.00  0.00     0.057 C 
ATOM      9  C   UNL     1      -9.820   7.459   8.265  1.00  0.00     0.247 C 
ATOM     10  C   UNL     1      -8.091   7.490   6.273  1.00  0.00     0.040 C 
ATOM     11  O   UNL     1     -10.290   6.924   9.278  1.00  0.00    -0.272 OA
BRANCH   6  12
ATOM     12  O   UNL     1      -8.655  10.197   7.185  1.00  0.00    -0.373 OA
ATOM     13  H   UNL     1      -7.886  10.111   6.582  1.00  0.00     0.213 HD
ENDBRANCH   6  12
BRANCH   7  14
ATOM     14  C   UNL     1     -11.330   9.412   8.538  1.00  0.00     0.177 C 
BRANCH  14  15
ATOM     15  C   UNL     1     -10.955   9.831   9.973  1.00  0.00     0.038 C 
BRANCH  15  16
ATOM     16  C   UNL     1     -11.974   9.630  11.116  1.00  0.00    -0.015 C 
ATOM     17  C   UNL     1     -11.320   9.102  12.396  1.00  0.00     0.007 C 
ATOM     18  C   UNL     1     -13.052   8.629  10.680  1.00  0.00     0.007 C 
ENDBRANCH  15  16
ENDBRANCH  14  15
BRANCH  14  19
ATOM     19  C   UNL     1     -12.203  10.255   7.546  1.00  0.00     0.245 C 
ATOM     20  O   UNL     1     -11.963  11.473   7.486  1.00  0.00    -0.272 OA
BRANCH  19  21
ATOM     21  N   UNL     1     -13.276   9.744   6.837  1.00  0.00    -0.332 N 
ATOM     22  C   UNL     1     -13.424   8.363   6.413  1.00  0.00     0.147 C 
BRANCH  21  23
ATOM     23  C   UNL     1     -14.372  10.680   6.462  1.00  0.00     0.178 C 
BRANCH  23  24
ATOM     24  C   UNL     1     -14.607  10.822   4.945  1.00  0.00     0.070 C 
BRANCH  24  25
ATOM     25  C   UNL     1     -14.465  12.205   4.353  1.00  0.00    -0.045 A 
ATOM     26  C   UNL     1     -15.545  13.097   4.346  1.00  0.00     0.004 A 
ATOM     27  C   UNL     1     -13.244  12.615   3.796  1.00  0.00     0.004 A 
ATOM     28  C   UNL     1     -15.411  14.368   3.782  1.00  0.00     0.000 A 
ATOM     29  C   UNL     1     -13.111  13.885   3.234  1.00  0.00     0.000 A 
ATOM     30  C   UNL     1     -14.196  14.760   3.225  1.00  0.00     0.000 A 
ENDBRANCH  24  25
ENDBRANCH  23  24
BRANCH  23  31
ATOM     31  C   UNL     1     -15.654  10.476   7.304  1.00  0.00     0.243 C 
ATOM     32  O   UNL     1     -15.654  10.255   8.513  1.00  0.00    -0.273 OA
ATOM     33  N   UNL     1     -16.806  10.380   6.543  1.00  0.00    -0.341 N 
ATOM     34  H   UNL     1     -16.742  10.569   5.540  1.00  0.00     0.164 HD
BRANCH  33  35
ATOM     35  C   UNL     1     -18.119  10.070   7.116  1.00  0.00     0.194 C 
BRANCH  35  36
ATOM     36  C   UNL     1     -18.741   8.743   6.597  1.00  0.00     0.017 C 
ATOM     37  C   UNL     1     -19.588   8.060   7.685  1.00  0.00     0.010 C 
ATOM     38  C   UNL     1     -17.692   7.728   6.127  1.00  0.00     0.010 C 
ENDBRANCH  35  36
BRANCH  35  39
ATOM     39  C   UNL     1     -19.114  11.259   7.008  1.00  0.00     0.329 C 
ATOM     40  O   UNL     1     -19.942  11.382   6.113  1.00  0.00    -0.250 OA
BRANCH  39  41
ATOM     41  O   UNL     1     -19.024  12.112   8.074  1.00  0.00    -0.458 OA
BRANCH  41  42
ATOM     42  C   UNL     1     -19.962  13.214   8.094  1.00  0.00     0.205 CG0
ATOM     43  C   UNL     1     -19.191  14.473   7.703  1.00  0.00     0.056 C 
ATOM     44  G   UNL     1     -20.574  13.313   9.505  1.00  0.00     0.000 G0
ENDBRANCH  41  42
ENDBRANCH  39  41
ENDBRANCH  35  39
ENDBRANCH  33  35
ENDBRANCH  23  31
ENDBRANCH  21  23
ENDBRANCH  19  21
ENDBRANCH  14  19
ENDBRANCH   7  14
ENDBRANCH   2   5
BRANCH   3  45
ATOM     45  C   UNL     1      -5.995   4.753   9.344  1.00  0.00     0.171 C 
BRANCH  45  46
ATOM     46  N   UNL     1      -4.865   4.144   8.655  1.00  0.00    -0.342 N 
ATOM     47  C   UNL     1      -3.591   4.647   8.742  1.00  0.00     0.247 C 
ATOM     48  O   UNL     1      -3.297   5.600   9.464  1.00  0.00    -0.273 OA
ATOM     49  H   UNL     1      -5.054   3.318   8.090  1.00  0.00     0.164 HD
BRANCH  47  50
ATOM     50  C   UNL     1      -2.554   3.949   7.850  1.00  0.00     0.212 CG0
ATOM     51  G   UNL     1      -1.297   3.696   8.705  1.00  0.00     0.000 G0
BRANCH  50  52
ATOM     52  N   UNL     1      -3.198   2.721   7.392  1.00  0.00    -0.339 N 
ATOM     53  C   UNL     1      -3.003   2.187   6.141  1.00  0.00     0.243 C 
ATOM     54  O   UNL     1      -2.309   2.734   5.289  1.00  0.00    -0.273 OA
ATOM     55  H   UNL     1      -3.872   2.280   8.014  1.00  0.00     0.164 HD
BRANCH  53  56
ATOM     56  C   UNL     1      -3.855   0.934   5.854  1.00  0.00     0.182 C 
BRANCH  56  57
ATOM     57  N   UNL     1      -4.502   1.027   4.541  1.00  0.00    -0.344 N 
ATOM     58  C   UNL     1      -4.498  -0.013   3.644  1.00  0.00     0.220 C 
ATOM     59  O   UNL     1      -3.895  -1.062   3.846  1.00  0.00    -0.275 OA
ATOM     60  H   UNL     1      -5.096   1.835   4.377  1.00  0.00     0.164 HD
BRANCH  58  61
ATOM     61  C   UNL     1      -5.277   0.284   2.376  1.00  0.00     0.100 C 
BRANCH  61  62
ATOM     62  C   UNL     1      -4.419   0.847   1.244  1.00  0.00     0.010 C 
BRANCH  62  63
ATOM     63  C   UNL     1      -4.346  -0.053   0.004  1.00  0.00     0.000 C 
BRANCH  63  64
ATOM     64  C   UNL     1      -5.391   0.265  -1.064  1.00  0.00    -0.003 C 
ATOM     65  C   UNL     1      -6.328  -0.912  -1.293  1.00  0.00     0.004 C 
ENDBRANCH  63  64
ENDBRANCH  62  63
ENDBRANCH  61  62
ENDBRANCH  58  61
ENDBRANCH  56  57
BRANCH  56  66
ATOM     66  C   UNL     1      -4.860   0.672   6.975  1.00  0.00     0.157 C 
BRANCH  66  67
ATOM     67  C   UNL     1      -4.988  -0.798   7.257  1.00  0.00     0.305 C 
ATOM     68  O   UNL     1      -4.562  -1.396   8.233  1.00  0.00    -0.252 OA
BRANCH  67  69
ATOM     69  O   UNL     1      -5.700  -1.441   6.312  1.00  0.00    -0.481 OA
ATOM     70  H   UNL     1      -6.540  -1.685   6.754  1.00  0.00     0.296 HD
ENDBRANCH  67  69
ENDBRANCH  66  67
ENDBRANCH  56  66
ENDBRANCH  53  56
ENDBRANCH  50  52
ENDBRANCH  47  50
ENDBRANCH  45  46
BRANCH  45  71
ATOM     71  C   UNL     1      -6.629   3.789  10.352  1.00  0.00     0.037 C 
BRANCH  71  72
ATOM     72  C   UNL     1      -5.712   2.606  10.673  1.00  0.00     0.026 C 
BRANCH  72  73
ATOM     73  C   UNL     1      -6.326   1.692  11.732  1.00  0.00     0.146 C 
BRANCH  73  74
ATOM     74  N   UNL     1      -6.069   0.312  11.334  1.00  0.00    -0.254 NA
ATOM     75  C   UNL     1      -7.007  -0.324  10.735  1.00  0.00     0.185 C 
ATOM     76  N   UNL     1      -6.800  -1.595  10.355  1.00  0.00    -0.370 N 
ATOM     77  N   UNL     1      -8.238   0.102  10.404  1.00  0.00    -0.370 N 
ATOM     78  H   UNL     1      -5.899  -1.997  10.573  1.00  0.00     0.159 HD
ATOM     79  H   UNL     1      -7.529  -2.197  10.015  1.00  0.00     0.159 HD
ATOM     80  H   UNL     1      -8.533   1.041  10.624  1.00  0.00     0.159 HD
ATOM     81  H   UNL     1      -8.852  -0.452   9.829  1.00  0.00     0.159 HD
ENDBRANCH  73  74
ENDBRANCH  72  73
ENDBRANCH  71  72
ENDBRANCH  45  71
ENDBRANCH   3  45
TORSDOF 20
ENDMDL
MODEL 10
REMARK VINA RESULT:    -5.101      7.672     11.751
REMARK INTER + INTRA:         -20.587
REMARK INTER:                 -14.693
REMARK INTRA:                  -5.894
REMARK UNBOUND:                -5.944
REMARK SMILES CCCCCC(=O)N[C@H](CC(=O)O)C(=O)N[C@H]1C(=O)N[C@H](CCCN=C(N)N)C(=O)N[C@@H]2CC[C@H](O)N(C2=O)[C@@H](CC(C)C)C(=O)N(C)[C@@H](Cc2ccccc2)C(=O)N[C@H](C(C)C)C(=O)O[C@@H]1C
REMARK SMILES IDX 30 1 31 2 29 3 32 5 35 6 37 7 34 8 38 9 33 10 39 11 36 12
REMARK SMILES IDX 40 14 41 15 42 16 43 17 44 18 45 19 46 20 47 21 48 22 49 23
REMARK SMILES IDX 50 24 51 25 52 26 56 27 53 28 55 29 54 30 57 31 58 32 59 33
REMARK SMILES IDX 60 35 61 36 62 37 63 38 64 39 65 40 66 41 67 42 68 43 21 45
REMARK SMILES IDX 20 46 18 47 19 48 17 50 16 52 14 53 15 54 9 56 8 57 6 58
REMARK SMILES IDX 7 59 5 61 4 62 3 63 2 64 1 65 10 66 11 67 12 68 13 69 22 71
REMARK SMILES IDX 23 72 24 73 25 74 26 75 27 76 28 77
REMARK H PARENT 31 4 36 13 59 34 20 49 16 55 8 60 13 70 27 78 27 79 28 80
REMARK H PARENT 28 81
REMARK Flexibility Score:  259.900
ROOT
ATOM      1  O   UNL     1      -7.363  10.982  -1.637  1.00  0.00    -0.273 OA
ATOM      2  N   UNL     1      -5.835  12.660  -1.353  1.00  0.00    -0.343 N 
ATOM      3  C   UNL     1      -6.906  12.070  -1.989  1.00  0.00     0.243 C 
ATOM      4  H   UNL     1      -5.495  13.563  -1.661  1.00  0.00     0.164 HD
ENDROOT
BRANCH   2   5
ATOM      5  C   UNL     1      -5.117  11.953  -0.298  1.00  0.00     0.171 C 
ATOM      6  C   UNL     1      -3.652  12.864   2.032  1.00  0.00     0.214 C 
ATOM      7  N   UNL     1      -2.951  12.669   0.784  1.00  0.00    -0.303 N 
ATOM      8  C   UNL     1      -4.846  11.939   2.202  1.00  0.00     0.057 C 
ATOM      9  C   UNL     1      -3.599  12.285  -0.379  1.00  0.00     0.247 C 
ATOM     10  C   UNL     1      -5.811  12.131   1.052  1.00  0.00     0.040 C 
ATOM     11  O   UNL     1      -3.008  12.204  -1.464  1.00  0.00    -0.272 OA
BRANCH   6  12
ATOM     12  O   UNL     1      -4.059  14.211   2.091  1.00  0.00    -0.373 OA
ATOM     13  H   UNL     1      -5.030  14.212   2.234  1.00  0.00     0.213 HD
ENDBRANCH   6  12
BRANCH   7  14
ATOM     14  C   UNL     1      -1.521  13.041   0.753  1.00  0.00     0.177 C 
BRANCH  14  15
ATOM     15  C   UNL     1      -1.225  14.470   0.259  1.00  0.00     0.038 C 
BRANCH  15  16
ATOM     16  C   UNL     1      -1.099  14.742  -1.256  1.00  0.00    -0.015 C 
ATOM     17  C   UNL     1       0.019  13.921  -1.906  1.00  0.00     0.007 C 
ATOM     18  C   UNL     1      -0.804  16.228  -1.494  1.00  0.00     0.007 C 
ENDBRANCH  15  16
ENDBRANCH  14  15
BRANCH  14  19
ATOM     19  C   UNL     1      -0.740  12.293   1.888  1.00  0.00     0.245 C 
ATOM     20  O   UNL     1      -0.641  11.060   1.780  1.00  0.00    -0.272 OA
BRANCH  19  21
ATOM     21  N   UNL     1      -0.267  12.909   3.033  1.00  0.00    -0.332 N 
ATOM     22  C   UNL     1      -1.065  13.694   3.959  1.00  0.00     0.147 C 
BRANCH  21  23
ATOM     23  C   UNL     1       1.182  12.774   3.348  1.00  0.00     0.178 C 
BRANCH  23  24
ATOM     24  C   UNL     1       1.951  14.108   3.438  1.00  0.00     0.070 C 
BRANCH  24  25
ATOM     25  C   UNL     1       2.166  14.866   2.149  1.00  0.00    -0.045 A 
ATOM     26  C   UNL     1       2.739  14.239   1.035  1.00  0.00     0.004 A 
ATOM     27  C   UNL     1       1.797  16.216   2.052  1.00  0.00     0.004 A 
ATOM     28  C   UNL     1       2.950  14.952  -0.148  1.00  0.00     0.000 A 
ATOM     29  C   UNL     1       2.007  16.927   0.869  1.00  0.00     0.000 A 
ATOM     30  C   UNL     1       2.586  16.295  -0.229  1.00  0.00     0.000 A 
ENDBRANCH  24  25
ENDBRANCH  23  24
BRANCH  23  31
ATOM     31  C   UNL     1       1.458  11.784   4.505  1.00  0.00     0.243 C 
ATOM     32  O   UNL     1       0.920  11.848   5.607  1.00  0.00    -0.273 OA
ATOM     33  N   UNL     1       2.510  10.919   4.254  1.00  0.00    -0.341 N 
ATOM     34  H   UNL     1       2.922  10.915   3.317  1.00  0.00     0.164 HD
BRANCH  33  35
ATOM     35  C   UNL     1       3.024   9.976   5.251  1.00  0.00     0.194 C 
BRANCH  35  36
ATOM     36  C   UNL     1       4.054  10.595   6.238  1.00  0.00     0.017 C 
ATOM     37  C   UNL     1       5.495  10.227   5.846  1.00  0.00     0.010 C 
ATOM     38  C   UNL     1       3.844  10.147   7.689  1.00  0.00     0.010 C 
ENDBRANCH  35  36
BRANCH  35  39
ATOM     39  C   UNL     1       3.550   8.660   4.613  1.00  0.00     0.329 C 
ATOM     40  O   UNL     1       4.065   8.593   3.503  1.00  0.00    -0.250 OA
BRANCH  39  41
ATOM     41  O   UNL     1       3.454   7.595   5.466  1.00  0.00    -0.458 OA
BRANCH  41  42
ATOM     42  C   UNL     1       4.481   6.582   5.344  1.00  0.00     0.205 CG0
ATOM     43  C   UNL     1       3.867   5.257   5.791  1.00  0.00     0.056 C 
ATOM     44  G   UNL     1       5.686   6.996   6.213  1.00  0.00     0.000 G0
ENDBRANCH  41  42
ENDBRANCH  39  41
ENDBRANCH  35  39
ENDBRANCH  33  35
ENDBRANCH  23  31
ENDBRANCH  21  23
ENDBRANCH  19  21
ENDBRANCH  14  19
ENDBRANCH   7  14
ENDBRANCH   2   5
BRANCH   3  45
ATOM     45  C   UNL     1      -7.502  12.873  -3.153  1.00  0.00     0.171 C 
BRANCH  45  46
ATOM     46  N   UNL     1      -8.882  12.423  -3.276  1.00  0.00    -0.342 N 
ATOM     47  C   UNL     1      -9.945  13.185  -2.862  1.00  0.00     0.247 C 
ATOM     48  O   UNL     1      -9.817  14.330  -2.426  1.00  0.00    -0.273 OA
ATOM     49  H   UNL     1      -9.037  11.503  -3.684  1.00  0.00     0.164 HD
BRANCH  47  50
ATOM     50  C   UNL     1     -11.315  12.497  -2.955  1.00  0.00     0.212 CG0
ATOM     51  G   UNL     1     -12.107  13.183  -4.086  1.00  0.00     0.000 G0
BRANCH  50  52
ATOM     52  N   UNL     1     -11.026  11.090  -3.223  1.00  0.00    -0.339 N 
ATOM     53  C   UNL     1     -11.696  10.053  -2.621  1.00  0.00     0.243 C 
ATOM     54  O   UNL     1     -12.559  10.231  -1.766  1.00  0.00    -0.273 OA
ATOM     55  H   UNL     1     -10.245  10.878  -3.841  1.00  0.00     0.164 HD
BRANCH  53  56
ATOM     56  C   UNL     1     -11.158   8.657  -2.996  1.00  0.00     0.182 C 
BRANCH  56  57
ATOM     57  N   UNL     1     -11.086   7.787  -1.818  1.00  0.00    -0.344 N 
ATOM     58  C   UNL     1     -11.890   6.683  -1.668  1.00  0.00     0.220 C 
ATOM     59  O   UNL     1     -12.770   6.390  -2.470  1.00  0.00    -0.275 OA
ATOM     60  H   UNL     1     -10.306   7.935  -1.183  1.00  0.00     0.164 HD
BRANCH  58  61
ATOM     61  C   UNL     1     -11.602   5.897  -0.402  1.00  0.00     0.100 C 
BRANCH  61  62
ATOM     62  C   UNL     1     -10.433   6.449   0.414  1.00  0.00     0.010 C 
BRANCH  62  63
ATOM     63  C   UNL     1      -9.175   5.573   0.379  1.00  0.00     0.000 C 
BRANCH  63  64
ATOM     64  C   UNL     1      -7.864   6.356   0.433  1.00  0.00    -0.003 C 
ATOM     65  C   UNL     1      -8.103   7.850   0.270  1.00  0.00     0.004 C 
ENDBRANCH  63  64
ENDBRANCH  62  63
ENDBRANCH  61  62
ENDBRANCH  58  61
ENDBRANCH  56  57
BRANCH  56  66
ATOM     66  C   UNL     1      -9.820   8.750  -3.727  1.00  0.00     0.157 C 
BRANCH  66  67
ATOM     67  C   UNL     1      -9.571   7.528  -4.563  1.00  0.00     0.305 C 
ATOM     68  O   UNL     1      -9.816   6.370  -4.260  1.00  0.00    -0.252 OA
BRANCH  67  69
ATOM     69  O   UNL     1      -9.069   7.831  -5.775  1.00  0.00    -0.481 OA
ATOM     70  H   UNL     1      -8.612   8.689  -5.649  1.00  0.00     0.296 HD
ENDBRANCH  67  69
ENDBRANCH  66  67
ENDBRANCH  56  66
ENDBRANCH  53  56
ENDBRANCH  50  52
ENDBRANCH  47  50
ENDBRANCH  45  46
BRANCH  45  71
ATOM     71  C   UNL     1      -6.708  12.620  -4.439  1.00  0.00     0.037 C 
BRANCH  71  72
ATOM     72  C   UNL     1      -7.112  11.308  -5.116  1.00  0.00     0.026 C 
BRANCH  72  73
ATOM     73  C   UNL     1      -5.919  10.367  -5.272  1.00  0.00     0.146 C 
BRANCH  73  74
ATOM     74  N   UNL     1      -6.425   8.998  -5.258  1.00  0.00    -0.254 NA
ATOM     75  C   UNL     1      -5.690   8.082  -5.773  1.00  0.00     0.185 C 
ATOM     76  N   UNL     1      -6.128   6.813  -5.775  1.00  0.00    -0.370 N 
ATOM     77  N   UNL     1      -4.479   8.194  -6.346  1.00  0.00    -0.370 N 
ATOM     78  H   UNL     1      -7.036   6.642  -5.368  1.00  0.00     0.159 HD
ATOM     79  H   UNL     1      -5.678   6.073  -6.284  1.00  0.00     0.159 HD
ATOM     80  H   UNL     1      -4.023   9.091  -6.412  1.00  0.00     0.159 HD
ATOM     81  H   UNL     1      -3.944   7.384  -6.614  1.00  0.00     0.159 HD
ENDBRANCH  73  74
ENDBRANCH  72  73
ENDBRANCH  71  72
ENDBRANCH  45  71
ENDBRANCH   3  45
TORSDOF 20
ENDMDL
